MODEL 1
REMARK VINA RESULT:    -5.175      0.000      0.000
REMARK INTER + INTRA:          -6.334
REMARK INTER:                  -6.082
REMARK INTRA:                  -0.252
REMARK UNBOUND:                -0.252
REMARK SMILES O=c1c(O)c(-c2ccc(O)cc2)oc2cc(O)cc(O)c12
REMARK SMILES IDX 5 1 3 2 2 3 1 4 21 5 19 6 18 7 16 8 15 9 14 10 13 11 6 12
REMARK SMILES IDX 7 13 8 14 9 15 12 16 11 17 10 18 4 20 20 22 17 24
REMARK H PARENT 10 19 4 21 20 23 17 25
REMARK Flexibility Score: inf
ROOT
ATOM      1  C   UNL     1     133.099 138.133 137.580  1.00  0.00     0.180 A 
ATOM      2  C   UNL     1     134.217 138.582 136.855  1.00  0.00     0.208 A 
ATOM      3  C   UNL     1     135.487 138.512 137.449  1.00  0.00     0.238 A 
ATOM      4  O   UNL     1     136.476 138.965 136.817  1.00  0.00    -0.285 OA
ATOM      5  C   UNL     1     135.626 137.978 138.754  1.00  0.00     0.111 A 
ATOM      6  C   UNL     1     136.869 137.822 139.437  1.00  0.00     0.134 A 
ATOM      7  C   UNL     1     136.875 137.405 140.774  1.00  0.00     0.093 A 
ATOM      8  C   UNL     1     135.690 137.076 141.430  1.00  0.00     0.123 A 
ATOM      9  C   UNL     1     134.474 137.168 140.753  1.00  0.00     0.094 A 
ATOM     10  C   UNL     1     134.432 137.616 139.431  1.00  0.00     0.146 A 
ATOM     11  O   UNL     1     133.254 137.699 138.826  1.00  0.00    -0.452 OA
ENDROOT
BRANCH   1  12
ATOM     12  C   UNL     1     131.732 138.152 137.011  1.00  0.00     0.021 A 
ATOM     13  C   UNL     1     131.319 137.199 136.062  1.00  0.00     0.016 A 
ATOM     14  C   UNL     1     130.015 137.222 135.558  1.00  0.00     0.047 A 
ATOM     15  C   UNL     1     129.105 138.185 136.003  1.00  0.00     0.115 A 
ATOM     16  C   UNL     1     130.805 139.103 137.470  1.00  0.00     0.016 A 
ATOM     17  C   UNL     1     129.502 139.125 136.964  1.00  0.00     0.047 A 
BRANCH  15  18
ATOM     18  O   UNL     1     127.810 138.197 135.490  1.00  0.00    -0.508 OA
ATOM     19  H   UNL     1     127.010 138.403 136.078  1.00  0.00     0.293 HD
ENDBRANCH  15  18
ENDBRANCH   1  12
BRANCH   2  20
ATOM     20  O   UNL     1     134.054 139.125 135.577  1.00  0.00    -0.502 OA
ATOM     21  H   UNL     1     133.694 140.060 135.425  1.00  0.00     0.293 HD
ENDBRANCH   2  20
BRANCH   6  22
ATOM     22  O   UNL     1     138.118 138.035 138.844  1.00  0.00    -0.507 OA
ATOM     23  H   UNL     1     138.793 137.312 138.652  1.00  0.00     0.293 HD
ENDBRANCH   6  22
BRANCH   8  24
ATOM     24  O   UNL     1     135.735 136.650 142.756  1.00  0.00    -0.508 OA
ATOM     25  H   UNL     1     134.920 136.260 143.215  1.00  0.00     0.293 HD
ENDBRANCH   8  24
TORSDOF 5
ENDMDL
MODEL 2
REMARK VINA RESULT:    -5.116     14.321     18.848
REMARK INTER + INTRA:          -6.265
REMARK INTER:                  -6.000
REMARK INTRA:                  -0.266
REMARK UNBOUND:                -0.252
REMARK SMILES O=c1c(O)c(-c2ccc(O)cc2)oc2cc(O)cc(O)c12
REMARK SMILES IDX 5 1 3 2 2 3 1 4 21 5 19 6 18 7 16 8 15 9 14 10 13 11 6 12
REMARK SMILES IDX 7 13 8 14 9 15 12 16 11 17 10 18 4 20 20 22 17 24
REMARK H PARENT 10 19 4 21 20 23 17 25
REMARK Flexibility Score: inf
ROOT
ATOM      1  C   UNL     1     122.240 128.054 129.642  1.00  0.00     0.180 A 
ATOM      2  C   UNL     1     120.908 128.489 129.751  1.00  0.00     0.208 A 
ATOM      3  C   UNL     1     119.878 127.535 129.756  1.00  0.00     0.238 A 
ATOM      4  O   UNL     1     118.685 127.934 129.800  1.00  0.00    -0.285 OA
ATOM      5  C   UNL     1     120.193 126.157 129.669  1.00  0.00     0.111 A 
ATOM      6  C   UNL     1     119.233 125.102 129.705  1.00  0.00     0.134 A 
ATOM      7  C   UNL     1     119.646 123.783 129.479  1.00  0.00     0.093 A 
ATOM      8  C   UNL     1     120.991 123.474 129.283  1.00  0.00     0.123 A 
ATOM      9  C   UNL     1     121.946 124.491 129.305  1.00  0.00     0.094 A 
ATOM     10  C   UNL     1     121.561 125.821 129.492  1.00  0.00     0.146 A 
ATOM     11  O   UNL     1     122.499 126.759 129.495  1.00  0.00    -0.452 OA
ENDROOT
BRANCH   1  12
ATOM     12  C   UNL     1     123.381 128.997 129.655  1.00  0.00     0.021 A 
ATOM     13  C   UNL     1     124.140 129.214 130.820  1.00  0.00     0.016 A 
ATOM     14  C   UNL     1     125.228 130.092 130.802  1.00  0.00     0.047 A 
ATOM     15  C   UNL     1     125.580 130.752 129.621  1.00  0.00     0.115 A 
ATOM     16  C   UNL     1     123.755 129.648 128.467  1.00  0.00     0.016 A 
ATOM     17  C   UNL     1     124.843 130.526 128.452  1.00  0.00     0.047 A 
BRANCH  15  18
ATOM     18  O   UNL     1     126.666 131.625 129.619  1.00  0.00    -0.508 OA
ATOM     19  H   UNL     1     127.534 131.391 130.087  1.00  0.00     0.293 HD
ENDBRANCH  15  18
ENDBRANCH   1  12
BRANCH   2  20
ATOM     20  O   UNL     1     120.618 129.855 129.815  1.00  0.00    -0.502 OA
ATOM     21  H   UNL     1     120.706 130.467 129.013  1.00  0.00     0.293 HD
ENDBRANCH   2  20
BRANCH   6  22
ATOM     22  O   UNL     1     117.875 125.292 129.985  1.00  0.00    -0.507 OA
ATOM     23  H   UNL     1     117.483 126.129 130.386  1.00  0.00     0.293 HD
ENDBRANCH   6  22
BRANCH   8  24
ATOM     24  O   UNL     1     121.368 122.149 129.077  1.00  0.00    -0.508 OA
ATOM     25  H   UNL     1     121.733 121.579 129.831  1.00  0.00     0.293 HD
ENDBRANCH   8  24
TORSDOF 5
ENDMDL
MODEL 3
REMARK VINA RESULT:    -4.900      3.124      5.140
REMARK INTER + INTRA:          -6.011
REMARK INTER:                  -5.714
REMARK INTRA:                  -0.297
REMARK UNBOUND:                -0.252
REMARK SMILES O=c1c(O)c(-c2ccc(O)cc2)oc2cc(O)cc(O)c12
REMARK SMILES IDX 5 1 3 2 2 3 1 4 21 5 19 6 18 7 16 8 15 9 14 10 13 11 6 12
REMARK SMILES IDX 7 13 8 14 9 15 12 16 11 17 10 18 4 20 20 22 17 24
REMARK H PARENT 10 19 4 21 20 23 17 25
REMARK Flexibility Score: inf
ROOT
ATOM      1  C   UNL     1     136.171 137.822 136.709  1.00  0.00     0.180 A 
ATOM      2  C   UNL     1     134.981 138.401 137.182  1.00  0.00     0.208 A 
ATOM      3  C   UNL     1     134.641 138.253 138.536  1.00  0.00     0.238 A 
ATOM      4  O   UNL     1     133.548 138.727 138.940  1.00  0.00    -0.285 OA
ATOM      5  C   UNL     1     135.505 137.542 139.405  1.00  0.00     0.111 A 
ATOM      6  C   UNL     1     135.281 137.364 140.802  1.00  0.00     0.134 A 
ATOM      7  C   UNL     1     136.134 136.532 141.539  1.00  0.00     0.093 A 
ATOM      8  C   UNL     1     137.238 135.925 140.942  1.00  0.00     0.123 A 
ATOM      9  C   UNL     1     137.501 136.140 139.589  1.00  0.00     0.094 A 
ATOM     10  C   UNL     1     136.648 136.935 138.820  1.00  0.00     0.146 A 
ATOM     11  O   UNL     1     136.927 137.106 137.534  1.00  0.00    -0.452 OA
ENDROOT
BRANCH   1  12
ATOM     12  C   UNL     1     136.609 137.957 135.301  1.00  0.00     0.021 A 
ATOM     13  C   UNL     1     137.415 139.032 134.883  1.00  0.00     0.016 A 
ATOM     14  C   UNL     1     137.836 139.125 133.553  1.00  0.00     0.047 A 
ATOM     15  C   UNL     1     137.470 138.143 132.628  1.00  0.00     0.115 A 
ATOM     16  C   UNL     1     136.263 136.962 134.370  1.00  0.00     0.016 A 
ATOM     17  C   UNL     1     136.684 137.058 133.041  1.00  0.00     0.047 A 
BRANCH  15  18
ATOM     18  O   UNL     1     137.895 138.250 131.306  1.00  0.00    -0.508 OA
ATOM     19  H   UNL     1     137.530 138.967 130.689  1.00  0.00     0.293 HD
ENDBRANCH  15  18
ENDBRANCH   1  12
BRANCH   2  20
ATOM     20  O   UNL     1     134.132 139.080 136.302  1.00  0.00    -0.502 OA
ATOM     21  H   UNL     1     133.701 138.628 135.505  1.00  0.00     0.293 HD
ENDBRANCH   2  20
BRANCH   6  22
ATOM     22  O   UNL     1     134.259 137.999 141.516  1.00  0.00    -0.507 OA
ATOM     23  H   UNL     1     134.202 138.043 142.521  1.00  0.00     0.293 HD
ENDBRANCH   6  22
BRANCH   8  24
ATOM     24  O   UNL     1     138.074 135.116 141.709  1.00  0.00    -0.508 OA
ATOM     25  H   UNL     1     138.566 134.328 141.303  1.00  0.00     0.293 HD
ENDBRANCH   8  24
TORSDOF 5
ENDMDL
MODEL 4
REMARK VINA RESULT:    -4.888      4.590      7.119
REMARK INTER + INTRA:          -5.997
REMARK INTER:                  -5.750
REMARK INTRA:                  -0.247
REMARK UNBOUND:                -0.252
REMARK SMILES O=c1c(O)c(-c2ccc(O)cc2)oc2cc(O)cc(O)c12
REMARK SMILES IDX 5 1 3 2 2 3 1 4 21 5 19 6 18 7 16 8 15 9 14 10 13 11 6 12
REMARK SMILES IDX 7 13 8 14 9 15 12 16 11 17 10 18 4 20 20 22 17 24
REMARK H PARENT 10 19 4 21 20 23 17 25
REMARK Flexibility Score: inf
ROOT
ATOM      1  C   UNL     1     137.070 136.530 137.543  1.00  0.00     0.180 A 
ATOM      2  C   UNL     1     137.579 137.766 137.108  1.00  0.00     0.208 A 
ATOM      3  C   UNL     1     137.618 138.040 135.732  1.00  0.00     0.238 A 
ATOM      4  O   UNL     1     138.125 139.125 135.346  1.00  0.00    -0.285 OA
ATOM      5  C   UNL     1     137.131 137.083 134.808  1.00  0.00     0.111 A 
ATOM      6  C   UNL     1     137.084 137.271 133.395  1.00  0.00     0.134 A 
ATOM      7  C   UNL     1     136.703 136.207 132.568  1.00  0.00     0.093 A 
ATOM      8  C   UNL     1     136.307 134.984 133.107  1.00  0.00     0.123 A 
ATOM      9  C   UNL     1     136.292 134.808 134.491  1.00  0.00     0.094 A 
ATOM     10  C   UNL     1     136.700 135.839 135.340  1.00  0.00     0.146 A 
ATOM     11  O   UNL     1     136.681 135.627 136.650  1.00  0.00    -0.452 OA
ENDROOT
BRANCH   1  12
ATOM     12  C   UNL     1     136.973 136.179 138.979  1.00  0.00     0.021 A 
ATOM     13  C   UNL     1     135.744 136.216 139.662  1.00  0.00     0.016 A 
ATOM     14  C   UNL     1     135.674 135.856 141.012  1.00  0.00     0.047 A 
ATOM     15  C   UNL     1     136.824 135.444 141.691  1.00  0.00     0.115 A 
ATOM     16  C   UNL     1     138.120 135.741 139.663  1.00  0.00     0.016 A 
ATOM     17  C   UNL     1     138.048 135.383 141.012  1.00  0.00     0.047 A 
BRANCH  15  18
ATOM     18  O   UNL     1     136.739 135.090 143.035  1.00  0.00    -0.508 OA
ATOM     19  H   UNL     1     137.220 135.619 143.754  1.00  0.00     0.293 HD
ENDBRANCH  15  18
ENDBRANCH   1  12
BRANCH   2  20
ATOM     20  O   UNL     1     138.075 138.687 138.035  1.00  0.00    -0.502 OA
ATOM     21  H   UNL     1     139.064 138.882 138.133  1.00  0.00     0.293 HD
ENDBRANCH   2  20
BRANCH   6  22
ATOM     22  O   UNL     1     137.371 138.484 132.759  1.00  0.00    -0.507 OA
ATOM     23  H   UNL     1     136.717 139.008 132.200  1.00  0.00     0.293 HD
ENDBRANCH   6  22
BRANCH   8  24
ATOM     24  O   UNL     1     135.920 133.951 132.255  1.00  0.00    -0.508 OA
ATOM     25  H   UNL     1     135.681 133.032 132.610  1.00  0.00     0.293 HD
ENDBRANCH   8  24
TORSDOF 5
ENDMDL
MODEL 5
REMARK VINA RESULT:    -4.887     15.455     20.056
REMARK INTER + INTRA:          -5.996
REMARK INTER:                  -5.716
REMARK INTRA:                  -0.280
REMARK UNBOUND:                -0.252
REMARK SMILES O=c1c(O)c(-c2ccc(O)cc2)oc2cc(O)cc(O)c12
REMARK SMILES IDX 5 1 3 2 2 3 1 4 21 5 19 6 18 7 16 8 15 9 14 10 13 11 6 12
REMARK SMILES IDX 7 13 8 14 9 15 12 16 11 17 10 18 4 20 20 22 17 24
REMARK H PARENT 10 19 4 21 20 23 17 25
REMARK Flexibility Score: inf
ROOT
ATOM      1  C   UNL     1     122.673 125.981 129.331  1.00  0.00     0.180 A 
ATOM      2  C   UNL     1     122.149 124.702 129.587  1.00  0.00     0.208 A 
ATOM      3  C   UNL     1     120.833 124.414 129.193  1.00  0.00     0.238 A 
ATOM      4  O   UNL     1     120.351 123.286 129.474  1.00  0.00    -0.285 OA
ATOM      5  C   UNL     1     120.062 125.402 128.533  1.00  0.00     0.111 A 
ATOM      6  C   UNL     1     118.733 125.207 128.053  1.00  0.00     0.134 A 
ATOM      7  C   UNL     1     118.020 126.294 127.532  1.00  0.00     0.093 A 
ATOM      8  C   UNL     1     118.610 127.551 127.413  1.00  0.00     0.123 A 
ATOM      9  C   UNL     1     119.930 127.739 127.823  1.00  0.00     0.094 A 
ATOM     10  C   UNL     1     120.655 126.684 128.381  1.00  0.00     0.146 A 
ATOM     11  O   UNL     1     121.904 126.907 128.769  1.00  0.00    -0.452 OA
ENDROOT
BRANCH   1  12
ATOM     12  C   UNL     1     124.061 126.351 129.694  1.00  0.00     0.021 A 
ATOM     13  C   UNL     1     125.105 126.294 128.753  1.00  0.00     0.016 A 
ATOM     14  C   UNL     1     126.402 126.672 129.113  1.00  0.00     0.047 A 
ATOM     15  C   UNL     1     126.671 127.123 130.408  1.00  0.00     0.115 A 
ATOM     16  C   UNL     1     124.334 126.827 130.988  1.00  0.00     0.016 A 
ATOM     17  C   UNL     1     125.632 127.203 131.345  1.00  0.00     0.047 A 
BRANCH  15  18
ATOM     18  O   UNL     1     127.968 127.494 130.752  1.00  0.00    -0.508 OA
ATOM     19  H   UNL     1     128.162 128.023 131.596  1.00  0.00     0.293 HD
ENDBRANCH  15  18
ENDBRANCH   1  12
BRANCH   2  20
ATOM     20  O   UNL     1     122.919 123.749 130.260  1.00  0.00    -0.502 OA
ATOM     21  H   UNL     1     122.898 123.646 131.267  1.00  0.00     0.293 HD
ENDBRANCH   2  20
BRANCH   6  22
ATOM     22  O   UNL     1     118.082 123.969 128.040  1.00  0.00    -0.507 OA
ATOM     23  H   UNL     1     118.271 123.214 128.680  1.00  0.00     0.293 HD
ENDBRANCH   6  22
BRANCH   8  24
ATOM     24  O   UNL     1     117.876 128.606 126.875  1.00  0.00    -0.508 OA
ATOM     25  H   UNL     1     118.009 128.910 125.917  1.00  0.00     0.293 HD
ENDBRANCH   8  24
TORSDOF 5
ENDMDL
MODEL 6
REMARK VINA RESULT:    -4.735      2.332      7.346
REMARK INTER + INTRA:          -5.817
REMARK INTER:                  -5.527
REMARK INTRA:                  -0.290
REMARK UNBOUND:                -0.252
REMARK SMILES O=c1c(O)c(-c2ccc(O)cc2)oc2cc(O)cc(O)c12
REMARK SMILES IDX 5 1 3 2 2 3 1 4 21 5 19 6 18 7 16 8 15 9 14 10 13 11 6 12
REMARK SMILES IDX 7 13 8 14 9 15 12 16 11 17 10 18 4 20 20 22 17 24
REMARK H PARENT 10 19 4 21 20 23 17 25
REMARK Flexibility Score: inf
ROOT
ATOM      1  C   UNL     1     132.843 136.849 136.598  1.00  0.00     0.180 A 
ATOM      2  C   UNL     1     132.082 137.939 137.053  1.00  0.00     0.208 A 
ATOM      3  C   UNL     1     130.781 138.117 136.558  1.00  0.00     0.238 A 
ATOM      4  O   UNL     1     130.126 139.125 136.928  1.00  0.00    -0.285 OA
ATOM      5  C   UNL     1     130.249 137.192 135.626  1.00  0.00     0.111 A 
ATOM      6  C   UNL     1     128.929 137.251 135.089  1.00  0.00     0.134 A 
ATOM      7  C   UNL     1     128.554 136.359 134.076  1.00  0.00     0.093 A 
ATOM      8  C   UNL     1     129.429 135.370 133.628  1.00  0.00     0.123 A 
ATOM      9  C   UNL     1     130.702 135.266 134.189  1.00  0.00     0.094 A 
ATOM     10  C   UNL     1     131.118 136.163 135.175  1.00  0.00     0.146 A 
ATOM     11  O   UNL     1     132.341 136.036 135.674  1.00  0.00    -0.452 OA
ENDROOT
BRANCH   1  12
ATOM     12  C   UNL     1     134.213 136.581 137.093  1.00  0.00     0.021 A 
ATOM     13  C   UNL     1     134.436 135.886 138.295  1.00  0.00     0.016 A 
ATOM     14  C   UNL     1     135.739 135.625 138.730  1.00  0.00     0.047 A 
ATOM     15  C   UNL     1     136.833 136.040 137.966  1.00  0.00     0.115 A 
ATOM     16  C   UNL     1     135.318 136.976 136.319  1.00  0.00     0.016 A 
ATOM     17  C   UNL     1     136.619 136.714 136.756  1.00  0.00     0.047 A 
BRANCH  15  18
ATOM     18  O   UNL     1     138.125 135.774 138.412  1.00  0.00    -0.508 OA
ATOM     19  H   UNL     1     138.308 135.060 139.109  1.00  0.00     0.293 HD
ENDBRANCH  15  18
ENDBRANCH   1  12
BRANCH   2  20
ATOM     20  O   UNL     1     132.634 138.853 137.956  1.00  0.00    -0.502 OA
ATOM     21  H   UNL     1     132.954 138.580 138.878  1.00  0.00     0.293 HD
ENDBRANCH   2  20
BRANCH   6  22
ATOM     22  O   UNL     1     127.945 138.141 135.532  1.00  0.00    -0.507 OA
ATOM     23  H   UNL     1     127.211 138.520 134.954  1.00  0.00     0.293 HD
ENDBRANCH   6  22
BRANCH   8  24
ATOM     24  O   UNL     1     129.017 134.490 132.630  1.00  0.00    -0.508 OA
ATOM     25  H   UNL     1     128.800 133.521 132.834  1.00  0.00     0.293 HD
ENDBRANCH   8  24
TORSDOF 5
ENDMDL
MODEL 7
REMARK VINA RESULT:    -4.726      1.870      3.905
REMARK INTER + INTRA:          -5.807
REMARK INTER:                  -5.704
REMARK INTRA:                  -0.102
REMARK UNBOUND:                -0.252
REMARK SMILES O=c1c(O)c(-c2ccc(O)cc2)oc2cc(O)cc(O)c12
REMARK SMILES IDX 5 1 3 2 2 3 1 4 21 5 19 6 18 7 16 8 15 9 14 10 13 11 6 12
REMARK SMILES IDX 7 13 8 14 9 15 12 16 11 17 10 18 4 20 20 22 17 24
REMARK H PARENT 10 19 4 21 20 23 17 25
REMARK Flexibility Score: inf
ROOT
ATOM      1  C   UNL     1     132.973 137.918 136.591  1.00  0.00     0.180 A 
ATOM      2  C   UNL     1     133.524 137.896 137.884  1.00  0.00     0.208 A 
ATOM      3  C   UNL     1     134.888 138.184 138.048  1.00  0.00     0.238 A 
ATOM      4  O   UNL     1     135.386 138.109 139.201  1.00  0.00    -0.285 OA
ATOM      5  C   UNL     1     135.681 138.507 136.920  1.00  0.00     0.111 A 
ATOM      6  C   UNL     1     137.063 138.855 136.974  1.00  0.00     0.134 A 
ATOM      7  C   UNL     1     137.779 139.029 135.783  1.00  0.00     0.093 A 
ATOM      8  C   UNL     1     137.149 138.931 134.544  1.00  0.00     0.123 A 
ATOM      9  C   UNL     1     135.784 138.650 134.481  1.00  0.00     0.094 A 
ATOM     10  C   UNL     1     135.050 138.436 135.650  1.00  0.00     0.146 A 
ATOM     11  O   UNL     1     133.756 138.160 135.546  1.00  0.00    -0.452 OA
ENDROOT
BRANCH   1  12
ATOM     12  C   UNL     1     131.538 137.650 136.340  1.00  0.00     0.021 A 
ATOM     13  C   UNL     1     130.531 138.438 136.929  1.00  0.00     0.016 A 
ATOM     14  C   UNL     1     129.184 138.181 136.658  1.00  0.00     0.047 A 
ATOM     15  C   UNL     1     128.825 137.146 135.789  1.00  0.00     0.115 A 
ATOM     16  C   UNL     1     131.170 136.626 135.451  1.00  0.00     0.016 A 
ATOM     17  C   UNL     1     129.822 136.371 135.183  1.00  0.00     0.047 A 
BRANCH  15  18
ATOM     18  O   UNL     1     127.478 136.901 135.530  1.00  0.00    -0.508 OA
ATOM     19  H   UNL     1     126.748 137.470 135.943  1.00  0.00     0.293 HD
ENDBRANCH  15  18
ENDBRANCH   1  12
BRANCH   2  20
ATOM     20  O   UNL     1     132.728 137.553 138.981  1.00  0.00    -0.502 OA
ATOM     21  H   UNL     1     132.046 136.805 138.945  1.00  0.00     0.293 HD
ENDBRANCH   2  20
BRANCH   6  22
ATOM     22  O   UNL     1     137.768 139.069 138.163  1.00  0.00    -0.507 OA
ATOM     23  H   UNL     1     137.366 139.019 139.086  1.00  0.00     0.293 HD
ENDBRANCH   6  22
BRANCH   8  24
ATOM     24  O   UNL     1     137.889 139.125 133.380  1.00  0.00    -0.508 OA
ATOM     25  H   UNL     1     137.704 139.904 132.758  1.00  0.00     0.293 HD
ENDBRANCH   8  24
TORSDOF 5
ENDMDL
MODEL 8
REMARK VINA RESULT:    -4.669     14.313     18.832
REMARK INTER + INTRA:          -5.740
REMARK INTER:                  -5.485
REMARK INTRA:                  -0.256
REMARK UNBOUND:                -0.252
REMARK SMILES O=c1c(O)c(-c2ccc(O)cc2)oc2cc(O)cc(O)c12
REMARK SMILES IDX 5 1 3 2 2 3 1 4 21 5 19 6 18 7 16 8 15 9 14 10 13 11 6 12
REMARK SMILES IDX 7 13 8 14 9 15 12 16 11 17 10 18 4 20 20 22 17 24
REMARK H PARENT 10 19 4 21 20 23 17 25
REMARK Flexibility Score: inf
ROOT
ATOM      1  C   UNL     1     123.188 126.252 130.846  1.00  0.00     0.180 A 
ATOM      2  C   UNL     1     122.763 125.030 130.296  1.00  0.00     0.208 A 
ATOM      3  C   UNL     1     121.579 124.998 129.541  1.00  0.00     0.238 A 
ATOM      4  O   UNL     1     121.175 123.892 129.098  1.00  0.00    -0.285 OA
ATOM      5  C   UNL     1     120.845 126.191 129.332  1.00  0.00     0.111 A 
ATOM      6  C   UNL     1     119.655 126.283 128.551  1.00  0.00     0.134 A 
ATOM      7  C   UNL     1     118.940 127.487 128.519  1.00  0.00     0.093 A 
ATOM      8  C   UNL     1     119.407 128.618 129.187  1.00  0.00     0.123 A 
ATOM      9  C   UNL     1     120.601 128.556 129.905  1.00  0.00     0.094 A 
ATOM     10  C   UNL     1     121.318 127.360 129.985  1.00  0.00     0.146 A 
ATOM     11  O   UNL     1     122.444 127.340 130.687  1.00  0.00    -0.452 OA
ENDROOT
BRANCH   1  12
ATOM     12  C   UNL     1     124.439 126.370 131.631  1.00  0.00     0.021 A 
ATOM     13  C   UNL     1     125.699 126.388 131.006  1.00  0.00     0.016 A 
ATOM     14  C   UNL     1     126.864 126.525 131.767  1.00  0.00     0.047 A 
ATOM     15  C   UNL     1     126.786 126.657 133.156  1.00  0.00     0.115 A 
ATOM     16  C   UNL     1     124.367 126.526 133.026  1.00  0.00     0.016 A 
ATOM     17  C   UNL     1     125.534 126.661 133.785  1.00  0.00     0.047 A 
BRANCH  15  18
ATOM     18  O   UNL     1     127.955 126.791 133.901  1.00  0.00    -0.508 OA
ATOM     19  H   UNL     1     127.974 127.318 134.768  1.00  0.00     0.293 HD
ENDBRANCH  15  18
ENDBRANCH   1  12
BRANCH   2  20
ATOM     20  O   UNL     1     123.491 123.861 130.533  1.00  0.00    -0.502 OA
ATOM     21  H   UNL     1     123.608 123.472 131.461  1.00  0.00     0.293 HD
ENDBRANCH   2  20
BRANCH   6  22
ATOM     22  O   UNL     1     119.150 125.237 127.770  1.00  0.00    -0.507 OA
ATOM     23  H   UNL     1     118.532 124.516 128.107  1.00  0.00     0.293 HD
ENDBRANCH   6  22
BRANCH   8  24
ATOM     24  O   UNL     1     118.678 129.804 129.121  1.00  0.00    -0.508 OA
ATOM     25  H   UNL     1     117.788 129.906 129.598  1.00  0.00     0.293 HD
ENDBRANCH   8  24
TORSDOF 5
ENDMDL
MODEL 9
REMARK VINA RESULT:    -4.622      3.193      7.018
REMARK INTER + INTRA:          -5.685
REMARK INTER:                  -5.405
REMARK INTRA:                  -0.280
REMARK UNBOUND:                -0.252
REMARK SMILES O=c1c(O)c(-c2ccc(O)cc2)oc2cc(O)cc(O)c12
REMARK SMILES IDX 5 1 3 2 2 3 1 4 21 5 19 6 18 7 16 8 15 9 14 10 13 11 6 12
REMARK SMILES IDX 7 13 8 14 9 15 12 16 11 17 10 18 4 20 20 22 17 24
REMARK H PARENT 10 19 4 21 20 23 17 25
REMARK Flexibility Score: inf
ROOT
ATOM      1  C   UNL     1     136.111 136.916 139.864  1.00  0.00     0.180 A 
ATOM      2  C   UNL     1     135.009 137.779 139.742  1.00  0.00     0.208 A 
ATOM      3  C   UNL     1     134.690 138.302 138.479  1.00  0.00     0.238 A 
ATOM      4  O   UNL     1     133.736 139.117 138.385  1.00  0.00    -0.285 OA
ATOM      5  C   UNL     1     135.468 137.943 137.351  1.00  0.00     0.111 A 
ATOM      6  C   UNL     1     135.212 138.382 136.017  1.00  0.00     0.134 A 
ATOM      7  C   UNL     1     136.123 138.069 135.000  1.00  0.00     0.093 A 
ATOM      8  C   UNL     1     137.244 137.281 135.256  1.00  0.00     0.123 A 
ATOM      9  C   UNL     1     137.472 136.797 136.544  1.00  0.00     0.094 A 
ATOM     10  C   UNL     1     136.601 137.121 137.587  1.00  0.00     0.146 A 
ATOM     11  O   UNL     1     136.860 136.650 138.800  1.00  0.00    -0.452 OA
ENDROOT
BRANCH   1  12
ATOM     12  C   UNL     1     136.493 136.304 141.158  1.00  0.00     0.021 A 
ATOM     13  C   UNL     1     137.458 136.897 141.993  1.00  0.00     0.016 A 
ATOM     14  C   UNL     1     137.785 136.314 143.221  1.00  0.00     0.047 A 
ATOM     15  C   UNL     1     137.146 135.142 143.636  1.00  0.00     0.115 A 
ATOM     16  C   UNL     1     135.840 135.138 141.592  1.00  0.00     0.016 A 
ATOM     17  C   UNL     1     136.169 134.556 142.820  1.00  0.00     0.047 A 
BRANCH  15  18
ATOM     18  O   UNL     1     137.483 134.572 144.862  1.00  0.00    -0.508 OA
ATOM     19  H   UNL     1     138.174 133.833 144.929  1.00  0.00     0.293 HD
ENDBRANCH  15  18
ENDBRANCH   1  12
BRANCH   2  20
ATOM     20  O   UNL     1     134.268 138.138 140.872  1.00  0.00    -0.502 OA
ATOM     21  H   UNL     1     133.421 138.691 140.814  1.00  0.00     0.293 HD
ENDBRANCH   2  20
BRANCH   6  22
ATOM     22  O   UNL     1     134.072 139.097 135.636  1.00  0.00    -0.507 OA
ATOM     23  H   UNL     1     134.073 140.054 135.320  1.00  0.00     0.293 HD
ENDBRANCH   6  22
BRANCH   8  24
ATOM     24  O   UNL     1     138.121 136.977 134.217  1.00  0.00    -0.508 OA
ATOM     25  H   UNL     1     137.909 136.252 133.540  1.00  0.00     0.293 HD
ENDBRANCH   8  24
TORSDOF 5
ENDMDL
