MODEL 1
REMARK VINA RESULT:    -2.799      0.000      0.000
REMARK INTER + INTRA:         -12.908
REMARK INTER:                  -7.054
REMARK INTRA:                  -5.855
REMARK UNBOUND:                -5.855
REMARK SMILES CCCCCCCCCCCCCCCCCCCCCCCCCCCC(=O)[O-]
REMARK SMILES IDX 15 1 16 2 17 3 18 4 19 5 20 6 21 7 22 8 23 9 24 10 25 11
REMARK SMILES IDX 26 12 27 13 28 14 29 15 30 16 14 17 13 18 12 19 11 20 10 21
REMARK SMILES IDX 9 22 8 23 7 24 6 25 5 26 4 27 3 28 2 29 1 30
REMARK H PARENT
REMARK Flexibility Score: inf
ROOT
ATOM      1  C   UNL     1      54.696  25.707  53.852  1.00  0.00     0.000 C 
ENDROOT
BRANCH   1   2
ATOM      2  C   UNL     1      55.058  24.849  52.625  1.00  0.00     0.000 C 
BRANCH   2   3
ATOM      3  C   UNL     1      55.516  25.635  51.380  1.00  0.00     0.000 C 
BRANCH   3   4
ATOM      4  C   UNL     1      54.606  25.450  50.146  1.00  0.00     0.000 C 
BRANCH   4   5
ATOM      5  C   UNL     1      53.674  26.654  49.911  1.00  0.00     0.000 C 
BRANCH   5   6
ATOM      6  C   UNL     1      54.327  27.988  50.313  1.00  0.00     0.000 C 
BRANCH   6   7
ATOM      7  C   UNL     1      53.331  29.158  50.300  1.00  0.00     0.000 C 
BRANCH   7   8
ATOM      8  C   UNL     1      53.410  29.964  51.605  1.00  0.00     0.000 C 
BRANCH   8   9
ATOM      9  C   UNL     1      54.607  30.929  51.639  1.00  0.00     0.000 C 
BRANCH   9  10
ATOM     10  C   UNL     1      54.988  31.448  53.039  1.00  0.00     0.000 C 
BRANCH  10  11
ATOM     11  C   UNL     1      55.880  32.701  53.047  1.00  0.00     0.000 C 
BRANCH  11  12
ATOM     12  C   UNL     1      57.055  32.593  54.030  1.00  0.00     0.006 C 
BRANCH  12  13
ATOM     13  C   UNL     1      56.613  31.938  55.343  1.00  0.00     0.053 C 
BRANCH  13  14
ATOM     14  C   UNL     1      57.801  31.470  56.125  1.00  0.00     0.041 C 
ATOM     15  O   UNL     1      57.745  31.390  57.382  1.00  0.00    -0.550 OA
ATOM     16  O   UNL     1      58.972  31.116  55.467  1.00  0.00    -0.550 OA
ENDBRANCH  13  14
ENDBRANCH  12  13
ENDBRANCH  11  12
ENDBRANCH  10  11
ENDBRANCH   9  10
ENDBRANCH   8   9
ENDBRANCH   7   8
ENDBRANCH   6   7
ENDBRANCH   5   6
ENDBRANCH   4   5
ENDBRANCH   3   4
ENDBRANCH   2   3
ENDBRANCH   1   2
BRANCH   1  17
ATOM     17  C   UNL     1      54.875  27.224  53.661  1.00  0.00     0.000 C 
BRANCH  17  18
ATOM     18  C   UNL     1      55.603  27.892  54.837  1.00  0.00     0.000 C 
BRANCH  18  19
ATOM     19  C   UNL     1      57.019  28.319  54.433  1.00  0.00     0.000 C 
BRANCH  19  20
ATOM     20  C   UNL     1      57.178  28.327  52.906  1.00  0.00     0.000 C 
BRANCH  20  21
ATOM     21  C   UNL     1      58.099  29.451  52.404  1.00  0.00     0.000 C 
BRANCH  21  22
ATOM     22  C   UNL     1      57.871  29.869  50.941  1.00  0.00    -0.000 C 
BRANCH  22  23
ATOM     23  C   UNL     1      58.430  28.865  49.909  1.00  0.00    -0.000 C 
BRANCH  23  24
ATOM     24  C   UNL     1      59.920  28.568  50.134  1.00  0.00    -0.000 C 
BRANCH  24  25
ATOM     25  C   UNL     1      60.220  27.077  49.949  1.00  0.00    -0.000 C 
BRANCH  25  26
ATOM     26  C   UNL     1      58.988  26.224  50.282  1.00  0.00    -0.000 C 
BRANCH  26  27
ATOM     27  C   UNL     1      59.313  25.029  51.198  1.00  0.00    -0.000 C 
BRANCH  27  28
ATOM     28  C   UNL     1      59.419  25.373  52.695  1.00  0.00    -0.000 C 
BRANCH  28  29
ATOM     29  C   UNL     1      58.427  24.578  53.561  1.00  0.00    -0.003 C 
ATOM     30  C   UNL     1      58.479  25.031  55.018  1.00  0.00     0.004 C 
ENDBRANCH  28  29
ENDBRANCH  27  28
ENDBRANCH  26  27
ENDBRANCH  25  26
ENDBRANCH  24  25
ENDBRANCH  23  24
ENDBRANCH  22  23
ENDBRANCH  21  22
ENDBRANCH  20  21
ENDBRANCH  19  20
ENDBRANCH  18  19
ENDBRANCH  17  18
ENDBRANCH   1  17
TORSDOF 26
ENDMDL
MODEL 2
REMARK VINA RESULT:    -2.782      1.785      5.735
REMARK INTER + INTRA:         -12.866
REMARK INTER:                  -6.917
REMARK INTRA:                  -5.949
REMARK UNBOUND:                -5.855
REMARK SMILES CCCCCCCCCCCCCCCCCCCCCCCCCCCC(=O)[O-]
REMARK SMILES IDX 15 1 16 2 17 3 18 4 19 5 20 6 21 7 22 8 23 9 24 10 25 11
REMARK SMILES IDX 26 12 27 13 28 14 29 15 30 16 14 17 13 18 12 19 11 20 10 21
REMARK SMILES IDX 9 22 8 23 7 24 6 25 5 26 4 27 3 28 2 29 1 30
REMARK H PARENT
REMARK Flexibility Score: inf
ROOT
ATOM      1  C   UNL     1      56.013  26.026  50.363  1.00  0.00     0.000 C 
ENDROOT
BRANCH   1   2
ATOM      2  C   UNL     1      56.291  26.493  51.804  1.00  0.00     0.000 C 
BRANCH   2   3
ATOM      3  C   UNL     1      56.822  27.934  51.942  1.00  0.00     0.000 C 
BRANCH   3   4
ATOM      4  C   UNL     1      57.252  28.579  50.606  1.00  0.00     0.000 C 
BRANCH   4   5
ATOM      5  C   UNL     1      58.700  29.105  50.641  1.00  0.00     0.000 C 
BRANCH   5   6
ATOM      6  C   UNL     1      59.630  28.327  49.694  1.00  0.00     0.000 C 
BRANCH   6   7
ATOM      7  C   UNL     1      59.583  26.811  49.940  1.00  0.00     0.000 C 
BRANCH   7   8
ATOM      8  C   UNL     1      60.540  26.407  51.072  1.00  0.00     0.000 C 
BRANCH   8   9
ATOM      9  C   UNL     1      59.834  25.648  52.208  1.00  0.00     0.000 C 
BRANCH   9  10
ATOM     10  C   UNL     1      60.211  26.103  53.631  1.00  0.00     0.000 C 
BRANCH  10  11
ATOM     11  C   UNL     1      60.781  27.529  53.728  1.00  0.00     0.000 C 
BRANCH  11  12
ATOM     12  C   UNL     1      59.713  28.578  54.069  1.00  0.00     0.006 C 
BRANCH  12  13
ATOM     13  C   UNL     1      60.299  29.697  54.936  1.00  0.00     0.053 C 
BRANCH  13  14
ATOM     14  C   UNL     1      60.163  29.365  56.390  1.00  0.00     0.041 C 
ATOM     15  O   UNL     1      61.173  29.023  57.062  1.00  0.00    -0.550 OA
ATOM     16  O   UNL     1      58.920  29.436  57.006  1.00  0.00    -0.550 OA
ENDBRANCH  13  14
ENDBRANCH  12  13
ENDBRANCH  11  12
ENDBRANCH  10  11
ENDBRANCH   9  10
ENDBRANCH   8   9
ENDBRANCH   7   8
ENDBRANCH   6   7
ENDBRANCH   5   6
ENDBRANCH   4   5
ENDBRANCH   3   4
ENDBRANCH   2   3
ENDBRANCH   1   2
BRANCH   1  17
ATOM     17  C   UNL     1      54.562  25.594  50.087  1.00  0.00     0.000 C 
BRANCH  17  18
ATOM     18  C   UNL     1      53.531  26.456  50.828  1.00  0.00     0.000 C 
BRANCH  18  19
ATOM     19  C   UNL     1      52.978  27.557  49.914  1.00  0.00     0.000 C 
BRANCH  19  20
ATOM     20  C   UNL     1      53.562  28.927  50.288  1.00  0.00     0.000 C 
BRANCH  20  21
ATOM     21  C   UNL     1      53.392  29.266  51.778  1.00  0.00     0.000 C 
BRANCH  21  22
ATOM     22  C   UNL     1      53.663  30.737  52.141  1.00  0.00    -0.000 C 
BRANCH  22  23
ATOM     23  C   UNL     1      54.974  31.296  51.547  1.00  0.00    -0.000 C 
BRANCH  23  24
ATOM     24  C   UNL     1      55.725  32.197  52.539  1.00  0.00    -0.000 C 
BRANCH  24  25
ATOM     25  C   UNL     1      56.993  31.509  53.058  1.00  0.00    -0.000 C 
BRANCH  25  26
ATOM     26  C   UNL     1      56.897  31.250  54.568  1.00  0.00    -0.000 C 
BRANCH  26  27
ATOM     27  C   UNL     1      56.088  29.985  54.911  1.00  0.00    -0.000 C 
BRANCH  27  28
ATOM     28  C   UNL     1      54.803  30.241  55.720  1.00  0.00    -0.000 C 
BRANCH  28  29
ATOM     29  C   UNL     1      54.628  31.718  56.109  1.00  0.00    -0.003 C 
ATOM     30  C   UNL     1      53.355  32.302  55.503  1.00  0.00     0.004 C 
ENDBRANCH  28  29
ENDBRANCH  27  28
ENDBRANCH  26  27
ENDBRANCH  25  26
ENDBRANCH  24  25
ENDBRANCH  23  24
ENDBRANCH  22  23
ENDBRANCH  21  22
ENDBRANCH  20  21
ENDBRANCH  19  20
ENDBRANCH  18  19
ENDBRANCH  17  18
ENDBRANCH   1  17
TORSDOF 26
ENDMDL
MODEL 3
REMARK VINA RESULT:    -2.758      2.819      5.027
REMARK INTER + INTRA:         -12.806
REMARK INTER:                  -7.754
REMARK INTRA:                  -5.051
REMARK UNBOUND:                -5.855
REMARK SMILES CCCCCCCCCCCCCCCCCCCCCCCCCCCC(=O)[O-]
REMARK SMILES IDX 15 1 16 2 17 3 18 4 19 5 20 6 21 7 22 8 23 9 24 10 25 11
REMARK SMILES IDX 26 12 27 13 28 14 29 15 30 16 14 17 13 18 12 19 11 20 10 21
REMARK SMILES IDX 9 22 8 23 7 24 6 25 5 26 4 27 3 28 2 29 1 30
REMARK H PARENT
REMARK Flexibility Score: inf
ROOT
ATOM      1  C   UNL     1      56.272  29.766  50.750  1.00  0.00     0.000 C 
ENDROOT
BRANCH   1   2
ATOM      2  C   UNL     1      54.810  29.505  51.160  1.00  0.00     0.000 C 
BRANCH   2   3
ATOM      3  C   UNL     1      54.102  28.366  50.400  1.00  0.00     0.000 C 
BRANCH   3   4
ATOM      4  C   UNL     1      54.389  26.956  50.964  1.00  0.00     0.000 C 
BRANCH   4   5
ATOM      5  C   UNL     1      55.362  26.152  50.081  1.00  0.00     0.000 C 
BRANCH   5   6
ATOM      6  C   UNL     1      56.730  25.946  50.754  1.00  0.00     0.000 C 
BRANCH   6   7
ATOM      7  C   UNL     1      56.603  25.495  52.218  1.00  0.00     0.000 C 
BRANCH   7   8
ATOM      8  C   UNL     1      57.361  26.447  53.155  1.00  0.00     0.000 C 
BRANCH   8   9
ATOM      9  C   UNL     1      56.610  26.713  54.471  1.00  0.00     0.000 C 
BRANCH   9  10
ATOM     10  C   UNL     1      55.453  27.727  54.369  1.00  0.00     0.000 C 
BRANCH  10  11
ATOM     11  C   UNL     1      55.560  28.933  55.318  1.00  0.00     0.000 C 
BRANCH  11  12
ATOM     12  C   UNL     1      54.647  30.097  54.911  1.00  0.00     0.006 C 
BRANCH  12  13
ATOM     13  C   UNL     1      55.457  31.377  54.680  1.00  0.00     0.053 C 
BRANCH  13  14
ATOM     14  C   UNL     1      54.857  32.189  53.574  1.00  0.00     0.041 C 
ATOM     15  O   UNL     1      53.622  32.116  53.328  1.00  0.00    -0.550 OA
ATOM     16  O   UNL     1      55.659  33.033  52.817  1.00  0.00    -0.550 OA
ENDBRANCH  13  14
ENDBRANCH  12  13
ENDBRANCH  11  12
ENDBRANCH  10  11
ENDBRANCH   9  10
ENDBRANCH   8   9
ENDBRANCH   7   8
ENDBRANCH   6   7
ENDBRANCH   5   6
ENDBRANCH   4   5
ENDBRANCH   3   4
ENDBRANCH   2   3
ENDBRANCH   1   2
BRANCH   1  17
ATOM     17  C   UNL     1      57.276  29.818  51.916  1.00  0.00     0.000 C 
BRANCH  17  18
ATOM     18  C   UNL     1      58.698  29.420  51.498  1.00  0.00     0.000 C 
BRANCH  18  19
ATOM     19  C   UNL     1      58.759  29.100  50.000  1.00  0.00     0.000 C 
BRANCH  19  20
ATOM     20  C   UNL     1      59.691  27.910  49.728  1.00  0.00     0.000 C 
BRANCH  20  21
ATOM     21  C   UNL     1      60.270  27.297  51.014  1.00  0.00     0.000 C 
BRANCH  21  22
ATOM     22  C   UNL     1      61.807  27.209  51.052  1.00  0.00    -0.000 C 
BRANCH  22  23
ATOM     23  C   UNL     1      62.484  27.497  49.695  1.00  0.00    -0.000 C 
BRANCH  23  24
ATOM     24  C   UNL     1      63.956  27.059  49.675  1.00  0.00    -0.000 C 
BRANCH  24  25
ATOM     25  C   UNL     1      64.759  27.866  48.649  1.00  0.00    -0.000 C 
BRANCH  25  26
ATOM     26  C   UNL     1      64.373  29.351  48.696  1.00  0.00    -0.000 C 
BRANCH  26  27
ATOM     27  C   UNL     1      65.095  30.124  49.816  1.00  0.00    -0.000 C 
BRANCH  27  28
ATOM     28  C   UNL     1      64.271  31.260  50.450  1.00  0.00    -0.000 C 
BRANCH  28  29
ATOM     29  C   UNL     1      62.756  31.076  50.259  1.00  0.00    -0.003 C 
ATOM     30  C   UNL     1      62.042  30.947  51.602  1.00  0.00     0.004 C 
ENDBRANCH  28  29
ENDBRANCH  27  28
ENDBRANCH  26  27
ENDBRANCH  25  26
ENDBRANCH  24  25
ENDBRANCH  23  24
ENDBRANCH  22  23
ENDBRANCH  21  22
ENDBRANCH  20  21
ENDBRANCH  19  20
ENDBRANCH  18  19
ENDBRANCH  17  18
ENDBRANCH   1  17
TORSDOF 26
ENDMDL
MODEL 4
REMARK VINA RESULT:    -2.748      3.506      6.571
REMARK INTER + INTRA:         -12.780
REMARK INTER:                  -7.637
REMARK INTRA:                  -5.143
REMARK UNBOUND:                -5.855
REMARK SMILES CCCCCCCCCCCCCCCCCCCCCCCCCCCC(=O)[O-]
REMARK SMILES IDX 15 1 16 2 17 3 18 4 19 5 20 6 21 7 22 8 23 9 24 10 25 11
REMARK SMILES IDX 26 12 27 13 28 14 29 15 30 16 14 17 13 18 12 19 11 20 10 21
REMARK SMILES IDX 9 22 8 23 7 24 6 25 5 26 4 27 3 28 2 29 1 30
REMARK H PARENT
REMARK Flexibility Score: inf
ROOT
ATOM      1  C   UNL     1      56.489  25.539  51.778  1.00  0.00     0.000 C 
ENDROOT
BRANCH   1   2
ATOM      2  C   UNL     1      57.991  25.279  51.994  1.00  0.00     0.000 C 
BRANCH   2   3
ATOM      3  C   UNL     1      58.866  25.359  50.727  1.00  0.00     0.000 C 
BRANCH   3   4
ATOM      4  C   UNL     1      59.912  26.495  50.752  1.00  0.00     0.000 C 
BRANCH   4   5
ATOM      5  C   UNL     1      59.691  27.529  49.631  1.00  0.00     0.000 C 
BRANCH   5   6
ATOM      6  C   UNL     1      58.785  28.690  50.076  1.00  0.00     0.000 C 
BRANCH   6   7
ATOM      7  C   UNL     1      58.802  28.901  51.597  1.00  0.00     0.000 C 
BRANCH   7   8
ATOM      8  C   UNL     1      59.658  30.119  51.975  1.00  0.00     0.000 C 
BRANCH   8   9
ATOM      9  C   UNL     1      61.132  29.758  52.228  1.00  0.00     0.000 C 
BRANCH   9  10
ATOM     10  C   UNL     1      62.106  30.163  51.105  1.00  0.00     0.000 C 
BRANCH  10  11
ATOM     11  C   UNL     1      62.913  29.004  50.495  1.00  0.00     0.000 C 
BRANCH  11  12
ATOM     12  C   UNL     1      63.989  29.478  49.508  1.00  0.00     0.006 C 
BRANCH  12  13
ATOM     13  C   UNL     1      64.115  28.511  48.327  1.00  0.00     0.053 C 
BRANCH  13  14
ATOM     14  C   UNL     1      65.553  28.198  48.052  1.00  0.00     0.041 C 
ATOM     15  O   UNL     1      66.017  28.307  46.885  1.00  0.00    -0.550 OA
ATOM     16  O   UNL     1      66.386  27.789  49.086  1.00  0.00    -0.550 OA
ENDBRANCH  13  14
ENDBRANCH  12  13
ENDBRANCH  11  12
ENDBRANCH  10  11
ENDBRANCH   9  10
ENDBRANCH   8   9
ENDBRANCH   7   8
ENDBRANCH   6   7
ENDBRANCH   5   6
ENDBRANCH   4   5
ENDBRANCH   3   4
ENDBRANCH   2   3
ENDBRANCH   1   2
BRANCH   1  17
ATOM     17  C   UNL     1      56.100  25.957  50.348  1.00  0.00     0.000 C 
BRANCH  17  18
ATOM     18  C   UNL     1      54.831  26.822  50.303  1.00  0.00     0.000 C 
BRANCH  18  19
ATOM     19  C   UNL     1      55.146  28.276  50.674  1.00  0.00     0.000 C 
BRANCH  19  20
ATOM     20  C   UNL     1      53.897  29.160  50.547  1.00  0.00     0.000 C 
BRANCH  20  21
ATOM     21  C   UNL     1      54.075  30.545  51.190  1.00  0.00     0.000 C 
BRANCH  21  22
ATOM     22  C   UNL     1      55.494  31.131  51.080  1.00  0.00    -0.000 C 
BRANCH  22  23
ATOM     23  C   UNL     1      56.120  31.513  52.439  1.00  0.00    -0.000 C 
BRANCH  23  24
ATOM     24  C   UNL     1      55.081  31.542  53.570  1.00  0.00    -0.000 C 
BRANCH  24  25
ATOM     25  C   UNL     1      55.442  30.546  54.677  1.00  0.00    -0.000 C 
BRANCH  25  26
ATOM     26  C   UNL     1      56.517  29.559  54.199  1.00  0.00    -0.000 C 
BRANCH  26  27
ATOM     27  C   UNL     1      56.104  28.086  54.381  1.00  0.00    -0.000 C 
BRANCH  27  28
ATOM     28  C   UNL     1      57.205  27.173  54.952  1.00  0.00    -0.000 C 
BRANCH  28  29
ATOM     29  C   UNL     1      58.525  27.920  55.207  1.00  0.00    -0.003 C 
ATOM     30  C   UNL     1      59.721  27.117  54.700  1.00  0.00     0.004 C 
ENDBRANCH  28  29
ENDBRANCH  27  28
ENDBRANCH  26  27
ENDBRANCH  25  26
ENDBRANCH  24  25
ENDBRANCH  23  24
ENDBRANCH  22  23
ENDBRANCH  21  22
ENDBRANCH  20  21
ENDBRANCH  19  20
ENDBRANCH  18  19
ENDBRANCH  17  18
ENDBRANCH   1  17
TORSDOF 26
ENDMDL
MODEL 5
REMARK VINA RESULT:    -2.748      1.136      2.033
REMARK INTER + INTRA:         -12.780
REMARK INTER:                  -7.276
REMARK INTRA:                  -5.504
REMARK UNBOUND:                -5.855
REMARK SMILES CCCCCCCCCCCCCCCCCCCCCCCCCCCC(=O)[O-]
REMARK SMILES IDX 15 1 16 2 17 3 18 4 19 5 20 6 21 7 22 8 23 9 24 10 25 11
REMARK SMILES IDX 26 12 27 13 28 14 29 15 30 16 14 17 13 18 12 19 11 20 10 21
REMARK SMILES IDX 9 22 8 23 7 24 6 25 5 26 4 27 3 28 2 29 1 30
REMARK H PARENT
REMARK Flexibility Score: inf
ROOT
ATOM      1  C   UNL     1      56.137  25.368  51.731  1.00  0.00     0.000 C 
ENDROOT
BRANCH   1   2
ATOM      2  C   UNL     1      55.789  26.004  50.373  1.00  0.00     0.000 C 
BRANCH   2   3
ATOM      3  C   UNL     1      54.407  25.629  49.801  1.00  0.00     0.000 C 
BRANCH   3   4
ATOM      4  C   UNL     1      53.374  26.777  49.842  1.00  0.00     0.000 C 
BRANCH   4   5
ATOM      5  C   UNL     1      53.993  28.116  50.286  1.00  0.00     0.000 C 
BRANCH   5   6
ATOM      6  C   UNL     1      52.928  29.190  50.568  1.00  0.00     0.000 C 
BRANCH   6   7
ATOM      7  C   UNL     1      52.875  29.591  52.050  1.00  0.00     0.000 C 
BRANCH   7   8
ATOM      8  C   UNL     1      53.485  30.984  52.265  1.00  0.00     0.000 C 
BRANCH   8   9
ATOM      9  C   UNL     1      53.628  31.350  53.753  1.00  0.00     0.000 C 
BRANCH   9  10
ATOM     10  C   UNL     1      54.516  32.576  54.042  1.00  0.00     0.000 C 
BRANCH  10  11
ATOM     11  C   UNL     1      55.740  32.722  53.122  1.00  0.00     0.000 C 
BRANCH  11  12
ATOM     12  C   UNL     1      56.939  33.378  53.822  1.00  0.00     0.006 C 
BRANCH  12  13
ATOM     13  C   UNL     1      58.156  32.449  53.814  1.00  0.00     0.053 C 
BRANCH  13  14
ATOM     14  C   UNL     1      58.742  32.333  55.187  1.00  0.00     0.041 C 
ATOM     15  O   UNL     1      58.068  31.832  56.127  1.00  0.00    -0.550 OA
ATOM     16  O   UNL     1      60.036  32.775  55.430  1.00  0.00    -0.550 OA
ENDBRANCH  13  14
ENDBRANCH  12  13
ENDBRANCH  11  12
ENDBRANCH  10  11
ENDBRANCH   9  10
ENDBRANCH   8   9
ENDBRANCH   7   8
ENDBRANCH   6   7
ENDBRANCH   5   6
ENDBRANCH   4   5
ENDBRANCH   3   4
ENDBRANCH   2   3
ENDBRANCH   1   2
BRANCH   1  17
ATOM     17  C   UNL     1      54.927  25.046  52.628  1.00  0.00     0.000 C 
BRANCH  17  18
ATOM     18  C   UNL     1      54.470  26.246  53.469  1.00  0.00     0.000 C 
BRANCH  18  19
ATOM     19  C   UNL     1      55.638  26.825  54.277  1.00  0.00     0.000 C 
BRANCH  19  20
ATOM     20  C   UNL     1      55.516  28.350  54.406  1.00  0.00     0.000 C 
BRANCH  20  21
ATOM     21  C   UNL     1      56.866  29.074  54.265  1.00  0.00     0.000 C 
BRANCH  21  22
ATOM     22  C   UNL     1      57.584  28.845  52.923  1.00  0.00    -0.000 C 
BRANCH  22  23
ATOM     23  C   UNL     1      56.909  29.547  51.724  1.00  0.00    -0.000 C 
BRANCH  23  24
ATOM     24  C   UNL     1      57.644  29.276  50.403  1.00  0.00    -0.000 C 
BRANCH  24  25
ATOM     25  C   UNL     1      59.137  29.026  50.642  1.00  0.00    -0.000 C 
BRANCH  25  26
ATOM     26  C   UNL     1      59.673  27.949  49.689  1.00  0.00    -0.000 C 
BRANCH  26  27
ATOM     27  C   UNL     1      59.403  26.517  50.186  1.00  0.00    -0.000 C 
BRANCH  27  28
ATOM     28  C   UNL     1      60.402  26.000  51.238  1.00  0.00    -0.000 C 
BRANCH  28  29
ATOM     29  C   UNL     1      59.741  25.714  52.597  1.00  0.00    -0.003 C 
ATOM     30  C   UNL     1      60.297  26.628  53.686  1.00  0.00     0.004 C 
ENDBRANCH  28  29
ENDBRANCH  27  28
ENDBRANCH  26  27
ENDBRANCH  25  26
ENDBRANCH  24  25
ENDBRANCH  23  24
ENDBRANCH  22  23
ENDBRANCH  21  22
ENDBRANCH  20  21
ENDBRANCH  19  20
ENDBRANCH  18  19
ENDBRANCH  17  18
ENDBRANCH   1  17
TORSDOF 26
ENDMDL
MODEL 6
REMARK VINA RESULT:    -2.744      1.750      3.988
REMARK INTER + INTRA:         -12.769
REMARK INTER:                  -7.832
REMARK INTRA:                  -4.937
REMARK UNBOUND:                -5.855
REMARK SMILES CCCCCCCCCCCCCCCCCCCCCCCCCCCC(=O)[O-]
REMARK SMILES IDX 15 1 16 2 17 3 18 4 19 5 20 6 21 7 22 8 23 9 24 10 25 11
REMARK SMILES IDX 26 12 27 13 28 14 29 15 30 16 14 17 13 18 12 19 11 20 10 21
REMARK SMILES IDX 9 22 8 23 7 24 6 25 5 26 4 27 3 28 2 29 1 30
REMARK H PARENT
REMARK Flexibility Score: inf
ROOT
ATOM      1  C   UNL     1      56.536  26.162  50.750  1.00  0.00     0.000 C 
ENDROOT
BRANCH   1   2
ATOM      2  C   UNL     1      55.119  25.626  50.476  1.00  0.00     0.000 C 
BRANCH   2   3
ATOM      3  C   UNL     1      54.030  26.701  50.287  1.00  0.00     0.000 C 
BRANCH   3   4
ATOM      4  C   UNL     1      54.549  28.152  50.392  1.00  0.00     0.000 C 
BRANCH   4   5
ATOM      5  C   UNL     1      53.409  29.187  50.444  1.00  0.00     0.000 C 
BRANCH   5   6
ATOM      6  C   UNL     1      53.720  30.354  51.397  1.00  0.00     0.000 C 
BRANCH   6   7
ATOM      7  C   UNL     1      55.079  31.007  51.104  1.00  0.00     0.000 C 
BRANCH   7   8
ATOM      8  C   UNL     1      55.756  31.477  52.400  1.00  0.00     0.000 C 
BRANCH   8   9
ATOM      9  C   UNL     1      55.484  32.958  52.712  1.00  0.00     0.000 C 
BRANCH   9  10
ATOM     10  C   UNL     1      54.497  33.212  53.868  1.00  0.00     0.000 C 
BRANCH  10  11
ATOM     11  C   UNL     1      54.984  34.212  54.931  1.00  0.00     0.000 C 
BRANCH  11  12
ATOM     12  C   UNL     1      55.399  33.534  56.245  1.00  0.00     0.006 C 
BRANCH  12  13
ATOM     13  C   UNL     1      55.805  34.573  57.295  1.00  0.00     0.053 C 
BRANCH  13  14
ATOM     14  C   UNL     1      57.286  34.551  57.515  1.00  0.00     0.041 C 
ATOM     15  O   UNL     1      57.755  34.330  58.664  1.00  0.00    -0.550 OA
ATOM     16  O   UNL     1      58.150  34.771  56.450  1.00  0.00    -0.550 OA
ENDBRANCH  13  14
ENDBRANCH  12  13
ENDBRANCH  11  12
ENDBRANCH  10  11
ENDBRANCH   9  10
ENDBRANCH   8   9
ENDBRANCH   7   8
ENDBRANCH   6   7
ENDBRANCH   5   6
ENDBRANCH   4   5
ENDBRANCH   3   4
ENDBRANCH   2   3
ENDBRANCH   1   2
BRANCH   1  17
ATOM     17  C   UNL     1      57.426  25.242  51.606  1.00  0.00     0.000 C 
BRANCH  17  18
ATOM     18  C   UNL     1      58.926  25.476  51.372  1.00  0.00     0.000 C 
BRANCH  18  19
ATOM     19  C   UNL     1      59.174  26.101  49.994  1.00  0.00     0.000 C 
BRANCH  19  20
ATOM     20  C   UNL     1      60.013  27.381  50.113  1.00  0.00     0.000 C 
BRANCH  20  21
ATOM     21  C   UNL     1      59.235  28.647  49.716  1.00  0.00     0.000 C 
BRANCH  21  22
ATOM     22  C   UNL     1      58.380  29.259  50.839  1.00  0.00    -0.000 C 
BRANCH  22  23
ATOM     23  C   UNL     1      59.203  29.802  52.027  1.00  0.00    -0.000 C 
BRANCH  23  24
ATOM     24  C   UNL     1      58.472  29.635  53.367  1.00  0.00    -0.000 C 
BRANCH  24  25
ATOM     25  C   UNL     1      57.729  28.295  53.428  1.00  0.00    -0.000 C 
BRANCH  25  26
ATOM     26  C   UNL     1      56.552  28.364  54.410  1.00  0.00    -0.000 C 
BRANCH  26  27
ATOM     27  C   UNL     1      55.290  27.652  53.887  1.00  0.00    -0.000 C 
BRANCH  27  28
ATOM     28  C   UNL     1      53.960  28.266  54.361  1.00  0.00    -0.000 C 
BRANCH  28  29
ATOM     29  C   UNL     1      54.154  29.569  55.154  1.00  0.00    -0.003 C 
ATOM     30  C   UNL     1      52.875  30.402  55.170  1.00  0.00     0.004 C 
ENDBRANCH  28  29
ENDBRANCH  27  28
ENDBRANCH  26  27
ENDBRANCH  25  26
ENDBRANCH  24  25
ENDBRANCH  23  24
ENDBRANCH  22  23
ENDBRANCH  21  22
ENDBRANCH  20  21
ENDBRANCH  19  20
ENDBRANCH  18  19
ENDBRANCH  17  18
ENDBRANCH   1  17
TORSDOF 26
ENDMDL
MODEL 7
REMARK VINA RESULT:    -2.720      1.733      3.612
REMARK INTER + INTRA:         -12.709
REMARK INTER:                  -6.641
REMARK INTRA:                  -6.068
REMARK UNBOUND:                -5.855
REMARK SMILES CCCCCCCCCCCCCCCCCCCCCCCCCCCC(=O)[O-]
REMARK SMILES IDX 15 1 16 2 17 3 18 4 19 5 20 6 21 7 22 8 23 9 24 10 25 11
REMARK SMILES IDX 26 12 27 13 28 14 29 15 30 16 14 17 13 18 12 19 11 20 10 21
REMARK SMILES IDX 9 22 8 23 7 24 6 25 5 26 4 27 3 28 2 29 1 30
REMARK H PARENT
REMARK Flexibility Score: inf
ROOT
ATOM      1  C   UNL     1      56.356  25.286  54.686  1.00  0.00     0.000 C 
ENDROOT
BRANCH   1   2
ATOM      2  C   UNL     1      55.365  24.248  54.128  1.00  0.00     0.000 C 
BRANCH   2   3
ATOM      3  C   UNL     1      53.928  24.761  53.901  1.00  0.00     0.000 C 
BRANCH   3   4
ATOM      4  C   UNL     1      53.238  24.174  52.650  1.00  0.00     0.000 C 
BRANCH   4   5
ATOM      5  C   UNL     1      53.068  25.214  51.525  1.00  0.00     0.000 C 
BRANCH   5   6
ATOM      6  C   UNL     1      54.179  25.119  50.466  1.00  0.00     0.000 C 
BRANCH   6   7
ATOM      7  C   UNL     1      54.714  26.498  50.050  1.00  0.00     0.000 C 
BRANCH   7   8
ATOM      8  C   UNL     1      53.606  27.560  50.111  1.00  0.00     0.000 C 
BRANCH   8   9
ATOM      9  C   UNL     1      54.123  28.937  50.563  1.00  0.00     0.000 C 
BRANCH   9  10
ATOM     10  C   UNL     1      53.780  29.318  52.017  1.00  0.00     0.000 C 
BRANCH  10  11
ATOM     11  C   UNL     1      54.185  28.277  53.075  1.00  0.00     0.000 C 
BRANCH  11  12
ATOM     12  C   UNL     1      53.691  28.633  54.484  1.00  0.00     0.006 C 
BRANCH  12  13
ATOM     13  C   UNL     1      54.855  28.683  55.478  1.00  0.00     0.053 C 
BRANCH  13  14
ATOM     14  C   UNL     1      55.241  30.100  55.769  1.00  0.00     0.041 C 
ATOM     15  O   UNL     1      56.354  30.360  56.302  1.00  0.00    -0.550 OA
ATOM     16  O   UNL     1      54.375  31.137  55.448  1.00  0.00    -0.550 OA
ENDBRANCH  13  14
ENDBRANCH  12  13
ENDBRANCH  11  12
ENDBRANCH  10  11
ENDBRANCH   9  10
ENDBRANCH   8   9
ENDBRANCH   7   8
ENDBRANCH   6   7
ENDBRANCH   5   6
ENDBRANCH   4   5
ENDBRANCH   3   4
ENDBRANCH   2   3
ENDBRANCH   1   2
BRANCH   1  17
ATOM     17  C   UNL     1      57.088  26.126  53.623  1.00  0.00     0.000 C 
BRANCH  17  18
ATOM     18  C   UNL     1      57.326  25.357  52.315  1.00  0.00     0.000 C 
BRANCH  18  19
ATOM     19  C   UNL     1      58.657  24.598  52.361  1.00  0.00     0.000 C 
BRANCH  19  20
ATOM     20  C   UNL     1      59.475  24.843  51.085  1.00  0.00     0.000 C 
BRANCH  20  21
ATOM     21  C   UNL     1      58.894  25.962  50.206  1.00  0.00     0.000 C 
BRANCH  21  22
ATOM     22  C   UNL     1      59.837  27.155  49.971  1.00  0.00    -0.000 C 
BRANCH  22  23
ATOM     23  C   UNL     1      59.105  28.489  49.707  1.00  0.00    -0.000 C 
BRANCH  23  24
ATOM     24  C   UNL     1      57.778  28.587  50.476  1.00  0.00    -0.000 C 
BRANCH  24  25
ATOM     25  C   UNL     1      57.713  29.876  51.302  1.00  0.00    -0.000 C 
BRANCH  25  26
ATOM     26  C   UNL     1      57.471  29.565  52.786  1.00  0.00    -0.000 C 
BRANCH  26  27
ATOM     27  C   UNL     1      58.720  29.791  53.658  1.00  0.00    -0.000 C 
BRANCH  27  28
ATOM     28  C   UNL     1      60.014  30.074  52.873  1.00  0.00    -0.000 C 
BRANCH  28  29
ATOM     29  C   UNL     1      61.082  28.986  53.073  1.00  0.00    -0.003 C 
ATOM     30  C   UNL     1      60.462  27.692  53.592  1.00  0.00     0.004 C 
ENDBRANCH  28  29
ENDBRANCH  27  28
ENDBRANCH  26  27
ENDBRANCH  25  26
ENDBRANCH  24  25
ENDBRANCH  23  24
ENDBRANCH  22  23
ENDBRANCH  21  22
ENDBRANCH  20  21
ENDBRANCH  19  20
ENDBRANCH  18  19
ENDBRANCH  17  18
ENDBRANCH   1  17
TORSDOF 26
ENDMDL
MODEL 8
REMARK VINA RESULT:    -2.689      3.407      5.819
REMARK INTER + INTRA:         -12.632
REMARK INTER:                  -7.584
REMARK INTRA:                  -5.048
REMARK UNBOUND:                -5.855
REMARK SMILES CCCCCCCCCCCCCCCCCCCCCCCCCCCC(=O)[O-]
REMARK SMILES IDX 15 1 16 2 17 3 18 4 19 5 20 6 21 7 22 8 23 9 24 10 25 11
REMARK SMILES IDX 26 12 27 13 28 14 29 15 30 16 14 17 13 18 12 19 11 20 10 21
REMARK SMILES IDX 9 22 8 23 7 24 6 25 5 26 4 27 3 28 2 29 1 30
REMARK H PARENT
REMARK Flexibility Score: inf
ROOT
ATOM      1  C   UNL     1      58.783  25.429  52.519  1.00  0.00     0.000 C 
ENDROOT
BRANCH   1   2
ATOM      2  C   UNL     1      57.302  25.849  52.463  1.00  0.00     0.000 C 
BRANCH   2   3
ATOM      3  C   UNL     1      56.712  26.373  53.788  1.00  0.00     0.000 C 
BRANCH   3   4
ATOM      4  C   UNL     1      56.339  27.872  53.763  1.00  0.00     0.000 C 
BRANCH   4   5
ATOM      5  C   UNL     1      57.141  28.700  54.786  1.00  0.00     0.000 C 
BRANCH   5   6
ATOM      6  C   UNL     1      57.026  30.213  54.535  1.00  0.00     0.000 C 
BRANCH   6   7
ATOM      7  C   UNL     1      55.845  30.569  53.619  1.00  0.00     0.000 C 
BRANCH   7   8
ATOM      8  C   UNL     1      56.260  31.603  52.562  1.00  0.00     0.000 C 
BRANCH   8   9
ATOM      9  C   UNL     1      55.573  31.377  51.204  1.00  0.00     0.000 C 
BRANCH   9  10
ATOM     10  C   UNL     1      55.182  29.917  50.904  1.00  0.00     0.000 C 
BRANCH  10  11
ATOM     11  C   UNL     1      53.691  29.693  50.600  1.00  0.00     0.000 C 
BRANCH  11  12
ATOM     12  C   UNL     1      53.344  28.216  50.368  1.00  0.00     0.006 C 
BRANCH  12  13
ATOM     13  C   UNL     1      54.606  27.349  50.361  1.00  0.00     0.053 C 
BRANCH  13  14
ATOM     14  C   UNL     1      54.248  25.895  50.364  1.00  0.00     0.041 C 
ATOM     15  O   UNL     1      54.291  25.227  49.296  1.00  0.00    -0.550 OA
ATOM     16  O   UNL     1      53.871  25.274  51.548  1.00  0.00    -0.550 OA
ENDBRANCH  13  14
ENDBRANCH  12  13
ENDBRANCH  11  12
ENDBRANCH  10  11
ENDBRANCH   9  10
ENDBRANCH   8   9
ENDBRANCH   7   8
ENDBRANCH   6   7
ENDBRANCH   5   6
ENDBRANCH   4   5
ENDBRANCH   3   4
ENDBRANCH   2   3
ENDBRANCH   1   2
BRANCH   1  17
ATOM     17  C   UNL     1      59.577  25.667  51.222  1.00  0.00     0.000 C 
BRANCH  17  18
ATOM     18  C   UNL     1      58.766  26.418  50.155  1.00  0.00     0.000 C 
BRANCH  18  19
ATOM     19  C   UNL     1      59.564  27.600  49.593  1.00  0.00     0.000 C 
BRANCH  19  20
ATOM     20  C   UNL     1      58.876  28.934  49.918  1.00  0.00     0.000 C 
BRANCH  20  21
ATOM     21  C   UNL     1      58.775  29.204  51.428  1.00  0.00     0.000 C 
BRANCH  21  22
ATOM     22  C   UNL     1      60.079  29.686  52.088  1.00  0.00    -0.000 C 
BRANCH  22  23
ATOM     23  C   UNL     1      60.537  28.815  53.278  1.00  0.00    -0.000 C 
BRANCH  23  24
ATOM     24  C   UNL     1      61.759  27.951  52.930  1.00  0.00    -0.000 C 
BRANCH  24  25
ATOM     25  C   UNL     1      62.426  28.433  51.638  1.00  0.00    -0.000 C 
BRANCH  25  26
ATOM     26  C   UNL     1      62.825  27.246  50.750  1.00  0.00    -0.000 C 
BRANCH  26  27
ATOM     27  C   UNL     1      63.432  27.681  49.402  1.00  0.00    -0.000 C 
BRANCH  27  28
ATOM     28  C   UNL     1      64.874  28.215  49.485  1.00  0.00    -0.000 C 
BRANCH  28  29
ATOM     29  C   UNL     1      65.666  27.995  48.186  1.00  0.00    -0.003 C 
ATOM     30  C   UNL     1      66.171  29.319  47.617  1.00  0.00     0.004 C 
ENDBRANCH  28  29
ENDBRANCH  27  28
ENDBRANCH  26  27
ENDBRANCH  25  26
ENDBRANCH  24  25
ENDBRANCH  23  24
ENDBRANCH  22  23
ENDBRANCH  21  22
ENDBRANCH  20  21
ENDBRANCH  19  20
ENDBRANCH  18  19
ENDBRANCH  17  18
ENDBRANCH   1  17
TORSDOF 26
ENDMDL
MODEL 9
REMARK VINA RESULT:    -2.685      2.778      6.232
REMARK INTER + INTRA:         -12.621
REMARK INTER:                  -6.726
REMARK INTRA:                  -5.895
REMARK UNBOUND:                -5.855
REMARK SMILES CCCCCCCCCCCCCCCCCCCCCCCCCCCC(=O)[O-]
REMARK SMILES IDX 15 1 16 2 17 3 18 4 19 5 20 6 21 7 22 8 23 9 24 10 25 11
REMARK SMILES IDX 26 12 27 13 28 14 29 15 30 16 14 17 13 18 12 19 11 20 10 21
REMARK SMILES IDX 9 22 8 23 7 24 6 25 5 26 4 27 3 28 2 29 1 30
REMARK H PARENT
REMARK Flexibility Score: inf
ROOT
ATOM      1  C   UNL     1      54.852  27.327  51.723  1.00  0.00     0.000 C 
ENDROOT
BRANCH   1   2
ATOM      2  C   UNL     1      56.309  27.765  51.959  1.00  0.00     0.000 C 
BRANCH   2   3
ATOM      3  C   UNL     1      57.212  27.760  50.709  1.00  0.00     0.000 C 
BRANCH   3   4
ATOM      4  C   UNL     1      57.821  29.137  50.363  1.00  0.00     0.000 C 
BRANCH   4   5
ATOM      5  C   UNL     1      59.237  29.026  49.766  1.00  0.00     0.000 C 
BRANCH   5   6
ATOM      6  C   UNL     1      59.743  27.574  49.723  1.00  0.00     0.000 C 
BRANCH   6   7
ATOM      7  C   UNL     1      61.009  27.368  50.569  1.00  0.00     0.000 C 
BRANCH   7   8
ATOM      8  C   UNL     1      60.779  26.305  51.654  1.00  0.00     0.000 C 
BRANCH   8   9
ATOM      9  C   UNL     1      59.904  25.137  51.169  1.00  0.00     0.000 C 
BRANCH   9  10
ATOM     10  C   UNL     1      58.807  24.689  52.154  1.00  0.00     0.000 C 
BRANCH  10  11
ATOM     11  C   UNL     1      58.818  25.413  53.511  1.00  0.00     0.000 C 
BRANCH  11  12
ATOM     12  C   UNL     1      57.567  25.124  54.353  1.00  0.00     0.006 C 
BRANCH  12  13
ATOM     13  C   UNL     1      56.505  24.393  53.526  1.00  0.00     0.053 C 
BRANCH  13  14
ATOM     14  C   UNL     1      55.414  23.871  54.410  1.00  0.00     0.041 C 
ATOM     15  O   UNL     1      55.570  22.791  55.042  1.00  0.00    -0.550 OA
ATOM     16  O   UNL     1      54.226  24.578  54.540  1.00  0.00    -0.550 OA
ENDBRANCH  13  14
ENDBRANCH  12  13
ENDBRANCH  11  12
ENDBRANCH  10  11
ENDBRANCH   9  10
ENDBRANCH   8   9
ENDBRANCH   7   8
ENDBRANCH   6   7
ENDBRANCH   5   6
ENDBRANCH   4   5
ENDBRANCH   3   4
ENDBRANCH   2   3
ENDBRANCH   1   2
BRANCH   1  17
ATOM     17  C   UNL     1      54.256  27.750  50.368  1.00  0.00     0.000 C 
BRANCH  17  18
ATOM     18  C   UNL     1      53.743  29.197  50.367  1.00  0.00     0.000 C 
BRANCH  18  19
ATOM     19  C   UNL     1      53.138  29.565  51.727  1.00  0.00     0.000 C 
BRANCH  19  20
ATOM     20  C   UNL     1      53.683  30.911  52.227  1.00  0.00     0.000 C 
BRANCH  20  21
ATOM     21  C   UNL     1      55.054  31.263  51.626  1.00  0.00     0.000 C 
BRANCH  21  22
ATOM     22  C   UNL     1      56.169  31.503  52.659  1.00  0.00    -0.000 C 
BRANCH  22  23
ATOM     23  C   UNL     1      55.836  30.980  54.073  1.00  0.00    -0.000 C 
BRANCH  23  24
ATOM     24  C   UNL     1      56.925  30.046  54.620  1.00  0.00    -0.000 C 
BRANCH  24  25
ATOM     25  C   UNL     1      58.320  30.512  54.188  1.00  0.00    -0.000 C 
BRANCH  25  26
ATOM     26  C   UNL     1      59.137  29.345  53.617  1.00  0.00    -0.000 C 
BRANCH  26  27
ATOM     27  C   UNL     1      60.641  29.658  53.513  1.00  0.00    -0.000 C 
BRANCH  27  28
ATOM     28  C   UNL     1      61.003  30.767  52.507  1.00  0.00    -0.000 C 
BRANCH  28  29
ATOM     29  C   UNL     1      62.420  30.610  51.932  1.00  0.00    -0.003 C 
ATOM     30  C   UNL     1      62.434  30.847  50.424  1.00  0.00     0.004 C 
ENDBRANCH  28  29
ENDBRANCH  27  28
ENDBRANCH  26  27
ENDBRANCH  25  26
ENDBRANCH  24  25
ENDBRANCH  23  24
ENDBRANCH  22  23
ENDBRANCH  21  22
ENDBRANCH  20  21
ENDBRANCH  19  20
ENDBRANCH  18  19
ENDBRANCH  17  18
ENDBRANCH   1  17
TORSDOF 26
ENDMDL
