MODEL 1
REMARK VINA RESULT:    -3.328      0.000      0.000
REMARK INTER + INTRA:         -10.665
REMARK INTER:                  -7.220
REMARK INTRA:                  -3.445
REMARK UNBOUND:                -3.445
REMARK SMILES CCCCCCCCCCCCCCCCCCCCCC(=O)[O-]
REMARK SMILES IDX 12 1 11 2 10 3 9 4 8 5 7 6 6 7 5 8 4 9 3 10 2 11 1 12 13 13
REMARK SMILES IDX 14 14 15 15 16 16 17 17 18 18 19 19 20 20 21 21 22 22 23 23
REMARK SMILES IDX 24 24
REMARK H PARENT
REMARK Flexibility Score: inf
ROOT
ATOM      1  C   UNL     1      25.584  -8.702  29.773  1.00  0.00     0.000 C 
ENDROOT
BRANCH   1   2
ATOM      2  C   UNL     1      26.276  -9.509  28.658  1.00  0.00     0.000 C 
BRANCH   2   3
ATOM      3  C   UNL     1      27.670 -10.042  29.056  1.00  0.00     0.000 C 
BRANCH   3   4
ATOM      4  C   UNL     1      27.984  -9.798  30.542  1.00  0.00    -0.000 C 
BRANCH   4   5
ATOM      5  C   UNL     1      28.517 -11.052  31.251  1.00  0.00    -0.000 C 
BRANCH   5   6
ATOM      6  C   UNL     1      29.486 -11.864  30.378  1.00  0.00    -0.000 C 
BRANCH   6   7
ATOM      7  C   UNL     1      30.855 -11.994  31.057  1.00  0.00    -0.000 C 
BRANCH   7   8
ATOM      8  C   UNL     1      31.847 -10.963  30.500  1.00  0.00    -0.000 C 
BRANCH   8   9
ATOM      9  C   UNL     1      32.070  -9.784  31.462  1.00  0.00    -0.000 C 
BRANCH   9  10
ATOM     10  C   UNL     1      31.445  -8.477  30.947  1.00  0.00    -0.000 C 
BRANCH  10  11
ATOM     11  C   UNL     1      31.517  -7.343  31.982  1.00  0.00    -0.003 C 
ATOM     12  C   UNL     1      30.189  -7.117  32.705  1.00  0.00     0.004 C 
ENDBRANCH  10  11
ENDBRANCH   9  10
ENDBRANCH   8   9
ENDBRANCH   7   8
ENDBRANCH   6   7
ENDBRANCH   5   6
ENDBRANCH   4   5
ENDBRANCH   3   4
ENDBRANCH   2   3
ENDBRANCH   1   2
BRANCH   1  13
ATOM     13  C   UNL     1      24.260  -8.034  29.359  1.00  0.00     0.000 C 
BRANCH  13  14
ATOM     14  C   UNL     1      22.995  -8.660  29.982  1.00  0.00     0.000 C 
BRANCH  14  15
ATOM     15  C   UNL     1      22.539  -9.986  29.344  1.00  0.00     0.000 C 
BRANCH  15  16
ATOM     16  C   UNL     1      22.702 -11.234  30.236  1.00  0.00     0.000 C 
BRANCH  16  17
ATOM     17  C   UNL     1      23.918 -12.117  29.902  1.00  0.00     0.000 C 
BRANCH  17  18
ATOM     18  C   UNL     1      24.977 -12.125  31.013  1.00  0.00     0.000 C 
BRANCH  18  19
ATOM     19  C   UNL     1      24.388 -11.605  32.333  1.00  0.00     0.000 C 
BRANCH  19  20
ATOM     20  C   UNL     1      25.214 -10.456  32.942  1.00  0.00     0.006 C 
BRANCH  20  21
ATOM     21  C   UNL     1      24.368  -9.309  33.519  1.00  0.00     0.053 C 
BRANCH  21  22
ATOM     22  C   UNL     1      24.233  -9.407  35.008  1.00  0.00     0.041 C 
ATOM     23  O   UNL     1      24.086  -8.366  35.701  1.00  0.00    -0.550 OA
ATOM     24  O   UNL     1      24.313 -10.646  35.633  1.00  0.00    -0.550 OA
ENDBRANCH  21  22
ENDBRANCH  20  21
ENDBRANCH  19  20
ENDBRANCH  18  19
ENDBRANCH  17  18
ENDBRANCH  16  17
ENDBRANCH  15  16
ENDBRANCH  14  15
ENDBRANCH  13  14
ENDBRANCH   1  13
TORSDOF 20
ENDMDL
MODEL 2
REMARK VINA RESULT:    -3.193      1.405      2.463
REMARK INTER + INTRA:         -10.371
REMARK INTER:                  -7.804
REMARK INTRA:                  -2.568
REMARK UNBOUND:                -3.445
REMARK SMILES CCCCCCCCCCCCCCCCCCCCCC(=O)[O-]
REMARK SMILES IDX 12 1 11 2 10 3 9 4 8 5 7 6 6 7 5 8 4 9 3 10 2 11 1 12 13 13
REMARK SMILES IDX 14 14 15 15 16 16 17 17 18 18 19 19 20 20 21 21 22 22 23 23
REMARK SMILES IDX 24 24
REMARK H PARENT
REMARK Flexibility Score: inf
ROOT
ATOM      1  C   UNL     1      26.579  -9.258  30.375  1.00  0.00     0.000 C 
ENDROOT
BRANCH   1   2
ATOM      2  C   UNL     1      27.751 -10.123  30.877  1.00  0.00     0.000 C 
BRANCH   2   3
ATOM      3  C   UNL     1      28.173 -11.226  29.882  1.00  0.00     0.000 C 
BRANCH   3   4
ATOM      4  C   UNL     1      29.693 -11.466  29.889  1.00  0.00    -0.000 C 
BRANCH   4   5
ATOM      5  C   UNL     1      30.389 -10.838  31.106  1.00  0.00    -0.000 C 
BRANCH   5   6
ATOM      6  C   UNL     1      31.896 -10.630  30.889  1.00  0.00    -0.000 C 
BRANCH   6   7
ATOM      7  C   UNL     1      32.251  -9.139  30.913  1.00  0.00    -0.000 C 
BRANCH   7   8
ATOM      8  C   UNL     1      31.081  -8.302  31.449  1.00  0.00    -0.000 C 
BRANCH   8   9
ATOM      9  C   UNL     1      31.497  -7.387  32.612  1.00  0.00    -0.000 C 
BRANCH   9  10
ATOM     10  C   UNL     1      31.842  -8.176  33.887  1.00  0.00    -0.000 C 
BRANCH  10  11
ATOM     11  C   UNL     1      32.245  -7.259  35.054  1.00  0.00    -0.003 C 
ATOM     12  C   UNL     1      33.751  -7.257  35.312  1.00  0.00     0.004 C 
ENDBRANCH  10  11
ENDBRANCH   9  10
ENDBRANCH   8   9
ENDBRANCH   7   8
ENDBRANCH   6   7
ENDBRANCH   5   6
ENDBRANCH   4   5
ENDBRANCH   3   4
ENDBRANCH   2   3
ENDBRANCH   1   2
BRANCH   1  13
ATOM     13  C   UNL     1      25.953  -9.728  29.049  1.00  0.00     0.000 C 
BRANCH  13  14
ATOM     14  C   UNL     1      24.695  -8.948  28.613  1.00  0.00     0.000 C 
BRANCH  14  15
ATOM     15  C   UNL     1      24.331  -7.744  29.503  1.00  0.00     0.000 C 
BRANCH  15  16
ATOM     16  C   UNL     1      23.106  -7.948  30.416  1.00  0.00     0.000 C 
BRANCH  16  17
ATOM     17  C   UNL     1      22.507  -9.366  30.393  1.00  0.00     0.000 C 
BRANCH  17  18
ATOM     18  C   UNL     1      22.559 -10.062  31.761  1.00  0.00     0.000 C 
BRANCH  18  19
ATOM     19  C   UNL     1      23.667 -11.126  31.790  1.00  0.00     0.000 C 
BRANCH  19  20
ATOM     20  C   UNL     1      24.580 -11.001  33.024  1.00  0.00     0.006 C 
BRANCH  20  21
ATOM     21  C   UNL     1      24.647  -9.586  33.619  1.00  0.00     0.053 C 
BRANCH  21  22
ATOM     22  C   UNL     1      24.308  -9.575  35.078  1.00  0.00     0.041 C 
ATOM     23  O   UNL     1      24.142  -8.483  35.683  1.00  0.00    -0.550 OA
ATOM     24  O   UNL     1      24.216 -10.771  35.779  1.00  0.00    -0.550 OA
ENDBRANCH  21  22
ENDBRANCH  20  21
ENDBRANCH  19  20
ENDBRANCH  18  19
ENDBRANCH  17  18
ENDBRANCH  16  17
ENDBRANCH  15  16
ENDBRANCH  14  15
ENDBRANCH  13  14
ENDBRANCH   1  13
TORSDOF 20
ENDMDL
MODEL 3
REMARK VINA RESULT:    -3.162      2.296      6.191
REMARK INTER + INTRA:         -10.303
REMARK INTER:                  -7.388
REMARK INTRA:                  -2.915
REMARK UNBOUND:                -3.445
REMARK SMILES CCCCCCCCCCCCCCCCCCCCCC(=O)[O-]
REMARK SMILES IDX 12 1 11 2 10 3 9 4 8 5 7 6 6 7 5 8 4 9 3 10 2 11 1 12 13 13
REMARK SMILES IDX 14 14 15 15 16 16 17 17 18 18 19 19 20 20 21 21 22 22 23 23
REMARK SMILES IDX 24 24
REMARK H PARENT
REMARK Flexibility Score: inf
ROOT
ATOM      1  C   UNL     1      23.093  -8.062  30.191  1.00  0.00     0.000 C 
ENDROOT
BRANCH   1   2
ATOM      2  C   UNL     1      22.091  -9.218  30.007  1.00  0.00     0.000 C 
BRANCH   2   3
ATOM      3  C   UNL     1      21.606  -9.831  31.339  1.00  0.00     0.000 C 
BRANCH   3   4
ATOM      4  C   UNL     1      22.066 -11.290  31.510  1.00  0.00    -0.000 C 
BRANCH   4   5
ATOM      5  C   UNL     1      23.104 -11.714  30.460  1.00  0.00    -0.000 C 
BRANCH   5   6
ATOM      6  C   UNL     1      24.480 -12.020  31.073  1.00  0.00    -0.000 C 
BRANCH   6   7
ATOM      7  C   UNL     1      24.547 -11.546  32.530  1.00  0.00    -0.000 C 
BRANCH   7   8
ATOM      8  C   UNL     1      25.490 -10.343  32.676  1.00  0.00    -0.000 C 
BRANCH   8   9
ATOM      9  C   UNL     1      24.798  -9.129  33.315  1.00  0.00    -0.000 C 
BRANCH   9  10
ATOM     10  C   UNL     1      23.733  -9.534  34.349  1.00  0.00    -0.000 C 
BRANCH  10  11
ATOM     11  C   UNL     1      23.866  -8.754  35.667  1.00  0.00    -0.003 C 
ATOM     12  C   UNL     1      22.559  -8.697  36.455  1.00  0.00     0.004 C 
ENDBRANCH  10  11
ENDBRANCH   9  10
ENDBRANCH   8   9
ENDBRANCH   7   8
ENDBRANCH   6   7
ENDBRANCH   5   6
ENDBRANCH   4   5
ENDBRANCH   3   4
ENDBRANCH   2   3
ENDBRANCH   1   2
BRANCH   1  13
ATOM     13  C   UNL     1      24.259  -8.055  29.185  1.00  0.00     0.000 C 
BRANCH  13  14
ATOM     14  C   UNL     1      25.552  -8.731  29.686  1.00  0.00     0.000 C 
BRANCH  14  15
ATOM     15  C   UNL     1      26.228  -9.678  28.677  1.00  0.00     0.000 C 
BRANCH  15  16
ATOM     16  C   UNL     1      27.723  -9.955  28.935  1.00  0.00     0.000 C 
BRANCH  16  17
ATOM     17  C   UNL     1      28.018 -10.837  30.162  1.00  0.00     0.000 C 
BRANCH  17  18
ATOM     18  C   UNL     1      29.484 -10.765  30.614  1.00  0.00     0.000 C 
BRANCH  18  19
ATOM     19  C   UNL     1      29.862  -9.331  31.015  1.00  0.00     0.000 C 
BRANCH  19  20
ATOM     20  C   UNL     1      31.384  -9.090  31.000  1.00  0.00     0.006 C 
BRANCH  20  21
ATOM     21  C   UNL     1      31.821  -7.781  31.677  1.00  0.00     0.053 C 
BRANCH  21  22
ATOM     22  C   UNL     1      31.047  -7.515  32.932  1.00  0.00     0.041 C 
ATOM     23  O   UNL     1      30.082  -6.706  32.923  1.00  0.00    -0.550 OA
ATOM     24  O   UNL     1      31.420  -8.129  34.122  1.00  0.00    -0.550 OA
ENDBRANCH  21  22
ENDBRANCH  20  21
ENDBRANCH  19  20
ENDBRANCH  18  19
ENDBRANCH  17  18
ENDBRANCH  16  17
ENDBRANCH  15  16
ENDBRANCH  14  15
ENDBRANCH  13  14
ENDBRANCH   1  13
TORSDOF 20
ENDMDL
MODEL 4
REMARK VINA RESULT:    -3.003      1.366      1.855
REMARK INTER + INTRA:          -9.960
REMARK INTER:                  -7.597
REMARK INTRA:                  -2.363
REMARK UNBOUND:                -3.445
REMARK SMILES CCCCCCCCCCCCCCCCCCCCCC(=O)[O-]
REMARK SMILES IDX 12 1 11 2 10 3 9 4 8 5 7 6 6 7 5 8 4 9 3 10 2 11 1 12 13 13
REMARK SMILES IDX 14 14 15 15 16 16 17 17 18 18 19 19 20 20 21 21 22 22 23 23
REMARK SMILES IDX 24 24
REMARK H PARENT
REMARK Flexibility Score: inf
ROOT
ATOM      1  C   UNL     1      25.155  -9.877  27.890  1.00  0.00     0.000 C 
ENDROOT
BRANCH   1   2
ATOM      2  C   UNL     1      26.523  -9.583  28.535  1.00  0.00     0.000 C 
BRANCH   2   3
ATOM      3  C   UNL     1      27.106 -10.780  29.317  1.00  0.00     0.000 C 
BRANCH   3   4
ATOM      4  C   UNL     1      28.266 -10.365  30.239  1.00  0.00    -0.000 C 
BRANCH   4   5
ATOM      5  C   UNL     1      28.435 -11.303  31.443  1.00  0.00    -0.000 C 
BRANCH   5   6
ATOM      6  C   UNL     1      29.833 -11.936  31.513  1.00  0.00    -0.000 C 
BRANCH   6   7
ATOM      7  C   UNL     1      30.834 -11.148  30.660  1.00  0.00    -0.000 C 
BRANCH   7   8
ATOM      8  C   UNL     1      31.729 -10.261  31.539  1.00  0.00    -0.000 C 
BRANCH   8   9
ATOM      9  C   UNL     1      32.326  -9.077  30.761  1.00  0.00    -0.000 C 
BRANCH   9  10
ATOM     10  C   UNL     1      31.740  -7.725  31.203  1.00  0.00    -0.000 C 
BRANCH  10  11
ATOM     11  C   UNL     1      30.544  -7.886  32.155  1.00  0.00    -0.003 C 
ATOM     12  C   UNL     1      30.155  -6.578  32.843  1.00  0.00     0.004 C 
ENDBRANCH  10  11
ENDBRANCH   9  10
ENDBRANCH   8   9
ENDBRANCH   7   8
ENDBRANCH   6   7
ENDBRANCH   5   6
ENDBRANCH   4   5
ENDBRANCH   3   4
ENDBRANCH   2   3
ENDBRANCH   1   2
BRANCH   1  13
ATOM     13  C   UNL     1      24.042  -8.878  28.256  1.00  0.00     0.000 C 
BRANCH  13  14
ATOM     14  C   UNL     1      24.389  -7.913  29.408  1.00  0.00     0.000 C 
BRANCH  14  15
ATOM     15  C   UNL     1      23.592  -8.133  30.708  1.00  0.00     0.000 C 
BRANCH  15  16
ATOM     16  C   UNL     1      22.878  -9.495  30.819  1.00  0.00     0.000 C 
BRANCH  16  17
ATOM     17  C   UNL     1      23.542 -10.502  31.775  1.00  0.00     0.000 C 
BRANCH  17  18
ATOM     18  C   UNL     1      24.912 -10.032  32.285  1.00  0.00     0.000 C 
BRANCH  18  19
ATOM     19  C   UNL     1      25.126 -10.455  33.746  1.00  0.00     0.000 C 
BRANCH  19  20
ATOM     20  C   UNL     1      24.451  -9.498  34.748  1.00  0.00     0.006 C 
BRANCH  20  21
ATOM     21  C   UNL     1      23.858 -10.195  35.983  1.00  0.00     0.053 C 
BRANCH  21  22
ATOM     22  C   UNL     1      22.549  -9.594  36.391  1.00  0.00     0.041 C 
ATOM     23  O   UNL     1      21.660 -10.311  36.922  1.00  0.00    -0.550 OA
ATOM     24  O   UNL     1      22.294  -8.250  36.145  1.00  0.00    -0.550 OA
ENDBRANCH  21  22
ENDBRANCH  20  21
ENDBRANCH  19  20
ENDBRANCH  18  19
ENDBRANCH  17  18
ENDBRANCH  16  17
ENDBRANCH  15  16
ENDBRANCH  14  15
ENDBRANCH  13  14
ENDBRANCH   1  13
TORSDOF 20
ENDMDL
MODEL 5
REMARK VINA RESULT:    -2.816      3.128      7.572
REMARK INTER + INTRA:          -9.554
REMARK INTER:                  -6.432
REMARK INTRA:                  -3.122
REMARK UNBOUND:                -3.445
REMARK SMILES CCCCCCCCCCCCCCCCCCCCCC(=O)[O-]
REMARK SMILES IDX 12 1 11 2 10 3 9 4 8 5 7 6 6 7 5 8 4 9 3 10 2 11 1 12 13 13
REMARK SMILES IDX 14 14 15 15 16 16 17 17 18 18 19 19 20 20 21 21 22 22 23 23
REMARK SMILES IDX 24 24
REMARK H PARENT
REMARK Flexibility Score: inf
ROOT
ATOM      1  C   UNL     1      24.651  -9.611  34.490  1.00  0.00     0.000 C 
ENDROOT
BRANCH   1   2
ATOM      2  C   UNL     1      24.004  -9.649  35.888  1.00  0.00     0.000 C 
BRANCH   2   3
ATOM      3  C   UNL     1      23.415 -11.027  36.258  1.00  0.00     0.000 C 
BRANCH   3   4
ATOM      4  C   UNL     1      21.892 -10.972  36.470  1.00  0.00    -0.000 C 
BRANCH   4   5
ATOM      5  C   UNL     1      21.111 -10.855  35.152  1.00  0.00    -0.000 C 
BRANCH   5   6
ATOM      6  C   UNL     1      21.500 -11.936  34.131  1.00  0.00    -0.000 C 
BRANCH   6   7
ATOM      7  C   UNL     1      21.330 -11.420  32.698  1.00  0.00    -0.000 C 
BRANCH   7   8
ATOM      8  C   UNL     1      21.606  -9.911  32.618  1.00  0.00    -0.000 C 
BRANCH   8   9
ATOM      9  C   UNL     1      22.111  -9.480  31.231  1.00  0.00    -0.000 C 
BRANCH   9  10
ATOM     10  C   UNL     1      22.197 -10.655  30.243  1.00  0.00    -0.000 C 
BRANCH  10  11
ATOM     11  C   UNL     1      23.354 -10.499  29.243  1.00  0.00    -0.003 C 
ATOM     12  C   UNL     1      23.379  -9.123  28.578  1.00  0.00     0.004 C 
ENDBRANCH  10  11
ENDBRANCH   9  10
ENDBRANCH   8   9
ENDBRANCH   7   8
ENDBRANCH   6   7
ENDBRANCH   5   6
ENDBRANCH   4   5
ENDBRANCH   3   4
ENDBRANCH   2   3
ENDBRANCH   1   2
BRANCH   1  13
ATOM     13  C   UNL     1      25.035 -10.989  33.921  1.00  0.00     0.000 C 
BRANCH  13  14
ATOM     14  C   UNL     1      25.461 -10.982  32.438  1.00  0.00     0.000 C 
BRANCH  14  15
ATOM     15  C   UNL     1      25.688  -9.585  31.829  1.00  0.00     0.000 C 
BRANCH  15  16
ATOM     16  C   UNL     1      26.710  -9.529  30.676  1.00  0.00     0.000 C 
BRANCH  16  17
ATOM     17  C   UNL     1      27.503 -10.828  30.446  1.00  0.00     0.000 C 
BRANCH  17  18
ATOM     18  C   UNL     1      28.971 -10.577  30.070  1.00  0.00     0.000 C 
BRANCH  18  19
ATOM     19  C   UNL     1      29.913 -11.122  31.154  1.00  0.00     0.000 C 
BRANCH  19  20
ATOM     20  C   UNL     1      30.918 -10.068  31.655  1.00  0.00     0.006 C 
BRANCH  20  21
ATOM     21  C   UNL     1      30.340  -8.649  31.768  1.00  0.00     0.053 C 
BRANCH  21  22
ATOM     22  C   UNL     1      31.411  -7.603  31.723  1.00  0.00     0.041 C 
ATOM     23  O   UNL     1      32.331  -7.673  30.866  1.00  0.00    -0.550 OA
ATOM     24  O   UNL     1      31.416  -6.572  32.655  1.00  0.00    -0.550 OA
ENDBRANCH  21  22
ENDBRANCH  20  21
ENDBRANCH  19  20
ENDBRANCH  18  19
ENDBRANCH  17  18
ENDBRANCH  16  17
ENDBRANCH  15  16
ENDBRANCH  14  15
ENDBRANCH  13  14
ENDBRANCH   1  13
TORSDOF 20
ENDMDL
MODEL 6
REMARK VINA RESULT:    -2.692      7.089     10.301
REMARK INTER + INTRA:          -9.284
REMARK INTER:                  -8.027
REMARK INTRA:                  -1.257
REMARK UNBOUND:                -3.445
REMARK SMILES CCCCCCCCCCCCCCCCCCCCCC(=O)[O-]
REMARK SMILES IDX 12 1 11 2 10 3 9 4 8 5 7 6 6 7 5 8 4 9 3 10 2 11 1 12 13 13
REMARK SMILES IDX 14 14 15 15 16 16 17 17 18 18 19 19 20 20 21 21 22 22 23 23
REMARK SMILES IDX 24 24
REMARK H PARENT
REMARK Flexibility Score: inf
ROOT
ATOM      1  C   UNL     1      25.447  -6.525  38.197  1.00  0.00     0.000 C 
ENDROOT
BRANCH   1   2
ATOM      2  C   UNL     1      25.080  -7.600  37.156  1.00  0.00     0.000 C 
BRANCH   2   3
ATOM      3  C   UNL     1      23.587  -7.597  36.766  1.00  0.00     0.000 C 
BRANCH   3   4
ATOM      4  C   UNL     1      23.207  -8.814  35.906  1.00  0.00    -0.000 C 
BRANCH   4   5
ATOM      5  C   UNL     1      24.387  -9.356  35.086  1.00  0.00    -0.000 C 
BRANCH   5   6
ATOM      6  C   UNL     1      24.097  -9.395  33.577  1.00  0.00    -0.000 C 
BRANCH   6   7
ATOM      7  C   UNL     1      24.316 -10.804  33.015  1.00  0.00    -0.000 C 
BRANCH   7   8
ATOM      8  C   UNL     1      25.315 -10.784  31.849  1.00  0.00    -0.000 C 
BRANCH   8   9
ATOM      9  C   UNL     1      25.698  -9.355  31.429  1.00  0.00    -0.000 C 
BRANCH   9  10
ATOM     10  C   UNL     1      25.876  -9.216  29.907  1.00  0.00    -0.000 C 
BRANCH  10  11
ATOM     11  C   UNL     1      24.710  -8.463  29.246  1.00  0.00    -0.003 C 
ATOM     12  C   UNL     1      23.841  -7.715  30.256  1.00  0.00     0.004 C 
ENDBRANCH  10  11
ENDBRANCH   9  10
ENDBRANCH   8   9
ENDBRANCH   7   8
ENDBRANCH   6   7
ENDBRANCH   5   6
ENDBRANCH   4   5
ENDBRANCH   3   4
ENDBRANCH   2   3
ENDBRANCH   1   2
BRANCH   1  13
ATOM     13  C   UNL     1      24.415  -5.391  38.343  1.00  0.00     0.000 C 
BRANCH  13  14
ATOM     14  C   UNL     1      25.008  -4.020  38.728  1.00  0.00     0.000 C 
BRANCH  14  15
ATOM     15  C   UNL     1      24.033  -2.832  38.617  1.00  0.00     0.000 C 
BRANCH  15  16
ATOM     16  C   UNL     1      23.504  -2.288  39.959  1.00  0.00     0.000 C 
BRANCH  16  17
ATOM     17  C   UNL     1      22.030  -1.843  39.944  1.00  0.00     0.000 C 
BRANCH  17  18
ATOM     18  C   UNL     1      21.848  -0.360  40.301  1.00  0.00     0.000 C 
BRANCH  18  19
ATOM     19  C   UNL     1      21.290  -0.205  41.724  1.00  0.00     0.000 C 
BRANCH  19  20
ATOM     20  C   UNL     1      20.953  -1.557  42.382  1.00  0.00     0.006 C 
BRANCH  20  21
ATOM     21  C   UNL     1      21.271  -1.623  43.885  1.00  0.00     0.053 C 
BRANCH  21  22
ATOM     22  C   UNL     1      22.376  -2.589  44.182  1.00  0.00     0.041 C 
ATOM     23  O   UNL     1      22.913  -2.609  45.321  1.00  0.00    -0.550 OA
ATOM     24  O   UNL     1      22.841  -3.440  43.187  1.00  0.00    -0.550 OA
ENDBRANCH  21  22
ENDBRANCH  20  21
ENDBRANCH  19  20
ENDBRANCH  18  19
ENDBRANCH  17  18
ENDBRANCH  16  17
ENDBRANCH  15  16
ENDBRANCH  14  15
ENDBRANCH  13  14
ENDBRANCH   1  13
TORSDOF 20
ENDMDL
MODEL 7
REMARK VINA RESULT:    -2.616      1.530      2.261
REMARK INTER + INTRA:          -9.120
REMARK INTER:                  -7.229
REMARK INTRA:                  -1.891
REMARK UNBOUND:                -3.445
REMARK SMILES CCCCCCCCCCCCCCCCCCCCCC(=O)[O-]
REMARK SMILES IDX 12 1 11 2 10 3 9 4 8 5 7 6 6 7 5 8 4 9 3 10 2 11 1 12 13 13
REMARK SMILES IDX 14 14 15 15 16 16 17 17 18 18 19 19 20 20 21 21 22 22 23 23
REMARK SMILES IDX 24 24
REMARK H PARENT
REMARK Flexibility Score: inf
ROOT
ATOM      1  C   UNL     1      25.868  -9.273  31.160  1.00  0.00     0.000 C 
ENDROOT
BRANCH   1   2
ATOM      2  C   UNL     1      25.855 -10.803  31.338  1.00  0.00     0.000 C 
BRANCH   2   3
ATOM      3  C   UNL     1      27.249 -11.453  31.193  1.00  0.00     0.000 C 
BRANCH   3   4
ATOM      4  C   UNL     1      27.901 -11.136  29.836  1.00  0.00    -0.000 C 
BRANCH   4   5
ATOM      5  C   UNL     1      29.420 -11.360  29.839  1.00  0.00    -0.000 C 
BRANCH   5   6
ATOM      6  C   UNL     1      30.009 -11.439  31.256  1.00  0.00    -0.000 C 
BRANCH   6   7
ATOM      7  C   UNL     1      30.511 -10.066  31.717  1.00  0.00    -0.000 C 
BRANCH   7   8
ATOM      8  C   UNL     1      31.857  -9.722  31.062  1.00  0.00    -0.000 C 
BRANCH   8   9
ATOM      9  C   UNL     1      32.180  -8.221  31.138  1.00  0.00    -0.000 C 
BRANCH   9  10
ATOM     10  C   UNL     1      31.070  -7.413  31.831  1.00  0.00    -0.000 C 
BRANCH  10  11
ATOM     11  C   UNL     1      31.560  -6.722  33.114  1.00  0.00    -0.003 C 
ATOM     12  C   UNL     1      32.069  -7.712  34.161  1.00  0.00     0.004 C 
ENDBRANCH  10  11
ENDBRANCH   9  10
ENDBRANCH   8   9
ENDBRANCH   7   8
ENDBRANCH   6   7
ENDBRANCH   5   6
ENDBRANCH   4   5
ENDBRANCH   3   4
ENDBRANCH   2   3
ENDBRANCH   1   2
BRANCH   1  13
ATOM     13  C   UNL     1      25.111  -8.762  29.920  1.00  0.00     0.000 C 
BRANCH  13  14
ATOM     14  C   UNL     1      24.041  -7.689  30.210  1.00  0.00     0.000 C 
BRANCH  14  15
ATOM     15  C   UNL     1      22.583  -8.171  30.090  1.00  0.00     0.000 C 
BRANCH  15  16
ATOM     16  C   UNL     1      22.330  -9.622  30.548  1.00  0.00     0.000 C 
BRANCH  16  17
ATOM     17  C   UNL     1      21.967  -9.780  32.035  1.00  0.00     0.000 C 
BRANCH  17  18
ATOM     18  C   UNL     1      22.397 -11.134  32.618  1.00  0.00     0.000 C 
BRANCH  18  19
ATOM     19  C   UNL     1      21.904 -11.288  34.064  1.00  0.00     0.000 C 
BRANCH  19  20
ATOM     20  C   UNL     1      21.787  -9.940  34.801  1.00  0.00     0.006 C 
BRANCH  20  21
ATOM     21  C   UNL     1      22.664  -9.831  36.059  1.00  0.00     0.053 C 
BRANCH  21  22
ATOM     22  C   UNL     1      24.002  -9.230  35.757  1.00  0.00     0.041 C 
ATOM     23  O   UNL     1      24.778  -9.788  34.936  1.00  0.00    -0.550 OA
ATOM     24  O   UNL     1      24.410  -8.075  36.414  1.00  0.00    -0.550 OA
ENDBRANCH  21  22
ENDBRANCH  20  21
ENDBRANCH  19  20
ENDBRANCH  18  19
ENDBRANCH  17  18
ENDBRANCH  16  17
ENDBRANCH  15  16
ENDBRANCH  14  15
ENDBRANCH  13  14
ENDBRANCH   1  13
TORSDOF 20
ENDMDL
MODEL 8
REMARK VINA RESULT:    -2.592      3.323      5.487
REMARK INTER + INTRA:          -9.067
REMARK INTER:                  -6.915
REMARK INTRA:                  -2.152
REMARK UNBOUND:                -3.445
REMARK SMILES CCCCCCCCCCCCCCCCCCCCCC(=O)[O-]
REMARK SMILES IDX 12 1 11 2 10 3 9 4 8 5 7 6 6 7 5 8 4 9 3 10 2 11 1 12 13 13
REMARK SMILES IDX 14 14 15 15 16 16 17 17 18 18 19 19 20 20 21 21 22 22 23 23
REMARK SMILES IDX 24 24
REMARK H PARENT
REMARK Flexibility Score: inf
ROOT
ATOM      1  C   UNL     1      30.359  -8.745  32.057  1.00  0.00     0.000 C 
ENDROOT
BRANCH   1   2
ATOM      2  C   UNL     1      31.320  -7.778  31.338  1.00  0.00     0.000 C 
BRANCH   2   3
ATOM      3  C   UNL     1      32.591  -8.465  30.792  1.00  0.00     0.000 C 
BRANCH   3   4
ATOM      4  C   UNL     1      32.615  -9.972  31.097  1.00  0.00    -0.000 C 
BRANCH   4   5
ATOM      5  C   UNL     1      33.070 -10.816  29.897  1.00  0.00    -0.000 C 
BRANCH   5   6
ATOM      6  C   UNL     1      34.553 -11.212  29.974  1.00  0.00    -0.000 C 
BRANCH   6   7
ATOM      7  C   UNL     1      35.434 -10.167  29.280  1.00  0.00    -0.000 C 
BRANCH   7   8
ATOM      8  C   UNL     1      36.391 -10.830  28.279  1.00  0.00    -0.000 C 
BRANCH   8   9
ATOM      9  C   UNL     1      37.848 -10.827  28.769  1.00  0.00    -0.000 C 
BRANCH   9  10
ATOM     10  C   UNL     1      38.123 -11.927  29.808  1.00  0.00    -0.000 C 
BRANCH  10  11
ATOM     11  C   UNL     1      38.462 -11.355  31.194  1.00  0.00    -0.003 C 
ATOM     12  C   UNL     1      39.479 -10.216  31.132  1.00  0.00     0.004 C 
ENDBRANCH  10  11
ENDBRANCH   9  10
ENDBRANCH   8   9
ENDBRANCH   7   8
ENDBRANCH   6   7
ENDBRANCH   5   6
ENDBRANCH   4   5
ENDBRANCH   3   4
ENDBRANCH   2   3
ENDBRANCH   1   2
BRANCH   1  13
ATOM     13  C   UNL     1      29.123  -9.155  31.236  1.00  0.00     0.000 C 
BRANCH  13  14
ATOM     14  C   UNL     1      28.930 -10.676  31.069  1.00  0.00     0.000 C 
BRANCH  14  15
ATOM     15  C   UNL     1      29.264 -11.229  29.671  1.00  0.00     0.000 C 
BRANCH  15  16
ATOM     16  C   UNL     1      28.051 -11.457  28.747  1.00  0.00     0.000 C 
BRANCH  16  17
ATOM     17  C   UNL     1      27.522 -10.193  28.044  1.00  0.00     0.000 C 
BRANCH  17  18
ATOM     18  C   UNL     1      26.047  -9.905  28.357  1.00  0.00     0.000 C 
BRANCH  18  19
ATOM     19  C   UNL     1      25.917  -9.012  29.600  1.00  0.00     0.000 C 
BRANCH  19  20
ATOM     20  C   UNL     1      24.933  -9.580  30.641  1.00  0.00     0.006 C 
BRANCH  20  21
ATOM     21  C   UNL     1      25.468  -9.577  32.082  1.00  0.00     0.053 C 
BRANCH  21  22
ATOM     22  C   UNL     1      25.343 -10.922  32.728  1.00  0.00     0.041 C 
ATOM     23  O   UNL     1      25.218 -11.016  33.978  1.00  0.00    -0.550 OA
ATOM     24  O   UNL     1      25.406 -12.074  31.954  1.00  0.00    -0.550 OA
ENDBRANCH  21  22
ENDBRANCH  20  21
ENDBRANCH  19  20
ENDBRANCH  18  19
ENDBRANCH  17  18
ENDBRANCH  16  17
ENDBRANCH  15  16
ENDBRANCH  14  15
ENDBRANCH  13  14
ENDBRANCH   1  13
TORSDOF 20
ENDMDL
