MODEL 1
REMARK VINA RESULT:    -4.349      0.000      0.000
REMARK INTER + INTRA:          -5.044
REMARK INTER:                  -5.239
REMARK INTRA:                   0.195
REMARK UNBOUND:                 0.195
REMARK SMILES O=c1c(O)c(-c2ccc(O)c(O)c2)oc2cc(O)cc(O)c12
REMARK SMILES IDX 5 1 3 2 2 3 1 4 22 5 20 6 19 7 17 8 16 9 15 10 14 11 6 12
REMARK SMILES IDX 7 13 8 14 9 15 13 16 11 17 10 18 12 20 4 22 21 24 18 26
REMARK H PARENT 10 19 12 21 4 23 21 25 18 27
REMARK Flexibility Score: inf
ROOT
ATOM      1  C   UNL     1     -16.782 -23.014   3.561  1.00  0.00     0.180 A 
ATOM      2  C   UNL     1     -16.612 -21.646   3.837  1.00  0.00     0.208 A 
ATOM      3  C   UNL     1     -16.708 -21.203   5.165  1.00  0.00     0.238 A 
ATOM      4  O   UNL     1     -16.500 -19.987   5.413  1.00  0.00    -0.285 OA
ATOM      5  C   UNL     1     -16.987 -22.130   6.199  1.00  0.00     0.111 A 
ATOM      6  C   UNL     1     -17.143 -21.786   7.575  1.00  0.00     0.134 A 
ATOM      7  C   UNL     1     -17.288 -22.802   8.529  1.00  0.00     0.093 A 
ATOM      8  C   UNL     1     -17.346 -24.142   8.150  1.00  0.00     0.123 A 
ATOM      9  C   UNL     1     -17.253 -24.486   6.801  1.00  0.00     0.094 A 
ATOM     10  C   UNL     1     -17.072 -23.498   5.830  1.00  0.00     0.146 A 
ATOM     11  O   UNL     1     -16.977 -23.867   4.559  1.00  0.00    -0.452 OA
ENDROOT
BRANCH   1  12
ATOM     12  C   UNL     1     -16.721 -23.553   2.182  1.00  0.00     0.025 A 
ATOM     13  C   UNL     1     -17.622 -24.554   1.792  1.00  0.00     0.016 A 
ATOM     14  C   UNL     1     -17.595 -25.061   0.491  1.00  0.00     0.051 A 
ATOM     15  C   UNL     1     -16.682 -24.570  -0.447  1.00  0.00     0.157 A 
ATOM     16  C   UNL     1     -15.818 -23.041   1.235  1.00  0.00     0.062 A 
ATOM     17  C   UNL     1     -15.784 -23.541  -0.072  1.00  0.00     0.158 A 
BRANCH  15  18
ATOM     18  O   UNL     1     -16.701 -25.125  -1.729  1.00  0.00    -0.504 OA
ATOM     19  H   UNL     1     -17.439 -24.969  -2.400  1.00  0.00     0.293 HD
ENDBRANCH  15  18
BRANCH  17  20
ATOM     20  O   UNL     1     -14.860 -22.987  -0.959  1.00  0.00    -0.504 OA
ATOM     21  H   UNL     1     -14.853 -22.016  -1.236  1.00  0.00     0.293 HD
ENDBRANCH  17  20
ENDBRANCH   1  12
BRANCH   2  22
ATOM     22  O   UNL     1     -16.316 -20.752   2.804  1.00  0.00    -0.502 OA
ATOM     23  H   UNL     1     -15.678 -19.975   2.925  1.00  0.00     0.293 HD
ENDBRANCH   2  22
BRANCH   6  24
ATOM     24  O   UNL     1     -17.194 -20.472   8.051  1.00  0.00    -0.507 OA
ATOM     25  H   UNL     1     -17.399 -20.214   9.004  1.00  0.00     0.293 HD
ENDBRANCH   6  24
BRANCH   8  26
ATOM     26  O   UNL     1     -17.507 -25.125   9.125  1.00  0.00    -0.508 OA
ATOM     27  H   UNL     1     -16.711 -25.528   9.605  1.00  0.00     0.293 HD
ENDBRANCH   8  26
TORSDOF 6
ENDMDL
MODEL 2
REMARK VINA RESULT:    -3.444      1.251      3.014
REMARK INTER + INTRA:          -3.953
REMARK INTER:                  -4.305
REMARK INTRA:                   0.352
REMARK UNBOUND:                 0.195
REMARK SMILES O=c1c(O)c(-c2ccc(O)c(O)c2)oc2cc(O)cc(O)c12
REMARK SMILES IDX 5 1 3 2 2 3 1 4 22 5 20 6 19 7 17 8 16 9 15 10 14 11 6 12
REMARK SMILES IDX 7 13 8 14 9 15 13 16 11 17 10 18 12 20 4 22 21 24 18 26
REMARK H PARENT 10 19 12 21 4 23 21 25 18 27
REMARK Flexibility Score: inf
ROOT
ATOM      1  C   UNL     1     -16.904 -23.008   3.806  1.00  0.00     0.180 A 
ATOM      2  C   UNL     1     -17.263 -23.800   4.910  1.00  0.00     0.208 A 
ATOM      3  C   UNL     1     -17.242 -23.230   6.193  1.00  0.00     0.238 A 
ATOM      4  O   UNL     1     -17.618 -23.928   7.171  1.00  0.00    -0.285 OA
ATOM      5  C   UNL     1     -16.848 -21.880   6.358  1.00  0.00     0.111 A 
ATOM      6  C   UNL     1     -16.754 -21.212   7.615  1.00  0.00     0.134 A 
ATOM      7  C   UNL     1     -16.479 -19.838   7.648  1.00  0.00     0.093 A 
ATOM      8  C   UNL     1     -16.233 -19.124   6.476  1.00  0.00     0.123 A 
ATOM      9  C   UNL     1     -16.266 -19.781   5.245  1.00  0.00     0.094 A 
ATOM     10  C   UNL     1     -16.572 -21.143   5.177  1.00  0.00     0.146 A 
ATOM     11  O   UNL     1     -16.603 -21.727   3.986  1.00  0.00    -0.452 OA
ENDROOT
BRANCH   1  12
ATOM     12  C   UNL     1     -16.877 -23.545   2.426  1.00  0.00     0.025 A 
ATOM     13  C   UNL     1     -17.745 -24.589   2.075  1.00  0.00     0.016 A 
ATOM     14  C   UNL     1     -17.750 -25.097   0.775  1.00  0.00     0.051 A 
ATOM     15  C   UNL     1     -16.903 -24.564  -0.203  1.00  0.00     0.157 A 
ATOM     16  C   UNL     1     -16.042 -22.992   1.441  1.00  0.00     0.062 A 
ATOM     17  C   UNL     1     -16.042 -23.492   0.133  1.00  0.00     0.158 A 
BRANCH  15  18
ATOM     18  O   UNL     1     -16.952 -25.122  -1.482  1.00  0.00    -0.504 OA
ATOM     19  H   UNL     1     -17.519 -25.920  -1.729  1.00  0.00     0.293 HD
ENDBRANCH  15  18
BRANCH  17  20
ATOM     20  O   UNL     1     -15.184 -22.896  -0.794  1.00  0.00    -0.504 OA
ATOM     21  H   UNL     1     -14.921 -23.317  -1.673  1.00  0.00     0.293 HD
ENDBRANCH  17  20
ENDBRANCH   1  12
BRANCH   2  22
ATOM     22  O   UNL     1     -17.670 -25.124   4.722  1.00  0.00    -0.502 OA
ATOM     23  H   UNL     1     -18.401 -25.552   5.278  1.00  0.00     0.293 HD
ENDBRANCH   2  22
BRANCH   6  24
ATOM     24  O   UNL     1     -16.889 -21.851   8.852  1.00  0.00    -0.507 OA
ATOM     25  H   UNL     1     -16.305 -21.677   9.655  1.00  0.00     0.293 HD
ENDBRANCH   6  24
BRANCH   8  26
ATOM     26  O   UNL     1     -15.949 -17.763   6.548  1.00  0.00    -0.508 OA
ATOM     27  H   UNL     1     -15.244 -17.337   5.957  1.00  0.00     0.293 HD
ENDBRANCH   8  26
TORSDOF 6
ENDMDL
MODEL 3
REMARK VINA RESULT:    -3.279      1.274      3.026
REMARK INTER + INTRA:          -3.755
REMARK INTER:                  -4.220
REMARK INTRA:                   0.465
REMARK UNBOUND:                 0.195
REMARK SMILES O=c1c(O)c(-c2ccc(O)c(O)c2)oc2cc(O)cc(O)c12
REMARK SMILES IDX 5 1 3 2 2 3 1 4 22 5 20 6 19 7 17 8 16 9 15 10 14 11 6 12
REMARK SMILES IDX 7 13 8 14 9 15 13 16 11 17 10 18 12 20 4 22 21 24 18 26
REMARK H PARENT 10 19 12 21 4 23 21 25 18 27
REMARK Flexibility Score: inf
ROOT
ATOM      1  C   UNL     1     -16.827 -23.057   3.503  1.00  0.00     0.180 A 
ATOM      2  C   UNL     1     -17.617 -24.086   4.044  1.00  0.00     0.208 A 
ATOM      3  C   UNL     1     -17.968 -24.032   5.402  1.00  0.00     0.238 A 
ATOM      4  O   UNL     1     -18.722 -24.927   5.868  1.00  0.00    -0.285 OA
ATOM      5  C   UNL     1     -17.514 -22.959   6.206  1.00  0.00     0.111 A 
ATOM      6  C   UNL     1     -17.777 -22.823   7.602  1.00  0.00     0.134 A 
ATOM      7  C   UNL     1     -17.387 -21.655   8.268  1.00  0.00     0.093 A 
ATOM      8  C   UNL     1     -16.689 -20.646   7.605  1.00  0.00     0.123 A 
ATOM      9  C   UNL     1     -16.375 -20.795   6.253  1.00  0.00     0.094 A 
ATOM     10  C   UNL     1     -16.781 -21.934   5.553  1.00  0.00     0.146 A 
ATOM     11  O   UNL     1     -16.471 -22.031   4.266  1.00  0.00    -0.452 OA
ENDROOT
BRANCH   1  12
ATOM     12  C   UNL     1     -16.395 -23.058   2.087  1.00  0.00     0.025 A 
ATOM     13  C   UNL     1     -15.438 -22.128   1.656  1.00  0.00     0.016 A 
ATOM     14  C   UNL     1     -15.002 -22.124   0.330  1.00  0.00     0.051 A 
ATOM     15  C   UNL     1     -15.498 -23.057  -0.587  1.00  0.00     0.157 A 
ATOM     16  C   UNL     1     -16.878 -24.011   1.174  1.00  0.00     0.062 A 
ATOM     17  C   UNL     1     -16.445 -24.018  -0.158  1.00  0.00     0.158 A 
BRANCH  15  18
ATOM     18  O   UNL     1     -15.027 -22.995  -1.901  1.00  0.00    -0.504 OA
ATOM     19  H   UNL     1     -14.728 -22.144  -2.353  1.00  0.00     0.293 HD
ENDBRANCH  15  18
BRANCH  17  20
ATOM     20  O   UNL     1     -16.969 -24.992  -1.009  1.00  0.00    -0.504 OA
ATOM     21  H   UNL     1     -16.560 -25.906  -1.142  1.00  0.00     0.293 HD
ENDBRANCH  17  20
ENDBRANCH   1  12
BRANCH   2  22
ATOM     22  O   UNL     1     -18.074 -25.125   3.228  1.00  0.00    -0.502 OA
ATOM     23  H   UNL     1     -17.542 -25.974   3.080  1.00  0.00     0.293 HD
ENDBRANCH   2  22
BRANCH   6  24
ATOM     24  O   UNL     1     -18.386 -23.812   8.381  1.00  0.00    -0.507 OA
ATOM     25  H   UNL     1     -17.894 -24.445   8.993  1.00  0.00     0.293 HD
ENDBRANCH   6  24
BRANCH   8  26
ATOM     26  O   UNL     1     -16.304 -19.504   8.303  1.00  0.00    -0.508 OA
ATOM     27  H   UNL     1     -15.337 -19.342   8.560  1.00  0.00     0.293 HD
ENDBRANCH   8  26
TORSDOF 6
ENDMDL
MODEL 4
REMARK VINA RESULT:    -2.065      1.873      7.096
REMARK INTER + INTRA:          -2.293
REMARK INTER:                  -2.185
REMARK INTRA:                  -0.108
REMARK UNBOUND:                 0.195
REMARK SMILES O=c1c(O)c(-c2ccc(O)c(O)c2)oc2cc(O)cc(O)c12
REMARK SMILES IDX 5 1 3 2 2 3 1 4 22 5 20 6 19 7 17 8 16 9 15 10 14 11 6 12
REMARK SMILES IDX 7 13 8 14 9 15 13 16 11 17 10 18 12 20 4 22 21 24 18 26
REMARK H PARENT 10 19 12 21 4 23 21 25 18 27
REMARK Flexibility Score: inf
ROOT
ATOM      1  C   UNL     1     -16.614 -22.119   4.528  1.00  0.00     0.180 A 
ATOM      2  C   UNL     1     -17.603 -23.118   4.561  1.00  0.00     0.208 A 
ATOM      3  C   UNL     1     -17.868 -23.852   3.394  1.00  0.00     0.238 A 
ATOM      4  O   UNL     1     -18.715 -24.782   3.444  1.00  0.00    -0.285 OA
ATOM      5  C   UNL     1     -17.152 -23.569   2.206  1.00  0.00     0.111 A 
ATOM      6  C   UNL     1     -17.365 -24.224   0.955  1.00  0.00     0.134 A 
ATOM      7  C   UNL     1     -16.510 -23.953  -0.120  1.00  0.00     0.093 A 
ATOM      8  C   UNL     1     -15.491 -23.007  -0.011  1.00  0.00     0.123 A 
ATOM      9  C   UNL     1     -15.311 -22.319   1.189  1.00  0.00     0.094 A 
ATOM     10  C   UNL     1     -16.126 -22.592   2.291  1.00  0.00     0.146 A 
ATOM     11  O   UNL     1     -15.915 -21.922   3.417  1.00  0.00    -0.452 OA
ENDROOT
BRANCH   1  12
ATOM     12  C   UNL     1     -16.297 -21.287   5.711  1.00  0.00     0.025 A 
ATOM     13  C   UNL     1     -15.795 -21.897   6.870  1.00  0.00     0.016 A 
ATOM     14  C   UNL     1     -15.471 -21.128   7.990  1.00  0.00     0.051 A 
ATOM     15  C   UNL     1     -15.624 -19.738   7.970  1.00  0.00     0.157 A 
ATOM     16  C   UNL     1     -16.430 -19.888   5.680  1.00  0.00     0.062 A 
ATOM     17  C   UNL     1     -16.105 -19.108   6.797  1.00  0.00     0.158 A 
BRANCH  15  18
ATOM     18  O   UNL     1     -15.289 -19.028   9.125  1.00  0.00    -0.504 OA
ATOM     19  H   UNL     1     -14.366 -19.022   9.536  1.00  0.00     0.293 HD
ENDBRANCH  15  18
BRANCH  17  20
ATOM     20  O   UNL     1     -16.264 -17.725   6.695  1.00  0.00    -0.504 OA
ATOM     21  H   UNL     1     -17.082 -17.278   6.308  1.00  0.00     0.293 HD
ENDBRANCH  17  20
ENDBRANCH   1  12
BRANCH   2  22
ATOM     22  O   UNL     1     -18.282 -23.397   5.750  1.00  0.00    -0.502 OA
ATOM     23  H   UNL     1     -19.292 -23.449   5.800  1.00  0.00     0.293 HD
ENDBRANCH   2  22
BRANCH   6  24
ATOM     24  O   UNL     1     -18.412 -25.118   0.711  1.00  0.00    -0.507 OA
ATOM     25  H   UNL     1     -18.997 -25.106  -0.111  1.00  0.00     0.293 HD
ENDBRANCH   6  24
BRANCH   8  26
ATOM     26  O   UNL     1     -14.670 -22.753  -1.107  1.00  0.00    -0.508 OA
ATOM     27  H   UNL     1     -14.699 -21.866  -1.596  1.00  0.00     0.293 HD
ENDBRANCH   8  26
TORSDOF 6
ENDMDL
MODEL 5
REMARK VINA RESULT:    -2.059      1.387      6.569
REMARK INTER + INTRA:          -2.286
REMARK INTER:                  -2.429
REMARK INTRA:                   0.144
REMARK UNBOUND:                 0.195
REMARK SMILES O=c1c(O)c(-c2ccc(O)c(O)c2)oc2cc(O)cc(O)c12
REMARK SMILES IDX 5 1 3 2 2 3 1 4 22 5 20 6 19 7 17 8 16 9 15 10 14 11 6 12
REMARK SMILES IDX 7 13 8 14 9 15 13 16 11 17 10 18 12 20 4 22 21 24 18 26
REMARK H PARENT 10 19 12 21 4 23 21 25 18 27
REMARK Flexibility Score: inf
ROOT
ATOM      1  C   UNL     1     -16.665 -22.956   4.197  1.00  0.00     0.180 A 
ATOM      2  C   UNL     1     -16.463 -21.582   3.979  1.00  0.00     0.208 A 
ATOM      3  C   UNL     1     -15.927 -21.159   2.753  1.00  0.00     0.238 A 
ATOM      4  O   UNL     1     -15.799 -19.925   2.542  1.00  0.00    -0.285 OA
ATOM      5  C   UNL     1     -15.587 -22.115   1.765  1.00  0.00     0.111 A 
ATOM      6  C   UNL     1     -15.002 -21.802   0.501  1.00  0.00     0.134 A 
ATOM      7  C   UNL     1     -14.828 -22.816  -0.450  1.00  0.00     0.093 A 
ATOM      8  C   UNL     1     -15.158 -24.139  -0.160  1.00  0.00     0.123 A 
ATOM      9  C   UNL     1     -15.676 -24.466   1.094  1.00  0.00     0.094 A 
ATOM     10  C   UNL     1     -15.894 -23.471   2.050  1.00  0.00     0.146 A 
ATOM     11  O   UNL     1     -16.398 -23.822   3.227  1.00  0.00    -0.452 OA
ENDROOT
BRANCH   1  12
ATOM     12  C   UNL     1     -17.202 -23.480   5.474  1.00  0.00     0.025 A 
ATOM     13  C   UNL     1     -18.042 -24.602   5.461  1.00  0.00     0.016 A 
ATOM     14  C   UNL     1     -18.543 -25.125   6.655  1.00  0.00     0.051 A 
ATOM     15  C   UNL     1     -18.202 -24.550   7.884  1.00  0.00     0.157 A 
ATOM     16  C   UNL     1     -16.840 -22.914   6.708  1.00  0.00     0.062 A 
ATOM     17  C   UNL     1     -17.334 -23.433   7.911  1.00  0.00     0.158 A 
BRANCH  15  18
ATOM     18  O   UNL     1     -18.743 -25.115   9.041  1.00  0.00    -0.504 OA
ATOM     19  H   UNL     1     -19.725 -25.090   9.275  1.00  0.00     0.293 HD
ENDBRANCH  15  18
BRANCH  17  20
ATOM     20  O   UNL     1     -16.934 -22.819   9.100  1.00  0.00    -0.504 OA
ATOM     21  H   UNL     1     -16.363 -21.987   9.142  1.00  0.00     0.293 HD
ENDBRANCH  17  20
ENDBRANCH   1  12
BRANCH   2  22
ATOM     22  O   UNL     1     -16.825 -20.654   4.959  1.00  0.00    -0.502 OA
ATOM     23  H   UNL     1     -17.513 -20.860   5.674  1.00  0.00     0.293 HD
ENDBRANCH   2  22
BRANCH   6  24
ATOM     24  O   UNL     1     -14.551 -20.527   0.144  1.00  0.00    -0.507 OA
ATOM     25  H   UNL     1     -14.016 -20.319  -0.685  1.00  0.00     0.293 HD
ENDBRANCH   6  24
BRANCH   8  26
ATOM     26  O   UNL     1     -14.957 -25.124  -1.125  1.00  0.00    -0.508 OA
ATOM     27  H   UNL     1     -15.395 -25.068  -2.038  1.00  0.00     0.293 HD
ENDBRANCH   8  26
TORSDOF 6
ENDMDL
