MODEL 1
REMARK VINA RESULT:    -5.395      0.000      0.000
REMARK INTER + INTRA:         -11.687
REMARK INTER:                  -9.810
REMARK INTRA:                  -1.878
REMARK UNBOUND:                -1.878
REMARK SMILES CCCCCCCCCCCCCCCC(=O)[O-]
REMARK SMILES IDX 9 1 10 2 11 3 12 4 13 5 14 6 15 7 16 8 17 9 18 10 8 11 7 12
REMARK SMILES IDX 6 13 5 14 4 15 3 16 2 17 1 18
REMARK H PARENT
REMARK Flexibility Score: inf
ROOT
ATOM      1  C   UNL     1      49.165  52.869  22.366  1.00  0.00     0.000 C 
ENDROOT
BRANCH   1   2
ATOM      2  C   UNL     1      49.641  52.731  23.818  1.00  0.00     0.000 C 
BRANCH   2   3
ATOM      3  C   UNL     1      48.478  52.343  24.744  1.00  0.00     0.000 C 
BRANCH   3   4
ATOM      4  C   UNL     1      47.156  52.144  23.986  1.00  0.00     0.000 C 
BRANCH   4   5
ATOM      5  C   UNL     1      46.818  50.663  23.760  1.00  0.00     0.000 C 
BRANCH   5   6
ATOM      6  C   UNL     1      47.668  49.762  24.665  1.00  0.00     0.006 C 
BRANCH   6   7
ATOM      7  C   UNL     1      48.731  49.015  23.856  1.00  0.00     0.053 C 
BRANCH   7   8
ATOM      8  C   UNL     1      49.023  47.685  24.477  1.00  0.00     0.041 C 
ATOM      9  O   UNL     1      50.203  47.245  24.504  1.00  0.00    -0.550 OA
ATOM     10  O   UNL     1      47.986  46.908  24.976  1.00  0.00    -0.550 OA
ENDBRANCH   7   8
ENDBRANCH   6   7
ENDBRANCH   5   6
ENDBRANCH   4   5
ENDBRANCH   3   4
ENDBRANCH   2   3
ENDBRANCH   1   2
BRANCH   1  11
ATOM     11  C   UNL     1      49.657  51.691  21.512  1.00  0.00     0.000 C 
BRANCH  11  12
ATOM     12  C   UNL     1      51.012  51.141  21.985  1.00  0.00    -0.000 C 
BRANCH  12  13
ATOM     13  C   UNL     1      52.085  51.189  20.881  1.00  0.00    -0.000 C 
BRANCH  13  14
ATOM     14  C   UNL     1      53.100  52.323  21.094  1.00  0.00    -0.000 C 
BRANCH  14  15
ATOM     15  C   UNL     1      53.099  52.862  22.535  1.00  0.00    -0.000 C 
BRANCH  15  16
ATOM     16  C   UNL     1      52.900  54.392  22.585  1.00  0.00    -0.000 C 
BRANCH  16  17
ATOM     17  C   UNL     1      52.048  54.940  21.429  1.00  0.00    -0.003 C 
ATOM     18  C   UNL     1      52.592  56.244  20.850  1.00  0.00     0.004 C 
ENDBRANCH  16  17
ENDBRANCH  15  16
ENDBRANCH  14  15
ENDBRANCH  13  14
ENDBRANCH  12  13
ENDBRANCH  11  12
ENDBRANCH   1  11
TORSDOF 14
ENDMDL
MODEL 2
REMARK VINA RESULT:    -5.385      1.352      5.014
REMARK INTER + INTRA:         -11.669
REMARK INTER:                  -9.730
REMARK INTRA:                  -1.939
REMARK UNBOUND:                -1.878
REMARK SMILES CCCCCCCCCCCCCCCC(=O)[O-]
REMARK SMILES IDX 9 1 10 2 11 3 12 4 13 5 14 6 15 7 16 8 17 9 18 10 8 11 7 12
REMARK SMILES IDX 6 13 5 14 4 15 3 16 2 17 1 18
REMARK H PARENT
REMARK Flexibility Score: inf
ROOT
ATOM      1  C   UNL     1      52.406  54.365  22.585  1.00  0.00     0.000 C 
ENDROOT
BRANCH   1   2
ATOM      2  C   UNL     1      52.019  53.540  21.351  1.00  0.00     0.000 C 
BRANCH   2   3
ATOM      3  C   UNL     1      52.754  52.191  21.337  1.00  0.00     0.000 C 
BRANCH   3   4
ATOM      4  C   UNL     1      51.832  51.016  20.975  1.00  0.00     0.000 C 
BRANCH   4   5
ATOM      5  C   UNL     1      50.364  51.279  21.338  1.00  0.00     0.000 C 
BRANCH   5   6
ATOM      6  C   UNL     1      49.711  50.023  21.928  1.00  0.00     0.006 C 
BRANCH   6   7
ATOM      7  C   UNL     1      50.197  49.770  23.358  1.00  0.00     0.053 C 
BRANCH   7   8
ATOM      8  C   UNL     1      50.194  48.305  23.660  1.00  0.00     0.041 C 
ATOM      9  O   UNL     1      49.226  47.788  24.279  1.00  0.00    -0.550 OA
ATOM     10  O   UNL     1      51.284  47.520  23.308  1.00  0.00    -0.550 OA
ENDBRANCH   7   8
ENDBRANCH   6   7
ENDBRANCH   5   6
ENDBRANCH   4   5
ENDBRANCH   3   4
ENDBRANCH   2   3
ENDBRANCH   1   2
BRANCH   1  11
ATOM     11  C   UNL     1      52.239  53.542  23.871  1.00  0.00     0.000 C 
BRANCH  11  12
ATOM     12  C   UNL     1      51.043  54.004  24.720  1.00  0.00    -0.000 C 
BRANCH  12  13
ATOM     13  C   UNL     1      49.759  53.214  24.407  1.00  0.00    -0.000 C 
BRANCH  13  14
ATOM     14  C   UNL     1      49.032  52.744  25.677  1.00  0.00    -0.000 C 
BRANCH  14  15
ATOM     15  C   UNL     1      47.564  53.202  25.730  1.00  0.00    -0.000 C 
BRANCH  15  16
ATOM     16  C   UNL     1      46.588  52.016  25.875  1.00  0.00    -0.000 C 
BRANCH  16  17
ATOM     17  C   UNL     1      46.890  50.849  24.920  1.00  0.00    -0.003 C 
ATOM     18  C   UNL     1      46.496  51.141  23.474  1.00  0.00     0.004 C 
ENDBRANCH  16  17
ENDBRANCH  15  16
ENDBRANCH  14  15
ENDBRANCH  13  14
ENDBRANCH  12  13
ENDBRANCH  11  12
ENDBRANCH   1  11
TORSDOF 14
ENDMDL
MODEL 3
REMARK VINA RESULT:    -5.260      1.118      2.363
REMARK INTER + INTRA:         -11.443
REMARK INTER:                  -9.496
REMARK INTRA:                  -1.947
REMARK UNBOUND:                -1.878
REMARK SMILES CCCCCCCCCCCCCCCC(=O)[O-]
REMARK SMILES IDX 9 1 10 2 11 3 12 4 13 5 14 6 15 7 16 8 17 9 18 10 8 11 7 12
REMARK SMILES IDX 6 13 5 14 4 15 3 16 2 17 1 18
REMARK H PARENT
REMARK Flexibility Score: inf
ROOT
ATOM      1  C   UNL     1      48.857  52.860  26.118  1.00  0.00     0.000 C 
ENDROOT
BRANCH   1   2
ATOM      2  C   UNL     1      47.383  53.236  26.313  1.00  0.00     0.000 C 
BRANCH   2   3
ATOM      3  C   UNL     1      46.540  52.804  25.104  1.00  0.00     0.000 C 
BRANCH   3   4
ATOM      4  C   UNL     1      46.242  51.296  25.096  1.00  0.00     0.000 C 
BRANCH   4   5
ATOM      5  C   UNL     1      46.998  50.547  23.989  1.00  0.00     0.000 C 
BRANCH   5   6
ATOM      6  C   UNL     1      47.797  49.373  24.568  1.00  0.00     0.006 C 
BRANCH   6   7
ATOM      7  C   UNL     1      49.080  49.134  23.769  1.00  0.00     0.053 C 
BRANCH   7   8
ATOM      8  C   UNL     1      49.732  47.856  24.196  1.00  0.00     0.041 C 
ATOM      9  O   UNL     1      50.891  47.571  23.794  1.00  0.00    -0.550 OA
ATOM     10  O   UNL     1      49.039  46.954  24.993  1.00  0.00    -0.550 OA
ENDBRANCH   7   8
ENDBRANCH   6   7
ENDBRANCH   5   6
ENDBRANCH   4   5
ENDBRANCH   3   4
ENDBRANCH   2   3
ENDBRANCH   1   2
BRANCH   1  11
ATOM     11  C   UNL     1      49.448  53.569  24.892  1.00  0.00     0.000 C 
BRANCH  11  12
ATOM     12  C   UNL     1      50.127  52.597  23.913  1.00  0.00    -0.000 C 
BRANCH  12  13
ATOM     13  C   UNL     1      49.543  52.690  22.491  1.00  0.00    -0.000 C 
BRANCH  13  14
ATOM     14  C   UNL     1      50.332  51.850  21.474  1.00  0.00    -0.000 C 
BRANCH  14  15
ATOM     15  C   UNL     1      51.852  52.072  21.566  1.00  0.00    -0.000 C 
BRANCH  15  16
ATOM     16  C   UNL     1      52.252  53.518  21.207  1.00  0.00    -0.000 C 
BRANCH  16  17
ATOM     17  C   UNL     1      52.897  54.286  22.373  1.00  0.00    -0.003 C 
ATOM     18  C   UNL     1      53.716  53.391  23.300  1.00  0.00     0.004 C 
ENDBRANCH  16  17
ENDBRANCH  15  16
ENDBRANCH  14  15
ENDBRANCH  13  14
ENDBRANCH  12  13
ENDBRANCH  11  12
ENDBRANCH   1  11
TORSDOF 14
ENDMDL
MODEL 4
REMARK VINA RESULT:    -5.229      3.025      6.257
REMARK INTER + INTRA:         -11.387
REMARK INTER:                  -9.576
REMARK INTRA:                  -1.811
REMARK UNBOUND:                -1.878
REMARK SMILES CCCCCCCCCCCCCCCC(=O)[O-]
REMARK SMILES IDX 9 1 10 2 11 3 12 4 13 5 14 6 15 7 16 8 17 9 18 10 8 11 7 12
REMARK SMILES IDX 6 13 5 14 4 15 3 16 2 17 1 18
REMARK H PARENT
REMARK Flexibility Score: inf
ROOT
ATOM      1  C   UNL     1      48.740  52.731  25.981  1.00  0.00     0.000 C 
ENDROOT
BRANCH   1   2
ATOM      2  C   UNL     1      49.561  53.628  25.046  1.00  0.00     0.000 C 
BRANCH   2   3
ATOM      3  C   UNL     1      50.329  52.790  24.014  1.00  0.00     0.000 C 
BRANCH   3   4
ATOM      4  C   UNL     1      50.022  53.202  22.566  1.00  0.00     0.000 C 
BRANCH   4   5
ATOM      5  C   UNL     1      50.779  52.354  21.534  1.00  0.00     0.000 C 
BRANCH   5   6
ATOM      6  C   UNL     1      52.080  53.043  21.105  1.00  0.00     0.006 C 
BRANCH   6   7
ATOM      7  C   UNL     1      53.284  52.458  21.848  1.00  0.00     0.053 C 
BRANCH   7   8
ATOM      8  C   UNL     1      53.688  53.352  22.978  1.00  0.00     0.041 C 
ATOM      9  O   UNL     1      54.470  52.932  23.870  1.00  0.00    -0.550 OA
ATOM     10  O   UNL     1      53.157  54.632  23.074  1.00  0.00    -0.550 OA
ENDBRANCH   7   8
ENDBRANCH   6   7
ENDBRANCH   5   6
ENDBRANCH   4   5
ENDBRANCH   3   4
ENDBRANCH   2   3
ENDBRANCH   1   2
BRANCH   1  11
ATOM     11  C   UNL     1      47.370  53.357  26.282  1.00  0.00     0.000 C 
BRANCH  11  12
ATOM     12  C   UNL     1      46.199  52.483  25.805  1.00  0.00    -0.000 C 
BRANCH  12  13
ATOM     13  C   UNL     1      46.665  51.117  25.267  1.00  0.00    -0.000 C 
BRANCH  13  14
ATOM     14  C   UNL     1      46.486  50.991  23.746  1.00  0.00    -0.000 C 
BRANCH  14  15
ATOM     15  C   UNL     1      47.779  50.567  23.026  1.00  0.00    -0.000 C 
BRANCH  15  16
ATOM     16  C   UNL     1      48.566  49.503  23.819  1.00  0.00    -0.000 C 
BRANCH  16  17
ATOM     17  C   UNL     1      49.915  49.133  23.181  1.00  0.00    -0.003 C 
ATOM     18  C   UNL     1      50.546  47.884  23.794  1.00  0.00     0.004 C 
ENDBRANCH  16  17
ENDBRANCH  15  16
ENDBRANCH  14  15
ENDBRANCH  13  14
ENDBRANCH  12  13
ENDBRANCH  11  12
ENDBRANCH   1  11
TORSDOF 14
ENDMDL
MODEL 5
REMARK VINA RESULT:    -5.221      1.254      2.696
REMARK INTER + INTRA:         -11.372
REMARK INTER:                  -9.673
REMARK INTRA:                  -1.699
REMARK UNBOUND:                -1.878
REMARK SMILES CCCCCCCCCCCCCCCC(=O)[O-]
REMARK SMILES IDX 9 1 10 2 11 3 12 4 13 5 14 6 15 7 16 8 17 9 18 10 8 11 7 12
REMARK SMILES IDX 6 13 5 14 4 15 3 16 2 17 1 18
REMARK H PARENT
REMARK Flexibility Score: inf
ROOT
ATOM      1  C   UNL     1      49.188  52.868  25.980  1.00  0.00     0.000 C 
ENDROOT
BRANCH   1   2
ATOM      2  C   UNL     1      47.729  53.257  26.250  1.00  0.00     0.000 C 
BRANCH   2   3
ATOM      3  C   UNL     1      46.769  52.157  25.775  1.00  0.00     0.000 C 
BRANCH   3   4
ATOM      4  C   UNL     1      46.313  52.355  24.320  1.00  0.00     0.000 C 
BRANCH   4   5
ATOM      5  C   UNL     1      46.750  51.205  23.400  1.00  0.00     0.000 C 
BRANCH   5   6
ATOM      6  C   UNL     1      47.366  50.058  24.210  1.00  0.00     0.006 C 
BRANCH   6   7
ATOM      7  C   UNL     1      48.832  49.840  23.828  1.00  0.00     0.053 C 
BRANCH   7   8
ATOM      8  C   UNL     1      49.207  48.400  23.993  1.00  0.00     0.041 C 
ATOM      9  O   UNL     1      50.308  47.978  23.549  1.00  0.00    -0.550 OA
ATOM     10  O   UNL     1      48.318  47.514  24.586  1.00  0.00    -0.550 OA
ENDBRANCH   7   8
ENDBRANCH   6   7
ENDBRANCH   5   6
ENDBRANCH   4   5
ENDBRANCH   3   4
ENDBRANCH   2   3
ENDBRANCH   1   2
BRANCH   1  11
ATOM     11  C   UNL     1      49.736  53.609  24.751  1.00  0.00     0.000 C 
BRANCH  11  12
ATOM     12  C   UNL     1      51.137  53.125  24.341  1.00  0.00    -0.000 C 
BRANCH  12  13
ATOM     13  C   UNL     1      52.137  54.284  24.181  1.00  0.00    -0.000 C 
BRANCH  13  14
ATOM     14  C   UNL     1      52.964  54.175  22.890  1.00  0.00    -0.000 C 
BRANCH  14  15
ATOM     15  C   UNL     1      53.359  52.727  22.554  1.00  0.00    -0.000 C 
BRANCH  15  16
ATOM     16  C   UNL     1      52.876  52.302  21.151  1.00  0.00    -0.000 C 
BRANCH  16  17
ATOM     17  C   UNL     1      51.889  51.123  21.171  1.00  0.00    -0.003 C 
ATOM     18  C   UNL     1      50.427  51.566  21.171  1.00  0.00     0.004 C 
ENDBRANCH  16  17
ENDBRANCH  15  16
ENDBRANCH  14  15
ENDBRANCH  13  14
ENDBRANCH  12  13
ENDBRANCH  11  12
ENDBRANCH   1  11
TORSDOF 14
ENDMDL
MODEL 6
REMARK VINA RESULT:    -5.207      2.679      6.152
REMARK INTER + INTRA:         -11.347
REMARK INTER:                  -9.603
REMARK INTRA:                  -1.744
REMARK UNBOUND:                -1.878
REMARK SMILES CCCCCCCCCCCCCCCC(=O)[O-]
REMARK SMILES IDX 9 1 10 2 11 3 12 4 13 5 14 6 15 7 16 8 17 9 18 10 8 11 7 12
REMARK SMILES IDX 6 13 5 14 4 15 3 16 2 17 1 18
REMARK H PARENT
REMARK Flexibility Score: inf
ROOT
ATOM      1  C   UNL     1      48.893  49.913  23.346  1.00  0.00     0.000 C 
ENDROOT
BRANCH   1   2
ATOM      2  C   UNL     1      49.993  49.529  22.348  1.00  0.00     0.000 C 
BRANCH   2   3
ATOM      3  C   UNL     1      51.092  50.601  22.300  1.00  0.00     0.000 C 
BRANCH   3   4
ATOM      4  C   UNL     1      51.217  51.261  20.918  1.00  0.00     0.000 C 
BRANCH   4   5
ATOM      5  C   UNL     1      52.123  52.502  20.933  1.00  0.00     0.000 C 
BRANCH   5   6
ATOM      6  C   UNL     1      51.538  53.597  21.833  1.00  0.00     0.006 C 
BRANCH   6   7
ATOM      7  C   UNL     1      52.646  54.346  22.577  1.00  0.00     0.053 C 
BRANCH   7   8
ATOM      8  C   UNL     1      53.339  53.434  23.541  1.00  0.00     0.041 C 
ATOM      9  O   UNL     1      54.559  53.161  23.389  1.00  0.00    -0.550 OA
ATOM     10  O   UNL     1      52.624  52.842  24.574  1.00  0.00    -0.550 OA
ENDBRANCH   7   8
ENDBRANCH   6   7
ENDBRANCH   5   6
ENDBRANCH   4   5
ENDBRANCH   3   4
ENDBRANCH   2   3
ENDBRANCH   1   2
BRANCH   1  11
ATOM     11  C   UNL     1      47.979  51.001  22.764  1.00  0.00     0.000 C 
BRANCH  11  12
ATOM     12  C   UNL     1      46.602  51.046  23.447  1.00  0.00    -0.000 C 
BRANCH  12  13
ATOM     13  C   UNL     1      46.623  50.430  24.858  1.00  0.00    -0.000 C 
BRANCH  13  14
ATOM     14  C   UNL     1      46.038  51.373  25.921  1.00  0.00    -0.000 C 
BRANCH  14  15
ATOM     15  C   UNL     1      46.170  52.858  25.541  1.00  0.00    -0.000 C 
BRANCH  15  16
ATOM     16  C   UNL     1      47.187  53.601  26.433  1.00  0.00    -0.000 C 
BRANCH  16  17
ATOM     17  C   UNL     1      48.602  53.001  26.384  1.00  0.00    -0.003 C 
ATOM     18  C   UNL     1      49.337  53.304  25.080  1.00  0.00     0.004 C 
ENDBRANCH  16  17
ENDBRANCH  15  16
ENDBRANCH  14  15
ENDBRANCH  13  14
ENDBRANCH  12  13
ENDBRANCH  11  12
ENDBRANCH   1  11
TORSDOF 14
ENDMDL
MODEL 7
REMARK VINA RESULT:    -5.146      2.900      5.845
REMARK INTER + INTRA:         -11.236
REMARK INTER:                  -8.983
REMARK INTRA:                  -2.254
REMARK UNBOUND:                -1.878
REMARK SMILES CCCCCCCCCCCCCCCC(=O)[O-]
REMARK SMILES IDX 9 1 10 2 11 3 12 4 13 5 14 6 15 7 16 8 17 9 18 10 8 11 7 12
REMARK SMILES IDX 6 13 5 14 4 15 3 16 2 17 1 18
REMARK H PARENT
REMARK Flexibility Score: inf
ROOT
ATOM      1  C   UNL     1      46.538  53.586  25.627  1.00  0.00     0.000 C 
ENDROOT
BRANCH   1   2
ATOM      2  C   UNL     1      47.496  53.276  26.784  1.00  0.00     0.000 C 
BRANCH   2   3
ATOM      3  C   UNL     1      48.877  52.859  26.259  1.00  0.00     0.000 C 
BRANCH   3   4
ATOM      4  C   UNL     1      49.257  53.574  24.953  1.00  0.00     0.000 C 
BRANCH   4   5
ATOM      5  C   UNL     1      50.054  52.677  23.995  1.00  0.00     0.000 C 
BRANCH   5   6
ATOM      6  C   UNL     1      50.047  53.251  22.573  1.00  0.00     0.006 C 
BRANCH   6   7
ATOM      7  C   UNL     1      50.840  52.358  21.615  1.00  0.00     0.053 C 
BRANCH   7   8
ATOM      8  C   UNL     1      52.209  52.919  21.388  1.00  0.00     0.041 C 
ATOM      9  O   UNL     1      53.162  52.156  21.081  1.00  0.00    -0.550 OA
ATOM     10  O   UNL     1      52.442  54.276  21.570  1.00  0.00    -0.550 OA
ENDBRANCH   7   8
ENDBRANCH   6   7
ENDBRANCH   5   6
ENDBRANCH   4   5
ENDBRANCH   3   4
ENDBRANCH   2   3
ENDBRANCH   1   2
BRANCH   1  11
ATOM     11  C   UNL     1      45.935  52.296  25.051  1.00  0.00     0.000 C 
BRANCH  11  12
ATOM     12  C   UNL     1      46.198  52.138  23.545  1.00  0.00    -0.000 C 
BRANCH  12  13
ATOM     13  C   UNL     1      47.039  50.890  23.221  1.00  0.00    -0.000 C 
BRANCH  13  14
ATOM     14  C   UNL     1      47.351  50.049  24.469  1.00  0.00    -0.000 C 
BRANCH  14  15
ATOM     15  C   UNL     1      48.522  49.074  24.255  1.00  0.00    -0.000 C 
BRANCH  15  16
ATOM     16  C   UNL     1      49.206  49.275  22.887  1.00  0.00    -0.000 C 
BRANCH  16  17
ATOM     17  C   UNL     1      50.692  48.877  22.877  1.00  0.00    -0.003 C 
ATOM     18  C   UNL     1      50.974  47.593  23.654  1.00  0.00     0.004 C 
ENDBRANCH  16  17
ENDBRANCH  15  16
ENDBRANCH  14  15
ENDBRANCH  13  14
ENDBRANCH  12  13
ENDBRANCH  11  12
ENDBRANCH   1  11
TORSDOF 14
ENDMDL
MODEL 8
REMARK VINA RESULT:    -5.112      2.447      3.332
REMARK INTER + INTRA:         -11.173
REMARK INTER:                 -10.067
REMARK INTRA:                  -1.106
REMARK UNBOUND:                -1.878
REMARK SMILES CCCCCCCCCCCCCCCC(=O)[O-]
REMARK SMILES IDX 9 1 10 2 11 3 12 4 13 5 14 6 15 7 16 8 17 9 18 10 8 11 7 12
REMARK SMILES IDX 6 13 5 14 4 15 3 16 2 17 1 18
REMARK H PARENT
REMARK Flexibility Score: inf
ROOT
ATOM      1  C   UNL     1      49.244  49.379  22.696  1.00  0.00     0.000 C 
ENDROOT
BRANCH   1   2
ATOM      2  C   UNL     1      48.278  49.886  23.775  1.00  0.00     0.000 C 
BRANCH   2   3
ATOM      3  C   UNL     1      47.370  50.994  23.223  1.00  0.00     0.000 C 
BRANCH   3   4
ATOM      4  C   UNL     1      46.052  51.125  24.003  1.00  0.00     0.000 C 
BRANCH   4   5
ATOM      5  C   UNL     1      46.232  50.907  25.513  1.00  0.00     0.000 C 
BRANCH   5   6
ATOM      6  C   UNL     1      45.911  52.187  26.294  1.00  0.00     0.006 C 
BRANCH   6   7
ATOM      7  C   UNL     1      46.743  53.366  25.784  1.00  0.00     0.053 C 
BRANCH   7   8
ATOM      8  C   UNL     1      48.172  53.218  26.203  1.00  0.00     0.041 C 
ATOM      9  O   UNL     1      48.475  53.199  27.425  1.00  0.00    -0.550 OA
ATOM     10  O   UNL     1      49.175  53.157  25.244  1.00  0.00    -0.550 OA
ENDBRANCH   7   8
ENDBRANCH   6   7
ENDBRANCH   5   6
ENDBRANCH   4   5
ENDBRANCH   3   4
ENDBRANCH   2   3
ENDBRANCH   1   2
BRANCH   1  11
ATOM     11  C   UNL     1      50.651  49.957  22.902  1.00  0.00     0.000 C 
BRANCH  11  12
ATOM     12  C   UNL     1      50.804  51.371  22.317  1.00  0.00    -0.000 C 
BRANCH  12  13
ATOM     13  C   UNL     1      51.693  51.395  21.060  1.00  0.00    -0.000 C 
BRANCH  13  14
ATOM     14  C   UNL     1      52.949  52.261  21.243  1.00  0.00    -0.000 C 
BRANCH  14  15
ATOM     15  C   UNL     1      53.034  52.903  22.640  1.00  0.00    -0.000 C 
BRANCH  15  16
ATOM     16  C   UNL     1      52.791  54.426  22.597  1.00  0.00    -0.000 C 
BRANCH  16  17
ATOM     17  C   UNL     1      52.064  54.898  21.327  1.00  0.00    -0.003 C 
ATOM     18  C   UNL     1      52.563  56.249  20.818  1.00  0.00     0.004 C 
ENDBRANCH  16  17
ENDBRANCH  15  16
ENDBRANCH  14  15
ENDBRANCH  13  14
ENDBRANCH  12  13
ENDBRANCH  11  12
ENDBRANCH   1  11
TORSDOF 14
ENDMDL
MODEL 9
REMARK VINA RESULT:    -5.094      2.496      3.641
REMARK INTER + INTRA:         -11.141
REMARK INTER:                  -9.835
REMARK INTRA:                  -1.306
REMARK UNBOUND:                -1.878
REMARK SMILES CCCCCCCCCCCCCCCC(=O)[O-]
REMARK SMILES IDX 9 1 10 2 11 3 12 4 13 5 14 6 15 7 16 8 17 9 18 10 8 11 7 12
REMARK SMILES IDX 6 13 5 14 4 15 3 16 2 17 1 18
REMARK H PARENT
REMARK Flexibility Score: inf
ROOT
ATOM      1  C   UNL     1      50.311  49.234  22.798  1.00  0.00     0.000 C 
ENDROOT
BRANCH   1   2
ATOM      2  C   UNL     1      49.137  48.919  23.734  1.00  0.00     0.000 C 
BRANCH   2   3
ATOM      3  C   UNL     1      48.191  50.123  23.853  1.00  0.00     0.000 C 
BRANCH   3   4
ATOM      4  C   UNL     1      47.067  49.897  24.877  1.00  0.00     0.000 C 
BRANCH   4   5
ATOM      5  C   UNL     1      46.013  51.013  24.858  1.00  0.00     0.000 C 
BRANCH   5   6
ATOM      6  C   UNL     1      46.638  52.351  24.444  1.00  0.00     0.006 C 
BRANCH   6   7
ATOM      7  C   UNL     1      46.841  53.261  25.658  1.00  0.00     0.053 C 
BRANCH   7   8
ATOM      8  C   UNL     1      48.261  53.198  26.128  1.00  0.00     0.041 C 
ATOM      9  O   UNL     1      48.521  53.214  27.360  1.00  0.00    -0.550 OA
ATOM     10  O   UNL     1      49.298  53.177  25.205  1.00  0.00    -0.550 OA
ENDBRANCH   7   8
ENDBRANCH   6   7
ENDBRANCH   5   6
ENDBRANCH   4   5
ENDBRANCH   3   4
ENDBRANCH   2   3
ENDBRANCH   1   2
BRANCH   1  11
ATOM     11  C   UNL     1      50.363  50.732  22.465  1.00  0.00     0.000 C 
BRANCH  11  12
ATOM     12  C   UNL     1      50.920  51.008  21.059  1.00  0.00    -0.000 C 
BRANCH  12  13
ATOM     13  C   UNL     1      52.316  51.656  21.095  1.00  0.00    -0.000 C 
BRANCH  13  14
ATOM     14  C   UNL     1      52.299  53.119  20.622  1.00  0.00    -0.000 C 
BRANCH  14  15
ATOM     15  C   UNL     1      51.697  54.077  21.665  1.00  0.00    -0.000 C 
BRANCH  15  16
ATOM     16  C   UNL     1      52.750  54.570  22.680  1.00  0.00    -0.000 C 
BRANCH  16  17
ATOM     17  C   UNL     1      52.839  53.699  23.945  1.00  0.00    -0.003 C 
ATOM     18  C   UNL     1      54.160  52.941  24.059  1.00  0.00     0.004 C 
ENDBRANCH  16  17
ENDBRANCH  15  16
ENDBRANCH  14  15
ENDBRANCH  13  14
ENDBRANCH  12  13
ENDBRANCH  11  12
ENDBRANCH   1  11
TORSDOF 14
ENDMDL
