MODEL 1
REMARK VINA RESULT:    -4.215      0.000      0.000
REMARK INTER + INTRA:          -8.825
REMARK INTER:                  -7.171
REMARK INTRA:                  -1.654
REMARK UNBOUND:                -1.654
REMARK SMILES CCCCCCCCCCCCCC(=O)[O-]
REMARK SMILES IDX 8 1 9 2 10 3 11 4 12 5 13 6 14 7 15 8 16 9 7 10 6 11 5 12
REMARK SMILES IDX 4 13 3 14 2 15 1 16
REMARK H PARENT
REMARK Flexibility Score: inf
ROOT
ATOM      1  C   UNL     1       7.327  -5.772 -31.618  1.00  0.00     0.000 C 
ENDROOT
BRANCH   1   2
ATOM      2  C   UNL     1       8.232  -5.886 -32.855  1.00  0.00     0.000 C 
BRANCH   2   3
ATOM      3  C   UNL     1       8.129  -4.626 -33.728  1.00  0.00     0.000 C 
BRANCH   3   4
ATOM      4  C   UNL     1       7.255  -3.534 -33.091  1.00  0.00     0.000 C 
BRANCH   4   5
ATOM      5  C   UNL     1       6.179  -3.002 -34.049  1.00  0.00     0.006 C 
BRANCH   5   6
ATOM      6  C   UNL     1       6.519  -3.348 -35.502  1.00  0.00     0.053 C 
BRANCH   6   7
ATOM      7  C   UNL     1       5.437  -2.877 -36.421  1.00  0.00     0.041 C 
ATOM      8  O   UNL     1       5.718  -2.499 -37.589  1.00  0.00    -0.550 OA
ATOM      9  O   UNL     1       4.124  -2.807 -35.972  1.00  0.00    -0.550 OA
ENDBRANCH   6   7
ENDBRANCH   5   6
ENDBRANCH   4   5
ENDBRANCH   3   4
ENDBRANCH   2   3
ENDBRANCH   1   2
BRANCH   1  10
ATOM     10  C   UNL     1       6.236  -6.854 -31.577  1.00  0.00     0.000 C 
BRANCH  10  11
ATOM     11  C   UNL     1       5.377  -6.876 -32.852  1.00  0.00    -0.000 C 
BRANCH  11  12
ATOM     12  C   UNL     1       5.264  -8.281 -33.472  1.00  0.00    -0.000 C 
BRANCH  12  13
ATOM     13  C   UNL     1       5.486  -8.348 -34.997  1.00  0.00    -0.000 C 
BRANCH  13  14
ATOM     14  C   UNL     1       6.156  -7.108 -35.615  1.00  0.00    -0.000 C 
BRANCH  14  15
ATOM     15  C   UNL     1       7.208  -7.466 -36.675  1.00  0.00    -0.003 C 
ATOM     16  C   UNL     1       7.633  -6.231 -37.464  1.00  0.00     0.004 C 
ENDBRANCH  14  15
ENDBRANCH  13  14
ENDBRANCH  12  13
ENDBRANCH  11  12
ENDBRANCH  10  11
ENDBRANCH   1  10
TORSDOF 12
ENDMDL
MODEL 2
REMARK VINA RESULT:    -4.132      3.393      4.540
REMARK INTER + INTRA:          -8.684
REMARK INTER:                  -6.953
REMARK INTRA:                  -1.731
REMARK UNBOUND:                -1.654
REMARK SMILES CCCCCCCCCCCCCC(=O)[O-]
REMARK SMILES IDX 8 1 9 2 10 3 11 4 12 5 13 6 14 7 15 8 16 9 7 10 6 11 5 12
REMARK SMILES IDX 4 13 3 14 2 15 1 16
REMARK H PARENT
REMARK Flexibility Score: inf
ROOT
ATOM      1  C   UNL     1       5.952  -3.278 -34.447  1.00  0.00     0.000 C 
ENDROOT
BRANCH   1   2
ATOM      2  C   UNL     1       6.538  -2.685 -35.738  1.00  0.00     0.000 C 
BRANCH   2   3
ATOM      3  C   UNL     1       8.034  -3.010 -35.861  1.00  0.00     0.000 C 
BRANCH   3   4
ATOM      4  C   UNL     1       8.755  -2.108 -36.876  1.00  0.00     0.000 C 
BRANCH   4   5
ATOM      5  C   UNL     1      10.075  -1.540 -36.332  1.00  0.00     0.006 C 
BRANCH   5   6
ATOM      6  C   UNL     1      10.266  -1.915 -34.859  1.00  0.00     0.053 C 
BRANCH   6   7
ATOM      7  C   UNL     1      11.456  -1.211 -34.288  1.00  0.00     0.041 C 
ATOM      8  O   UNL     1      11.305  -0.167 -33.600  1.00  0.00    -0.550 OA
ATOM      9  O   UNL     1      12.736  -1.678 -34.560  1.00  0.00    -0.550 OA
ENDBRANCH   6   7
ENDBRANCH   5   6
ENDBRANCH   4   5
ENDBRANCH   3   4
ENDBRANCH   2   3
ENDBRANCH   1   2
BRANCH   1  10
ATOM     10  C   UNL     1       7.005  -3.455 -33.342  1.00  0.00     0.000 C 
BRANCH  10  11
ATOM     11  C   UNL     1       7.090  -4.903 -32.833  1.00  0.00    -0.000 C 
BRANCH  11  12
ATOM     12  C   UNL     1       8.382  -5.616 -33.271  1.00  0.00    -0.000 C 
BRANCH  12  13
ATOM     13  C   UNL     1       8.297  -6.367 -34.616  1.00  0.00    -0.000 C 
BRANCH  13  14
ATOM     14  C   UNL     1       6.895  -6.884 -34.987  1.00  0.00    -0.000 C 
BRANCH  14  15
ATOM     15  C   UNL     1       6.424  -6.392 -36.364  1.00  0.00    -0.003 C 
ATOM     16  C   UNL     1       7.561  -6.438 -37.381  1.00  0.00     0.004 C 
ENDBRANCH  14  15
ENDBRANCH  13  14
ENDBRANCH  12  13
ENDBRANCH  11  12
ENDBRANCH  10  11
ENDBRANCH   1  10
TORSDOF 12
ENDMDL
MODEL 3
REMARK VINA RESULT:    -4.117      2.513      4.475
REMARK INTER + INTRA:          -8.659
REMARK INTER:                  -6.766
REMARK INTRA:                  -1.893
REMARK UNBOUND:                -1.654
REMARK SMILES CCCCCCCCCCCCCC(=O)[O-]
REMARK SMILES IDX 8 1 9 2 10 3 11 4 12 5 13 6 14 7 15 8 16 9 7 10 6 11 5 12
REMARK SMILES IDX 4 13 3 14 2 15 1 16
REMARK H PARENT
REMARK Flexibility Score: inf
ROOT
ATOM      1  C   UNL     1       8.118  -5.771 -33.056  1.00  0.00     0.000 C 
ENDROOT
BRANCH   1   2
ATOM      2  C   UNL     1       7.459  -5.759 -31.668  1.00  0.00     0.000 C 
BRANCH   2   3
ATOM      3  C   UNL     1       6.306  -6.771 -31.600  1.00  0.00     0.000 C 
BRANCH   3   4
ATOM      4  C   UNL     1       5.456  -6.788 -32.881  1.00  0.00     0.000 C 
BRANCH   4   5
ATOM      5  C   UNL     1       4.966  -8.197 -33.248  1.00  0.00     0.006 C 
BRANCH   5   6
ATOM      6  C   UNL     1       3.526  -8.157 -33.768  1.00  0.00     0.053 C 
BRANCH   6   7
ATOM      7  C   UNL     1       3.447  -8.745 -35.141  1.00  0.00     0.041 C 
ATOM      8  O   UNL     1       2.353  -8.759 -35.763  1.00  0.00    -0.550 OA
ATOM      9  O   UNL     1       4.572  -9.326 -35.714  1.00  0.00    -0.550 OA
ENDBRANCH   6   7
ENDBRANCH   5   6
ENDBRANCH   4   5
ENDBRANCH   3   4
ENDBRANCH   2   3
ENDBRANCH   1   2
BRANCH   1  10
ATOM     10  C   UNL     1       8.216  -4.370 -33.681  1.00  0.00     0.000 C 
BRANCH  10  11
ATOM     11  C   UNL     1       7.065  -3.448 -33.245  1.00  0.00    -0.000 C 
BRANCH  11  12
ATOM     12  C   UNL     1       6.072  -3.152 -34.385  1.00  0.00    -0.000 C 
BRANCH  12  13
ATOM     13  C   UNL     1       6.276  -3.983 -35.668  1.00  0.00    -0.000 C 
BRANCH  13  14
ATOM     14  C   UNL     1       5.147  -4.978 -35.988  1.00  0.00    -0.000 C 
BRANCH  14  15
ATOM     15  C   UNL     1       5.620  -6.158 -36.851  1.00  0.00    -0.003 C 
ATOM     16  C   UNL     1       7.046  -6.563 -36.491  1.00  0.00     0.004 C 
ENDBRANCH  14  15
ENDBRANCH  13  14
ENDBRANCH  12  13
ENDBRANCH  11  12
ENDBRANCH  10  11
ENDBRANCH   1  10
TORSDOF 12
ENDMDL
MODEL 4
REMARK VINA RESULT:    -4.062      2.431      5.117
REMARK INTER + INTRA:          -8.566
REMARK INTER:                  -6.844
REMARK INTRA:                  -1.722
REMARK UNBOUND:                -1.654
REMARK SMILES CCCCCCCCCCCCCC(=O)[O-]
REMARK SMILES IDX 8 1 9 2 10 3 11 4 12 5 13 6 14 7 15 8 16 9 7 10 6 11 5 12
REMARK SMILES IDX 4 13 3 14 2 15 1 16
REMARK H PARENT
REMARK Flexibility Score: inf
ROOT
ATOM      1  C   UNL     1       7.571  -6.118 -37.464  1.00  0.00     0.000 C 
ENDROOT
BRANCH   1   2
ATOM      2  C   UNL     1       7.579  -6.849 -36.112  1.00  0.00     0.000 C 
BRANCH   2   3
ATOM      3  C   UNL     1       6.443  -7.879 -36.040  1.00  0.00     0.000 C 
BRANCH   3   4
ATOM      4  C   UNL     1       5.569  -7.710 -34.786  1.00  0.00     0.000 C 
BRANCH   4   5
ATOM      5  C   UNL     1       5.683  -6.308 -34.169  1.00  0.00     0.006 C 
BRANCH   5   6
ATOM      6  C   UNL     1       6.280  -6.377 -32.760  1.00  0.00     0.053 C 
BRANCH   6   7
ATOM      7  C   UNL     1       7.488  -5.501 -32.658  1.00  0.00     0.041 C 
ATOM      8  O   UNL     1       8.641  -6.001 -32.723  1.00  0.00    -0.550 OA
ATOM      9  O   UNL     1       7.340  -4.136 -32.439  1.00  0.00    -0.550 OA
ENDBRANCH   6   7
ENDBRANCH   5   6
ENDBRANCH   4   5
ENDBRANCH   3   4
ENDBRANCH   2   3
ENDBRANCH   1   2
BRANCH   1  10
ATOM     10  C   UNL     1       6.927  -4.725 -37.384  1.00  0.00     0.000 C 
BRANCH  10  11
ATOM     11  C   UNL     1       7.477  -3.885 -36.219  1.00  0.00    -0.000 C 
BRANCH  11  12
ATOM     12  C   UNL     1       6.510  -2.772 -35.776  1.00  0.00    -0.000 C 
BRANCH  12  13
ATOM     13  C   UNL     1       5.030  -3.190 -35.665  1.00  0.00    -0.000 C 
BRANCH  13  14
ATOM     14  C   UNL     1       4.071  -2.455 -36.619  1.00  0.00    -0.000 C 
BRANCH  14  15
ATOM     15  C   UNL     1       3.222  -3.416 -37.465  1.00  0.00    -0.003 C 
ATOM     16  C   UNL     1       3.330  -4.846 -36.945  1.00  0.00     0.004 C 
ENDBRANCH  14  15
ENDBRANCH  13  14
ENDBRANCH  12  13
ENDBRANCH  11  12
ENDBRANCH  10  11
ENDBRANCH   1  10
TORSDOF 12
ENDMDL
MODEL 5
REMARK VINA RESULT:    -4.061      3.457      5.075
REMARK INTER + INTRA:          -8.564
REMARK INTER:                  -7.245
REMARK INTRA:                  -1.319
REMARK UNBOUND:                -1.654
REMARK SMILES CCCCCCCCCCCCCC(=O)[O-]
REMARK SMILES IDX 8 1 9 2 10 3 11 4 12 5 13 6 14 7 15 8 16 9 7 10 6 11 5 12
REMARK SMILES IDX 4 13 3 14 2 15 1 16
REMARK H PARENT
REMARK Flexibility Score: inf
ROOT
ATOM      1  C   UNL     1       6.337  -4.267 -36.675  1.00  0.00     0.000 C 
ENDROOT
BRANCH   1   2
ATOM      2  C   UNL     1       6.413  -2.868 -36.044  1.00  0.00     0.000 C 
BRANCH   2   3
ATOM      3  C   UNL     1       7.864  -2.369 -35.987  1.00  0.00     0.000 C 
BRANCH   3   4
ATOM      4  C   UNL     1       8.395  -2.253 -34.549  1.00  0.00     0.000 C 
BRANCH   4   5
ATOM      5  C   UNL     1       9.785  -1.602 -34.480  1.00  0.00     0.006 C 
BRANCH   5   6
ATOM      6  C   UNL     1      10.655  -2.045 -35.660  1.00  0.00     0.053 C 
BRANCH   6   7
ATOM      7  C   UNL     1      12.106  -1.900 -35.326  1.00  0.00     0.041 C 
ATOM      8  O   UNL     1      12.981  -2.058 -36.218  1.00  0.00    -0.550 OA
ATOM      9  O   UNL     1      12.495  -1.641 -34.017  1.00  0.00    -0.550 OA
ENDBRANCH   6   7
ENDBRANCH   5   6
ENDBRANCH   4   5
ENDBRANCH   3   4
ENDBRANCH   2   3
ENDBRANCH   1   2
BRANCH   1  10
ATOM     10  C   UNL     1       5.153  -5.093 -36.149  1.00  0.00     0.000 C 
BRANCH  10  11
ATOM     11  C   UNL     1       5.569  -6.095 -35.059  1.00  0.00    -0.000 C 
BRANCH  11  12
ATOM     12  C   UNL     1       7.068  -6.441 -35.106  1.00  0.00    -0.000 C 
BRANCH  12  13
ATOM     13  C   UNL     1       7.904  -5.914 -33.922  1.00  0.00    -0.000 C 
BRANCH  13  14
ATOM     14  C   UNL     1       7.102  -5.178 -32.833  1.00  0.00    -0.000 C 
BRANCH  14  15
ATOM     15  C   UNL     1       7.237  -5.833 -31.451  1.00  0.00    -0.003 C 
ATOM     16  C   UNL     1       6.418  -7.118 -31.370  1.00  0.00     0.004 C 
ENDBRANCH  14  15
ENDBRANCH  13  14
ENDBRANCH  12  13
ENDBRANCH  11  12
ENDBRANCH  10  11
ENDBRANCH   1  10
TORSDOF 12
ENDMDL
MODEL 6
REMARK VINA RESULT:    -4.005      2.526      4.693
REMARK INTER + INTRA:          -8.469
REMARK INTER:                  -7.187
REMARK INTRA:                  -1.282
REMARK UNBOUND:                -1.654
REMARK SMILES CCCCCCCCCCCCCC(=O)[O-]
REMARK SMILES IDX 8 1 9 2 10 3 11 4 12 5 13 6 14 7 15 8 16 9 7 10 6 11 5 12
REMARK SMILES IDX 4 13 3 14 2 15 1 16
REMARK H PARENT
REMARK Flexibility Score: inf
ROOT
ATOM      1  C   UNL     1       7.343  -5.726 -31.677  1.00  0.00     0.000 C 
ENDROOT
BRANCH   1   2
ATOM      2  C   UNL     1       6.437  -6.964 -31.582  1.00  0.00     0.000 C 
BRANCH   2   3
ATOM      3  C   UNL     1       5.249  -6.850 -32.548  1.00  0.00     0.000 C 
BRANCH   3   4
ATOM      4  C   UNL     1       5.440  -7.687 -33.823  1.00  0.00     0.000 C 
BRANCH   4   5
ATOM      5  C   UNL     1       4.756  -7.063 -35.050  1.00  0.00     0.006 C 
BRANCH   5   6
ATOM      6  C   UNL     1       3.901  -8.099 -35.786  1.00  0.00     0.053 C 
BRANCH   6   7
ATOM      7  C   UNL     1       2.450  -7.889 -35.489  1.00  0.00     0.041 C 
ATOM      8  O   UNL     1       1.656  -7.563 -36.411  1.00  0.00    -0.550 OA
ATOM      9  O   UNL     1       1.983  -8.003 -34.186  1.00  0.00    -0.550 OA
ENDBRANCH   6   7
ENDBRANCH   5   6
ENDBRANCH   4   5
ENDBRANCH   3   4
ENDBRANCH   2   3
ENDBRANCH   1   2
BRANCH   1  10
ATOM     10  C   UNL     1       8.388  -5.838 -32.799  1.00  0.00     0.000 C 
BRANCH  10  11
ATOM     11  C   UNL     1       8.066  -4.931 -33.998  1.00  0.00    -0.000 C 
BRANCH  11  12
ATOM     12  C   UNL     1       7.623  -3.518 -33.578  1.00  0.00    -0.000 C 
BRANCH  12  13
ATOM     13  C   UNL     1       6.193  -3.122 -34.000  1.00  0.00    -0.000 C 
BRANCH  13  14
ATOM     14  C   UNL     1       6.000  -2.887 -35.509  1.00  0.00    -0.000 C 
BRANCH  14  15
ATOM     15  C   UNL     1       4.666  -3.443 -36.031  1.00  0.00    -0.003 C 
ATOM     16  C   UNL     1       3.772  -2.321 -36.553  1.00  0.00     0.004 C 
ENDBRANCH  14  15
ENDBRANCH  13  14
ENDBRANCH  12  13
ENDBRANCH  11  12
ENDBRANCH  10  11
ENDBRANCH   1  10
TORSDOF 12
ENDMDL
MODEL 7
REMARK VINA RESULT:    -3.988      2.162      5.299
REMARK INTER + INTRA:          -8.439
REMARK INTER:                  -6.954
REMARK INTRA:                  -1.485
REMARK UNBOUND:                -1.654
REMARK SMILES CCCCCCCCCCCCCC(=O)[O-]
REMARK SMILES IDX 8 1 9 2 10 3 11 4 12 5 13 6 14 7 15 8 16 9 7 10 6 11 5 12
REMARK SMILES IDX 4 13 3 14 2 15 1 16
REMARK H PARENT
REMARK Flexibility Score: inf
ROOT
ATOM      1  C   UNL     1       4.604  -2.841 -35.876  1.00  0.00     0.000 C 
ENDROOT
BRANCH   1   2
ATOM      2  C   UNL     1       3.617  -2.883 -37.053  1.00  0.00     0.000 C 
BRANCH   2   3
ATOM      3  C   UNL     1       3.676  -4.240 -37.770  1.00  0.00     0.000 C 
BRANCH   3   4
ATOM      4  C   UNL     1       3.457  -5.424 -36.815  1.00  0.00     0.000 C 
BRANCH   4   5
ATOM      5  C   UNL     1       4.530  -6.513 -36.966  1.00  0.00     0.006 C 
BRANCH   5   6
ATOM      6  C   UNL     1       5.564  -6.424 -35.839  1.00  0.00     0.053 C 
BRANCH   6   7
ATOM      7  C   UNL     1       6.951  -6.434 -36.397  1.00  0.00     0.041 C 
ATOM      8  O   UNL     1       7.219  -5.782 -37.441  1.00  0.00    -0.550 OA
ATOM      9  O   UNL     1       7.938  -7.205 -35.794  1.00  0.00    -0.550 OA
ENDBRANCH   6   7
ENDBRANCH   5   6
ENDBRANCH   4   5
ENDBRANCH   3   4
ENDBRANCH   2   3
ENDBRANCH   1   2
BRANCH   1  10
ATOM     10  C   UNL     1       6.066  -2.695 -36.329  1.00  0.00     0.000 C 
BRANCH  10  11
ATOM     11  C   UNL     1       7.056  -2.724 -35.153  1.00  0.00    -0.000 C 
BRANCH  11  12
ATOM     12  C   UNL     1       6.403  -3.179 -33.834  1.00  0.00    -0.000 C 
BRANCH  12  13
ATOM     13  C   UNL     1       7.370  -3.787 -32.797  1.00  0.00    -0.000 C 
BRANCH  13  14
ATOM     14  C   UNL     1       7.547  -5.313 -32.886  1.00  0.00    -0.000 C 
BRANCH  14  15
ATOM     15  C   UNL     1       7.407  -6.009 -31.523  1.00  0.00    -0.003 C 
ATOM     16  C   UNL     1       6.027  -6.642 -31.371  1.00  0.00     0.004 C 
ENDBRANCH  14  15
ENDBRANCH  13  14
ENDBRANCH  12  13
ENDBRANCH  11  12
ENDBRANCH  10  11
ENDBRANCH   1  10
TORSDOF 12
ENDMDL
MODEL 8
REMARK VINA RESULT:    -3.960      2.988      4.932
REMARK INTER + INTRA:          -8.393
REMARK INTER:                  -6.889
REMARK INTRA:                  -1.504
REMARK UNBOUND:                -1.654
REMARK SMILES CCCCCCCCCCCCCC(=O)[O-]
REMARK SMILES IDX 8 1 9 2 10 3 11 4 12 5 13 6 14 7 15 8 16 9 7 10 6 11 5 12
REMARK SMILES IDX 4 13 3 14 2 15 1 16
REMARK H PARENT
REMARK Flexibility Score: inf
ROOT
ATOM      1  C   UNL     1       5.005  -7.708 -34.867  1.00  0.00     0.000 C 
ENDROOT
BRANCH   1   2
ATOM      2  C   UNL     1       5.243  -8.077 -33.394  1.00  0.00     0.000 C 
BRANCH   2   3
ATOM      3  C   UNL     1       5.141  -6.837 -32.494  1.00  0.00     0.000 C 
BRANCH   3   4
ATOM      4  C   UNL     1       6.136  -6.872 -31.322  1.00  0.00     0.000 C 
BRANCH   4   5
ATOM      5  C   UNL     1       7.470  -6.188 -31.657  1.00  0.00     0.006 C 
BRANCH   5   6
ATOM      6  C   UNL     1       7.243  -4.927 -32.497  1.00  0.00     0.053 C 
BRANCH   6   7
ATOM      7  C   UNL     1       7.902  -5.061 -33.833  1.00  0.00     0.041 C 
ATOM      8  O   UNL     1       7.648  -4.237 -34.751  1.00  0.00    -0.550 OA
ATOM      9  O   UNL     1       8.757  -6.127 -34.083  1.00  0.00    -0.550 OA
ENDBRANCH   6   7
ENDBRANCH   5   6
ENDBRANCH   4   5
ENDBRANCH   3   4
ENDBRANCH   2   3
ENDBRANCH   1   2
BRANCH   1  10
ATOM     10  C   UNL     1       4.520  -8.899 -35.708  1.00  0.00     0.000 C 
BRANCH  10  11
ATOM     11  C   UNL     1       3.157  -8.640 -36.370  1.00  0.00    -0.000 C 
BRANCH  11  12
ATOM     12  C   UNL     1       2.536  -7.294 -35.953  1.00  0.00    -0.000 C 
BRANCH  12  13
ATOM     13  C   UNL     1       1.233  -7.394 -35.134  1.00  0.00    -0.000 C 
BRANCH  13  14
ATOM     14  C   UNL     1       0.883  -8.807 -34.636  1.00  0.00    -0.000 C 
BRANCH  14  15
ATOM     15  C   UNL     1       1.256  -9.029 -33.163  1.00  0.00    -0.003 C 
ATOM     16  C   UNL     1       2.123 -10.274 -32.998  1.00  0.00     0.004 C 
ENDBRANCH  14  15
ENDBRANCH  13  14
ENDBRANCH  12  13
ENDBRANCH  11  12
ENDBRANCH  10  11
ENDBRANCH   1  10
TORSDOF 12
ENDMDL
MODEL 9
REMARK VINA RESULT:    -3.952      2.669      4.310
REMARK INTER + INTRA:          -8.378
REMARK INTER:                  -6.771
REMARK INTRA:                  -1.607
REMARK UNBOUND:                -1.654
REMARK SMILES CCCCCCCCCCCCCC(=O)[O-]
REMARK SMILES IDX 8 1 9 2 10 3 11 4 12 5 13 6 14 7 15 8 16 9 7 10 6 11 5 12
REMARK SMILES IDX 4 13 3 14 2 15 1 16
REMARK H PARENT
REMARK Flexibility Score: inf
ROOT
ATOM      1  C   UNL     1       3.587  -3.657 -36.871  1.00  0.00     0.000 C 
ENDROOT
BRANCH   1   2
ATOM      2  C   UNL     1       4.587  -2.769 -36.115  1.00  0.00     0.000 C 
BRANCH   2   3
ATOM      3  C   UNL     1       5.617  -3.622 -35.360  1.00  0.00     0.000 C 
BRANCH   3   4
ATOM      4  C   UNL     1       6.938  -2.875 -35.113  1.00  0.00     0.000 C 
BRANCH   4   5
ATOM      5  C   UNL     1       7.894  -3.651 -34.195  1.00  0.00     0.006 C 
BRANCH   5   6
ATOM      6  C   UNL     1       7.232  -3.959 -32.849  1.00  0.00     0.053 C 
BRANCH   6   7
ATOM      7  C   UNL     1       7.590  -5.337 -32.391  1.00  0.00     0.041 C 
ATOM      8  O   UNL     1       6.899  -5.912 -31.509  1.00  0.00    -0.550 OA
ATOM      9  O   UNL     1       8.718  -5.968 -32.900  1.00  0.00    -0.550 OA
ENDBRANCH   6   7
ENDBRANCH   5   6
ENDBRANCH   4   5
ENDBRANCH   3   4
ENDBRANCH   2   3
ENDBRANCH   1   2
BRANCH   1  10
ATOM     10  C   UNL     1       4.131  -5.069 -37.142  1.00  0.00     0.000 C 
BRANCH  10  11
ATOM     11  C   UNL     1       3.095  -6.168 -36.854  1.00  0.00    -0.000 C 
BRANCH  11  12
ATOM     12  C   UNL     1       3.696  -7.377 -36.114  1.00  0.00    -0.000 C 
BRANCH  12  13
ATOM     13  C   UNL     1       4.958  -7.077 -35.278  1.00  0.00    -0.000 C 
BRANCH  13  14
ATOM     14  C   UNL     1       6.213  -7.868 -35.686  1.00  0.00    -0.000 C 
BRANCH  14  15
ATOM     15  C   UNL     1       7.438  -6.968 -35.905  1.00  0.00    -0.003 C 
ATOM     16  C   UNL     1       7.524  -6.503 -37.356  1.00  0.00     0.004 C 
ENDBRANCH  14  15
ENDBRANCH  13  14
ENDBRANCH  12  13
ENDBRANCH  11  12
ENDBRANCH  10  11
ENDBRANCH   1  10
TORSDOF 12
ENDMDL
