MODEL 1
REMARK VINA RESULT:    -4.561      0.000      0.000
REMARK INTER + INTRA:         -10.709
REMARK INTER:                  -8.828
REMARK INTRA:                  -1.881
REMARK UNBOUND:                -1.881
REMARK SMILES CCCCCCCCCCCCCCCCCC(=O)[O-]
REMARK SMILES IDX 10 1 11 2 12 3 13 4 14 5 15 6 16 7 17 8 18 9 19 10 20 11
REMARK SMILES IDX 9 12 8 13 7 14 6 15 5 16 4 17 3 18 2 19 1 20
REMARK H PARENT
REMARK Flexibility Score: inf
ROOT
ATOM      1  C   UNL     1      19.786  -6.435  47.917  1.00  0.00     0.000 C 
ENDROOT
BRANCH   1   2
ATOM      2  C   UNL     1      20.280  -7.526  48.882  1.00  0.00     0.000 C 
BRANCH   2   3
ATOM      3  C   UNL     1      20.462  -7.011  50.320  1.00  0.00     0.000 C 
BRANCH   3   4
ATOM      4  C   UNL     1      21.877  -7.202  50.906  1.00  0.00     0.000 C 
BRANCH   4   5
ATOM      5  C   UNL     1      22.896  -6.117  50.517  1.00  0.00     0.000 C 
BRANCH   5   6
ATOM      6  C   UNL     1      22.812  -4.870  51.410  1.00  0.00     0.000 C 
BRANCH   6   7
ATOM      7  C   UNL     1      23.302  -3.623  50.660  1.00  0.00     0.006 C 
BRANCH   7   8
ATOM      8  C   UNL     1      23.262  -3.809  49.137  1.00  0.00     0.053 C 
BRANCH   8   9
ATOM      9  C   UNL     1      23.188  -2.497  48.419  1.00  0.00     0.041 C 
ATOM     10  O   UNL     1      24.075  -2.182  47.580  1.00  0.00    -0.550 OA
ATOM     11  O   UNL     1      22.159  -1.606  48.700  1.00  0.00    -0.550 OA
ENDBRANCH   8   9
ENDBRANCH   7   8
ENDBRANCH   6   7
ENDBRANCH   5   6
ENDBRANCH   4   5
ENDBRANCH   3   4
ENDBRANCH   2   3
ENDBRANCH   1   2
BRANCH   1  12
ATOM     12  C   UNL     1      19.964  -6.828  46.442  1.00  0.00     0.000 C 
BRANCH  12  13
ATOM     13  C   UNL     1      18.626  -7.152  45.752  1.00  0.00    -0.000 C 
BRANCH  13  14
ATOM     14  C   UNL     1      18.758  -7.251  44.225  1.00  0.00    -0.000 C 
BRANCH  14  15
ATOM     15  C   UNL     1      20.208  -7.472  43.770  1.00  0.00    -0.000 C 
BRANCH  15  16
ATOM     16  C   UNL     1      20.689  -6.312  42.888  1.00  0.00    -0.000 C 
BRANCH  16  17
ATOM     17  C   UNL     1      19.604  -5.233  42.758  1.00  0.00    -0.000 C 
BRANCH  17  18
ATOM     18  C   UNL     1      20.098  -3.842  43.186  1.00  0.00    -0.000 C 
BRANCH  18  19
ATOM     19  C   UNL     1      19.929  -3.593  44.692  1.00  0.00    -0.003 C 
ATOM     20  C   UNL     1      21.279  -3.602  45.404  1.00  0.00     0.004 C 
ENDBRANCH  18  19
ENDBRANCH  17  18
ENDBRANCH  16  17
ENDBRANCH  15  16
ENDBRANCH  14  15
ENDBRANCH  13  14
ENDBRANCH  12  13
ENDBRANCH   1  12
TORSDOF 16
ENDMDL
MODEL 2
REMARK VINA RESULT:    -4.520      1.254      2.241
REMARK INTER + INTRA:         -10.630
REMARK INTER:                  -8.181
REMARK INTRA:                  -2.449
REMARK UNBOUND:                -1.881
REMARK SMILES CCCCCCCCCCCCCCCCCC(=O)[O-]
REMARK SMILES IDX 10 1 11 2 12 3 13 4 14 5 15 6 16 7 17 8 18 9 19 10 20 11
REMARK SMILES IDX 9 12 8 13 7 14 6 15 5 16 4 17 3 18 2 19 1 20
REMARK H PARENT
REMARK Flexibility Score: inf
ROOT
ATOM      1  C   UNL     1      20.524  -7.437  48.411  1.00  0.00     0.000 C 
ENDROOT
BRANCH   1   2
ATOM      2  C   UNL     1      20.230  -7.257  49.910  1.00  0.00     0.000 C 
BRANCH   2   3
ATOM      3  C   UNL     1      21.492  -7.378  50.783  1.00  0.00     0.000 C 
BRANCH   3   4
ATOM      4  C   UNL     1      22.821  -7.099  50.050  1.00  0.00     0.000 C 
BRANCH   4   5
ATOM      5  C   UNL     1      23.667  -5.960  50.644  1.00  0.00     0.000 C 
BRANCH   5   6
ATOM      6  C   UNL     1      22.818  -4.883  51.336  1.00  0.00     0.000 C 
BRANCH   6   7
ATOM      7  C   UNL     1      23.182  -3.483  50.822  1.00  0.00     0.006 C 
BRANCH   7   8
ATOM      8  C   UNL     1      23.466  -3.473  49.314  1.00  0.00     0.053 C 
BRANCH   8   9
ATOM      9  C   UNL     1      23.121  -2.156  48.691  1.00  0.00     0.041 C 
ATOM     10  O   UNL     1      23.456  -1.080  49.257  1.00  0.00    -0.550 OA
ATOM     11  O   UNL     1      22.400  -2.114  47.504  1.00  0.00    -0.550 OA
ENDBRANCH   8   9
ENDBRANCH   7   8
ENDBRANCH   6   7
ENDBRANCH   5   6
ENDBRANCH   4   5
ENDBRANCH   3   4
ENDBRANCH   2   3
ENDBRANCH   1   2
BRANCH   1  12
ATOM     12  C   UNL     1      19.820  -6.384  47.542  1.00  0.00     0.000 C 
BRANCH  12  13
ATOM     13  C   UNL     1      20.772  -5.261  47.089  1.00  0.00    -0.000 C 
BRANCH  13  14
ATOM     14  C   UNL     1      22.116  -5.797  46.577  1.00  0.00    -0.000 C 
BRANCH  14  15
ATOM     15  C   UNL     1      22.180  -5.866  45.044  1.00  0.00    -0.000 C 
BRANCH  15  16
ATOM     16  C   UNL     1      22.025  -7.310  44.552  1.00  0.00    -0.000 C 
BRANCH  16  17
ATOM     17  C   UNL     1      20.768  -7.463  43.684  1.00  0.00    -0.000 C 
BRANCH  17  18
ATOM     18  C   UNL     1      20.228  -6.115  43.179  1.00  0.00    -0.000 C 
BRANCH  18  19
ATOM     19  C   UNL     1      18.781  -5.856  43.622  1.00  0.00    -0.003 C 
ATOM     20  C   UNL     1      18.164  -7.107  44.241  1.00  0.00     0.004 C 
ENDBRANCH  18  19
ENDBRANCH  17  18
ENDBRANCH  16  17
ENDBRANCH  15  16
ENDBRANCH  14  15
ENDBRANCH  13  14
ENDBRANCH  12  13
ENDBRANCH   1  12
TORSDOF 16
ENDMDL
MODEL 3
REMARK VINA RESULT:    -4.503      2.617      5.517
REMARK INTER + INTRA:         -10.597
REMARK INTER:                  -8.072
REMARK INTRA:                  -2.526
REMARK UNBOUND:                -1.881
REMARK SMILES CCCCCCCCCCCCCCCCCC(=O)[O-]
REMARK SMILES IDX 10 1 11 2 12 3 13 4 14 5 15 6 16 7 17 8 18 9 19 10 20 11
REMARK SMILES IDX 9 12 8 13 7 14 6 15 5 16 4 17 3 18 2 19 1 20
REMARK H PARENT
REMARK Flexibility Score: inf
ROOT
ATOM      1  C   UNL     1      23.040  -5.334  51.054  1.00  0.00     0.000 C 
ENDROOT
BRANCH   1   2
ATOM      2  C   UNL     1      23.436  -4.311  49.976  1.00  0.00     0.000 C 
BRANCH   2   3
ATOM      3  C   UNL     1      23.441  -4.910  48.559  1.00  0.00     0.000 C 
BRANCH   3   4
ATOM      4  C   UNL     1      22.505  -4.209  47.552  1.00  0.00     0.000 C 
BRANCH   4   5
ATOM      5  C   UNL     1      23.046  -4.114  46.115  1.00  0.00     0.000 C 
BRANCH   5   6
ATOM      6  C   UNL     1      22.138  -3.294  45.187  1.00  0.00     0.000 C 
BRANCH   6   7
ATOM      7  C   UNL     1      21.218  -4.212  44.368  1.00  0.00     0.006 C 
BRANCH   7   8
ATOM      8  C   UNL     1      19.747  -3.785  44.454  1.00  0.00     0.053 C 
BRANCH   8   9
ATOM      9  C   UNL     1      18.988  -4.152  43.215  1.00  0.00     0.041 C 
ATOM     10  O   UNL     1      19.065  -3.427  42.187  1.00  0.00    -0.550 OA
ATOM     11  O   UNL     1      18.169  -5.274  43.207  1.00  0.00    -0.550 OA
ENDBRANCH   8   9
ENDBRANCH   7   8
ENDBRANCH   6   7
ENDBRANCH   5   6
ENDBRANCH   4   5
ENDBRANCH   3   4
ENDBRANCH   2   3
ENDBRANCH   1   2
BRANCH   1  12
ATOM     12  C   UNL     1      22.708  -6.713  50.463  1.00  0.00     0.000 C 
BRANCH  12  13
ATOM     13  C   UNL     1      21.381  -7.281  51.001  1.00  0.00    -0.000 C 
BRANCH  13  14
ATOM     14  C   UNL     1      20.246  -7.207  49.970  1.00  0.00    -0.000 C 
BRANCH  14  15
ATOM     15  C   UNL     1      20.744  -7.391  48.528  1.00  0.00    -0.000 C 
BRANCH  15  16
ATOM     16  C   UNL     1      19.829  -6.665  47.534  1.00  0.00    -0.000 C 
BRANCH  16  17
ATOM     17  C   UNL     1      20.037  -7.194  46.107  1.00  0.00    -0.000 C 
BRANCH  17  18
ATOM     18  C   UNL     1      21.475  -7.679  45.859  1.00  0.00    -0.000 C 
BRANCH  18  19
ATOM     19  C   UNL     1      21.793  -7.843  44.366  1.00  0.00    -0.003 C 
ATOM     20  C   UNL     1      20.516  -7.839  43.530  1.00  0.00     0.004 C 
ENDBRANCH  18  19
ENDBRANCH  17  18
ENDBRANCH  16  17
ENDBRANCH  15  16
ENDBRANCH  14  15
ENDBRANCH  13  14
ENDBRANCH  12  13
ENDBRANCH   1  12
TORSDOF 16
ENDMDL
MODEL 4
REMARK VINA RESULT:    -4.470      3.131      6.058
REMARK INTER + INTRA:         -10.533
REMARK INTER:                  -7.567
REMARK INTRA:                  -2.966
REMARK UNBOUND:                -1.881
REMARK SMILES CCCCCCCCCCCCCCCCCC(=O)[O-]
REMARK SMILES IDX 10 1 11 2 12 3 13 4 14 5 15 6 16 7 17 8 18 9 19 10 20 11
REMARK SMILES IDX 9 12 8 13 7 14 6 15 5 16 4 17 3 18 2 19 1 20
REMARK H PARENT
REMARK Flexibility Score: inf
ROOT
ATOM      1  C   UNL     1      24.330  -7.616  49.284  1.00  0.00     0.000 C 
ENDROOT
BRANCH   1   2
ATOM      2  C   UNL     1      23.979  -8.885  48.489  1.00  0.00     0.000 C 
BRANCH   2   3
ATOM      3  C   UNL     1      23.780  -8.611  46.988  1.00  0.00     0.000 C 
BRANCH   3   4
ATOM      4  C   UNL     1      22.744  -9.519  46.291  1.00  0.00     0.000 C 
BRANCH   4   5
ATOM      5  C   UNL     1      22.143  -8.947  44.996  1.00  0.00     0.000 C 
BRANCH   5   6
ATOM      6  C   UNL     1      20.620  -9.129  44.912  1.00  0.00     0.000 C 
BRANCH   6   7
ATOM      7  C   UNL     1      20.060  -8.486  43.635  1.00  0.00     0.006 C 
BRANCH   7   8
ATOM      8  C   UNL     1      20.689  -7.116  43.351  1.00  0.00     0.053 C 
BRANCH   8   9
ATOM      9  C   UNL     1      19.649  -6.063  43.122  1.00  0.00     0.041 C 
ATOM     10  O   UNL     1      18.571  -6.085  43.774  1.00  0.00    -0.550 OA
ATOM     11  O   UNL     1      19.854  -5.079  42.163  1.00  0.00    -0.550 OA
ENDBRANCH   8   9
ENDBRANCH   7   8
ENDBRANCH   6   7
ENDBRANCH   5   6
ENDBRANCH   4   5
ENDBRANCH   3   4
ENDBRANCH   2   3
ENDBRANCH   1   2
BRANCH   1  12
ATOM     12  C   UNL     1      23.514  -7.488  50.580  1.00  0.00     0.000 C 
BRANCH  12  13
ATOM     13  C   UNL     1      22.289  -6.569  50.416  1.00  0.00    -0.000 C 
BRANCH  13  14
ATOM     14  C   UNL     1      20.971  -7.270  50.777  1.00  0.00    -0.000 C 
BRANCH  14  15
ATOM     15  C   UNL     1      19.944  -7.220  49.636  1.00  0.00    -0.000 C 
BRANCH  15  16
ATOM     16  C   UNL     1      20.640  -7.213  48.269  1.00  0.00    -0.000 C 
BRANCH  16  17
ATOM     17  C   UNL     1      19.811  -6.439  47.234  1.00  0.00    -0.000 C 
BRANCH  17  18
ATOM     18  C   UNL     1      20.584  -5.262  46.617  1.00  0.00    -0.000 C 
BRANCH  18  19
ATOM     19  C   UNL     1      22.106  -5.422  46.747  1.00  0.00    -0.003 C 
ATOM     20  C   UNL     1      22.806  -5.092  45.431  1.00  0.00     0.004 C 
ENDBRANCH  18  19
ENDBRANCH  17  18
ENDBRANCH  16  17
ENDBRANCH  15  16
ENDBRANCH  14  15
ENDBRANCH  13  14
ENDBRANCH  12  13
ENDBRANCH   1  12
TORSDOF 16
ENDMDL
MODEL 5
REMARK VINA RESULT:    -4.464      2.663      6.344
REMARK INTER + INTRA:         -10.520
REMARK INTER:                  -8.046
REMARK INTRA:                  -2.474
REMARK UNBOUND:                -1.881
REMARK SMILES CCCCCCCCCCCCCCCCCC(=O)[O-]
REMARK SMILES IDX 10 1 11 2 12 3 13 4 14 5 15 6 16 7 17 8 18 9 19 10 20 11
REMARK SMILES IDX 9 12 8 13 7 14 6 15 5 16 4 17 3 18 2 19 1 20
REMARK H PARENT
REMARK Flexibility Score: inf
ROOT
ATOM      1  C   UNL     1      21.311  -7.109  47.179  1.00  0.00     0.000 C 
ENDROOT
BRANCH   1   2
ATOM      2  C   UNL     1      22.650  -6.353  47.242  1.00  0.00     0.000 C 
BRANCH   2   3
ATOM      3  C   UNL     1      23.090  -5.808  45.872  1.00  0.00     0.000 C 
BRANCH   3   4
ATOM      4  C   UNL     1      23.372  -4.291  45.834  1.00  0.00     0.000 C 
BRANCH   4   5
ATOM      5  C   UNL     1      22.128  -3.393  45.942  1.00  0.00     0.000 C 
BRANCH   5   6
ATOM      6  C   UNL     1      21.369  -3.261  44.614  1.00  0.00     0.000 C 
BRANCH   6   7
ATOM      7  C   UNL     1      19.918  -3.743  44.761  1.00  0.00     0.006 C 
BRANCH   7   8
ATOM      8  C   UNL     1      19.766  -5.236  44.440  1.00  0.00     0.053 C 
BRANCH   8   9
ATOM      9  C   UNL     1      20.253  -5.561  43.061  1.00  0.00     0.041 C 
ATOM     10  O   UNL     1      21.149  -6.431  42.894  1.00  0.00    -0.550 OA
ATOM     11  O   UNL     1      19.743  -4.878  41.964  1.00  0.00    -0.550 OA
ENDBRANCH   8   9
ENDBRANCH   7   8
ENDBRANCH   6   7
ENDBRANCH   5   6
ENDBRANCH   4   5
ENDBRANCH   3   4
ENDBRANCH   2   3
ENDBRANCH   1   2
BRANCH   1  12
ATOM     12  C   UNL     1      20.274  -6.553  48.167  1.00  0.00     0.000 C 
BRANCH  12  13
ATOM     13  C   UNL     1      20.066  -7.474  49.384  1.00  0.00    -0.000 C 
BRANCH  13  14
ATOM     14  C   UNL     1      20.787  -6.964  50.640  1.00  0.00    -0.000 C 
BRANCH  14  15
ATOM     15  C   UNL     1      22.038  -7.788  50.978  1.00  0.00    -0.000 C 
BRANCH  15  16
ATOM     16  C   UNL     1      23.235  -6.874  51.272  1.00  0.00    -0.000 C 
BRANCH  16  17
ATOM     17  C   UNL     1      22.852  -5.396  51.105  1.00  0.00    -0.000 C 
BRANCH  17  18
ATOM     18  C   UNL     1      23.902  -4.596  50.318  1.00  0.00    -0.000 C 
BRANCH  18  19
ATOM     19  C   UNL     1      23.290  -3.417  49.547  1.00  0.00    -0.003 C 
ATOM     20  C   UNL     1      22.927  -2.274  50.491  1.00  0.00     0.004 C 
ENDBRANCH  18  19
ENDBRANCH  17  18
ENDBRANCH  16  17
ENDBRANCH  15  16
ENDBRANCH  14  15
ENDBRANCH  13  14
ENDBRANCH  12  13
ENDBRANCH   1  12
TORSDOF 16
ENDMDL
MODEL 6
REMARK VINA RESULT:    -4.452      2.594      6.452
REMARK INTER + INTRA:         -10.498
REMARK INTER:                  -8.584
REMARK INTRA:                  -1.915
REMARK UNBOUND:                -1.881
REMARK SMILES CCCCCCCCCCCCCCCCCC(=O)[O-]
REMARK SMILES IDX 10 1 11 2 12 3 13 4 14 5 15 6 16 7 17 8 18 9 19 10 20 11
REMARK SMILES IDX 9 12 8 13 7 14 6 15 5 16 4 17 3 18 2 19 1 20
REMARK H PARENT
REMARK Flexibility Score: inf
ROOT
ATOM      1  C   UNL     1      20.597  -7.468  48.344  1.00  0.00     0.000 C 
ENDROOT
BRANCH   1   2
ATOM      2  C   UNL     1      19.855  -6.609  47.306  1.00  0.00     0.000 C 
BRANCH   2   3
ATOM      3  C   UNL     1      20.592  -5.298  46.982  1.00  0.00     0.000 C 
BRANCH   3   4
ATOM      4  C   UNL     1      22.088  -5.458  46.640  1.00  0.00     0.000 C 
BRANCH   4   5
ATOM      5  C   UNL     1      22.383  -6.243  45.350  1.00  0.00     0.000 C 
BRANCH   5   6
ATOM      6  C   UNL     1      21.763  -5.596  44.103  1.00  0.00     0.000 C 
BRANCH   6   7
ATOM      7  C   UNL     1      20.828  -6.578  43.382  1.00  0.00     0.006 C 
BRANCH   7   8
ATOM      8  C   UNL     1      19.361  -6.135  43.443  1.00  0.00     0.053 C 
BRANCH   8   9
ATOM      9  C   UNL     1      19.171  -4.760  42.881  1.00  0.00     0.041 C 
ATOM     10  O   UNL     1      19.488  -4.515  41.686  1.00  0.00    -0.550 OA
ATOM     11  O   UNL     1      18.678  -3.740  43.685  1.00  0.00    -0.550 OA
ENDBRANCH   8   9
ENDBRANCH   7   8
ENDBRANCH   6   7
ENDBRANCH   5   6
ENDBRANCH   4   5
ENDBRANCH   3   4
ENDBRANCH   2   3
ENDBRANCH   1   2
BRANCH   1  12
ATOM     12  C   UNL     1      20.175  -7.146  49.785  1.00  0.00     0.000 C 
BRANCH  12  13
ATOM     13  C   UNL     1      21.371  -7.100  50.754  1.00  0.00    -0.000 C 
BRANCH  13  14
ATOM     14  C   UNL     1      22.564  -6.319  50.182  1.00  0.00    -0.000 C 
BRANCH  14  15
ATOM     15  C   UNL     1      22.918  -5.082  51.021  1.00  0.00    -0.000 C 
BRANCH  15  16
ATOM     16  C   UNL     1      24.269  -4.495  50.592  1.00  0.00    -0.000 C 
BRANCH  16  17
ATOM     17  C   UNL     1      24.184  -2.968  50.450  1.00  0.00    -0.000 C 
BRANCH  17  18
ATOM     18  C   UNL     1      22.769  -2.426  50.708  1.00  0.00    -0.000 C 
BRANCH  18  19
ATOM     19  C   UNL     1      22.295  -1.465  49.607  1.00  0.00    -0.003 C 
ATOM     20  C   UNL     1      22.739  -1.949  48.229  1.00  0.00     0.004 C 
ENDBRANCH  18  19
ENDBRANCH  17  18
ENDBRANCH  16  17
ENDBRANCH  15  16
ENDBRANCH  14  15
ENDBRANCH  13  14
ENDBRANCH  12  13
ENDBRANCH   1  12
TORSDOF 16
ENDMDL
MODEL 7
REMARK VINA RESULT:    -4.431      1.652      2.132
REMARK INTER + INTRA:         -10.456
REMARK INTER:                  -7.880
REMARK INTRA:                  -2.576
REMARK UNBOUND:                -1.881
REMARK SMILES CCCCCCCCCCCCCCCCCC(=O)[O-]
REMARK SMILES IDX 10 1 11 2 12 3 13 4 14 5 15 6 16 7 17 8 18 9 19 10 20 11
REMARK SMILES IDX 9 12 8 13 7 14 6 15 5 16 4 17 3 18 2 19 1 20
REMARK H PARENT
REMARK Flexibility Score: inf
ROOT
ATOM      1  C   UNL     1      20.778  -6.196  48.019  1.00  0.00     0.000 C 
ENDROOT
BRANCH   1   2
ATOM      2  C   UNL     1      20.260  -7.359  48.883  1.00  0.00     0.000 C 
BRANCH   2   3
ATOM      3  C   UNL     1      20.398  -7.088  50.391  1.00  0.00     0.000 C 
BRANCH   3   4
ATOM      4  C   UNL     1      21.567  -7.822  51.081  1.00  0.00     0.000 C 
BRANCH   4   5
ATOM      5  C   UNL     1      22.905  -7.063  51.082  1.00  0.00     0.000 C 
BRANCH   5   6
ATOM      6  C   UNL     1      22.739  -5.560  51.352  1.00  0.00     0.000 C 
BRANCH   6   7
ATOM      7  C   UNL     1      23.814  -4.749  50.614  1.00  0.00     0.006 C 
BRANCH   7   8
ATOM      8  C   UNL     1      23.218  -3.568  49.836  1.00  0.00     0.053 C 
BRANCH   8   9
ATOM      9  C   UNL     1      23.920  -2.283  50.152  1.00  0.00     0.041 C 
ATOM     10  O   UNL     1      25.163  -2.273  50.356  1.00  0.00    -0.550 OA
ATOM     11  O   UNL     1      23.196  -1.102  50.257  1.00  0.00    -0.550 OA
ENDBRANCH   8   9
ENDBRANCH   7   8
ENDBRANCH   6   7
ENDBRANCH   5   6
ENDBRANCH   4   5
ENDBRANCH   3   4
ENDBRANCH   2   3
ENDBRANCH   1   2
BRANCH   1  12
ATOM     12  C   UNL     1      22.196  -6.446  47.484  1.00  0.00     0.000 C 
BRANCH  12  13
ATOM     13  C   UNL     1      22.475  -7.939  47.227  1.00  0.00    -0.000 C 
BRANCH  13  14
ATOM     14  C   UNL     1      22.467  -8.292  45.733  1.00  0.00    -0.000 C 
BRANCH  14  15
ATOM     15  C   UNL     1      21.181  -9.014  45.302  1.00  0.00    -0.000 C 
BRANCH  15  16
ATOM     16  C   UNL     1      20.150  -8.019  44.754  1.00  0.00    -0.000 C 
BRANCH  16  17
ATOM     17  C   UNL     1      20.608  -7.437  43.409  1.00  0.00    -0.000 C 
BRANCH  17  18
ATOM     18  C   UNL     1      20.293  -5.939  43.272  1.00  0.00    -0.000 C 
BRANCH  18  19
ATOM     19  C   UNL     1      21.195  -5.064  44.155  1.00  0.00    -0.003 C 
ATOM     20  C   UNL     1      20.368  -4.074  44.972  1.00  0.00     0.004 C 
ENDBRANCH  18  19
ENDBRANCH  17  18
ENDBRANCH  16  17
ENDBRANCH  15  16
ENDBRANCH  14  15
ENDBRANCH  13  14
ENDBRANCH  12  13
ENDBRANCH   1  12
TORSDOF 16
ENDMDL
MODEL 8
REMARK VINA RESULT:    -4.415      1.495      2.874
REMARK INTER + INTRA:         -10.427
REMARK INTER:                  -7.840
REMARK INTRA:                  -2.587
REMARK UNBOUND:                -1.881
REMARK SMILES CCCCCCCCCCCCCCCCCC(=O)[O-]
REMARK SMILES IDX 10 1 11 2 12 3 13 4 14 5 15 6 16 7 17 8 18 9 19 10 20 11
REMARK SMILES IDX 9 12 8 13 7 14 6 15 5 16 4 17 3 18 2 19 1 20
REMARK H PARENT
REMARK Flexibility Score: inf
ROOT
ATOM      1  C   UNL     1      20.307  -7.115  50.352  1.00  0.00     0.000 C 
ENDROOT
BRANCH   1   2
ATOM      2  C   UNL     1      21.450  -7.825  51.097  1.00  0.00     0.000 C 
BRANCH   2   3
ATOM      3  C   UNL     1      22.771  -7.038  51.049  1.00  0.00     0.000 C 
BRANCH   3   4
ATOM      4  C   UNL     1      22.649  -5.537  51.387  1.00  0.00     0.000 C 
BRANCH   4   5
ATOM      5  C   UNL     1      23.657  -4.623  50.670  1.00  0.00     0.000 C 
BRANCH   5   6
ATOM      6  C   UNL     1      23.239  -3.145  50.685  1.00  0.00     0.000 C 
BRANCH   6   7
ATOM      7  C   UNL     1      24.269  -2.277  49.948  1.00  0.00     0.006 C 
BRANCH   7   8
ATOM      8  C   UNL     1      23.661  -1.555  48.738  1.00  0.00     0.053 C 
BRANCH   8   9
ATOM      9  C   UNL     1      24.476  -1.762  47.499  1.00  0.00     0.041 C 
ATOM     10  O   UNL     1      25.444  -2.568  47.505  1.00  0.00    -0.550 OA
ATOM     11  O   UNL     1      24.189  -1.039  46.348  1.00  0.00    -0.550 OA
ENDBRANCH   8   9
ENDBRANCH   7   8
ENDBRANCH   6   7
ENDBRANCH   5   6
ENDBRANCH   4   5
ENDBRANCH   3   4
ENDBRANCH   2   3
ENDBRANCH   1   2
BRANCH   1  12
ATOM     12  C   UNL     1      20.264  -7.475  48.859  1.00  0.00     0.000 C 
BRANCH  12  13
ATOM     13  C   UNL     1      20.637  -6.285  47.955  1.00  0.00    -0.000 C 
BRANCH  13  14
ATOM     14  C   UNL     1      22.108  -6.317  47.515  1.00  0.00    -0.000 C 
BRANCH  14  15
ATOM     15  C   UNL     1      22.633  -4.932  47.107  1.00  0.00    -0.000 C 
BRANCH  15  16
ATOM     16  C   UNL     1      21.478  -3.936  46.933  1.00  0.00    -0.000 C 
BRANCH  16  17
ATOM     17  C   UNL     1      21.459  -3.360  45.510  1.00  0.00    -0.000 C 
BRANCH  17  18
ATOM     18  C   UNL     1      20.133  -3.624  44.780  1.00  0.00    -0.000 C 
BRANCH  18  19
ATOM     19  C   UNL     1      19.857  -5.122  44.581  1.00  0.00    -0.003 C 
ATOM     20  C   UNL     1      20.835  -5.730  43.578  1.00  0.00     0.004 C 
ENDBRANCH  18  19
ENDBRANCH  17  18
ENDBRANCH  16  17
ENDBRANCH  15  16
ENDBRANCH  14  15
ENDBRANCH  13  14
ENDBRANCH  12  13
ENDBRANCH   1  12
TORSDOF 16
ENDMDL
MODEL 9
REMARK VINA RESULT:    -4.411      2.668      6.588
REMARK INTER + INTRA:         -10.418
REMARK INTER:                  -7.765
REMARK INTRA:                  -2.653
REMARK UNBOUND:                -1.881
REMARK SMILES CCCCCCCCCCCCCCCCCC(=O)[O-]
REMARK SMILES IDX 10 1 11 2 12 3 13 4 14 5 15 6 16 7 17 8 18 9 19 10 20 11
REMARK SMILES IDX 9 12 8 13 7 14 6 15 5 16 4 17 3 18 2 19 1 20
REMARK H PARENT
REMARK Flexibility Score: inf
ROOT
ATOM      1  C   UNL     1      21.231  -7.425  47.605  1.00  0.00     0.000 C 
ENDROOT
BRANCH   1   2
ATOM      2  C   UNL     1      21.632  -6.243  46.707  1.00  0.00     0.000 C 
BRANCH   2   3
ATOM      3  C   UNL     1      20.751  -5.001  46.927  1.00  0.00     0.000 C 
BRANCH   3   4
ATOM      4  C   UNL     1      21.026  -3.827  45.964  1.00  0.00     0.000 C 
BRANCH   4   5
ATOM      5  C   UNL     1      21.448  -4.234  44.542  1.00  0.00     0.000 C 
BRANCH   5   6
ATOM      6  C   UNL     1      20.258  -4.367  43.580  1.00  0.00     0.000 C 
BRANCH   6   7
ATOM      7  C   UNL     1      20.106  -5.815  43.093  1.00  0.00     0.006 C 
BRANCH   7   8
ATOM      8  C   UNL     1      18.757  -6.424  43.493  1.00  0.00     0.053 C 
BRANCH   8   9
ATOM      9  C   UNL     1      18.900  -7.405  44.616  1.00  0.00     0.041 C 
ATOM     10  O   UNL     1      19.647  -8.413  44.485  1.00  0.00    -0.550 OA
ATOM     11  O   UNL     1      18.183  -7.228  45.792  1.00  0.00    -0.550 OA
ENDBRANCH   8   9
ENDBRANCH   7   8
ENDBRANCH   6   7
ENDBRANCH   5   6
ENDBRANCH   4   5
ENDBRANCH   3   4
ENDBRANCH   2   3
ENDBRANCH   1   2
BRANCH   1  12
ATOM     12  C   UNL     1      20.251  -7.015  48.715  1.00  0.00     0.000 C 
BRANCH  12  13
ATOM     13  C   UNL     1      20.866  -7.141  50.121  1.00  0.00    -0.000 C 
BRANCH  13  14
ATOM     14  C   UNL     1      22.317  -7.645  50.088  1.00  0.00    -0.000 C 
BRANCH  14  15
ATOM     15  C   UNL     1      23.280  -6.722  50.851  1.00  0.00    -0.000 C 
BRANCH  15  16
ATOM     16  C   UNL     1      22.590  -5.407  51.237  1.00  0.00    -0.000 C 
BRANCH  16  17
ATOM     17  C   UNL     1      23.356  -4.199  50.677  1.00  0.00    -0.000 C 
BRANCH  17  18
ATOM     18  C   UNL     1      23.637  -4.323  49.170  1.00  0.00    -0.000 C 
BRANCH  18  19
ATOM     19  C   UNL     1      23.720  -2.957  48.472  1.00  0.00    -0.003 C 
ATOM     20  C   UNL     1      22.601  -2.032  48.942  1.00  0.00     0.004 C 
ENDBRANCH  18  19
ENDBRANCH  17  18
ENDBRANCH  16  17
ENDBRANCH  15  16
ENDBRANCH  14  15
ENDBRANCH  13  14
ENDBRANCH  12  13
ENDBRANCH   1  12
TORSDOF 16
ENDMDL
