MODEL 1
REMARK VINA RESULT:    12.893      0.000      0.000
REMARK INTER + INTRA:          14.264
REMARK INTER:                  14.023
REMARK INTRA:                   0.241
REMARK UNBOUND:                 0.241
REMARK SMILES CC1(C)CC[C@]2(C(=O)[O-])CC[C@]3(C)C(=CC[C@H]4[C@]5(C)CC[C@@H](O)C(C)(C)[C@H]5CC[C@]43C)[C@H]2C1
REMARK SMILES IDX 6 1 5 2 10 3 32 4 4 5 11 6 14 7 33 8 2 9 12 10 15 11 1 12
REMARK SMILES IDX 3 13 13 14 30 15 16 16 17 17 29 18 31 19 18 20 28 21 27 22
REMARK SMILES IDX 20 23 19 24 24 25 21 26 22 27 25 28 26 29 7 30 8 31 9 32
REMARK SMILES IDX 23 33
REMARK H PARENT 23 34
REMARK Flexibility Score: inf
ROOT
ATOM      1  C   UNL     1      46.070  26.975   3.087  1.00  0.00     0.017 C 
ATOM      2  C   UNL     1      46.746  27.070   4.478  1.00  0.00     0.014 C 
ATOM      3  C   UNL     1      47.120  26.475   2.069  1.00  0.00     0.014 C 
ATOM      4  C   UNL     1      45.612  28.398   2.646  1.00  0.00     0.028 C 
ATOM      5  C   UNL     1      45.807  27.663   5.538  1.00  0.00     0.007 C 
ATOM      6  C   UNL     1      46.522  26.348   0.663  1.00  0.00     0.013 C 
ATOM      7  C   UNL     1      45.105  28.418   1.184  1.00  0.00    -0.064 C 
ATOM      8  C   UNL     1      44.683  29.058   3.709  1.00  0.00     0.015 C 
ATOM      9  C   UNL     1      45.275  29.066   5.150  1.00  0.00    -0.035 C 
ATOM     10  C   UNL     1      45.911  27.681   0.087  1.00  0.00    -0.006 C 
ATOM     11  C   UNL     1      44.196  29.343   0.800  1.00  0.00    -0.027 C 
ATOM     12  C   UNL     1      44.156  29.455   6.140  1.00  0.00     0.011 C 
ATOM     13  C   UNL     1      46.399  30.124   5.274  1.00  0.00     0.011 C 
ATOM     14  C   UNL     1      47.124  28.589  -0.279  1.00  0.00     0.017 C 
ATOM     15  C   UNL     1      44.962  27.374  -1.201  1.00  0.00    -0.020 C 
ATOM     16  C   UNL     1      44.083  29.803  -0.620  1.00  0.00     0.032 C 
ATOM     17  C   UNL     1      44.030  28.614  -1.604  1.00  0.00     0.006 C 
ATOM     18  C   UNL     1      45.826  26.930  -2.421  1.00  0.00     0.008 C 
ATOM     19  C   UNL     1      44.003  26.174  -0.879  1.00  0.00     0.012 C 
ATOM     20  C   UNL     1      44.025  29.029  -3.146  1.00  0.00    -0.025 C 
ATOM     21  C   UNL     1      45.025  26.682  -3.715  1.00  0.00     0.005 C 
ATOM     22  C   UNL     1      43.874  27.701  -3.977  1.00  0.00     0.003 C 
ATOM     23  C   UNL     1      42.771  29.932  -3.404  1.00  0.00     0.010 C 
ATOM     24  C   UNL     1      45.311  29.821  -3.557  1.00  0.00     0.012 C 
ATOM     25  C   UNL     1      43.480  27.866  -5.502  1.00  0.00    -0.006 C 
ATOM     26  C   UNL     1      42.419  30.122  -4.884  1.00  0.00     0.033 C 
ATOM     27  C   UNL     1      42.216  28.777  -5.595  1.00  0.00     0.120 C 
ATOM     28  C   UNL     1      44.616  28.434  -6.400  1.00  0.00     0.014 C 
ATOM     29  C   UNL     1      43.100  26.475  -6.074  1.00  0.00     0.014 C 
ENDROOT
BRANCH   1  30
ATOM     30  C   UNL     1      44.918  25.971   3.164  1.00  0.00     0.048 C 
ATOM     31  O   UNL     1      45.063  24.897   3.809  1.00  0.00    -0.550 OA
ATOM     32  O   UNL     1      43.718  26.191   2.498  1.00  0.00    -0.550 OA
ENDBRANCH   1  30
BRANCH  27  33
ATOM     33  O   UNL     1      41.869  29.005  -6.939  1.00  0.00    -0.393 OA
ATOM     34  H   UNL     1      40.897  29.211  -6.957  1.00  0.00     0.210 HD
ENDBRANCH  27  33
TORSDOF 2
ENDMDL
MODEL 2
REMARK VINA RESULT:    14.083      1.037      1.145
REMARK INTER + INTRA:          15.559
REMARK INTER:                  15.390
REMARK INTRA:                   0.169
REMARK UNBOUND:                 0.241
REMARK SMILES CC1(C)CC[C@]2(C(=O)[O-])CC[C@]3(C)C(=CC[C@H]4[C@]5(C)CC[C@@H](O)C(C)(C)[C@H]5CC[C@]43C)[C@H]2C1
REMARK SMILES IDX 6 1 5 2 10 3 32 4 4 5 11 6 14 7 33 8 2 9 12 10 15 11 1 12
REMARK SMILES IDX 3 13 13 14 30 15 16 16 17 17 29 18 31 19 18 20 28 21 27 22
REMARK SMILES IDX 20 23 19 24 24 25 21 26 22 27 25 28 26 29 7 30 8 31 9 32
REMARK SMILES IDX 23 33
REMARK H PARENT 23 34
REMARK Flexibility Score: inf
ROOT
ATOM      1  C   UNL     1      46.072  26.889   4.194  1.00  0.00     0.017 C 
ATOM      2  C   UNL     1      46.799  26.965   5.561  1.00  0.00     0.014 C 
ATOM      3  C   UNL     1      47.053  26.301   3.154  1.00  0.00     0.014 C 
ATOM      4  C   UNL     1      45.697  28.331   3.738  1.00  0.00     0.028 C 
ATOM      5  C   UNL     1      45.936  27.640   6.637  1.00  0.00     0.007 C 
ATOM      6  C   UNL     1      46.403  26.188   1.771  1.00  0.00     0.013 C 
ATOM      7  C   UNL     1      45.144  28.358   2.292  1.00  0.00    -0.064 C 
ATOM      8  C   UNL     1      44.848  29.073   4.816  1.00  0.00     0.015 C 
ATOM      9  C   UNL     1      45.486  29.068   6.237  1.00  0.00    -0.035 C 
ATOM     10  C   UNL     1      45.863  27.548   1.186  1.00  0.00    -0.006 C 
ATOM     11  C   UNL     1      44.287  29.335   1.917  1.00  0.00    -0.027 C 
ATOM     12  C   UNL     1      44.428  29.550   7.252  1.00  0.00     0.011 C 
ATOM     13  C   UNL     1      46.682  30.050   6.303  1.00  0.00     0.011 C 
ATOM     14  C   UNL     1      47.122  28.365   0.764  1.00  0.00     0.017 C 
ATOM     15  C   UNL     1      44.854  27.281  -0.064  1.00  0.00    -0.020 C 
ATOM     16  C   UNL     1      44.158  29.774   0.492  1.00  0.00     0.032 C 
ATOM     17  C   UNL     1      43.994  28.573  -0.464  1.00  0.00     0.006 C 
ATOM     18  C   UNL     1      45.646  26.757  -1.302  1.00  0.00     0.008 C 
ATOM     19  C   UNL     1      43.829  26.155   0.312  1.00  0.00     0.012 C 
ATOM     20  C   UNL     1      43.967  28.959  -2.013  1.00  0.00    -0.025 C 
ATOM     21  C   UNL     1      44.789  26.539  -2.564  1.00  0.00     0.005 C 
ATOM     22  C   UNL     1      43.700  27.629  -2.812  1.00  0.00     0.003 C 
ATOM     23  C   UNL     1      42.768  29.939  -2.251  1.00  0.00     0.010 C 
ATOM     24  C   UNL     1      45.289  29.654  -2.481  1.00  0.00     0.012 C 
ATOM     25  C   UNL     1      43.268  27.791  -4.327  1.00  0.00    -0.006 C 
ATOM     26  C   UNL     1      42.381  30.125  -3.723  1.00  0.00     0.033 C 
ATOM     27  C   UNL     1      42.066  28.783  -4.399  1.00  0.00     0.120 C 
ATOM     28  C   UNL     1      44.411  28.264  -5.271  1.00  0.00     0.014 C 
ATOM     29  C   UNL     1      42.778  26.418  -4.857  1.00  0.00     0.014 C 
ENDROOT
BRANCH   1  30
ATOM     30  C   UNL     1      44.859  25.967   4.328  1.00  0.00     0.048 C 
ATOM     31  O   UNL     1      44.978  24.853   4.907  1.00  0.00    -0.550 OA
ATOM     32  O   UNL     1      43.627  26.306   3.784  1.00  0.00    -0.550 OA
ENDBRANCH   1  30
BRANCH  27  33
ATOM     33  O   UNL     1      41.691  29.008  -5.735  1.00  0.00    -0.393 OA
ATOM     34  H   UNL     1      42.527  29.040  -6.270  1.00  0.00     0.210 HD
ENDBRANCH  27  33
TORSDOF 2
ENDMDL
MODEL 3
REMARK VINA RESULT:    15.235      2.236      4.280
REMARK INTER + INTRA:          16.811
REMARK INTER:                  15.657
REMARK INTRA:                   1.155
REMARK UNBOUND:                 0.241
REMARK SMILES CC1(C)CC[C@]2(C(=O)[O-])CC[C@]3(C)C(=CC[C@H]4[C@]5(C)CC[C@@H](O)C(C)(C)[C@H]5CC[C@]43C)[C@H]2C1
REMARK SMILES IDX 6 1 5 2 10 3 32 4 4 5 11 6 14 7 33 8 2 9 12 10 15 11 1 12
REMARK SMILES IDX 3 13 13 14 30 15 16 16 17 17 29 18 31 19 18 20 28 21 27 22
REMARK SMILES IDX 20 23 19 24 24 25 21 26 22 27 25 28 26 29 7 30 8 31 9 32
REMARK SMILES IDX 23 33
REMARK H PARENT 23 34
REMARK Flexibility Score: inf
ROOT
ATOM      1  C   UNL     1      45.138  28.835   5.560  1.00  0.00     0.017 C 
ATOM      2  C   UNL     1      44.720  28.659   7.042  1.00  0.00     0.014 C 
ATOM      3  C   UNL     1      44.038  29.646   4.837  1.00  0.00     0.014 C 
ATOM      4  C   UNL     1      45.222  27.432   4.885  1.00  0.00     0.028 C 
ATOM      5  C   UNL     1      45.702  27.769   7.817  1.00  0.00     0.007 C 
ATOM      6  C   UNL     1      44.384  29.868   3.361  1.00  0.00     0.013 C 
ATOM      7  C   UNL     1      45.441  27.534   3.356  1.00  0.00    -0.064 C 
ATOM      8  C   UNL     1      46.182  26.479   5.659  1.00  0.00     0.015 C 
ATOM      9  C   UNL     1      45.872  26.366   7.181  1.00  0.00    -0.035 C 
ATOM     10  C   UNL     1      44.609  28.547   2.532  1.00  0.00    -0.006 C 
ATOM     11  C   UNL     1      46.068  26.532   2.698  1.00  0.00    -0.027 C 
ATOM     12  C   UNL     1      47.054  25.655   7.873  1.00  0.00     0.011 C 
ATOM     13  C   UNL     1      44.604  25.508   7.420  1.00  0.00     0.011 C 
ATOM     14  C   UNL     1      43.196  27.920   2.329  1.00  0.00     0.017 C 
ATOM     15  C   UNL     1      45.350  28.868   1.118  1.00  0.00    -0.020 C 
ATOM     16  C   UNL     1      45.829  26.267   1.244  1.00  0.00     0.032 C 
ATOM     17  C   UNL     1      45.933  27.558   0.403  1.00  0.00     0.006 C 
ATOM     18  C   UNL     1      44.382  29.622   0.155  1.00  0.00     0.008 C 
ATOM     19  C   UNL     1      46.566  29.829   1.363  1.00  0.00     0.012 C 
ATOM     20  C   UNL     1      45.577  27.372  -1.142  1.00  0.00    -0.025 C 
ATOM     21  C   UNL     1      44.967  29.912  -1.241  1.00  0.00     0.005 C 
ATOM     22  C   UNL     1      45.830  28.759  -1.841  1.00  0.00     0.003 C 
ATOM     23  C   UNL     1      46.563  26.315  -1.747  1.00  0.00     0.010 C 
ATOM     24  C   UNL     1      44.108  26.877  -1.364  1.00  0.00     0.012 C 
ATOM     25  C   UNL     1      45.901  28.749  -3.423  1.00  0.00    -0.006 C 
ATOM     26  C   UNL     1      46.596  26.280  -3.279  1.00  0.00     0.033 C 
ATOM     27  C   UNL     1      46.925  27.659  -3.869  1.00  0.00     0.120 C 
ATOM     28  C   UNL     1      44.532  28.517  -4.124  1.00  0.00     0.014 C 
ATOM     29  C   UNL     1      46.435  30.122  -3.909  1.00  0.00     0.014 C 
ENDROOT
BRANCH   1  30
ATOM     30  C   UNL     1      46.458  29.606   5.505  1.00  0.00     0.048 C 
ATOM     31  O   UNL     1      47.057  29.749   4.405  1.00  0.00    -0.550 OA
ATOM     32  O   UNL     1      47.045  30.123   6.653  1.00  0.00    -0.550 OA
ENDBRANCH   1  30
BRANCH  27  33
ATOM     33  O   UNL     1      46.971  27.569  -5.272  1.00  0.00    -0.393 OA
ATOM     34  H   UNL     1      47.822  27.112  -5.506  1.00  0.00     0.210 HD
ENDBRANCH  27  33
TORSDOF 2
ENDMDL
