MODEL 1
REMARK VINA RESULT:    -2.939      0.000      0.000
REMARK INTER + INTRA:          -2.939
REMARK INTER:                  -2.939
REMARK INTRA:                   0.000
REMARK UNBOUND:                 0.000
REMARK SMILES CC1(C)O[C@]2(C)CC[C@H]1CC2
REMARK SMILES IDX 1 1 2 2 9 3 8 4 7 5 5 6 4 7 11 8 10 9 6 10 3 11
REMARK H PARENT
REMARK Flexibility Score: inf
ROOT
ATOM      1  C   UNL     1     -28.625  57.273  38.499  1.00  0.00     0.042 C 
ATOM      2  C   UNL     1     -27.395  57.888  37.798  1.00  0.00     0.066 C 
ATOM      3  C   UNL     1     -27.301  59.435  38.092  1.00  0.00     0.021 C 
ATOM      4  C   UNL     1     -28.548  60.125  37.489  1.00  0.00     0.009 C 
ATOM      5  C   UNL     1     -28.696  59.701  36.008  1.00  0.00     0.035 C 
ATOM      6  C   UNL     1     -27.497  58.801  35.593  1.00  0.00     0.066 C 
ATOM      7  O   UNL     1     -27.501  57.618  36.392  1.00  0.00    -0.369 OA
ATOM      8  C   UNL     1     -26.173  59.579  35.840  1.00  0.00     0.035 C 
ATOM      9  C   UNL     1     -26.083  60.005  37.326  1.00  0.00     0.009 C 
ATOM     10  C   UNL     1     -27.615  58.402  34.119  1.00  0.00     0.042 C 
ATOM     11  C   UNL     1     -26.147  57.153  38.335  1.00  0.00     0.042 C 
ENDROOT
TORSDOF 0
ENDMDL
MODEL 2
REMARK VINA RESULT:    -2.837      7.956     10.213
REMARK INTER + INTRA:          -2.837
REMARK INTER:                  -2.837
REMARK INTRA:                   0.000
REMARK UNBOUND:                 0.000
REMARK SMILES CC1(C)O[C@]2(C)CC[C@H]1CC2
REMARK SMILES IDX 1 1 2 2 9 3 8 4 7 5 5 6 4 7 11 8 10 9 6 10 3 11
REMARK H PARENT
REMARK Flexibility Score: inf
ROOT
ATOM      1  C   UNL     1     -24.745  55.505  43.636  1.00  0.00     0.042 C 
ATOM      2  C   UNL     1     -25.310  54.068  43.611  1.00  0.00     0.066 C 
ATOM      3  C   UNL     1     -26.633  53.974  44.464  1.00  0.00     0.021 C 
ATOM      4  C   UNL     1     -26.289  54.291  45.939  1.00  0.00     0.009 C 
ATOM      5  C   UNL     1     -25.103  53.403  46.386  1.00  0.00     0.035 C 
ATOM      6  C   UNL     1     -24.713  52.426  45.240  1.00  0.00     0.066 C 
ATOM      7  O   UNL     1     -24.294  53.181  44.102  1.00  0.00    -0.369 OA
ATOM      8  C   UNL     1     -25.958  51.575  44.857  1.00  0.00     0.035 C 
ATOM      9  C   UNL     1     -27.124  52.506  44.445  1.00  0.00     0.009 C 
ATOM     10  C   UNL     1     -23.561  51.517  45.682  1.00  0.00     0.042 C 
ATOM     11  C   UNL     1     -25.586  53.710  42.134  1.00  0.00     0.042 C 
ENDROOT
TORSDOF 0
ENDMDL
MODEL 3
REMARK VINA RESULT:    -2.830      7.745      9.594
REMARK INTER + INTRA:          -2.830
REMARK INTER:                  -2.830
REMARK INTRA:                   0.000
REMARK UNBOUND:                 0.000
REMARK SMILES CC1(C)O[C@]2(C)CC[C@H]1CC2
REMARK SMILES IDX 1 1 2 2 9 3 8 4 7 5 5 6 4 7 11 8 10 9 6 10 3 11
REMARK H PARENT
REMARK Flexibility Score: inf
ROOT
ATOM      1  C   UNL     1     -24.195  51.078  44.358  1.00  0.00     0.042 C 
ATOM      2  C   UNL     1     -24.696  52.445  44.869  1.00  0.00     0.066 C 
ATOM      3  C   UNL     1     -26.272  52.505  44.851  1.00  0.00     0.021 C 
ATOM      4  C   UNL     1     -26.750  52.375  43.384  1.00  0.00     0.009 C 
ATOM      5  C   UNL     1     -26.000  53.411  42.512  1.00  0.00     0.035 C 
ATOM      6  C   UNL     1     -25.088  54.296  43.410  1.00  0.00     0.066 C 
ATOM      7  O   UNL     1     -24.114  53.469  44.048  1.00  0.00    -0.369 OA
ATOM      8  C   UNL     1     -25.964  54.983  44.496  1.00  0.00     0.035 C 
ATOM      9  C   UNL     1     -26.714  53.911  45.322  1.00  0.00     0.009 C 
ATOM     10  C   UNL     1     -24.365  55.348  42.563  1.00  0.00     0.042 C 
ATOM     11  C   UNL     1     -24.159  52.622  46.307  1.00  0.00     0.042 C 
ENDROOT
TORSDOF 0
ENDMDL
MODEL 4
REMARK VINA RESULT:    -2.791      8.205      9.894
REMARK INTER + INTRA:          -2.791
REMARK INTER:                  -2.791
REMARK INTRA:                   0.000
REMARK UNBOUND:                 0.000
REMARK SMILES CC1(C)O[C@]2(C)CC[C@H]1CC2
REMARK SMILES IDX 1 1 2 2 9 3 8 4 7 5 5 6 4 7 11 8 10 9 6 10 3 11
REMARK H PARENT
REMARK Flexibility Score: inf
ROOT
ATOM      1  C   UNL     1     -23.700  51.266  43.681  1.00  0.00     0.042 C 
ATOM      2  C   UNL     1     -24.838  51.933  44.483  1.00  0.00     0.066 C 
ATOM      3  C   UNL     1     -26.185  51.914  43.662  1.00  0.00     0.021 C 
ATOM      4  C   UNL     1     -25.989  52.759  42.380  1.00  0.00     0.009 C 
ATOM      5  C   UNL     1     -25.424  54.147  42.767  1.00  0.00     0.035 C 
ATOM      6  C   UNL     1     -25.330  54.265  44.315  1.00  0.00     0.066 C 
ATOM      7  O   UNL     1     -24.430  53.271  44.807  1.00  0.00    -0.369 OA
ATOM      8  C   UNL     1     -26.739  54.025  44.927  1.00  0.00     0.035 C 
ATOM      9  C   UNL     1     -27.273  52.639  44.490  1.00  0.00     0.009 C 
ATOM     10  C   UNL     1     -24.804  55.648  44.713  1.00  0.00     0.042 C 
ATOM     11  C   UNL     1     -24.992  51.145  45.803  1.00  0.00     0.042 C 
ENDROOT
TORSDOF 0
ENDMDL
MODEL 5
REMARK VINA RESULT:    -2.734      8.351      9.747
REMARK INTER + INTRA:          -2.734
REMARK INTER:                  -2.734
REMARK INTRA:                   0.000
REMARK UNBOUND:                 0.000
REMARK SMILES CC1(C)O[C@]2(C)CC[C@H]1CC2
REMARK SMILES IDX 1 1 2 2 9 3 8 4 7 5 5 6 4 7 11 8 10 9 6 10 3 11
REMARK H PARENT
REMARK Flexibility Score: inf
ROOT
ATOM      1  C   UNL     1     -24.453  52.789  46.665  1.00  0.00     0.042 C 
ATOM      2  C   UNL     1     -24.405  53.191  45.175  1.00  0.00     0.066 C 
ATOM      3  C   UNL     1     -25.365  54.410  44.894  1.00  0.00     0.021 C 
ATOM      4  C   UNL     1     -26.818  53.968  45.190  1.00  0.00     0.009 C 
ATOM      5  C   UNL     1     -27.114  52.654  44.427  1.00  0.00     0.035 C 
ATOM      6  C   UNL     1     -25.890  52.266  43.548  1.00  0.00     0.066 C 
ATOM      7  O   UNL     1     -24.760  52.041  44.392  1.00  0.00    -0.369 OA
ATOM      8  C   UNL     1     -25.575  53.440  42.576  1.00  0.00     0.035 C 
ATOM      9  C   UNL     1     -25.315  54.735  43.382  1.00  0.00     0.009 C 
ATOM     10  C   UNL     1     -26.182  50.985  42.761  1.00  0.00     0.042 C 
ATOM     11  C   UNL     1     -22.941  53.561  44.847  1.00  0.00     0.042 C 
ENDROOT
TORSDOF 0
ENDMDL
MODEL 6
REMARK VINA RESULT:    -2.722      8.296     10.103
REMARK INTER + INTRA:          -2.722
REMARK INTER:                  -2.722
REMARK INTRA:                   0.000
REMARK UNBOUND:                 0.000
REMARK SMILES CC1(C)O[C@]2(C)CC[C@H]1CC2
REMARK SMILES IDX 1 1 2 2 9 3 8 4 7 5 5 6 4 7 11 8 10 9 6 10 3 11
REMARK H PARENT
REMARK Flexibility Score: inf
ROOT
ATOM      1  C   UNL     1     -25.889  53.609  42.599  1.00  0.00     0.042 C 
ATOM      2  C   UNL     1     -26.064  53.531  44.131  1.00  0.00     0.066 C 
ATOM      3  C   UNL     1     -26.252  54.971  44.746  1.00  0.00     0.021 C 
ATOM      4  C   UNL     1     -24.963  55.787  44.485  1.00  0.00     0.009 C 
ATOM      5  C   UNL     1     -23.739  54.974  44.971  1.00  0.00     0.035 C 
ATOM      6  C   UNL     1     -24.216  53.653  45.641  1.00  0.00     0.066 C 
ATOM      7  O   UNL     1     -24.915  52.864  44.677  1.00  0.00    -0.369 OA
ATOM      8  C   UNL     1     -25.179  54.000  46.812  1.00  0.00     0.035 C 
ATOM      9  C   UNL     1     -26.369  54.836  46.283  1.00  0.00     0.009 C 
ATOM     10  C   UNL     1     -23.015  52.853  46.157  1.00  0.00     0.042 C 
ATOM     11  C   UNL     1     -27.304  52.653  44.408  1.00  0.00     0.042 C 
ENDROOT
TORSDOF 0
ENDMDL
MODEL 7
REMARK VINA RESULT:    -2.719      8.335      9.920
REMARK INTER + INTRA:          -2.719
REMARK INTER:                  -2.719
REMARK INTRA:                   0.000
REMARK UNBOUND:                 0.000
REMARK SMILES CC1(C)O[C@]2(C)CC[C@H]1CC2
REMARK SMILES IDX 1 1 2 2 9 3 8 4 7 5 5 6 4 7 11 8 10 9 6 10 3 11
REMARK H PARENT
REMARK Flexibility Score: inf
ROOT
ATOM      1  C   UNL     1     -26.630  54.988  45.294  1.00  0.00     0.042 C 
ATOM      2  C   UNL     1     -25.590  54.386  44.323  1.00  0.00     0.066 C 
ATOM      3  C   UNL     1     -26.298  53.506  43.223  1.00  0.00     0.021 C 
ATOM      4  C   UNL     1     -26.997  52.315  43.922  1.00  0.00     0.009 C 
ATOM      5  C   UNL     1     -25.979  51.599  44.843  1.00  0.00     0.035 C 
ATOM      6  C   UNL     1     -24.577  52.254  44.690  1.00  0.00     0.066 C 
ATOM      7  O   UNL     1     -24.651  53.622  45.095  1.00  0.00    -0.369 OA
ATOM      8  C   UNL     1     -24.148  52.187  43.196  1.00  0.00     0.035 C 
ATOM      9  C   UNL     1     -25.208  52.890  42.314  1.00  0.00     0.009 C 
ATOM     10  C   UNL     1     -23.552  51.533  45.572  1.00  0.00     0.042 C 
ATOM     11  C   UNL     1     -24.832  55.565  43.676  1.00  0.00     0.042 C 
ENDROOT
TORSDOF 0
ENDMDL
MODEL 8
REMARK VINA RESULT:    -2.717      8.011     10.202
REMARK INTER + INTRA:          -2.717
REMARK INTER:                  -2.717
REMARK INTRA:                   0.000
REMARK UNBOUND:                 0.000
REMARK SMILES CC1(C)O[C@]2(C)CC[C@H]1CC2
REMARK SMILES IDX 1 1 2 2 9 3 8 4 7 5 5 6 4 7 11 8 10 9 6 10 3 11
REMARK H PARENT
REMARK Flexibility Score: inf
ROOT
ATOM      1  C   UNL     1     -25.721  53.312  41.914  1.00  0.00     0.042 C 
ATOM      2  C   UNL     1     -25.158  52.613  43.171  1.00  0.00     0.066 C 
ATOM      3  C   UNL     1     -26.287  51.792  43.905  1.00  0.00     0.021 C 
ATOM      4  C   UNL     1     -27.373  52.780  44.393  1.00  0.00     0.009 C 
ATOM      5  C   UNL     1     -26.700  53.918  45.198  1.00  0.00     0.035 C 
ATOM      6  C   UNL     1     -25.174  53.643  45.327  1.00  0.00     0.066 C 
ATOM      7  O   UNL     1     -24.591  53.620  44.023  1.00  0.00    -0.369 OA
ATOM      8  C   UNL     1     -24.967  52.258  46.003  1.00  0.00     0.035 C 
ATOM      9  C   UNL     1     -25.680  51.158  45.180  1.00  0.00     0.009 C 
ATOM     10  C   UNL     1     -24.501  54.746  46.150  1.00  0.00     0.042 C 
ATOM     11  C   UNL     1     -24.018  51.681  42.705  1.00  0.00     0.042 C 
ENDROOT
TORSDOF 0
ENDMDL
