MODEL 1
REMARK VINA RESULT:    -3.360      0.000      0.000
REMARK INTER + INTRA:         -12.142
REMARK INTER:                  -7.681
REMARK INTRA:                  -4.461
REMARK UNBOUND:                -4.461
REMARK SMILES CCCCCCCCCCCCCCCCCCCCCCCC(=O)[O-]
REMARK SMILES IDX 13 1 14 2 15 3 16 4 17 5 18 6 19 7 20 8 21 9 22 10 23 11
REMARK SMILES IDX 24 12 25 13 26 14 12 15 11 16 10 17 9 18 8 19 7 20 6 21 5 22
REMARK SMILES IDX 4 23 3 24 2 25 1 26
REMARK H PARENT
REMARK Flexibility Score: inf
ROOT
ATOM      1  C   UNL     1      -5.376  -3.258  35.621  1.00  0.00     0.000 C 
ENDROOT
BRANCH   1   2
ATOM      2  C   UNL     1      -5.732  -2.228  36.708  1.00  0.00     0.000 C 
BRANCH   2   3
ATOM      3  C   UNL     1      -4.912  -2.387  38.005  1.00  0.00     0.000 C 
BRANCH   3   4
ATOM      4  C   UNL     1      -4.603  -1.030  38.663  1.00  0.00     0.000 C 
BRANCH   4   5
ATOM      5  C   UNL     1      -3.343  -0.365  38.085  1.00  0.00     0.000 C 
BRANCH   5   6
ATOM      6  C   UNL     1      -3.649   0.972  37.387  1.00  0.00     0.000 C 
BRANCH   6   7
ATOM      7  C   UNL     1      -3.431   0.909  35.867  1.00  0.00     0.000 C 
BRANCH   7   8
ATOM      8  C   UNL     1      -4.742   1.033  35.075  1.00  0.00     0.000 C 
BRANCH   8   9
ATOM      9  C   UNL     1      -4.477   0.974  33.564  1.00  0.00     0.000 C 
BRANCH   9  10
ATOM     10  C   UNL     1      -5.771   0.903  32.736  1.00  0.00     0.006 C 
BRANCH  10  11
ATOM     11  C   UNL     1      -6.947   0.314  33.527  1.00  0.00     0.053 C 
BRANCH  11  12
ATOM     12  C   UNL     1      -8.134   1.221  33.460  1.00  0.00     0.041 C 
ATOM     13  O   UNL     1      -7.976   2.465  33.347  1.00  0.00    -0.550 OA
ATOM     14  O   UNL     1      -9.418   0.696  33.551  1.00  0.00    -0.550 OA
ENDBRANCH  11  12
ENDBRANCH  10  11
ENDBRANCH   9  10
ENDBRANCH   8   9
ENDBRANCH   7   8
ENDBRANCH   6   7
ENDBRANCH   5   6
ENDBRANCH   4   5
ENDBRANCH   3   4
ENDBRANCH   2   3
ENDBRANCH   1   2
BRANCH   1  15
ATOM     15  C   UNL     1      -4.925  -2.604  34.305  1.00  0.00     0.000 C 
BRANCH  15  16
ATOM     16  C   UNL     1      -3.485  -2.979  33.910  1.00  0.00     0.000 C 
BRANCH  16  17
ATOM     17  C   UNL     1      -2.373  -2.222  34.666  1.00  0.00     0.000 C 
BRANCH  17  18
ATOM     18  C   UNL     1      -1.839  -2.928  35.926  1.00  0.00    -0.000 C 
BRANCH  18  19
ATOM     19  C   UNL     1      -0.580  -2.287  36.540  1.00  0.00    -0.000 C 
BRANCH  19  20
ATOM     20  C   UNL     1       0.683  -2.448  35.667  1.00  0.00    -0.000 C 
BRANCH  20  21
ATOM     21  C   UNL     1       1.275  -1.097  35.231  1.00  0.00    -0.000 C 
BRANCH  21  22
ATOM     22  C   UNL     1       0.361   0.093  35.577  1.00  0.00    -0.000 C 
BRANCH  22  23
ATOM     23  C   UNL     1      -0.193   0.867  34.363  1.00  0.00    -0.000 C 
BRANCH  23  24
ATOM     24  C   UNL     1       0.127   0.245  32.992  1.00  0.00    -0.000 C 
BRANCH  24  25
ATOM     25  C   UNL     1      -1.130  -0.018  32.150  1.00  0.00    -0.003 C 
ATOM     26  C   UNL     1      -1.433   1.164  31.233  1.00  0.00     0.004 C 
ENDBRANCH  24  25
ENDBRANCH  23  24
ENDBRANCH  22  23
ENDBRANCH  21  22
ENDBRANCH  20  21
ENDBRANCH  19  20
ENDBRANCH  18  19
ENDBRANCH  17  18
ENDBRANCH  16  17
ENDBRANCH  15  16
ENDBRANCH   1  15
TORSDOF 22
ENDMDL
MODEL 2
REMARK VINA RESULT:    -3.344      1.181      2.937
REMARK INTER + INTRA:         -12.107
REMARK INTER:                  -7.434
REMARK INTRA:                  -4.672
REMARK UNBOUND:                -4.461
REMARK SMILES CCCCCCCCCCCCCCCCCCCCCCCC(=O)[O-]
REMARK SMILES IDX 13 1 14 2 15 3 16 4 17 5 18 6 19 7 20 8 21 9 22 10 23 11
REMARK SMILES IDX 24 12 25 13 26 14 12 15 11 16 10 17 9 18 8 19 7 20 6 21 5 22
REMARK SMILES IDX 4 23 3 24 2 25 1 26
REMARK H PARENT
REMARK Flexibility Score: inf
ROOT
ATOM      1  C   UNL     1      -3.475  -2.893  33.929  1.00  0.00     0.000 C 
ENDROOT
BRANCH   1   2
ATOM      2  C   UNL     1      -4.948  -2.681  34.321  1.00  0.00     0.000 C 
BRANCH   2   3
ATOM      3  C   UNL     1      -5.357  -3.414  35.615  1.00  0.00     0.000 C 
BRANCH   3   4
ATOM      4  C   UNL     1      -5.828  -2.437  36.707  1.00  0.00     0.000 C 
BRANCH   4   5
ATOM      5  C   UNL     1      -4.785  -2.245  37.820  1.00  0.00     0.000 C 
BRANCH   5   6
ATOM      6  C   UNL     1      -4.495  -0.761  38.107  1.00  0.00     0.000 C 
BRANCH   6   7
ATOM      7  C   UNL     1      -5.195   0.181  37.114  1.00  0.00     0.000 C 
BRANCH   7   8
ATOM      8  C   UNL     1      -4.202   0.972  36.248  1.00  0.00     0.000 C 
BRANCH   8   9
ATOM      9  C   UNL     1      -4.658   1.004  34.782  1.00  0.00     0.000 C 
BRANCH   9  10
ATOM     10  C   UNL     1      -6.168   0.762  34.624  1.00  0.00     0.006 C 
BRANCH  10  11
ATOM     11  C   UNL     1      -6.569   0.454  33.175  1.00  0.00     0.053 C 
BRANCH  11  12
ATOM     12  C   UNL     1      -7.405   1.560  32.613  1.00  0.00     0.041 C 
ATOM     13  O   UNL     1      -8.182   2.210  33.361  1.00  0.00    -0.550 OA
ATOM     14  O   UNL     1      -7.346   1.857  31.256  1.00  0.00    -0.550 OA
ENDBRANCH  11  12
ENDBRANCH  10  11
ENDBRANCH   9  10
ENDBRANCH   8   9
ENDBRANCH   7   8
ENDBRANCH   6   7
ENDBRANCH   5   6
ENDBRANCH   4   5
ENDBRANCH   3   4
ENDBRANCH   2   3
ENDBRANCH   1   2
BRANCH   1  15
ATOM     15  C   UNL     1      -2.506  -2.057  34.779  1.00  0.00     0.000 C 
BRANCH  15  16
ATOM     16  C   UNL     1      -1.726  -2.900  35.805  1.00  0.00     0.000 C 
BRANCH  16  17
ATOM     17  C   UNL     1      -0.619  -2.148  36.574  1.00  0.00     0.000 C 
BRANCH  17  18
ATOM     18  C   UNL     1      -0.982  -0.717  37.013  1.00  0.00    -0.000 C 
BRANCH  18  19
ATOM     19  C   UNL     1      -0.041   0.379  36.476  1.00  0.00    -0.000 C 
BRANCH  19  20
ATOM     20  C   UNL     1      -0.637   1.182  35.300  1.00  0.00    -0.000 C 
BRANCH  20  21
ATOM     21  C   UNL     1       0.255   1.140  34.047  1.00  0.00    -0.000 C 
BRANCH  21  22
ATOM     22  C   UNL     1       0.565  -0.295  33.584  1.00  0.00    -0.000 C 
BRANCH  22  23
ATOM     23  C   UNL     1       2.060  -0.677  33.593  1.00  0.00    -0.000 C 
BRANCH  23  24
ATOM     24  C   UNL     1       2.393  -1.988  34.329  1.00  0.00    -0.000 C 
BRANCH  24  25
ATOM     25  C   UNL     1       2.999  -1.751  35.719  1.00  0.00    -0.003 C 
ATOM     26  C   UNL     1       3.612  -0.357  35.821  1.00  0.00     0.004 C 
ENDBRANCH  24  25
ENDBRANCH  23  24
ENDBRANCH  22  23
ENDBRANCH  21  22
ENDBRANCH  20  21
ENDBRANCH  19  20
ENDBRANCH  18  19
ENDBRANCH  17  18
ENDBRANCH  16  17
ENDBRANCH  15  16
ENDBRANCH   1  15
TORSDOF 22
ENDMDL
MODEL 3
REMARK VINA RESULT:    -3.308      1.110      2.561
REMARK INTER + INTRA:         -12.024
REMARK INTER:                  -7.406
REMARK INTRA:                  -4.619
REMARK UNBOUND:                -4.461
REMARK SMILES CCCCCCCCCCCCCCCCCCCCCCCC(=O)[O-]
REMARK SMILES IDX 13 1 14 2 15 3 16 4 17 5 18 6 19 7 20 8 21 9 22 10 23 11
REMARK SMILES IDX 24 12 25 13 26 14 12 15 11 16 10 17 9 18 8 19 7 20 6 21 5 22
REMARK SMILES IDX 4 23 3 24 2 25 1 26
REMARK H PARENT
REMARK Flexibility Score: inf
ROOT
ATOM      1  C   UNL     1      -3.138  -2.637  33.898  1.00  0.00     0.000 C 
ENDROOT
BRANCH   1   2
ATOM      2  C   UNL     1      -4.015  -3.521  34.802  1.00  0.00     0.000 C 
BRANCH   2   3
ATOM      3  C   UNL     1      -5.382  -2.893  35.145  1.00  0.00     0.000 C 
BRANCH   3   4
ATOM      4  C   UNL     1      -5.640  -2.865  36.662  1.00  0.00     0.000 C 
BRANCH   4   5
ATOM      5  C   UNL     1      -5.651  -1.437  37.234  1.00  0.00     0.000 C 
BRANCH   5   6
ATOM      6  C   UNL     1      -4.568  -1.223  38.306  1.00  0.00     0.000 C 
BRANCH   6   7
ATOM      7  C   UNL     1      -3.646  -0.036  37.987  1.00  0.00     0.000 C 
BRANCH   7   8
ATOM      8  C   UNL     1      -3.532   0.236  36.478  1.00  0.00     0.000 C 
BRANCH   8   9
ATOM      9  C   UNL     1      -3.924   1.684  36.151  1.00  0.00     0.000 C 
BRANCH   9  10
ATOM     10  C   UNL     1      -4.956   1.778  35.015  1.00  0.00     0.006 C 
BRANCH  10  11
ATOM     11  C   UNL     1      -4.865   0.600  34.036  1.00  0.00     0.053 C 
BRANCH  11  12
ATOM     12  C   UNL     1      -6.100   0.517  33.195  1.00  0.00     0.041 C 
ATOM     13  O   UNL     1      -7.083  -0.170  33.578  1.00  0.00    -0.550 OA
ATOM     14  O   UNL     1      -6.155   1.178  31.973  1.00  0.00    -0.550 OA
ENDBRANCH  11  12
ENDBRANCH  10  11
ENDBRANCH   9  10
ENDBRANCH   8   9
ENDBRANCH   7   8
ENDBRANCH   6   7
ENDBRANCH   5   6
ENDBRANCH   4   5
ENDBRANCH   3   4
ENDBRANCH   2   3
ENDBRANCH   1   2
BRANCH   1  15
ATOM     15  C   UNL     1      -1.936  -2.033  34.642  1.00  0.00     0.000 C 
BRANCH  15  16
ATOM     16  C   UNL     1      -1.632  -2.746  35.972  1.00  0.00     0.000 C 
BRANCH  16  17
ATOM     17  C   UNL     1      -0.200  -2.552  36.514  1.00  0.00     0.000 C 
BRANCH  17  18
ATOM     18  C   UNL     1       0.881  -2.324  35.442  1.00  0.00    -0.000 C 
BRANCH  18  19
ATOM     19  C   UNL     1       1.358  -0.865  35.307  1.00  0.00    -0.000 C 
BRANCH  19  20
ATOM     20  C   UNL     1       0.740   0.085  36.355  1.00  0.00    -0.000 C 
BRANCH  20  21
ATOM     21  C   UNL     1      -0.134   1.179  35.717  1.00  0.00    -0.000 C 
BRANCH  21  22
ATOM     22  C   UNL     1      -0.014   1.217  34.183  1.00  0.00    -0.000 C 
BRANCH  22  23
ATOM     23  C   UNL     1      -1.289   1.666  33.438  1.00  0.00    -0.000 C 
BRANCH  23  24
ATOM     24  C   UNL     1      -1.691   0.782  32.244  1.00  0.00    -0.000 C 
BRANCH  24  25
ATOM     25  C   UNL     1      -0.520  -0.046  31.696  1.00  0.00    -0.003 C 
ATOM     26  C   UNL     1       0.105   0.627  30.477  1.00  0.00     0.004 C 
ENDBRANCH  24  25
ENDBRANCH  23  24
ENDBRANCH  22  23
ENDBRANCH  21  22
ENDBRANCH  20  21
ENDBRANCH  19  20
ENDBRANCH  18  19
ENDBRANCH  17  18
ENDBRANCH  16  17
ENDBRANCH  15  16
ENDBRANCH   1  15
TORSDOF 22
ENDMDL
MODEL 4
REMARK VINA RESULT:    -3.174      1.455      3.716
REMARK INTER + INTRA:         -11.719
REMARK INTER:                  -7.171
REMARK INTRA:                  -4.548
REMARK UNBOUND:                -4.461
REMARK SMILES CCCCCCCCCCCCCCCCCCCCCCCC(=O)[O-]
REMARK SMILES IDX 13 1 14 2 15 3 16 4 17 5 18 6 19 7 20 8 21 9 22 10 23 11
REMARK SMILES IDX 24 12 25 13 26 14 12 15 11 16 10 17 9 18 8 19 7 20 6 21 5 22
REMARK SMILES IDX 4 23 3 24 2 25 1 26
REMARK H PARENT
REMARK Flexibility Score: inf
ROOT
ATOM      1  C   UNL     1      -5.210  -1.347  38.455  1.00  0.00     0.000 C 
ENDROOT
BRANCH   1   2
ATOM      2  C   UNL     1      -6.198  -1.692  37.326  1.00  0.00     0.000 C 
BRANCH   2   3
ATOM      3  C   UNL     1      -5.741  -2.870  36.440  1.00  0.00     0.000 C 
BRANCH   3   4
ATOM      4  C   UNL     1      -4.211  -2.924  36.296  1.00  0.00     0.000 C 
BRANCH   4   5
ATOM      5  C   UNL     1      -3.764  -3.516  34.948  1.00  0.00     0.000 C 
BRANCH   5   6
ATOM      6  C   UNL     1      -3.059  -2.480  34.055  1.00  0.00     0.000 C 
BRANCH   6   7
ATOM      7  C   UNL     1      -2.875  -1.123  34.753  1.00  0.00     0.000 C 
BRANCH   7   8
ATOM      8  C   UNL     1      -2.656   0.029  33.759  1.00  0.00     0.000 C 
BRANCH   8   9
ATOM      9  C   UNL     1      -3.634   1.181  34.033  1.00  0.00     0.000 C 
BRANCH   9  10
ATOM     10  C   UNL     1      -4.574   0.895  35.215  1.00  0.00     0.006 C 
BRANCH  10  11
ATOM     11  C   UNL     1      -6.016   1.345  34.946  1.00  0.00     0.053 C 
BRANCH  11  12
ATOM     12  C   UNL     1      -6.678   0.432  33.963  1.00  0.00     0.041 C 
ATOM     13  O   UNL     1      -6.324  -0.773  33.878  1.00  0.00    -0.550 OA
ATOM     14  O   UNL     1      -7.669   0.920  33.118  1.00  0.00    -0.550 OA
ENDBRANCH  11  12
ENDBRANCH  10  11
ENDBRANCH   9  10
ENDBRANCH   8   9
ENDBRANCH   7   8
ENDBRANCH   6   7
ENDBRANCH   5   6
ENDBRANCH   4   5
ENDBRANCH   3   4
ENDBRANCH   2   3
ENDBRANCH   1   2
BRANCH   1  15
ATOM     15  C   UNL     1      -5.278   0.130  38.875  1.00  0.00     0.000 C 
BRANCH  15  16
ATOM     16  C   UNL     1      -3.911   0.837  38.805  1.00  0.00     0.000 C 
BRANCH  16  17
ATOM     17  C   UNL     1      -2.746  -0.023  38.272  1.00  0.00     0.000 C 
BRANCH  17  18
ATOM     18  C   UNL     1      -1.415   0.725  38.078  1.00  0.00    -0.000 C 
BRANCH  18  19
ATOM     19  C   UNL     1      -1.538   2.083  37.360  1.00  0.00    -0.000 C 
BRANCH  19  20
ATOM     20  C   UNL     1      -0.541   2.256  36.194  1.00  0.00    -0.000 C 
BRANCH  20  21
ATOM     21  C   UNL     1       0.099   0.925  35.762  1.00  0.00    -0.000 C 
BRANCH  21  22
ATOM     22  C   UNL     1       1.581   0.819  36.165  1.00  0.00    -0.000 C 
BRANCH  22  23
ATOM     23  C   UNL     1       2.203  -0.585  36.010  1.00  0.00    -0.000 C 
BRANCH  23  24
ATOM     24  C   UNL     1       1.452  -1.527  35.051  1.00  0.00    -0.000 C 
BRANCH  24  25
ATOM     25  C   UNL     1       1.063  -2.858  35.709  1.00  0.00    -0.003 C 
ATOM     26  C   UNL     1      -0.252  -2.729  36.473  1.00  0.00     0.004 C 
ENDBRANCH  24  25
ENDBRANCH  23  24
ENDBRANCH  22  23
ENDBRANCH  21  22
ENDBRANCH  20  21
ENDBRANCH  19  20
ENDBRANCH  18  19
ENDBRANCH  17  18
ENDBRANCH  16  17
ENDBRANCH  15  16
ENDBRANCH   1  15
TORSDOF 22
ENDMDL
MODEL 5
REMARK VINA RESULT:    -3.167      1.361      2.543
REMARK INTER + INTRA:         -11.701
REMARK INTER:                  -7.341
REMARK INTRA:                  -4.360
REMARK UNBOUND:                -4.461
REMARK SMILES CCCCCCCCCCCCCCCCCCCCCCCC(=O)[O-]
REMARK SMILES IDX 13 1 14 2 15 3 16 4 17 5 18 6 19 7 20 8 21 9 22 10 23 11
REMARK SMILES IDX 24 12 25 13 26 14 12 15 11 16 10 17 9 18 8 19 7 20 6 21 5 22
REMARK SMILES IDX 4 23 3 24 2 25 1 26
REMARK H PARENT
REMARK Flexibility Score: inf
ROOT
ATOM      1  C   UNL     1      -2.871  -1.908  33.908  1.00  0.00     0.000 C 
ENDROOT
BRANCH   1   2
ATOM      2  C   UNL     1      -4.045  -2.891  33.758  1.00  0.00     0.000 C 
BRANCH   2   3
ATOM      3  C   UNL     1      -5.271  -2.532  34.622  1.00  0.00     0.000 C 
BRANCH   3   4
ATOM      4  C   UNL     1      -5.365  -3.406  35.884  1.00  0.00     0.000 C 
BRANCH   4   5
ATOM      5  C   UNL     1      -5.407  -2.576  37.178  1.00  0.00     0.000 C 
BRANCH   5   6
ATOM      6  C   UNL     1      -6.453  -1.448  37.120  1.00  0.00     0.000 C 
BRANCH   6   7
ATOM      7  C   UNL     1      -6.099  -0.265  38.036  1.00  0.00     0.000 C 
BRANCH   7   8
ATOM      8  C   UNL     1      -5.899   1.045  37.258  1.00  0.00     0.000 C 
BRANCH   8   9
ATOM      9  C   UNL     1      -6.376   0.899  35.806  1.00  0.00     0.000 C 
BRANCH   9  10
ATOM     10  C   UNL     1      -6.548   2.252  35.097  1.00  0.00     0.006 C 
BRANCH  10  11
ATOM     11  C   UNL     1      -5.748   2.341  33.790  1.00  0.00     0.053 C 
BRANCH  11  12
ATOM     12  C   UNL     1      -6.474   1.652  32.679  1.00  0.00     0.041 C 
ATOM     13  O   UNL     1      -5.832   1.110  31.741  1.00  0.00    -0.550 OA
ATOM     14  O   UNL     1      -7.865   1.631  32.664  1.00  0.00    -0.550 OA
ENDBRANCH  11  12
ENDBRANCH  10  11
ENDBRANCH   9  10
ENDBRANCH   8   9
ENDBRANCH   7   8
ENDBRANCH   6   7
ENDBRANCH   5   6
ENDBRANCH   4   5
ENDBRANCH   3   4
ENDBRANCH   2   3
ENDBRANCH   1   2
BRANCH   1  15
ATOM     15  C   UNL     1      -3.333  -0.455  34.106  1.00  0.00     0.000 C 
BRANCH  15  16
ATOM     16  C   UNL     1      -2.712   0.209  35.348  1.00  0.00     0.000 C 
BRANCH  16  17
ATOM     17  C   UNL     1      -2.625  -0.685  36.604  1.00  0.00     0.000 C 
BRANCH  17  18
ATOM     18  C   UNL     1      -1.197  -0.991  37.092  1.00  0.00    -0.000 C 
BRANCH  18  19
ATOM     19  C   UNL     1      -0.652  -2.367  36.664  1.00  0.00    -0.000 C 
BRANCH  19  20
ATOM     20  C   UNL     1       0.525  -2.282  35.668  1.00  0.00    -0.000 C 
BRANCH  20  21
ATOM     21  C   UNL     1       1.442  -1.077  35.941  1.00  0.00    -0.000 C 
BRANCH  21  22
ATOM     22  C   UNL     1       1.276   0.045  34.901  1.00  0.00    -0.000 C 
BRANCH  22  23
ATOM     23  C   UNL     1       0.589  -0.377  33.586  1.00  0.00    -0.000 C 
BRANCH  23  24
ATOM     24  C   UNL     1       0.042   0.783  32.734  1.00  0.00    -0.000 C 
BRANCH  24  25
ATOM     25  C   UNL     1      -0.764   0.301  31.520  1.00  0.00    -0.003 C 
ATOM     26  C   UNL     1      -1.855   1.303  31.153  1.00  0.00     0.004 C 
ENDBRANCH  24  25
ENDBRANCH  23  24
ENDBRANCH  22  23
ENDBRANCH  21  22
ENDBRANCH  20  21
ENDBRANCH  19  20
ENDBRANCH  18  19
ENDBRANCH  17  18
ENDBRANCH  16  17
ENDBRANCH  15  16
ENDBRANCH   1  15
TORSDOF 22
ENDMDL
MODEL 6
REMARK VINA RESULT:    -3.164      2.131      5.422
REMARK INTER + INTRA:         -11.695
REMARK INTER:                  -6.889
REMARK INTRA:                  -4.806
REMARK UNBOUND:                -4.461
REMARK SMILES CCCCCCCCCCCCCCCCCCCCCCCC(=O)[O-]
REMARK SMILES IDX 13 1 14 2 15 3 16 4 17 5 18 6 19 7 20 8 21 9 22 10 23 11
REMARK SMILES IDX 24 12 25 13 26 14 12 15 11 16 10 17 9 18 8 19 7 20 6 21 5 22
REMARK SMILES IDX 4 23 3 24 2 25 1 26
REMARK H PARENT
REMARK Flexibility Score: inf
ROOT
ATOM      1  C   UNL     1      -4.672  -2.553  34.583  1.00  0.00     0.000 C 
ENDROOT
BRANCH   1   2
ATOM      2  C   UNL     1      -3.136  -2.604  34.493  1.00  0.00     0.000 C 
BRANCH   2   3
ATOM      3  C   UNL     1      -2.459  -3.158  35.764  1.00  0.00     0.000 C 
BRANCH   3   4
ATOM      4  C   UNL     1      -1.345  -2.228  36.277  1.00  0.00     0.000 C 
BRANCH   4   5
ATOM      5  C   UNL     1       0.059  -2.824  36.083  1.00  0.00     0.000 C 
BRANCH   5   6
ATOM      6  C   UNL     1       1.161  -1.750  36.081  1.00  0.00     0.000 C 
BRANCH   6   7
ATOM      7  C   UNL     1       0.595  -0.323  36.157  1.00  0.00     0.000 C 
BRANCH   7   8
ATOM      8  C   UNL     1       1.400   0.679  35.314  1.00  0.00     0.000 C 
BRANCH   8   9
ATOM      9  C   UNL     1       0.545   1.246  34.172  1.00  0.00     0.000 C 
BRANCH   9  10
ATOM     10  C   UNL     1       0.003   0.154  33.236  1.00  0.00     0.006 C 
BRANCH  10  11
ATOM     11  C   UNL     1      -1.512   0.260  33.018  1.00  0.00     0.053 C 
BRANCH  11  12
ATOM     12  C   UNL     1      -1.816   1.148  31.853  1.00  0.00     0.041 C 
ATOM     13  O   UNL     1      -2.949   1.686  31.744  1.00  0.00    -0.550 OA
ATOM     14  O   UNL     1      -0.855   1.360  30.870  1.00  0.00    -0.550 OA
ENDBRANCH  11  12
ENDBRANCH  10  11
ENDBRANCH   9  10
ENDBRANCH   8   9
ENDBRANCH   7   8
ENDBRANCH   6   7
ENDBRANCH   5   6
ENDBRANCH   4   5
ENDBRANCH   3   4
ENDBRANCH   2   3
ENDBRANCH   1   2
BRANCH   1  15
ATOM     15  C   UNL     1      -5.226  -3.350  35.774  1.00  0.00     0.000 C 
BRANCH  15  16
ATOM     16  C   UNL     1      -5.921  -2.461  36.821  1.00  0.00     0.000 C 
BRANCH  16  17
ATOM     17  C   UNL     1      -5.039  -2.029  38.012  1.00  0.00     0.000 C 
BRANCH  17  18
ATOM     18  C   UNL     1      -5.544  -0.798  38.788  1.00  0.00    -0.000 C 
BRANCH  18  19
ATOM     19  C   UNL     1      -6.556   0.075  38.022  1.00  0.00    -0.000 C 
BRANCH  19  20
ATOM     20  C   UNL     1      -5.907   1.253  37.264  1.00  0.00    -0.000 C 
BRANCH  20  21
ATOM     21  C   UNL     1      -5.909   1.045  35.740  1.00  0.00    -0.000 C 
BRANCH  21  22
ATOM     22  C   UNL     1      -4.494   1.067  35.134  1.00  0.00    -0.000 C 
BRANCH  22  23
ATOM     23  C   UNL     1      -3.351   0.781  36.130  1.00  0.00    -0.000 C 
BRANCH  23  24
ATOM     24  C   UNL     1      -2.384   1.956  36.366  1.00  0.00    -0.000 C 
BRANCH  24  25
ATOM     25  C   UNL     1      -1.727   1.915  37.753  1.00  0.00    -0.003 C 
ATOM     26  C   UNL     1      -2.177   0.685  38.537  1.00  0.00     0.004 C 
ENDBRANCH  24  25
ENDBRANCH  23  24
ENDBRANCH  22  23
ENDBRANCH  21  22
ENDBRANCH  20  21
ENDBRANCH  19  20
ENDBRANCH  18  19
ENDBRANCH  17  18
ENDBRANCH  16  17
ENDBRANCH  15  16
ENDBRANCH   1  15
TORSDOF 22
ENDMDL
MODEL 7
REMARK VINA RESULT:    -3.159      2.283      5.457
REMARK INTER + INTRA:         -11.684
REMARK INTER:                  -7.056
REMARK INTRA:                  -4.627
REMARK UNBOUND:                -4.461
REMARK SMILES CCCCCCCCCCCCCCCCCCCCCCCC(=O)[O-]
REMARK SMILES IDX 13 1 14 2 15 3 16 4 17 5 18 6 19 7 20 8 21 9 22 10 23 11
REMARK SMILES IDX 24 12 25 13 26 14 12 15 11 16 10 17 9 18 8 19 7 20 6 21 5 22
REMARK SMILES IDX 4 23 3 24 2 25 1 26
REMARK H PARENT
REMARK Flexibility Score: inf
ROOT
ATOM      1  C   UNL     1      -5.097  -3.287  35.358  1.00  0.00     0.000 C 
ENDROOT
BRANCH   1   2
ATOM      2  C   UNL     1      -4.670  -2.286  34.270  1.00  0.00     0.000 C 
BRANCH   2   3
ATOM      3  C   UNL     1      -3.478  -1.396  34.680  1.00  0.00     0.000 C 
BRANCH   3   4
ATOM      4  C   UNL     1      -2.165  -2.193  34.771  1.00  0.00     0.000 C 
BRANCH   4   5
ATOM      5  C   UNL     1      -1.562  -2.180  36.186  1.00  0.00     0.000 C 
BRANCH   5   6
ATOM      6  C   UNL     1      -0.033  -2.007  36.173  1.00  0.00     0.000 C 
BRANCH   6   7
ATOM      7  C   UNL     1       0.395  -0.533  36.086  1.00  0.00     0.000 C 
BRANCH   7   8
ATOM      8  C   UNL     1      -0.508   0.395  36.915  1.00  0.00     0.000 C 
BRANCH   8   9
ATOM      9  C   UNL     1      -0.925   1.626  36.097  1.00  0.00     0.000 C 
BRANCH   9  10
ATOM     10  C   UNL     1      -0.513   1.525  34.619  1.00  0.00     0.006 C 
BRANCH  10  11
ATOM     11  C   UNL     1      -1.713   1.603  33.665  1.00  0.00     0.053 C 
BRANCH  11  12
ATOM     12  C   UNL     1      -1.436   0.843  32.407  1.00  0.00     0.041 C 
ATOM     13  O   UNL     1      -0.669  -0.156  32.425  1.00  0.00    -0.550 OA
ATOM     14  O   UNL     1      -2.003   1.255  31.206  1.00  0.00    -0.550 OA
ENDBRANCH  11  12
ENDBRANCH  10  11
ENDBRANCH   9  10
ENDBRANCH   8   9
ENDBRANCH   7   8
ENDBRANCH   6   7
ENDBRANCH   5   6
ENDBRANCH   4   5
ENDBRANCH   3   4
ENDBRANCH   2   3
ENDBRANCH   1   2
BRANCH   1  15
ATOM     15  C   UNL     1      -5.794  -2.611  36.549  1.00  0.00     0.000 C 
BRANCH  15  16
ATOM     16  C   UNL     1      -4.899  -2.525  37.799  1.00  0.00     0.000 C 
BRANCH  16  17
ATOM     17  C   UNL     1      -5.045  -1.233  38.631  1.00  0.00     0.000 C 
BRANCH  17  18
ATOM     18  C   UNL     1      -3.903  -0.214  38.462  1.00  0.00    -0.000 C 
BRANCH  18  19
ATOM     19  C   UNL     1      -4.193   0.917  37.456  1.00  0.00    -0.000 C 
BRANCH  19  20
ATOM     20  C   UNL     1      -5.689   1.063  37.105  1.00  0.00    -0.000 C 
BRANCH  20  21
ATOM     21  C   UNL     1      -5.919   1.342  35.610  1.00  0.00    -0.000 C 
BRANCH  21  22
ATOM     22  C   UNL     1      -7.085   0.525  35.025  1.00  0.00    -0.000 C 
BRANCH  22  23
ATOM     23  C   UNL     1      -7.055   0.346  33.492  1.00  0.00    -0.000 C 
BRANCH  23  24
ATOM     24  C   UNL     1      -5.808   0.918  32.794  1.00  0.00    -0.000 C 
BRANCH  24  25
ATOM     25  C   UNL     1      -6.149   2.008  31.768  1.00  0.00    -0.003 C 
ATOM     26  C   UNL     1      -7.636   1.994  31.426  1.00  0.00     0.004 C 
ENDBRANCH  24  25
ENDBRANCH  23  24
ENDBRANCH  22  23
ENDBRANCH  21  22
ENDBRANCH  20  21
ENDBRANCH  19  20
ENDBRANCH  18  19
ENDBRANCH  17  18
ENDBRANCH  16  17
ENDBRANCH  15  16
ENDBRANCH   1  15
TORSDOF 22
ENDMDL
MODEL 8
REMARK VINA RESULT:    -3.141      3.082      5.693
REMARK INTER + INTRA:         -11.641
REMARK INTER:                  -7.425
REMARK INTRA:                  -4.217
REMARK UNBOUND:                -4.461
REMARK SMILES CCCCCCCCCCCCCCCCCCCCCCCC(=O)[O-]
REMARK SMILES IDX 13 1 14 2 15 3 16 4 17 5 18 6 19 7 20 8 21 9 22 10 23 11
REMARK SMILES IDX 24 12 25 13 26 14 12 15 11 16 10 17 9 18 8 19 7 20 6 21 5 22
REMARK SMILES IDX 4 23 3 24 2 25 1 26
REMARK H PARENT
REMARK Flexibility Score: inf
ROOT
ATOM      1  C   UNL     1      -3.255  -2.510  34.136  1.00  0.00     0.000 C 
ENDROOT
BRANCH   1   2
ATOM      2  C   UNL     1      -2.410  -2.953  35.344  1.00  0.00     0.000 C 
BRANCH   2   3
ATOM      3  C   UNL     1      -1.220  -2.018  35.644  1.00  0.00     0.000 C 
BRANCH   3   4
ATOM      4  C   UNL     1      -1.491  -1.108  36.855  1.00  0.00     0.000 C 
BRANCH   4   5
ATOM      5  C   UNL     1      -1.701   0.362  36.456  1.00  0.00     0.000 C 
BRANCH   5   6
ATOM      6  C   UNL     1      -3.151   0.655  36.030  1.00  0.00     0.000 C 
BRANCH   6   7
ATOM      7  C   UNL     1      -3.232   1.564  34.793  1.00  0.00     0.000 C 
BRANCH   7   8
ATOM      8  C   UNL     1      -2.753   0.863  33.512  1.00  0.00     0.000 C 
BRANCH   8   9
ATOM      9  C   UNL     1      -2.474   1.885  32.400  1.00  0.00     0.000 C 
BRANCH   9  10
ATOM     10  C   UNL     1      -1.679   1.286  31.229  1.00  0.00     0.006 C 
BRANCH  10  11
ATOM     11  C   UNL     1      -0.866   0.050  31.636  1.00  0.00     0.053 C 
BRANCH  11  12
ATOM     12  C   UNL     1       0.384  -0.051  30.822  1.00  0.00     0.041 C 
ATOM     13  O   UNL     1       0.420   0.419  29.654  1.00  0.00    -0.550 OA
ATOM     14  O   UNL     1       1.504  -0.691  31.341  1.00  0.00    -0.550 OA
ENDBRANCH  11  12
ENDBRANCH  10  11
ENDBRANCH   9  10
ENDBRANCH   8   9
ENDBRANCH   7   8
ENDBRANCH   6   7
ENDBRANCH   5   6
ENDBRANCH   4   5
ENDBRANCH   3   4
ENDBRANCH   2   3
ENDBRANCH   1   2
BRANCH   1  15
ATOM     15  C   UNL     1      -4.758  -2.451  34.450  1.00  0.00     0.000 C 
BRANCH  15  16
ATOM     16  C   UNL     1      -5.154  -3.315  35.662  1.00  0.00     0.000 C 
BRANCH  16  17
ATOM     17  C   UNL     1      -5.872  -2.564  36.803  1.00  0.00     0.000 C 
BRANCH  17  18
ATOM     18  C   UNL     1      -4.953  -2.043  37.923  1.00  0.00    -0.000 C 
BRANCH  18  19
ATOM     19  C   UNL     1      -5.421  -0.731  38.583  1.00  0.00    -0.000 C 
BRANCH  19  20
ATOM     20  C   UNL     1      -6.826  -0.280  38.131  1.00  0.00    -0.000 C 
BRANCH  20  21
ATOM     21  C   UNL     1      -6.781   0.934  37.187  1.00  0.00    -0.000 C 
BRANCH  21  22
ATOM     22  C   UNL     1      -7.412   0.644  35.813  1.00  0.00    -0.000 C 
BRANCH  22  23
ATOM     23  C   UNL     1      -6.661   1.248  34.608  1.00  0.00    -0.000 C 
BRANCH  23  24
ATOM     24  C   UNL     1      -6.796   0.458  33.293  1.00  0.00    -0.000 C 
BRANCH  24  25
ATOM     25  C   UNL     1      -6.150   1.176  32.100  1.00  0.00    -0.003 C 
ATOM     26  C   UNL     1      -6.314   2.689  32.215  1.00  0.00     0.004 C 
ENDBRANCH  24  25
ENDBRANCH  23  24
ENDBRANCH  22  23
ENDBRANCH  21  22
ENDBRANCH  20  21
ENDBRANCH  19  20
ENDBRANCH  18  19
ENDBRANCH  17  18
ENDBRANCH  16  17
ENDBRANCH  15  16
ENDBRANCH   1  15
TORSDOF 22
ENDMDL
MODEL 9
REMARK VINA RESULT:    -3.136      1.461      4.033
REMARK INTER + INTRA:         -11.630
REMARK INTER:                  -6.760
REMARK INTRA:                  -4.870
REMARK UNBOUND:                -4.461
REMARK SMILES CCCCCCCCCCCCCCCCCCCCCCCC(=O)[O-]
REMARK SMILES IDX 13 1 14 2 15 3 16 4 17 5 18 6 19 7 20 8 21 9 22 10 23 11
REMARK SMILES IDX 24 12 25 13 26 14 12 15 11 16 10 17 9 18 8 19 7 20 6 21 5 22
REMARK SMILES IDX 4 23 3 24 2 25 1 26
REMARK H PARENT
REMARK Flexibility Score: inf
ROOT
ATOM      1  C   UNL     1      -1.478  -2.510  35.564  1.00  0.00     0.000 C 
ENDROOT
BRANCH   1   2
ATOM      2  C   UNL     1      -2.556  -1.849  34.688  1.00  0.00     0.000 C 
BRANCH   2   3
ATOM      3  C   UNL     1      -3.383  -2.853  33.857  1.00  0.00     0.000 C 
BRANCH   3   4
ATOM      4  C   UNL     1      -4.852  -2.908  34.313  1.00  0.00     0.000 C 
BRANCH   4   5
ATOM      5  C   UNL     1      -5.017  -3.553  35.700  1.00  0.00     0.000 C 
BRANCH   5   6
ATOM      6  C   UNL     1      -5.781  -2.649  36.683  1.00  0.00     0.000 C 
BRANCH   6   7
ATOM      7  C   UNL     1      -4.891  -2.129  37.823  1.00  0.00     0.000 C 
BRANCH   7   8
ATOM      8  C   UNL     1      -5.274  -0.710  38.272  1.00  0.00     0.000 C 
BRANCH   8   9
ATOM      9  C   UNL     1      -6.059   0.020  37.172  1.00  0.00     0.000 C 
BRANCH   9  10
ATOM     10  C   UNL     1      -5.195   1.024  36.392  1.00  0.00     0.006 C 
BRANCH  10  11
ATOM     11  C   UNL     1      -5.145   0.717  34.888  1.00  0.00     0.053 C 
BRANCH  11  12
ATOM     12  C   UNL     1      -6.518   0.747  34.298  1.00  0.00     0.041 C 
ATOM     13  O   UNL     1      -6.949  -0.237  33.641  1.00  0.00    -0.550 OA
ATOM     14  O   UNL     1      -7.316   1.876  34.448  1.00  0.00    -0.550 OA
ENDBRANCH  11  12
ENDBRANCH  10  11
ENDBRANCH   9  10
ENDBRANCH   8   9
ENDBRANCH   7   8
ENDBRANCH   6   7
ENDBRANCH   5   6
ENDBRANCH   4   5
ENDBRANCH   3   4
ENDBRANCH   2   3
ENDBRANCH   1   2
BRANCH   1  15
ATOM     15  C   UNL     1      -1.246  -1.765  36.887  1.00  0.00     0.000 C 
BRANCH  15  16
ATOM     16  C   UNL     1      -1.802  -0.329  36.874  1.00  0.00     0.000 C 
BRANCH  16  17
ATOM     17  C   UNL     1      -0.792   0.775  37.255  1.00  0.00     0.000 C 
BRANCH  17  18
ATOM     18  C   UNL     1      -0.570   1.857  36.182  1.00  0.00    -0.000 C 
BRANCH  18  19
ATOM     19  C   UNL     1      -1.624   1.876  35.058  1.00  0.00    -0.000 C 
BRANCH  19  20
ATOM     20  C   UNL     1      -1.109   1.305  33.719  1.00  0.00    -0.000 C 
BRANCH  20  21
ATOM     21  C   UNL     1       0.225   1.936  33.284  1.00  0.00    -0.000 C 
BRANCH  21  22
ATOM     22  C   UNL     1       1.377   0.916  33.232  1.00  0.00    -0.000 C 
BRANCH  22  23
ATOM     23  C   UNL     1       1.016  -0.504  33.715  1.00  0.00    -0.000 C 
BRANCH  23  24
ATOM     24  C   UNL     1       2.147  -1.252  34.444  1.00  0.00    -0.000 C 
BRANCH  24  25
ATOM     25  C   UNL     1       2.106  -1.054  35.966  1.00  0.00    -0.003 C 
ATOM     26  C   UNL     1       2.999   0.109  36.392  1.00  0.00     0.004 C 
ENDBRANCH  24  25
ENDBRANCH  23  24
ENDBRANCH  22  23
ENDBRANCH  21  22
ENDBRANCH  20  21
ENDBRANCH  19  20
ENDBRANCH  18  19
ENDBRANCH  17  18
ENDBRANCH  16  17
ENDBRANCH  15  16
ENDBRANCH   1  15
TORSDOF 22
ENDMDL
