MODEL 1
REMARK VINA RESULT:    -7.161      0.000      0.000
REMARK INTER + INTRA:          -8.948
REMARK INTER:                  -8.626
REMARK INTRA:                  -0.322
REMARK UNBOUND:                -0.322
REMARK SMILES O=c1c(O)c(-c2ccc(O)c(O)c2)oc2cc(O)cc(O)c12
REMARK SMILES IDX 5 1 3 2 2 3 1 4 22 5 20 6 19 7 17 8 16 9 15 10 14 11 6 12
REMARK SMILES IDX 7 13 8 14 9 15 13 16 11 17 10 18 12 20 4 22 21 24 18 26
REMARK H PARENT 10 19 12 21 4 23 21 25 18 27
REMARK Flexibility Score: inf
ROOT
ATOM      1  C   UNL     1     -20.784  55.246  -1.094  1.00  0.00     0.180 A 
ATOM      2  C   UNL     1     -20.972  54.071  -0.347  1.00  0.00     0.208 A 
ATOM      3  C   UNL     1     -22.219  53.836   0.254  1.00  0.00     0.238 A 
ATOM      4  O   UNL     1     -22.397  52.757   0.875  1.00  0.00    -0.285 OA
ATOM      5  C   UNL     1     -23.258  54.788   0.114  1.00  0.00     0.111 A 
ATOM      6  C   UNL     1     -24.549  54.673   0.714  1.00  0.00     0.134 A 
ATOM      7  C   UNL     1     -25.541  55.609   0.400  1.00  0.00     0.093 A 
ATOM      8  C   UNL     1     -25.269  56.693  -0.438  1.00  0.00     0.123 A 
ATOM      9  C   UNL     1     -23.996  56.847  -0.980  1.00  0.00     0.094 A 
ATOM     10  C   UNL     1     -22.995  55.909  -0.715  1.00  0.00     0.146 A 
ATOM     11  O   UNL     1     -21.798  56.087  -1.261  1.00  0.00    -0.452 OA
ENDROOT
BRANCH   1  12
ATOM     12  C   UNL     1     -19.491  55.574  -1.736  1.00  0.00     0.025 A 
ATOM     13  C   UNL     1     -19.317  55.329  -3.106  1.00  0.00     0.016 A 
ATOM     14  C   UNL     1     -18.113  55.651  -3.736  1.00  0.00     0.051 A 
ATOM     15  C   UNL     1     -17.070  56.236  -3.011  1.00  0.00     0.157 A 
ATOM     16  C   UNL     1     -18.449  56.182  -1.012  1.00  0.00     0.062 A 
ATOM     17  C   UNL     1     -17.239  56.508  -1.644  1.00  0.00     0.158 A 
BRANCH  15  18
ATOM     18  O   UNL     1     -15.878  56.544  -3.666  1.00  0.00    -0.504 OA
ATOM     19  H   UNL     1     -15.688  56.232  -4.611  1.00  0.00     0.293 HD
ENDBRANCH  15  18
BRANCH  17  20
ATOM     20  O   UNL     1     -16.208  57.104  -0.918  1.00  0.00    -0.504 OA
ATOM     21  H   UNL     1     -15.847  58.019  -1.161  1.00  0.00     0.293 HD
ENDBRANCH  17  20
ENDBRANCH   1  12
BRANCH   2  22
ATOM     22  O   UNL     1     -19.940  53.133  -0.240  1.00  0.00    -0.502 OA
ATOM     23  H   UNL     1     -19.221  53.194   0.470  1.00  0.00     0.293 HD
ENDBRANCH   2  22
BRANCH   6  24
ATOM     24  O   UNL     1     -24.895  53.680   1.636  1.00  0.00    -0.507 OA
ATOM     25  H   UNL     1     -24.385  52.821   1.772  1.00  0.00     0.293 HD
ENDBRANCH   6  24
BRANCH   8  26
ATOM     26  O   UNL     1     -26.259  57.630  -0.732  1.00  0.00    -0.508 OA
ATOM     27  H   UNL     1     -27.174  57.588  -0.298  1.00  0.00     0.293 HD
ENDBRANCH   8  26
TORSDOF 6
ENDMDL
MODEL 2
REMARK VINA RESULT:    -7.087      1.573      6.996
REMARK INTER + INTRA:          -8.859
REMARK INTER:                  -8.579
REMARK INTRA:                  -0.280
REMARK UNBOUND:                -0.322
REMARK SMILES O=c1c(O)c(-c2ccc(O)c(O)c2)oc2cc(O)cc(O)c12
REMARK SMILES IDX 5 1 3 2 2 3 1 4 22 5 20 6 19 7 17 8 16 9 15 10 14 11 6 12
REMARK SMILES IDX 7 13 8 14 9 15 13 16 11 17 10 18 12 20 4 22 21 24 18 26
REMARK H PARENT 10 19 12 21 4 23 21 25 18 27
REMARK Flexibility Score: inf
ROOT
ATOM      1  C   UNL     1     -21.060  55.905  -0.727  1.00  0.00     0.180 A 
ATOM      2  C   UNL     1     -20.555  55.467  -1.963  1.00  0.00     0.208 A 
ATOM      3  C   UNL     1     -19.200  55.686  -2.263  1.00  0.00     0.238 A 
ATOM      4  O   UNL     1     -18.743  55.243  -3.348  1.00  0.00    -0.285 OA
ATOM      5  C   UNL     1     -18.371  56.354  -1.330  1.00  0.00     0.111 A 
ATOM      6  C   UNL     1     -16.995  56.665  -1.545  1.00  0.00     0.134 A 
ATOM      7  C   UNL     1     -16.239  57.211  -0.501  1.00  0.00     0.093 A 
ATOM      8  C   UNL     1     -16.827  57.519   0.729  1.00  0.00     0.123 A 
ATOM      9  C   UNL     1     -18.183  57.274   0.929  1.00  0.00     0.094 A 
ATOM     10  C   UNL     1     -18.955  56.696  -0.082  1.00  0.00     0.146 A 
ATOM     11  O   UNL     1     -20.242  56.470   0.154  1.00  0.00    -0.452 OA
ENDROOT
BRANCH   1  12
ATOM     12  C   UNL     1     -22.481  55.733  -0.350  1.00  0.00     0.025 A 
ATOM     13  C   UNL     1     -23.452  56.575  -0.912  1.00  0.00     0.016 A 
ATOM     14  C   UNL     1     -24.802  56.416  -0.585  1.00  0.00     0.051 A 
ATOM     15  C   UNL     1     -25.202  55.406   0.295  1.00  0.00     0.157 A 
ATOM     16  C   UNL     1     -22.888  54.704   0.520  1.00  0.00     0.062 A 
ATOM     17  C   UNL     1     -24.243  54.542   0.847  1.00  0.00     0.158 A 
BRANCH  15  18
ATOM     18  O   UNL     1     -26.555  55.274   0.604  1.00  0.00    -0.504 OA
ATOM     19  H   UNL     1     -26.917  55.471   1.530  1.00  0.00     0.293 HD
ENDBRANCH  15  18
BRANCH  17  20
ATOM     20  O   UNL     1     -24.637  53.524   1.715  1.00  0.00    -0.504 OA
ATOM     21  H   UNL     1     -25.606  53.399   1.981  1.00  0.00     0.293 HD
ENDBRANCH  17  20
ENDBRANCH   1  12
BRANCH   2  22
ATOM     22  O   UNL     1     -21.385  54.789  -2.861  1.00  0.00    -0.502 OA
ATOM     23  H   UNL     1     -21.077  54.515  -3.786  1.00  0.00     0.293 HD
ENDBRANCH   2  22
BRANCH   6  24
ATOM     24  O   UNL     1     -16.336  56.482  -2.764  1.00  0.00    -0.507 OA
ATOM     25  H   UNL     1     -16.222  55.594  -3.228  1.00  0.00     0.293 HD
ENDBRANCH   6  24
BRANCH   8  26
ATOM     26  O   UNL     1     -16.070  58.077   1.758  1.00  0.00    -0.508 OA
ATOM     27  H   UNL     1     -15.615  58.976   1.653  1.00  0.00     0.293 HD
ENDBRANCH   8  26
TORSDOF 6
ENDMDL
MODEL 3
REMARK VINA RESULT:    -7.038      2.078      6.714
REMARK INTER + INTRA:          -8.801
REMARK INTER:                  -8.538
REMARK INTRA:                  -0.263
REMARK UNBOUND:                -0.322
REMARK SMILES O=c1c(O)c(-c2ccc(O)c(O)c2)oc2cc(O)cc(O)c12
REMARK SMILES IDX 5 1 3 2 2 3 1 4 22 5 20 6 19 7 17 8 16 9 15 10 14 11 6 12
REMARK SMILES IDX 7 13 8 14 9 15 13 16 11 17 10 18 12 20 4 22 21 24 18 26
REMARK H PARENT 10 19 12 21 4 23 21 25 18 27
REMARK Flexibility Score: inf
ROOT
ATOM      1  C   UNL     1     -21.161  54.960  -0.630  1.00  0.00     0.180 A 
ATOM      2  C   UNL     1     -20.467  53.834  -1.104  1.00  0.00     0.208 A 
ATOM      3  C   UNL     1     -19.063  53.828  -1.058  1.00  0.00     0.238 A 
ATOM      4  O   UNL     1     -18.451  52.796  -1.432  1.00  0.00    -0.285 OA
ATOM      5  C   UNL     1     -18.371  54.956  -0.553  1.00  0.00     0.111 A 
ATOM      6  C   UNL     1     -16.950  55.076  -0.497  1.00  0.00     0.134 A 
ATOM      7  C   UNL     1     -16.375  56.181   0.142  1.00  0.00     0.093 A 
ATOM      8  C   UNL     1     -17.171  57.203   0.667  1.00  0.00     0.123 A 
ATOM      9  C   UNL     1     -18.557  57.124   0.564  1.00  0.00     0.094 A 
ATOM     10  C   UNL     1     -19.161  56.016  -0.035  1.00  0.00     0.146 A 
ATOM     11  O   UNL     1     -20.486  55.975  -0.103  1.00  0.00    -0.452 OA
ENDROOT
BRANCH   1  12
ATOM     12  C   UNL     1     -22.639  55.050  -0.669  1.00  0.00     0.025 A 
ATOM     13  C   UNL     1     -23.366  55.007   0.530  1.00  0.00     0.016 A 
ATOM     14  C   UNL     1     -24.759  55.111   0.518  1.00  0.00     0.051 A 
ATOM     15  C   UNL     1     -25.445  55.274  -0.690  1.00  0.00     0.157 A 
ATOM     16  C   UNL     1     -23.329  55.235  -1.882  1.00  0.00     0.062 A 
ATOM     17  C   UNL     1     -24.728  55.341  -1.895  1.00  0.00     0.158 A 
BRANCH  15  18
ATOM     18  O   UNL     1     -26.836  55.372  -0.671  1.00  0.00    -0.504 OA
ATOM     19  H   UNL     1     -27.312  56.266  -0.660  1.00  0.00     0.293 HD
ENDBRANCH  15  18
BRANCH  17  20
ATOM     20  O   UNL     1     -25.405  55.518  -3.102  1.00  0.00    -0.504 OA
ATOM     21  H   UNL     1     -26.129  54.877  -3.403  1.00  0.00     0.293 HD
ENDBRANCH  17  20
ENDBRANCH   1  12
BRANCH   2  22
ATOM     22  O   UNL     1     -21.171  52.722  -1.577  1.00  0.00    -0.502 OA
ATOM     23  H   UNL     1     -20.854  51.773  -1.425  1.00  0.00     0.293 HD
ENDBRANCH   2  22
BRANCH   6  24
ATOM     24  O   UNL     1     -16.066  54.158  -1.072  1.00  0.00    -0.507 OA
ATOM     25  H   UNL     1     -15.415  54.373  -1.811  1.00  0.00     0.293 HD
ENDBRANCH   6  24
BRANCH   8  26
ATOM     26  O   UNL     1     -16.590  58.308   1.287  1.00  0.00    -0.508 OA
ATOM     27  H   UNL     1     -16.864  59.254   1.051  1.00  0.00     0.293 HD
ENDBRANCH   8  26
TORSDOF 6
ENDMDL
MODEL 4
REMARK VINA RESULT:    -6.879      2.018      2.804
REMARK INTER + INTRA:          -8.608
REMARK INTER:                  -8.276
REMARK INTRA:                  -0.332
REMARK UNBOUND:                -0.322
REMARK SMILES O=c1c(O)c(-c2ccc(O)c(O)c2)oc2cc(O)cc(O)c12
REMARK SMILES IDX 5 1 3 2 2 3 1 4 22 5 20 6 19 7 17 8 16 9 15 10 14 11 6 12
REMARK SMILES IDX 7 13 8 14 9 15 13 16 11 17 10 18 12 20 4 22 21 24 18 26
REMARK H PARENT 10 19 12 21 4 23 21 25 18 27
REMARK Flexibility Score: inf
ROOT
ATOM      1  C   UNL     1     -20.671  56.009  -0.379  1.00  0.00     0.180 A 
ATOM      2  C   UNL     1     -20.874  57.026   0.570  1.00  0.00     0.208 A 
ATOM      3  C   UNL     1     -22.186  57.431   0.866  1.00  0.00     0.238 A 
ATOM      4  O   UNL     1     -22.363  58.303   1.755  1.00  0.00    -0.285 OA
ATOM      5  C   UNL     1     -23.277  56.825   0.197  1.00  0.00     0.111 A 
ATOM      6  C   UNL     1     -24.645  57.184   0.389  1.00  0.00     0.134 A 
ATOM      7  C   UNL     1     -25.651  56.428  -0.228  1.00  0.00     0.093 A 
ATOM      8  C   UNL     1     -25.333  55.369  -1.081  1.00  0.00     0.123 A 
ATOM      9  C   UNL     1     -23.999  55.048  -1.321  1.00  0.00     0.094 A 
ATOM     10  C   UNL     1     -22.976  55.760  -0.692  1.00  0.00     0.146 A 
ATOM     11  O   UNL     1     -21.718  55.415  -0.940  1.00  0.00    -0.452 OA
ENDROOT
BRANCH   1  12
ATOM     12  C   UNL     1     -19.318  55.547  -0.761  1.00  0.00     0.025 A 
ATOM     13  C   UNL     1     -18.774  54.411  -0.142  1.00  0.00     0.016 A 
ATOM     14  C   UNL     1     -17.507  53.945  -0.503  1.00  0.00     0.051 A 
ATOM     15  C   UNL     1     -16.771  54.597  -1.497  1.00  0.00     0.157 A 
ATOM     16  C   UNL     1     -18.584  56.189  -1.776  1.00  0.00     0.062 A 
ATOM     17  C   UNL     1     -17.313  55.722  -2.141  1.00  0.00     0.158 A 
BRANCH  15  18
ATOM     18  O   UNL     1     -15.509  54.111  -1.834  1.00  0.00    -0.504 OA
ATOM     19  H   UNL     1     -14.705  54.720  -1.926  1.00  0.00     0.293 HD
ENDBRANCH  15  18
BRANCH  17  20
ATOM     20  O   UNL     1     -16.590  56.368  -3.143  1.00  0.00    -0.504 OA
ATOM     21  H   UNL     1     -17.012  56.608  -4.032  1.00  0.00     0.293 HD
ENDBRANCH  17  20
ENDBRANCH   1  12
BRANCH   2  22
ATOM     22  O   UNL     1     -19.784  57.596   1.234  1.00  0.00    -0.502 OA
ATOM     23  H   UNL     1     -19.354  57.164   2.043  1.00  0.00     0.293 HD
ENDBRANCH   2  22
BRANCH   6  24
ATOM     24  O   UNL     1     -25.065  58.281   1.147  1.00  0.00    -0.507 OA
ATOM     25  H   UNL     1     -25.925  58.320   1.673  1.00  0.00     0.293 HD
ENDBRANCH   6  24
BRANCH   8  26
ATOM     26  O   UNL     1     -26.340  54.632  -1.704  1.00  0.00    -0.508 OA
ATOM     27  H   UNL     1     -26.978  55.059  -2.365  1.00  0.00     0.293 HD
ENDBRANCH   8  26
TORSDOF 6
ENDMDL
MODEL 5
REMARK VINA RESULT:    -6.842      1.435      2.888
REMARK INTER + INTRA:          -8.564
REMARK INTER:                  -8.251
REMARK INTRA:                  -0.314
REMARK UNBOUND:                -0.322
REMARK SMILES O=c1c(O)c(-c2ccc(O)c(O)c2)oc2cc(O)cc(O)c12
REMARK SMILES IDX 5 1 3 2 2 3 1 4 22 5 20 6 19 7 17 8 16 9 15 10 14 11 6 12
REMARK SMILES IDX 7 13 8 14 9 15 13 16 11 17 10 18 12 20 4 22 21 24 18 26
REMARK H PARENT 10 19 12 21 4 23 21 25 18 27
REMARK Flexibility Score: inf
ROOT
ATOM      1  C   UNL     1     -21.192  55.465  -1.513  1.00  0.00     0.180 A 
ATOM      2  C   UNL     1     -21.832  56.523  -2.179  1.00  0.00     0.208 A 
ATOM      3  C   UNL     1     -23.203  56.735  -1.965  1.00  0.00     0.238 A 
ATOM      4  O   UNL     1     -23.757  57.717  -2.521  1.00  0.00    -0.285 OA
ATOM      5  C   UNL     1     -23.921  55.875  -1.099  1.00  0.00     0.111 A 
ATOM      6  C   UNL     1     -25.321  55.971  -0.839  1.00  0.00     0.134 A 
ATOM      7  C   UNL     1     -25.901  55.150   0.136  1.00  0.00     0.093 A 
ATOM      8  C   UNL     1     -25.143  54.190   0.811  1.00  0.00     0.123 A 
ATOM      9  C   UNL     1     -23.789  54.048   0.522  1.00  0.00     0.094 A 
ATOM     10  C   UNL     1     -23.175  54.878  -0.419  1.00  0.00     0.146 A 
ATOM     11  O   UNL     1     -21.879  54.716  -0.657  1.00  0.00    -0.452 OA
ENDROOT
BRANCH   1  12
ATOM     12  C   UNL     1     -19.756  55.163  -1.707  1.00  0.00     0.025 A 
ATOM     13  C   UNL     1     -19.370  54.227  -2.679  1.00  0.00     0.016 A 
ATOM     14  C   UNL     1     -18.019  53.943  -2.893  1.00  0.00     0.051 A 
ATOM     15  C   UNL     1     -17.033  54.600  -2.151  1.00  0.00     0.157 A 
ATOM     16  C   UNL     1     -18.761  55.839  -0.977  1.00  0.00     0.062 A 
ATOM     17  C   UNL     1     -17.403  55.556  -1.192  1.00  0.00     0.158 A 
BRANCH  15  18
ATOM     18  O   UNL     1     -15.693  54.294  -2.385  1.00  0.00    -0.504 OA
ATOM     19  H   UNL     1     -15.081  53.962  -1.649  1.00  0.00     0.293 HD
ENDBRANCH  15  18
BRANCH  17  20
ATOM     20  O   UNL     1     -16.424  56.226  -0.459  1.00  0.00    -0.504 OA
ATOM     21  H   UNL     1     -16.651  56.745   0.381  1.00  0.00     0.293 HD
ENDBRANCH  17  20
ENDBRANCH   1  12
BRANCH   2  22
ATOM     22  O   UNL     1     -21.099  57.374  -3.013  1.00  0.00    -0.502 OA
ATOM     23  H   UNL     1     -20.259  57.076  -3.491  1.00  0.00     0.293 HD
ENDBRANCH   2  22
BRANCH   6  24
ATOM     24  O   UNL     1     -26.185  56.832  -1.524  1.00  0.00    -0.507 OA
ATOM     25  H   UNL     1     -25.893  57.512  -2.209  1.00  0.00     0.293 HD
ENDBRANCH   6  24
BRANCH   8  26
ATOM     26  O   UNL     1     -25.732  53.365   1.768  1.00  0.00    -0.508 OA
ATOM     27  H   UNL     1     -25.693  52.355   1.695  1.00  0.00     0.293 HD
ENDBRANCH   8  26
TORSDOF 6
ENDMDL
MODEL 6
REMARK VINA RESULT:    -6.788      2.037      6.984
REMARK INTER + INTRA:          -8.498
REMARK INTER:                  -8.176
REMARK INTRA:                  -0.322
REMARK UNBOUND:                -0.322
REMARK SMILES O=c1c(O)c(-c2ccc(O)c(O)c2)oc2cc(O)cc(O)c12
REMARK SMILES IDX 5 1 3 2 2 3 1 4 22 5 20 6 19 7 17 8 16 9 15 10 14 11 6 12
REMARK SMILES IDX 7 13 8 14 9 15 13 16 11 17 10 18 12 20 4 22 21 24 18 26
REMARK H PARENT 10 19 12 21 4 23 21 25 18 27
REMARK Flexibility Score: inf
ROOT
ATOM      1  C   UNL     1     -21.437  55.984  -1.860  1.00  0.00     0.180 A 
ATOM      2  C   UNL     1     -20.697  56.474  -2.949  1.00  0.00     0.208 A 
ATOM      3  C   UNL     1     -19.294  56.460  -2.882  1.00  0.00     0.238 A 
ATOM      4  O   UNL     1     -18.638  56.850  -3.882  1.00  0.00    -0.285 OA
ATOM      5  C   UNL     1     -18.650  55.972  -1.719  1.00  0.00     0.111 A 
ATOM      6  C   UNL     1     -17.236  55.950  -1.526  1.00  0.00     0.134 A 
ATOM      7  C   UNL     1     -16.704  55.324  -0.392  1.00  0.00     0.093 A 
ATOM      8  C   UNL     1     -17.538  54.780   0.588  1.00  0.00     0.123 A 
ATOM      9  C   UNL     1     -18.921  54.850   0.437  1.00  0.00     0.094 A 
ATOM     10  C   UNL     1     -19.480  55.436  -0.701  1.00  0.00     0.146 A 
ATOM     11  O   UNL     1     -20.803  55.472  -0.811  1.00  0.00    -0.452 OA
ENDROOT
BRANCH   1  12
ATOM     12  C   UNL     1     -22.917  55.987  -1.846  1.00  0.00     0.025 A 
ATOM     13  C   UNL     1     -23.615  54.808  -2.145  1.00  0.00     0.016 A 
ATOM     14  C   UNL     1     -25.012  54.784  -2.118  1.00  0.00     0.051 A 
ATOM     15  C   UNL     1     -25.732  55.933  -1.777  1.00  0.00     0.157 A 
ATOM     16  C   UNL     1     -23.643  57.138  -1.483  1.00  0.00     0.062 A 
ATOM     17  C   UNL     1     -25.046  57.115  -1.454  1.00  0.00     0.158 A 
BRANCH  15  18
ATOM     18  O   UNL     1     -27.125  55.880  -1.761  1.00  0.00    -0.504 OA
ATOM     19  H   UNL     1     -27.696  56.705  -1.898  1.00  0.00     0.293 HD
ENDBRANCH  15  18
BRANCH  17  20
ATOM     20  O   UNL     1     -25.757  58.261  -1.099  1.00  0.00    -0.504 OA
ATOM     21  H   UNL     1     -26.748  58.227  -0.891  1.00  0.00     0.293 HD
ENDBRANCH  17  20
ENDBRANCH   1  12
BRANCH   2  22
ATOM     22  O   UNL     1     -21.353  56.930  -4.096  1.00  0.00    -0.502 OA
ATOM     23  H   UNL     1     -20.888  57.482  -4.805  1.00  0.00     0.293 HD
ENDBRANCH   2  22
BRANCH   6  24
ATOM     24  O   UNL     1     -16.319  56.545  -2.398  1.00  0.00    -0.507 OA
ATOM     25  H   UNL     1     -16.466  56.668  -3.389  1.00  0.00     0.293 HD
ENDBRANCH   6  24
BRANCH   8  26
ATOM     26  O   UNL     1     -17.000  54.173   1.722  1.00  0.00    -0.508 OA
ATOM     27  H   UNL     1     -16.194  53.563   1.664  1.00  0.00     0.293 HD
ENDBRANCH   8  26
TORSDOF 6
ENDMDL
MODEL 7
REMARK VINA RESULT:    -6.628      2.701      3.285
REMARK INTER + INTRA:          -8.306
REMARK INTER:                  -8.017
REMARK INTRA:                  -0.289
REMARK UNBOUND:                -0.322
REMARK SMILES O=c1c(O)c(-c2ccc(O)c(O)c2)oc2cc(O)cc(O)c12
REMARK SMILES IDX 5 1 3 2 2 3 1 4 22 5 20 6 19 7 17 8 16 9 15 10 14 11 6 12
REMARK SMILES IDX 7 13 8 14 9 15 13 16 11 17 10 18 12 20 4 22 21 24 18 26
REMARK H PARENT 10 19 12 21 4 23 21 25 18 27
REMARK Flexibility Score: inf
ROOT
ATOM      1  C   UNL     1     -20.422  56.154  -0.173  1.00  0.00     0.180 A 
ATOM      2  C   UNL     1     -21.603  55.829  -0.861  1.00  0.00     0.208 A 
ATOM      3  C   UNL     1     -22.824  56.355  -0.409  1.00  0.00     0.238 A 
ATOM      4  O   UNL     1     -23.869  56.104  -1.062  1.00  0.00    -0.285 OA
ATOM      5  C   UNL     1     -22.851  57.187   0.737  1.00  0.00     0.111 A 
ATOM      6  C   UNL     1     -24.035  57.743   1.307  1.00  0.00     0.134 A 
ATOM      7  C   UNL     1     -23.930  58.658   2.362  1.00  0.00     0.093 A 
ATOM      8  C   UNL     1     -22.687  58.985   2.909  1.00  0.00     0.123 A 
ATOM      9  C   UNL     1     -21.530  58.403   2.398  1.00  0.00     0.094 A 
ATOM     10  C   UNL     1     -21.600  57.514   1.323  1.00  0.00     0.146 A 
ATOM     11  O   UNL     1     -20.472  56.990   0.859  1.00  0.00    -0.452 OA
ENDROOT
BRANCH   1  12
ATOM     12  C   UNL     1     -19.102  55.619  -0.574  1.00  0.00     0.025 A 
ATOM     13  C   UNL     1     -18.572  54.508   0.100  1.00  0.00     0.016 A 
ATOM     14  C   UNL     1     -17.337  53.974  -0.276  1.00  0.00     0.051 A 
ATOM     15  C   UNL     1     -16.620  54.531  -1.340  1.00  0.00     0.157 A 
ATOM     16  C   UNL     1     -18.389  56.165  -1.657  1.00  0.00     0.062 A 
ATOM     17  C   UNL     1     -17.149  55.629  -2.037  1.00  0.00     0.158 A 
BRANCH  15  18
ATOM     18  O   UNL     1     -15.389  53.978  -1.690  1.00  0.00    -0.504 OA
ATOM     19  H   UNL     1     -14.512  54.416  -1.438  1.00  0.00     0.293 HD
ENDBRANCH  15  18
BRANCH  17  20
ATOM     20  O   UNL     1     -16.447  56.180  -3.108  1.00  0.00    -0.504 OA
ATOM     21  H   UNL     1     -15.914  57.036  -3.009  1.00  0.00     0.293 HD
ENDBRANCH  17  20
ENDBRANCH   1  12
BRANCH   2  22
ATOM     22  O   UNL     1     -21.552  55.023  -2.003  1.00  0.00    -0.502 OA
ATOM     23  H   UNL     1     -21.192  55.357  -2.888  1.00  0.00     0.293 HD
ENDBRANCH   2  22
BRANCH   6  24
ATOM     24  O   UNL     1     -25.329  57.411   0.895  1.00  0.00    -0.507 OA
ATOM     25  H   UNL     1     -26.174  57.765   1.317  1.00  0.00     0.293 HD
ENDBRANCH   6  24
BRANCH   8  26
ATOM     26  O   UNL     1     -22.593  59.885   3.970  1.00  0.00    -0.508 OA
ATOM     27  H   UNL     1     -21.698  60.139   4.371  1.00  0.00     0.293 HD
ENDBRANCH   8  26
TORSDOF 6
ENDMDL
MODEL 8
REMARK VINA RESULT:    -6.468      2.360      6.839
REMARK INTER + INTRA:          -8.114
REMARK INTER:                  -7.784
REMARK INTRA:                  -0.330
REMARK UNBOUND:                -0.322
REMARK SMILES O=c1c(O)c(-c2ccc(O)c(O)c2)oc2cc(O)cc(O)c12
REMARK SMILES IDX 5 1 3 2 2 3 1 4 22 5 20 6 19 7 17 8 16 9 15 10 14 11 6 12
REMARK SMILES IDX 7 13 8 14 9 15 13 16 11 17 10 18 12 20 4 22 21 24 18 26
REMARK H PARENT 10 19 12 21 4 23 21 25 18 27
REMARK Flexibility Score: inf
ROOT
ATOM      1  C   UNL     1     -22.704  56.333  -1.125  1.00  0.00     0.180 A 
ATOM      2  C   UNL     1     -21.993  56.899  -2.196  1.00  0.00     0.208 A 
ATOM      3  C   UNL     1     -20.915  56.190  -2.750  1.00  0.00     0.238 A 
ATOM      4  O   UNL     1     -20.317  56.678  -3.744  1.00  0.00    -0.285 OA
ATOM      5  C   UNL     1     -20.551  54.931  -2.215  1.00  0.00     0.111 A 
ATOM      6  C   UNL     1     -19.451  54.143  -2.671  1.00  0.00     0.134 A 
ATOM      7  C   UNL     1     -19.264  52.855  -2.157  1.00  0.00     0.093 A 
ATOM      8  C   UNL     1     -20.098  52.352  -1.155  1.00  0.00     0.123 A 
ATOM      9  C   UNL     1     -21.137  53.136  -0.661  1.00  0.00     0.094 A 
ATOM     10  C   UNL     1     -21.371  54.411  -1.180  1.00  0.00     0.146 A 
ATOM     11  O   UNL     1     -22.380  55.121  -0.689  1.00  0.00    -0.452 OA
ENDROOT
BRANCH   1  12
ATOM     12  C   UNL     1     -23.836  57.030  -0.473  1.00  0.00     0.025 A 
ATOM     13  C   UNL     1     -25.143  56.808  -0.933  1.00  0.00     0.016 A 
ATOM     14  C   UNL     1     -26.227  57.440  -0.319  1.00  0.00     0.051 A 
ATOM     15  C   UNL     1     -26.024  58.289   0.773  1.00  0.00     0.157 A 
ATOM     16  C   UNL     1     -23.635  57.869   0.639  1.00  0.00     0.062 A 
ATOM     17  C   UNL     1     -24.723  58.502   1.258  1.00  0.00     0.158 A 
BRANCH  15  18
ATOM     18  O   UNL     1     -27.125  58.908   1.364  1.00  0.00    -0.504 OA
ATOM     19  H   UNL     1     -27.262  59.911   1.328  1.00  0.00     0.293 HD
ENDBRANCH  15  18
BRANCH  17  20
ATOM     20  O   UNL     1     -24.516  59.337   2.356  1.00  0.00    -0.504 OA
ATOM     21  H   UNL     1     -24.038  59.012   3.187  1.00  0.00     0.293 HD
ENDBRANCH  17  20
ENDBRANCH   1  12
BRANCH   2  22
ATOM     22  O   UNL     1     -22.383  58.134  -2.724  1.00  0.00    -0.502 OA
ATOM     23  H   UNL     1     -23.354  58.383  -2.864  1.00  0.00     0.293 HD
ENDBRANCH   2  22
BRANCH   6  24
ATOM     24  O   UNL     1     -18.506  54.588  -3.602  1.00  0.00    -0.507 OA
ATOM     25  H   UNL     1     -18.724  55.116  -4.433  1.00  0.00     0.293 HD
ENDBRANCH   6  24
BRANCH   8  26
ATOM     26  O   UNL     1     -19.894  51.074  -0.636  1.00  0.00    -0.508 OA
ATOM     27  H   UNL     1     -20.600  50.610  -0.076  1.00  0.00     0.293 HD
ENDBRANCH   8  26
TORSDOF 6
ENDMDL
MODEL 9
REMARK VINA RESULT:    -6.378      2.637      6.586
REMARK INTER + INTRA:          -8.006
REMARK INTER:                  -7.728
REMARK INTRA:                  -0.278
REMARK UNBOUND:                -0.322
REMARK SMILES O=c1c(O)c(-c2ccc(O)c(O)c2)oc2cc(O)cc(O)c12
REMARK SMILES IDX 5 1 3 2 2 3 1 4 22 5 20 6 19 7 17 8 16 9 15 10 14 11 6 12
REMARK SMILES IDX 7 13 8 14 9 15 13 16 11 17 10 18 12 20 4 22 21 24 18 26
REMARK H PARENT 10 19 12 21 4 23 21 25 18 27
REMARK Flexibility Score: inf
ROOT
ATOM      1  C   UNL     1     -22.005  56.372   0.265  1.00  0.00     0.180 A 
ATOM      2  C   UNL     1     -22.559  55.206  -0.290  1.00  0.00     0.208 A 
ATOM      3  C   UNL     1     -21.722  54.312  -0.977  1.00  0.00     0.238 A 
ATOM      4  O   UNL     1     -22.215  53.244  -1.423  1.00  0.00    -0.285 OA
ATOM      5  C   UNL     1     -20.343  54.603  -1.114  1.00  0.00     0.111 A 
ATOM      6  C   UNL     1     -19.410  53.789  -1.824  1.00  0.00     0.134 A 
ATOM      7  C   UNL     1     -18.047  54.106  -1.784  1.00  0.00     0.093 A 
ATOM      8  C   UNL     1     -17.592  55.246  -1.115  1.00  0.00     0.123 A 
ATOM      9  C   UNL     1     -18.502  56.079  -0.470  1.00  0.00     0.094 A 
ATOM     10  C   UNL     1     -19.864  55.769  -0.461  1.00  0.00     0.146 A 
ATOM     11  O   UNL     1     -20.696  56.584   0.175  1.00  0.00    -0.452 OA
ENDROOT
BRANCH   1  12
ATOM     12  C   UNL     1     -22.826  57.373   0.981  1.00  0.00     0.025 A 
ATOM     13  C   UNL     1     -23.643  58.249   0.249  1.00  0.00     0.016 A 
ATOM     14  C   UNL     1     -24.443  59.188   0.906  1.00  0.00     0.051 A 
ATOM     15  C   UNL     1     -24.450  59.257   2.302  1.00  0.00     0.157 A 
ATOM     16  C   UNL     1     -22.850  57.431   2.387  1.00  0.00     0.062 A 
ATOM     17  C   UNL     1     -23.654  58.372   3.048  1.00  0.00     0.158 A 
BRANCH  15  18
ATOM     18  O   UNL     1     -25.255  60.206   2.929  1.00  0.00    -0.504 OA
ATOM     19  H   UNL     1     -25.415  61.124   2.532  1.00  0.00     0.293 HD
ENDBRANCH  15  18
BRANCH  17  20
ATOM     20  O   UNL     1     -23.667  58.426   4.441  1.00  0.00    -0.504 OA
ATOM     21  H   UNL     1     -22.999  58.987   4.957  1.00  0.00     0.293 HD
ENDBRANCH  17  20
ENDBRANCH   1  12
BRANCH   2  22
ATOM     22  O   UNL     1     -23.919  54.927  -0.123  1.00  0.00    -0.502 OA
ATOM     23  H   UNL     1     -24.295  53.990  -0.194  1.00  0.00     0.293 HD
ENDBRANCH   2  22
BRANCH   6  24
ATOM     24  O   UNL     1     -19.772  52.682  -2.599  1.00  0.00    -0.507 OA
ATOM     25  H   UNL     1     -19.252  52.344  -3.394  1.00  0.00     0.293 HD
ENDBRANCH   6  24
BRANCH   8  26
ATOM     26  O   UNL     1     -16.235  55.562  -1.094  1.00  0.00    -0.508 OA
ATOM     27  H   UNL     1     -15.880  56.404  -1.534  1.00  0.00     0.293 HD
ENDBRANCH   8  26
TORSDOF 6
ENDMDL
