MODEL 1
REMARK VINA RESULT:    -6.687      0.000      0.000
REMARK INTER + INTRA:         -20.146
REMARK INTER:                 -16.851
REMARK INTRA:                  -3.295
REMARK UNBOUND:                -3.295
REMARK SMILES CCCCCCCCCCCCCCCCCCCCCCCCCCCC(=O)[O-]
REMARK SMILES IDX 15 1 16 2 17 3 18 4 19 5 20 6 21 7 22 8 23 9 24 10 25 11
REMARK SMILES IDX 26 12 27 13 28 14 29 15 30 16 14 17 13 18 12 19 11 20 10 21
REMARK SMILES IDX 9 22 8 23 7 24 6 25 5 26 4 27 3 28 2 29 1 30
REMARK H PARENT
REMARK Flexibility Score: inf
ROOT
ATOM      1  C   UNL     1      92.634  -0.943   6.075  1.00  0.00     0.000 C 
ENDROOT
BRANCH   1   2
ATOM      2  C   UNL     1      92.428  -2.076   7.095  1.00  0.00     0.000 C 
BRANCH   2   3
ATOM      3  C   UNL     1      93.752  -2.641   7.641  1.00  0.00     0.000 C 
BRANCH   3   4
ATOM      4  C   UNL     1      93.637  -3.982   8.391  1.00  0.00     0.000 C 
BRANCH   4   5
ATOM      5  C   UNL     1      93.856  -3.843   9.908  1.00  0.00     0.000 C 
BRANCH   5   6
ATOM      6  C   UNL     1      94.810  -4.910  10.472  1.00  0.00     0.000 C 
BRANCH   6   7
ATOM      7  C   UNL     1      96.164  -4.324  10.907  1.00  0.00     0.000 C 
BRANCH   7   8
ATOM      8  C   UNL     1      96.285  -2.817  10.614  1.00  0.00     0.000 C 
BRANCH   8   9
ATOM      9  C   UNL     1      97.330  -2.441   9.547  1.00  0.00     0.000 C 
BRANCH   9  10
ATOM     10  C   UNL     1      97.382  -3.443   8.384  1.00  0.00     0.000 C 
BRANCH  10  11
ATOM     11  C   UNL     1      97.986  -2.799   7.129  1.00  0.00     0.000 C 
BRANCH  11  12
ATOM     12  C   UNL     1      99.251  -3.546   6.683  1.00  0.00     0.006 C 
BRANCH  12  13
ATOM     13  C   UNL     1      99.326  -4.964   7.265  1.00  0.00     0.053 C 
BRANCH  13  14
ATOM     14  C   UNL     1      99.204  -6.012   6.202  1.00  0.00     0.041 C 
ATOM     15  O   UNL     1      98.557  -5.773   5.148  1.00  0.00    -0.550 OA
ATOM     16  O   UNL     1      99.785  -7.261   6.385  1.00  0.00    -0.550 OA
ENDBRANCH  13  14
ENDBRANCH  12  13
ENDBRANCH  11  12
ENDBRANCH  10  11
ENDBRANCH   9  10
ENDBRANCH   8   9
ENDBRANCH   7   8
ENDBRANCH   6   7
ENDBRANCH   5   6
ENDBRANCH   4   5
ENDBRANCH   3   4
ENDBRANCH   2   3
ENDBRANCH   1   2
BRANCH   1  17
ATOM     17  C   UNL     1      91.380  -0.073   5.893  1.00  0.00     0.000 C 
BRANCH  17  18
ATOM     18  C   UNL     1      90.322  -0.727   4.988  1.00  0.00     0.000 C 
BRANCH  18  19
ATOM     19  C   UNL     1      90.801  -0.765   3.529  1.00  0.00     0.000 C 
BRANCH  19  20
ATOM     20  C   UNL     1      90.120  -1.870   2.706  1.00  0.00     0.000 C 
BRANCH  20  21
ATOM     21  C   UNL     1      88.703  -1.484   2.254  1.00  0.00     0.000 C 
BRANCH  21  22
ATOM     22  C   UNL     1      87.773  -2.707   2.271  1.00  0.00    -0.000 C 
BRANCH  22  23
ATOM     23  C   UNL     1      86.631  -2.576   3.295  1.00  0.00    -0.000 C 
BRANCH  23  24
ATOM     24  C   UNL     1      87.059  -2.087   4.694  1.00  0.00    -0.000 C 
BRANCH  24  25
ATOM     25  C   UNL     1      86.228  -2.639   5.866  1.00  0.00    -0.000 C 
BRANCH  25  26
ATOM     26  C   UNL     1      87.022  -3.608   6.759  1.00  0.00    -0.000 C 
BRANCH  26  27
ATOM     27  C   UNL     1      88.513  -3.659   6.389  1.00  0.00    -0.000 C 
BRANCH  27  28
ATOM     28  C   UNL     1      89.193  -4.963   6.843  1.00  0.00    -0.000 C 
BRANCH  28  29
ATOM     29  C   UNL     1      90.602  -5.126   6.253  1.00  0.00    -0.003 C 
ATOM     30  C   UNL     1      90.623  -4.992   4.730  1.00  0.00     0.004 C 
ENDBRANCH  28  29
ENDBRANCH  27  28
ENDBRANCH  26  27
ENDBRANCH  25  26
ENDBRANCH  24  25
ENDBRANCH  23  24
ENDBRANCH  22  23
ENDBRANCH  21  22
ENDBRANCH  20  21
ENDBRANCH  19  20
ENDBRANCH  18  19
ENDBRANCH  17  18
ENDBRANCH   1  17
TORSDOF 26
ENDMDL
MODEL 2
REMARK VINA RESULT:    -6.619      2.453      9.290
REMARK INTER + INTRA:         -19.974
REMARK INTER:                 -16.860
REMARK INTRA:                  -3.114
REMARK UNBOUND:                -3.295
REMARK SMILES CCCCCCCCCCCCCCCCCCCCCCCCCCCC(=O)[O-]
REMARK SMILES IDX 15 1 16 2 17 3 18 4 19 5 20 6 21 7 22 8 23 9 24 10 25 11
REMARK SMILES IDX 26 12 27 13 28 14 29 15 30 16 14 17 13 18 12 19 11 20 10 21
REMARK SMILES IDX 9 22 8 23 7 24 6 25 5 26 4 27 3 28 2 29 1 30
REMARK H PARENT
REMARK Flexibility Score: inf
ROOT
ATOM      1  C   UNL     1      93.138  -4.485   9.246  1.00  0.00     0.000 C 
ENDROOT
BRANCH   1   2
ATOM      2  C   UNL     1      93.442  -3.853   7.877  1.00  0.00     0.000 C 
BRANCH   2   3
ATOM      3  C   UNL     1      92.947  -2.400   7.761  1.00  0.00     0.000 C 
BRANCH   3   4
ATOM      4  C   UNL     1      93.677  -1.536   6.715  1.00  0.00     0.000 C 
BRANCH   4   5
ATOM      5  C   UNL     1      92.749  -1.042   5.590  1.00  0.00     0.000 C 
BRANCH   5   6
ATOM      6  C   UNL     1      91.501  -0.319   6.124  1.00  0.00     0.000 C 
BRANCH   6   7
ATOM      7  C   UNL     1      90.436  -0.094   5.037  1.00  0.00     0.000 C 
BRANCH   7   8
ATOM      8  C   UNL     1      90.901  -0.549   3.642  1.00  0.00     0.000 C 
BRANCH   8   9
ATOM      9  C   UNL     1      89.876  -1.386   2.853  1.00  0.00     0.000 C 
BRANCH   9  10
ATOM     10  C   UNL     1      89.605  -2.757   3.493  1.00  0.00     0.000 C 
BRANCH  10  11
ATOM     11  C   UNL     1      88.321  -2.728   4.331  1.00  0.00     0.000 C 
BRANCH  11  12
ATOM     12  C   UNL     1      88.533  -3.426   5.683  1.00  0.00     0.006 C 
BRANCH  12  13
ATOM     13  C   UNL     1      90.018  -3.663   5.989  1.00  0.00     0.053 C 
BRANCH  13  14
ATOM     14  C   UNL     1      90.318  -5.115   6.207  1.00  0.00     0.041 C 
ATOM     15  O   UNL     1      90.705  -5.833   5.247  1.00  0.00    -0.550 OA
ATOM     16  O   UNL     1      90.149  -5.680   7.465  1.00  0.00    -0.550 OA
ENDBRANCH  13  14
ENDBRANCH  12  13
ENDBRANCH  11  12
ENDBRANCH  10  11
ENDBRANCH   9  10
ENDBRANCH   8   9
ENDBRANCH   7   8
ENDBRANCH   6   7
ENDBRANCH   5   6
ENDBRANCH   4   5
ENDBRANCH   3   4
ENDBRANCH   2   3
ENDBRANCH   1   2
BRANCH   1  17
ATOM     17  C   UNL     1      94.086  -3.994  10.351  1.00  0.00     0.000 C 
BRANCH  17  18
ATOM     18  C   UNL     1      95.081  -5.072  10.811  1.00  0.00     0.000 C 
BRANCH  18  19
ATOM     19  C   UNL     1      96.494  -4.485  10.952  1.00  0.00     0.000 C 
BRANCH  19  20
ATOM     20  C   UNL     1      96.511  -2.949  10.900  1.00  0.00     0.000 C 
BRANCH  20  21
ATOM     21  C   UNL     1      97.123  -2.407   9.600  1.00  0.00     0.000 C 
BRANCH  21  22
ATOM     22  C   UNL     1      97.224  -3.514   8.540  1.00  0.00    -0.000 C 
BRANCH  22  23
ATOM     23  C   UNL     1      97.352  -2.962   7.108  1.00  0.00    -0.000 C 
BRANCH  23  24
ATOM     24  C   UNL     1      98.786  -2.939   6.541  1.00  0.00    -0.000 C 
BRANCH  24  25
ATOM     25  C   UNL     1      99.145  -4.112   5.611  1.00  0.00    -0.000 C 
BRANCH  25  26
ATOM     26  C   UNL     1      99.675  -5.339   6.373  1.00  0.00    -0.000 C 
BRANCH  26  27
ATOM     27  C   UNL     1      98.916  -6.627   6.013  1.00  0.00    -0.000 C 
BRANCH  27  28
ATOM     28  C   UNL     1      99.701  -7.899   6.380  1.00  0.00    -0.000 C 
BRANCH  28  29
ATOM     29  C   UNL     1      98.969  -9.182   5.955  1.00  0.00    -0.003 C 
ATOM     30  C   UNL     1      97.461  -8.981   5.812  1.00  0.00     0.004 C 
ENDBRANCH  28  29
ENDBRANCH  27  28
ENDBRANCH  26  27
ENDBRANCH  25  26
ENDBRANCH  24  25
ENDBRANCH  23  24
ENDBRANCH  22  23
ENDBRANCH  21  22
ENDBRANCH  20  21
ENDBRANCH  19  20
ENDBRANCH  18  19
ENDBRANCH  17  18
ENDBRANCH   1  17
TORSDOF 26
ENDMDL
MODEL 3
REMARK VINA RESULT:    -6.616      1.595      4.037
REMARK INTER + INTRA:         -19.968
REMARK INTER:                 -16.787
REMARK INTRA:                  -3.181
REMARK UNBOUND:                -3.295
REMARK SMILES CCCCCCCCCCCCCCCCCCCCCCCCCCCC(=O)[O-]
REMARK SMILES IDX 15 1 16 2 17 3 18 4 19 5 20 6 21 7 22 8 23 9 24 10 25 11
REMARK SMILES IDX 26 12 27 13 28 14 29 15 30 16 14 17 13 18 12 19 11 20 10 21
REMARK SMILES IDX 9 22 8 23 7 24 6 25 5 26 4 27 3 28 2 29 1 30
REMARK H PARENT
REMARK Flexibility Score: inf
ROOT
ATOM      1  C   UNL     1      93.837  -4.801   9.782  1.00  0.00     0.000 C 
ENDROOT
BRANCH   1   2
ATOM      2  C   UNL     1      95.195  -4.774  10.504  1.00  0.00     0.000 C 
BRANCH   2   3
ATOM      3  C   UNL     1      95.605  -3.362  10.961  1.00  0.00     0.000 C 
BRANCH   3   4
ATOM      4  C   UNL     1      96.772  -2.728  10.180  1.00  0.00     0.000 C 
BRANCH   4   5
ATOM      5  C   UNL     1      97.224  -3.579   8.979  1.00  0.00     0.000 C 
BRANCH   5   6
ATOM      6  C   UNL     1      96.741  -3.011   7.633  1.00  0.00     0.000 C 
BRANCH   6   7
ATOM      7  C   UNL     1      97.871  -2.342   6.832  1.00  0.00     0.000 C 
BRANCH   7   8
ATOM      8  C   UNL     1      99.222  -3.065   6.986  1.00  0.00     0.000 C 
BRANCH   8   9
ATOM      9  C   UNL     1      99.440  -4.252   6.029  1.00  0.00     0.000 C 
BRANCH   9  10
ATOM     10  C   UNL     1      99.529  -5.601   6.760  1.00  0.00     0.000 C 
BRANCH  10  11
ATOM     11  C   UNL     1      99.121  -6.755   5.837  1.00  0.00     0.000 C 
BRANCH  11  12
ATOM     12  C   UNL     1      97.593  -6.838   5.702  1.00  0.00     0.006 C 
BRANCH  12  13
ATOM     13  C   UNL     1      97.123  -8.228   5.253  1.00  0.00     0.053 C 
BRANCH  13  14
ATOM     14  C   UNL     1      96.961  -8.309   3.766  1.00  0.00     0.041 C 
ATOM     15  O   UNL     1      97.692  -9.080   3.090  1.00  0.00    -0.550 OA
ATOM     16  O   UNL     1      96.017  -7.516   3.124  1.00  0.00    -0.550 OA
ENDBRANCH  13  14
ENDBRANCH  12  13
ENDBRANCH  11  12
ENDBRANCH  10  11
ENDBRANCH   9  10
ENDBRANCH   8   9
ENDBRANCH   7   8
ENDBRANCH   6   7
ENDBRANCH   5   6
ENDBRANCH   4   5
ENDBRANCH   3   4
ENDBRANCH   2   3
ENDBRANCH   1   2
BRANCH   1  17
ATOM     17  C   UNL     1      93.377  -3.407   9.330  1.00  0.00     0.000 C 
BRANCH  17  18
ATOM     18  C   UNL     1      93.210  -3.295   7.805  1.00  0.00     0.000 C 
BRANCH  18  19
ATOM     19  C   UNL     1      92.143  -2.248   7.448  1.00  0.00     0.000 C 
BRANCH  19  20
ATOM     20  C   UNL     1      92.425  -1.540   6.114  1.00  0.00     0.000 C 
BRANCH  20  21
ATOM     21  C   UNL     1      91.787  -0.144   6.038  1.00  0.00     0.000 C 
BRANCH  21  22
ATOM     22  C   UNL     1      90.635  -0.125   5.023  1.00  0.00    -0.000 C 
BRANCH  22  23
ATOM     23  C   UNL     1      91.021  -0.745   3.667  1.00  0.00    -0.000 C 
BRANCH  23  24
ATOM     24  C   UNL     1      90.035  -1.799   3.124  1.00  0.00    -0.000 C 
BRANCH  24  25
ATOM     25  C   UNL     1      88.647  -1.804   3.789  1.00  0.00    -0.000 C 
BRANCH  25  26
ATOM     26  C   UNL     1      88.348  -3.114   4.539  1.00  0.00    -0.000 C 
BRANCH  26  27
ATOM     27  C   UNL     1      89.012  -3.162   5.925  1.00  0.00    -0.000 C 
BRANCH  27  28
ATOM     28  C   UNL     1      88.923  -4.554   6.577  1.00  0.00    -0.000 C 
BRANCH  28  29
ATOM     29  C   UNL     1      90.281  -5.271   6.614  1.00  0.00    -0.003 C 
ATOM     30  C   UNL     1      90.894  -5.447   5.225  1.00  0.00     0.004 C 
ENDBRANCH  28  29
ENDBRANCH  27  28
ENDBRANCH  26  27
ENDBRANCH  25  26
ENDBRANCH  24  25
ENDBRANCH  23  24
ENDBRANCH  22  23
ENDBRANCH  21  22
ENDBRANCH  20  21
ENDBRANCH  19  20
ENDBRANCH  18  19
ENDBRANCH  17  18
ENDBRANCH   1  17
TORSDOF 26
ENDMDL
MODEL 4
REMARK VINA RESULT:    -6.594      3.692      6.234
REMARK INTER + INTRA:         -19.913
REMARK INTER:                 -17.698
REMARK INTRA:                  -2.215
REMARK UNBOUND:                -3.295
REMARK SMILES CCCCCCCCCCCCCCCCCCCCCCCCCCCC(=O)[O-]
REMARK SMILES IDX 15 1 16 2 17 3 18 4 19 5 20 6 21 7 22 8 23 9 24 10 25 11
REMARK SMILES IDX 26 12 27 13 28 14 29 15 30 16 14 17 13 18 12 19 11 20 10 21
REMARK SMILES IDX 9 22 8 23 7 24 6 25 5 26 4 27 3 28 2 29 1 30
REMARK H PARENT
REMARK Flexibility Score: inf
ROOT
ATOM      1  C   UNL     1      88.888  -3.004   3.963  1.00  0.00     0.000 C 
ENDROOT
BRANCH   1   2
ATOM      2  C   UNL     1      89.220  -3.376   5.418  1.00  0.00     0.000 C 
BRANCH   2   3
ATOM      3  C   UNL     1      90.388  -4.372   5.533  1.00  0.00     0.000 C 
BRANCH   3   4
ATOM      4  C   UNL     1      91.360  -4.118   6.700  1.00  0.00     0.000 C 
BRANCH   4   5
ATOM      5  C   UNL     1      91.790  -2.644   6.815  1.00  0.00     0.000 C 
BRANCH   5   6
ATOM      6  C   UNL     1      93.177  -2.478   7.459  1.00  0.00     0.000 C 
BRANCH   6   7
ATOM      7  C   UNL     1      93.683  -3.772   8.120  1.00  0.00     0.000 C 
BRANCH   7   8
ATOM      8  C   UNL     1      93.445  -3.798   9.641  1.00  0.00     0.000 C 
BRANCH   8   9
ATOM      9  C   UNL     1      94.538  -4.509  10.460  1.00  0.00     0.000 C 
BRANCH   9  10
ATOM     10  C   UNL     1      95.462  -3.530  11.200  1.00  0.00     0.000 C 
BRANCH  10  11
ATOM     11  C   UNL     1      96.914  -3.680  10.728  1.00  0.00     0.000 C 
BRANCH  11  12
ATOM     12  C   UNL     1      97.116  -3.019   9.356  1.00  0.00     0.006 C 
BRANCH  12  13
ATOM     13  C   UNL     1      97.787  -3.963   8.349  1.00  0.00     0.053 C 
BRANCH  13  14
ATOM     14  C   UNL     1      97.681  -3.451   6.946  1.00  0.00     0.041 C 
ATOM     15  O   UNL     1      98.275  -4.044   6.007  1.00  0.00    -0.550 OA
ATOM     16  O   UNL     1      96.945  -2.303   6.678  1.00  0.00    -0.550 OA
ENDBRANCH  13  14
ENDBRANCH  12  13
ENDBRANCH  11  12
ENDBRANCH  10  11
ENDBRANCH   9  10
ENDBRANCH   8   9
ENDBRANCH   7   8
ENDBRANCH   6   7
ENDBRANCH   5   6
ENDBRANCH   4   5
ENDBRANCH   3   4
ENDBRANCH   2   3
ENDBRANCH   1   2
BRANCH   1  17
ATOM     17  C   UNL     1      87.413  -2.617   3.771  1.00  0.00     0.000 C 
BRANCH  17  18
ATOM     18  C   UNL     1      86.976  -2.630   2.297  1.00  0.00     0.000 C 
BRANCH  18  19
ATOM     19  C   UNL     1      85.515  -2.177   2.156  1.00  0.00     0.000 C 
BRANCH  19  20
ATOM     20  C   UNL     1      84.625  -2.670   3.309  1.00  0.00     0.000 C 
BRANCH  20  21
ATOM     21  C   UNL     1      83.630  -3.754   2.867  1.00  0.00     0.000 C 
BRANCH  21  22
ATOM     22  C   UNL     1      82.199  -3.386   3.287  1.00  0.00    -0.000 C 
BRANCH  22  23
ATOM     23  C   UNL     1      81.187  -3.505   2.132  1.00  0.00    -0.000 C 
BRANCH  23  24
ATOM     24  C   UNL     1      81.798  -3.439   0.717  1.00  0.00    -0.000 C 
BRANCH  24  25
ATOM     25  C   UNL     1      81.566  -2.118  -0.038  1.00  0.00    -0.000 C 
BRANCH  25  26
ATOM     26  C   UNL     1      81.854  -0.877   0.824  1.00  0.00    -0.000 C 
BRANCH  26  27
ATOM     27  C   UNL     1      83.100  -0.110   0.351  1.00  0.00    -0.000 C 
BRANCH  27  28
ATOM     28  C   UNL     1      82.757   1.268  -0.245  1.00  0.00    -0.000 C 
BRANCH  28  29
ATOM     29  C   UNL     1      81.449   1.842   0.321  1.00  0.00    -0.003 C 
ATOM     30  C   UNL     1      80.607   2.550  -0.739  1.00  0.00     0.004 C 
ENDBRANCH  28  29
ENDBRANCH  27  28
ENDBRANCH  26  27
ENDBRANCH  25  26
ENDBRANCH  24  25
ENDBRANCH  23  24
ENDBRANCH  22  23
ENDBRANCH  21  22
ENDBRANCH  20  21
ENDBRANCH  19  20
ENDBRANCH  18  19
ENDBRANCH  17  18
ENDBRANCH   1  17
TORSDOF 26
ENDMDL
MODEL 5
REMARK VINA RESULT:    -6.581      7.185     13.462
REMARK INTER + INTRA:         -19.880
REMARK INTER:                 -16.673
REMARK INTRA:                  -3.207
REMARK UNBOUND:                -3.295
REMARK SMILES CCCCCCCCCCCCCCCCCCCCCCCCCCCC(=O)[O-]
REMARK SMILES IDX 15 1 16 2 17 3 18 4 19 5 20 6 21 7 22 8 23 9 24 10 25 11
REMARK SMILES IDX 26 12 27 13 28 14 29 15 30 16 14 17 13 18 12 19 11 20 10 21
REMARK SMILES IDX 9 22 8 23 7 24 6 25 5 26 4 27 3 28 2 29 1 30
REMARK H PARENT
REMARK Flexibility Score: inf
ROOT
ATOM      1  C   UNL     1      81.000  -3.469   0.940  1.00  0.00     0.000 C 
ENDROOT
BRANCH   1   2
ATOM      2  C   UNL     1      80.971  -1.941   1.116  1.00  0.00     0.000 C 
BRANCH   2   3
ATOM      3  C   UNL     1      82.016  -1.216   0.249  1.00  0.00     0.000 C 
BRANCH   3   4
ATOM      4  C   UNL     1      82.601   0.072   0.859  1.00  0.00     0.000 C 
BRANCH   4   5
ATOM      5  C   UNL     1      82.903   1.153  -0.195  1.00  0.00     0.000 C 
BRANCH   5   6
ATOM      6  C   UNL     1      82.164   2.474   0.080  1.00  0.00     0.000 C 
BRANCH   6   7
ATOM      7  C   UNL     1      80.653   2.276   0.288  1.00  0.00     0.000 C 
BRANCH   7   8
ATOM      8  C   UNL     1      80.196   2.617   1.718  1.00  0.00     0.000 C 
BRANCH   8   9
ATOM      9  C   UNL     1      81.304   3.143   2.649  1.00  0.00     0.000 C 
BRANCH   9  10
ATOM     10  C   UNL     1      81.543   2.236   3.866  1.00  0.00     0.000 C 
BRANCH  10  11
ATOM     11  C   UNL     1      80.503   2.502   4.962  1.00  0.00     0.000 C 
BRANCH  11  12
ATOM     12  C   UNL     1      80.533   3.973   5.403  1.00  0.00     0.006 C 
BRANCH  12  13
ATOM     13  C   UNL     1      81.116   4.147   6.811  1.00  0.00     0.053 C 
BRANCH  13  14
ATOM     14  C   UNL     1      82.502   4.717   6.777  1.00  0.00     0.041 C 
ATOM     15  O   UNL     1      82.765   5.781   7.397  1.00  0.00    -0.550 OA
ATOM     16  O   UNL     1      83.496   4.085   6.040  1.00  0.00    -0.550 OA
ENDBRANCH  13  14
ENDBRANCH  12  13
ENDBRANCH  11  12
ENDBRANCH  10  11
ENDBRANCH   9  10
ENDBRANCH   8   9
ENDBRANCH   7   8
ENDBRANCH   6   7
ENDBRANCH   5   6
ENDBRANCH   4   5
ENDBRANCH   3   4
ENDBRANCH   2   3
ENDBRANCH   1   2
BRANCH   1  17
ATOM     17  C   UNL     1      82.075  -4.146   1.804  1.00  0.00     0.000 C 
BRANCH  17  18
ATOM     18  C   UNL     1      82.242  -3.485   3.182  1.00  0.00     0.000 C 
BRANCH  18  19
ATOM     19  C   UNL     1      83.727  -3.389   3.565  1.00  0.00     0.000 C 
BRANCH  19  20
ATOM     20  C   UNL     1      84.495  -2.359   2.721  1.00  0.00     0.000 C 
BRANCH  20  21
ATOM     21  C   UNL     1      85.997  -2.668   2.631  1.00  0.00     0.000 C 
BRANCH  21  22
ATOM     22  C   UNL     1      86.685  -1.742   1.617  1.00  0.00    -0.000 C 
BRANCH  22  23
ATOM     23  C   UNL     1      88.145  -2.143   1.336  1.00  0.00    -0.000 C 
BRANCH  23  24
ATOM     24  C   UNL     1      88.919  -2.693   2.552  1.00  0.00    -0.000 C 
BRANCH  24  25
ATOM     25  C   UNL     1      89.684  -1.640   3.375  1.00  0.00    -0.000 C 
BRANCH  25  26
ATOM     26  C   UNL     1      90.330  -2.226   4.642  1.00  0.00    -0.000 C 
BRANCH  26  27
ATOM     27  C   UNL     1      89.411  -2.127   5.870  1.00  0.00    -0.000 C 
BRANCH  27  28
ATOM     28  C   UNL     1      88.512  -3.365   6.040  1.00  0.00    -0.000 C 
BRANCH  28  29
ATOM     29  C   UNL     1      87.021  -3.001   6.109  1.00  0.00    -0.003 C 
ATOM     30  C   UNL     1      86.776  -1.495   6.022  1.00  0.00     0.004 C 
ENDBRANCH  28  29
ENDBRANCH  27  28
ENDBRANCH  26  27
ENDBRANCH  25  26
ENDBRANCH  24  25
ENDBRANCH  23  24
ENDBRANCH  22  23
ENDBRANCH  21  22
ENDBRANCH  20  21
ENDBRANCH  19  20
ENDBRANCH  18  19
ENDBRANCH  17  18
ENDBRANCH   1  17
TORSDOF 26
ENDMDL
MODEL 6
REMARK VINA RESULT:    -6.574      5.503     12.372
REMARK INTER + INTRA:         -19.862
REMARK INTER:                 -17.180
REMARK INTRA:                  -2.683
REMARK UNBOUND:                -3.295
REMARK SMILES CCCCCCCCCCCCCCCCCCCCCCCCCCCC(=O)[O-]
REMARK SMILES IDX 15 1 16 2 17 3 18 4 19 5 20 6 21 7 22 8 23 9 24 10 25 11
REMARK SMILES IDX 26 12 27 13 28 14 29 15 30 16 14 17 13 18 12 19 11 20 10 21
REMARK SMILES IDX 9 22 8 23 7 24 6 25 5 26 4 27 3 28 2 29 1 30
REMARK H PARENT
REMARK Flexibility Score: inf
ROOT
ATOM      1  C   UNL     1      88.949  -3.324   5.860  1.00  0.00     0.000 C 
ENDROOT
BRANCH   1   2
ATOM      2  C   UNL     1      88.306  -2.016   5.369  1.00  0.00     0.000 C 
BRANCH   2   3
ATOM      3  C   UNL     1      86.861  -1.832   5.869  1.00  0.00     0.000 C 
BRANCH   3   4
ATOM      4  C   UNL     1      85.792  -2.638   5.108  1.00  0.00     0.000 C 
BRANCH   4   5
ATOM      5  C   UNL     1      85.975  -2.588   3.580  1.00  0.00     0.000 C 
BRANCH   5   6
ATOM      6  C   UNL     1      84.686  -2.937   2.816  1.00  0.00     0.000 C 
BRANCH   6   7
ATOM      7  C   UNL     1      83.537  -3.355   3.749  1.00  0.00     0.000 C 
BRANCH   7   8
ATOM      8  C   UNL     1      82.164  -3.334   3.053  1.00  0.00     0.000 C 
BRANCH   8   9
ATOM      9  C   UNL     1      82.063  -4.197   1.782  1.00  0.00     0.000 C 
BRANCH   9  10
ATOM     10  C   UNL     1      81.211  -3.545   0.682  1.00  0.00     0.000 C 
BRANCH  10  11
ATOM     11  C   UNL     1      81.152  -2.023   0.862  1.00  0.00     0.000 C 
BRANCH  11  12
ATOM     12  C   UNL     1      82.142  -1.320  -0.078  1.00  0.00     0.006 C 
BRANCH  12  13
ATOM     13  C   UNL     1      83.150  -0.449   0.684  1.00  0.00     0.053 C 
BRANCH  13  14
ATOM     14  C   UNL     1      82.521   0.807   1.205  1.00  0.00     0.041 C 
ATOM     15  O   UNL     1      82.186   0.892   2.416  1.00  0.00    -0.550 OA
ATOM     16  O   UNL     1      82.285   1.875   0.349  1.00  0.00    -0.550 OA
ENDBRANCH  13  14
ENDBRANCH  12  13
ENDBRANCH  11  12
ENDBRANCH  10  11
ENDBRANCH   9  10
ENDBRANCH   8   9
ENDBRANCH   7   8
ENDBRANCH   6   7
ENDBRANCH   5   6
ENDBRANCH   4   5
ENDBRANCH   3   4
ENDBRANCH   2   3
ENDBRANCH   1   2
BRANCH   1  17
ATOM     17  C   UNL     1      90.383  -3.512   5.341  1.00  0.00     0.000 C 
BRANCH  17  18
ATOM     18  C   UNL     1      91.408  -3.716   6.469  1.00  0.00     0.000 C 
BRANCH  18  19
ATOM     19  C   UNL     1      92.155  -2.408   6.770  1.00  0.00     0.000 C 
BRANCH  19  20
ATOM     20  C   UNL     1      93.417  -2.624   7.620  1.00  0.00     0.000 C 
BRANCH  20  21
ATOM     21  C   UNL     1      93.403  -3.964   8.371  1.00  0.00     0.000 C 
BRANCH  21  22
ATOM     22  C   UNL     1      93.750  -3.762   9.854  1.00  0.00    -0.000 C 
BRANCH  22  23
ATOM     23  C   UNL     1      94.519  -4.953  10.457  1.00  0.00    -0.000 C 
BRANCH  23  24
ATOM     24  C   UNL     1      95.948  -4.632  10.942  1.00  0.00    -0.000 C 
BRANCH  24  25
ATOM     25  C   UNL     1      96.175  -3.181  11.404  1.00  0.00    -0.000 C 
BRANCH  25  26
ATOM     26  C   UNL     1      96.982  -2.351  10.391  1.00  0.00    -0.000 C 
BRANCH  26  27
ATOM     27  C   UNL     1      97.534  -3.205   9.238  1.00  0.00    -0.000 C 
BRANCH  27  28
ATOM     28  C   UNL     1      97.468  -2.483   7.880  1.00  0.00    -0.000 C 
BRANCH  28  29
ATOM     29  C   UNL     1      97.453  -3.462   6.696  1.00  0.00    -0.003 C 
ATOM     30  C   UNL     1      96.988  -4.862   7.093  1.00  0.00     0.004 C 
ENDBRANCH  28  29
ENDBRANCH  27  28
ENDBRANCH  26  27
ENDBRANCH  25  26
ENDBRANCH  24  25
ENDBRANCH  23  24
ENDBRANCH  22  23
ENDBRANCH  21  22
ENDBRANCH  20  21
ENDBRANCH  19  20
ENDBRANCH  18  19
ENDBRANCH  17  18
ENDBRANCH   1  17
TORSDOF 26
ENDMDL
MODEL 7
REMARK VINA RESULT:    -6.571      2.917      9.822
REMARK INTER + INTRA:         -19.855
REMARK INTER:                 -17.020
REMARK INTRA:                  -2.835
REMARK UNBOUND:                -3.295
REMARK SMILES CCCCCCCCCCCCCCCCCCCCCCCCCCCC(=O)[O-]
REMARK SMILES IDX 15 1 16 2 17 3 18 4 19 5 20 6 21 7 22 8 23 9 24 10 25 11
REMARK SMILES IDX 26 12 27 13 28 14 29 15 30 16 14 17 13 18 12 19 11 20 10 21
REMARK SMILES IDX 9 22 8 23 7 24 6 25 5 26 4 27 3 28 2 29 1 30
REMARK H PARENT
REMARK Flexibility Score: inf
ROOT
ATOM      1  C   UNL     1      92.618  -2.594   7.235  1.00  0.00     0.000 C 
ENDROOT
BRANCH   1   2
ATOM      2  C   UNL     1      91.317  -3.087   6.578  1.00  0.00     0.000 C 
BRANCH   2   3
ATOM      3  C   UNL     1      91.080  -4.595   6.769  1.00  0.00     0.000 C 
BRANCH   3   4
ATOM      4  C   UNL     1      89.608  -5.045   6.705  1.00  0.00     0.000 C 
BRANCH   4   5
ATOM      5  C   UNL     1      88.638  -3.888   6.406  1.00  0.00     0.000 C 
BRANCH   5   6
ATOM      6  C   UNL     1      87.267  -4.073   7.079  1.00  0.00     0.000 C 
BRANCH   6   7
ATOM      7  C   UNL     1      86.264  -2.973   6.692  1.00  0.00     0.000 C 
BRANCH   7   8
ATOM      8  C   UNL     1      86.745  -2.115   5.508  1.00  0.00     0.000 C 
BRANCH   8   9
ATOM      9  C   UNL     1      85.989  -2.342   4.186  1.00  0.00     0.000 C 
BRANCH   9  10
ATOM     10  C   UNL     1      86.875  -2.951   3.088  1.00  0.00     0.000 C 
BRANCH  10  11
ATOM     11  C   UNL     1      86.850  -2.088   1.820  1.00  0.00     0.000 C 
BRANCH  11  12
ATOM     12  C   UNL     1      88.213  -1.421   1.582  1.00  0.00     0.006 C 
BRANCH  12  13
ATOM     13  C   UNL     1      89.347  -2.130   2.334  1.00  0.00     0.053 C 
BRANCH  13  14
ATOM     14  C   UNL     1      90.159  -1.174   3.153  1.00  0.00     0.041 C 
ATOM     15  O   UNL     1      89.830  -0.919   4.342  1.00  0.00    -0.550 OA
ATOM     16  O   UNL     1      91.265  -0.545   2.595  1.00  0.00    -0.550 OA
ENDBRANCH  13  14
ENDBRANCH  12  13
ENDBRANCH  11  12
ENDBRANCH  10  11
ENDBRANCH   9  10
ENDBRANCH   8   9
ENDBRANCH   7   8
ENDBRANCH   6   7
ENDBRANCH   5   6
ENDBRANCH   4   5
ENDBRANCH   3   4
ENDBRANCH   2   3
ENDBRANCH   1   2
BRANCH   1  17
ATOM     17  C   UNL     1      93.396  -3.722   7.931  1.00  0.00     0.000 C 
BRANCH  17  18
ATOM     18  C   UNL     1      93.468  -3.549   9.457  1.00  0.00     0.000 C 
BRANCH  18  19
ATOM     19  C   UNL     1      93.918  -4.853  10.133  1.00  0.00     0.000 C 
BRANCH  19  20
ATOM     20  C   UNL     1      95.399  -4.831  10.545  1.00  0.00     0.000 C 
BRANCH  20  21
ATOM     21  C   UNL     1      95.848  -3.459  11.068  1.00  0.00     0.000 C 
BRANCH  21  22
ATOM     22  C   UNL     1      96.898  -2.836  10.135  1.00  0.00    -0.000 C 
BRANCH  22  23
ATOM     23  C   UNL     1      97.294  -3.767   8.974  1.00  0.00    -0.000 C 
BRANCH  23  24
ATOM     24  C   UNL     1      97.004  -3.214   7.563  1.00  0.00    -0.000 C 
BRANCH  24  25
ATOM     25  C   UNL     1      98.126  -2.359   6.948  1.00  0.00    -0.000 C 
BRANCH  25  26
ATOM     26  C   UNL     1      99.476  -3.095   6.892  1.00  0.00    -0.000 C 
BRANCH  26  27
ATOM     27  C   UNL     1      99.424  -4.351   6.005  1.00  0.00    -0.000 C 
BRANCH  27  28
ATOM     28  C   UNL     1      99.926  -5.611   6.732  1.00  0.00    -0.000 C 
BRANCH  28  29
ATOM     29  C   UNL     1      99.285  -6.896   6.187  1.00  0.00    -0.003 C 
ATOM     30  C   UNL     1      98.081  -6.620   5.287  1.00  0.00     0.004 C 
ENDBRANCH  28  29
ENDBRANCH  27  28
ENDBRANCH  26  27
ENDBRANCH  25  26
ENDBRANCH  24  25
ENDBRANCH  23  24
ENDBRANCH  22  23
ENDBRANCH  21  22
ENDBRANCH  20  21
ENDBRANCH  19  20
ENDBRANCH  18  19
ENDBRANCH  17  18
ENDBRANCH   1  17
TORSDOF 26
ENDMDL
MODEL 8
REMARK VINA RESULT:    -6.466      2.373      4.184
REMARK INTER + INTRA:         -19.590
REMARK INTER:                 -17.737
REMARK INTRA:                  -1.853
REMARK UNBOUND:                -3.295
REMARK SMILES CCCCCCCCCCCCCCCCCCCCCCCCCCCC(=O)[O-]
REMARK SMILES IDX 15 1 16 2 17 3 18 4 19 5 20 6 21 7 22 8 23 9 24 10 25 11
REMARK SMILES IDX 26 12 27 13 28 14 29 15 30 16 14 17 13 18 12 19 11 20 10 21
REMARK SMILES IDX 9 22 8 23 7 24 6 25 5 26 4 27 3 28 2 29 1 30
REMARK H PARENT
REMARK Flexibility Score: inf
ROOT
ATOM      1  C   UNL     1      92.281  -2.477   7.210  1.00  0.00     0.000 C 
ENDROOT
BRANCH   1   2
ATOM      2  C   UNL     1      93.578  -2.964   7.879  1.00  0.00     0.000 C 
BRANCH   2   3
ATOM      3  C   UNL     1      93.329  -4.009   8.982  1.00  0.00     0.000 C 
BRANCH   3   4
ATOM      4  C   UNL     1      94.107  -3.783  10.293  1.00  0.00     0.000 C 
BRANCH   4   5
ATOM      5  C   UNL     1      95.341  -4.693  10.425  1.00  0.00     0.000 C 
BRANCH   5   6
ATOM      6  C   UNL     1      96.618  -3.915  10.785  1.00  0.00     0.000 C 
BRANCH   6   7
ATOM      7  C   UNL     1      97.049  -2.938   9.677  1.00  0.00     0.000 C 
BRANCH   7   8
ATOM      8  C   UNL     1      97.317  -3.639   8.333  1.00  0.00     0.000 C 
BRANCH   8   9
ATOM      9  C   UNL     1      98.014  -2.769   7.271  1.00  0.00     0.000 C 
BRANCH   9  10
ATOM     10  C   UNL     1      98.914  -3.583   6.328  1.00  0.00     0.000 C 
BRANCH  10  11
ATOM     11  C   UNL     1      99.638  -4.701   7.089  1.00  0.00     0.000 C 
BRANCH  11  12
ATOM     12  C   UNL     1      99.388  -6.066   6.428  1.00  0.00     0.006 C 
BRANCH  12  13
ATOM     13  C   UNL     1      98.330  -5.990   5.319  1.00  0.00     0.053 C 
BRANCH  13  14
ATOM     14  C   UNL     1      97.630  -7.300   5.125  1.00  0.00     0.041 C 
ATOM     15  O   UNL     1      97.876  -8.270   5.889  1.00  0.00    -0.550 OA
ATOM     16  O   UNL     1      96.722  -7.457   4.084  1.00  0.00    -0.550 OA
ENDBRANCH  13  14
ENDBRANCH  12  13
ENDBRANCH  11  12
ENDBRANCH  10  11
ENDBRANCH   9  10
ENDBRANCH   8   9
ENDBRANCH   7   8
ENDBRANCH   6   7
ENDBRANCH   5   6
ENDBRANCH   4   5
ENDBRANCH   3   4
ENDBRANCH   2   3
ENDBRANCH   1   2
BRANCH   1  17
ATOM     17  C   UNL     1      92.488  -1.210   6.366  1.00  0.00     0.000 C 
BRANCH  17  18
ATOM     18  C   UNL     1      91.167  -0.543   5.950  1.00  0.00     0.000 C 
BRANCH  18  19
ATOM     19  C   UNL     1      90.104  -1.599   5.614  1.00  0.00     0.000 C 
BRANCH  19  20
ATOM     20  C   UNL     1      90.139  -2.033   4.140  1.00  0.00     0.000 C 
BRANCH  20  21
ATOM     21  C   UNL     1      88.894  -2.833   3.728  1.00  0.00     0.000 C 
BRANCH  21  22
ATOM     22  C   UNL     1      88.661  -2.739   2.212  1.00  0.00    -0.000 C 
BRANCH  22  23
ATOM     23  C   UNL     1      87.215  -2.349   1.852  1.00  0.00    -0.000 C 
BRANCH  23  24
ATOM     24  C   UNL     1      86.188  -2.520   2.990  1.00  0.00    -0.000 C 
BRANCH  24  25
ATOM     25  C   UNL     1      84.715  -2.362   2.575  1.00  0.00    -0.000 C 
BRANCH  25  26
ATOM     26  C   UNL     1      83.802  -3.440   3.185  1.00  0.00    -0.000 C 
BRANCH  26  27
ATOM     27  C   UNL     1      82.741  -3.942   2.192  1.00  0.00    -0.000 C 
BRANCH  27  28
ATOM     28  C   UNL     1      81.357  -3.313   2.435  1.00  0.00    -0.000 C 
BRANCH  28  29
ATOM     29  C   UNL     1      80.624  -2.986   1.125  1.00  0.00    -0.003 C 
ATOM     30  C   UNL     1      81.570  -2.880  -0.071  1.00  0.00     0.004 C 
ENDBRANCH  28  29
ENDBRANCH  27  28
ENDBRANCH  26  27
ENDBRANCH  25  26
ENDBRANCH  24  25
ENDBRANCH  23  24
ENDBRANCH  22  23
ENDBRANCH  21  22
ENDBRANCH  20  21
ENDBRANCH  19  20
ENDBRANCH  18  19
ENDBRANCH  17  18
ENDBRANCH   1  17
TORSDOF 26
ENDMDL
MODEL 9
REMARK VINA RESULT:    -6.434      4.824     11.263
REMARK INTER + INTRA:         -19.509
REMARK INTER:                 -16.858
REMARK INTRA:                  -2.651
REMARK UNBOUND:                -3.295
REMARK SMILES CCCCCCCCCCCCCCCCCCCCCCCCCCCC(=O)[O-]
REMARK SMILES IDX 15 1 16 2 17 3 18 4 19 5 20 6 21 7 22 8 23 9 24 10 25 11
REMARK SMILES IDX 26 12 27 13 28 14 29 15 30 16 14 17 13 18 12 19 11 20 10 21
REMARK SMILES IDX 9 22 8 23 7 24 6 25 5 26 4 27 3 28 2 29 1 30
REMARK H PARENT
REMARK Flexibility Score: inf
ROOT
ATOM      1  C   UNL     1      91.257  -0.636   5.365  1.00  0.00     0.000 C 
ENDROOT
BRANCH   1   2
ATOM      2  C   UNL     1      89.842  -0.689   5.965  1.00  0.00     0.000 C 
BRANCH   2   3
ATOM      3  C   UNL     1      88.856  -1.506   5.111  1.00  0.00     0.000 C 
BRANCH   3   4
ATOM      4  C   UNL     1      88.968  -3.036   5.255  1.00  0.00     0.000 C 
BRANCH   4   5
ATOM      5  C   UNL     1      89.621  -3.709   4.035  1.00  0.00     0.000 C 
BRANCH   5   6
ATOM      6  C   UNL     1      89.915  -2.718   2.896  1.00  0.00     0.000 C 
BRANCH   6   7
ATOM      7  C   UNL     1      88.969  -2.895   1.696  1.00  0.00     0.000 C 
BRANCH   7   8
ATOM      8  C   UNL     1      88.089  -1.657   1.442  1.00  0.00     0.000 C 
BRANCH   8   9
ATOM      9  C   UNL     1      86.573  -1.901   1.546  1.00  0.00     0.000 C 
BRANCH   9  10
ATOM     10  C   UNL     1      86.188  -2.766   2.756  1.00  0.00     0.000 C 
BRANCH  10  11
ATOM     11  C   UNL     1      84.754  -2.471   3.210  1.00  0.00     0.000 C 
BRANCH  11  12
ATOM     12  C   UNL     1      83.872  -2.069   2.018  1.00  0.00     0.006 C 
BRANCH  12  13
ATOM     13  C   UNL     1      82.375  -2.178   2.339  1.00  0.00     0.053 C 
BRANCH  13  14
ATOM     14  C   UNL     1      81.774  -3.431   1.779  1.00  0.00     0.041 C 
ATOM     15  O   UNL     1      82.379  -4.530   1.891  1.00  0.00    -0.550 OA
ATOM     16  O   UNL     1      80.556  -3.381   1.111  1.00  0.00    -0.550 OA
ENDBRANCH  13  14
ENDBRANCH  12  13
ENDBRANCH  11  12
ENDBRANCH  10  11
ENDBRANCH   9  10
ENDBRANCH   8   9
ENDBRANCH   7   8
ENDBRANCH   6   7
ENDBRANCH   5   6
ENDBRANCH   4   5
ENDBRANCH   3   4
ENDBRANCH   2   3
ENDBRANCH   1   2
BRANCH   1  17
ATOM     17  C   UNL     1      92.354  -0.897   6.409  1.00  0.00     0.000 C 
BRANCH  17  18
ATOM     18  C   UNL     1      92.222  -2.268   7.091  1.00  0.00     0.000 C 
BRANCH  18  19
ATOM     19  C   UNL     1      93.566  -2.715   7.685  1.00  0.00     0.000 C 
BRANCH  19  20
ATOM     20  C   UNL     1      93.441  -3.961   8.575  1.00  0.00     0.000 C 
BRANCH  20  21
ATOM     21  C   UNL     1      93.855  -3.695  10.030  1.00  0.00     0.000 C 
BRANCH  21  22
ATOM     22  C   UNL     1      94.675  -4.868  10.588  1.00  0.00    -0.000 C 
BRANCH  22  23
ATOM     23  C   UNL     1      96.159  -4.514  10.799  1.00  0.00    -0.000 C 
BRANCH  23  24
ATOM     24  C   UNL     1      96.484  -3.006  10.760  1.00  0.00    -0.000 C 
BRANCH  24  25
ATOM     25  C   UNL     1      97.375  -2.556   9.589  1.00  0.00    -0.000 C 
BRANCH  25  26
ATOM     26  C   UNL     1      97.129  -3.367   8.305  1.00  0.00    -0.000 C 
BRANCH  26  27
ATOM     27  C   UNL     1      97.862  -2.778   7.088  1.00  0.00    -0.000 C 
BRANCH  27  28
ATOM     28  C   UNL     1      99.369  -3.090   7.095  1.00  0.00    -0.000 C 
BRANCH  28  29
ATOM     29  C   UNL     1      99.662  -4.572   6.816  1.00  0.00    -0.003 C 
ATOM     30  C   UNL     1      99.080  -5.049   5.486  1.00  0.00     0.004 C 
ENDBRANCH  28  29
ENDBRANCH  27  28
ENDBRANCH  26  27
ENDBRANCH  25  26
ENDBRANCH  24  25
ENDBRANCH  23  24
ENDBRANCH  22  23
ENDBRANCH  21  22
ENDBRANCH  20  21
ENDBRANCH  19  20
ENDBRANCH  18  19
ENDBRANCH  17  18
ENDBRANCH   1  17
TORSDOF 26
ENDMDL
