MODEL 1
REMARK VINA RESULT:    -4.865      0.000      0.000
REMARK INTER + INTRA:          -9.726
REMARK INTER:                  -8.278
REMARK INTRA:                  -1.448
REMARK UNBOUND:                -1.448
REMARK SMILES CCCCCCCCCCCCCC(=O)[O-]
REMARK SMILES IDX 8 1 9 2 10 3 11 4 12 5 13 6 14 7 15 8 16 9 7 10 6 11 5 12
REMARK SMILES IDX 4 13 3 14 2 15 1 16
REMARK H PARENT
REMARK Flexibility Score: inf
ROOT
ATOM      1  C   UNL     1     -21.563  -6.186  15.911  1.00  0.00     0.000 C 
ENDROOT
BRANCH   1   2
ATOM      2  C   UNL     1     -20.424  -5.461  15.172  1.00  0.00     0.000 C 
BRANCH   2   3
ATOM      3  C   UNL     1     -19.253  -6.399  14.828  1.00  0.00     0.000 C 
BRANCH   3   4
ATOM      4  C   UNL     1     -19.490  -7.840  15.307  1.00  0.00     0.000 C 
BRANCH   4   5
ATOM      5  C   UNL     1     -18.423  -8.317  16.308  1.00  0.00     0.006 C 
BRANCH   5   6
ATOM      6  C   UNL     1     -19.038  -9.075  17.491  1.00  0.00     0.053 C 
BRANCH   6   7
ATOM      7  C   UNL     1     -18.022  -9.918  18.199  1.00  0.00     0.041 C 
ATOM      8  O   UNL     1     -16.947  -9.406  18.607  1.00  0.00    -0.550 OA
ATOM      9  O   UNL     1     -18.279 -11.263  18.439  1.00  0.00    -0.550 OA
ENDBRANCH   6   7
ENDBRANCH   5   6
ENDBRANCH   4   5
ENDBRANCH   3   4
ENDBRANCH   2   3
ENDBRANCH   1   2
BRANCH   1  10
ATOM     10  C   UNL     1     -21.707  -5.722  17.371  1.00  0.00     0.000 C 
BRANCH  10  11
ATOM     11  C   UNL     1     -22.340  -6.795  18.272  1.00  0.00    -0.000 C 
BRANCH  11  12
ATOM     12  C   UNL     1     -23.819  -6.516  18.579  1.00  0.00    -0.000 C 
BRANCH  12  13
ATOM     13  C   UNL     1     -24.671  -7.776  18.363  1.00  0.00    -0.000 C 
BRANCH  13  14
ATOM     14  C   UNL     1     -24.533  -8.337  16.932  1.00  0.00    -0.000 C 
BRANCH  14  15
ATOM     15  C   UNL     1     -23.961  -9.764  16.882  1.00  0.00    -0.003 C 
ATOM     16  C   UNL     1     -22.523  -9.815  16.370  1.00  0.00     0.004 C 
ENDBRANCH  14  15
ENDBRANCH  13  14
ENDBRANCH  12  13
ENDBRANCH  11  12
ENDBRANCH  10  11
ENDBRANCH   1  10
TORSDOF 12
ENDMDL
MODEL 2
REMARK VINA RESULT:    -4.734      2.305      5.701
REMARK INTER + INTRA:          -9.503
REMARK INTER:                  -8.264
REMARK INTRA:                  -1.239
REMARK UNBOUND:                -1.448
REMARK SMILES CCCCCCCCCCCCCC(=O)[O-]
REMARK SMILES IDX 8 1 9 2 10 3 11 4 12 5 13 6 14 7 15 8 16 9 7 10 6 11 5 12
REMARK SMILES IDX 4 13 3 14 2 15 1 16
REMARK H PARENT
REMARK Flexibility Score: inf
ROOT
ATOM      1  C   UNL     1     -21.265  -5.520  16.047  1.00  0.00     0.000 C 
ENDROOT
BRANCH   1   2
ATOM      2  C   UNL     1     -21.814  -5.560  17.483  1.00  0.00     0.000 C 
BRANCH   2   3
ATOM      3  C   UNL     1     -22.346  -6.950  17.874  1.00  0.00     0.000 C 
BRANCH   3   4
ATOM      4  C   UNL     1     -23.766  -6.894  18.459  1.00  0.00     0.000 C 
BRANCH   4   5
ATOM      5  C   UNL     1     -24.636  -8.086  18.020  1.00  0.00     0.006 C 
BRANCH   5   6
ATOM      6  C   UNL     1     -24.194  -8.659  16.668  1.00  0.00     0.053 C 
BRANCH   6   7
ATOM      7  C   UNL     1     -23.769 -10.091  16.783  1.00  0.00     0.041 C 
ATOM      8  O   UNL     1     -24.617 -10.983  17.043  1.00  0.00    -0.550 OA
ATOM      9  O   UNL     1     -22.442 -10.442  16.568  1.00  0.00    -0.550 OA
ENDBRANCH   6   7
ENDBRANCH   5   6
ENDBRANCH   4   5
ENDBRANCH   3   4
ENDBRANCH   2   3
ENDBRANCH   1   2
BRANCH   1  10
ATOM     10  C   UNL     1     -21.843  -6.639  15.163  1.00  0.00     0.000 C 
BRANCH  10  11
ATOM     11  C   UNL     1     -20.754  -7.552  14.577  1.00  0.00    -0.000 C 
BRANCH  11  12
ATOM     12  C   UNL     1     -19.888  -8.215  15.660  1.00  0.00    -0.000 C 
BRANCH  12  13
ATOM     13  C   UNL     1     -18.424  -7.766  15.542  1.00  0.00    -0.000 C 
BRANCH  13  14
ATOM     14  C   UNL     1     -18.166  -6.941  14.263  1.00  0.00    -0.000 C 
BRANCH  14  15
ATOM     15  C   UNL     1     -17.614  -5.532  14.539  1.00  0.00    -0.003 C 
ATOM     16  C   UNL     1     -16.859  -4.941  13.351  1.00  0.00     0.004 C 
ENDBRANCH  14  15
ENDBRANCH  13  14
ENDBRANCH  12  13
ENDBRANCH  11  12
ENDBRANCH  10  11
ENDBRANCH   1  10
TORSDOF 12
ENDMDL
MODEL 3
REMARK VINA RESULT:    -4.733      3.811      6.677
REMARK INTER + INTRA:          -9.501
REMARK INTER:                  -8.414
REMARK INTRA:                  -1.087
REMARK UNBOUND:                -1.448
REMARK SMILES CCCCCCCCCCCCCC(=O)[O-]
REMARK SMILES IDX 8 1 9 2 10 3 11 4 12 5 13 6 14 7 15 8 16 9 7 10 6 11 5 12
REMARK SMILES IDX 4 13 3 14 2 15 1 16
REMARK H PARENT
REMARK Flexibility Score: inf
ROOT
ATOM      1  C   UNL     1     -23.005  -8.642  14.937  1.00  0.00     0.000 C 
ENDROOT
BRANCH   1   2
ATOM      2  C   UNL     1     -22.775  -9.413  16.248  1.00  0.00     0.000 C 
BRANCH   2   3
ATOM      3  C   UNL     1     -23.543  -8.804  17.434  1.00  0.00     0.000 C 
BRANCH   3   4
ATOM      4  C   UNL     1     -22.731  -7.729  18.174  1.00  0.00     0.000 C 
BRANCH   4   5
ATOM      5  C   UNL     1     -23.557  -6.468  18.482  1.00  0.00     0.006 C 
BRANCH   5   6
ATOM      6  C   UNL     1     -25.052  -6.777  18.631  1.00  0.00     0.053 C 
BRANCH   6   7
ATOM      7  C   UNL     1     -25.723  -5.836  19.584  1.00  0.00     0.041 C 
ATOM      8  O   UNL     1     -26.659  -5.094  19.188  1.00  0.00    -0.550 OA
ATOM      9  O   UNL     1     -25.336  -5.803  20.918  1.00  0.00    -0.550 OA
ENDBRANCH   6   7
ENDBRANCH   5   6
ENDBRANCH   4   5
ENDBRANCH   3   4
ENDBRANCH   2   3
ENDBRANCH   1   2
BRANCH   1  10
ATOM     10  C   UNL     1     -21.725  -7.960  14.422  1.00  0.00     0.000 C 
BRANCH  10  11
ATOM     11  C   UNL     1     -21.592  -6.508  14.910  1.00  0.00    -0.000 C 
BRANCH  11  12
ATOM     12  C   UNL     1     -20.144  -6.126  15.253  1.00  0.00    -0.000 C 
BRANCH  12  13
ATOM     13  C   UNL     1     -19.197  -7.316  15.036  1.00  0.00    -0.000 C 
BRANCH  13  14
ATOM     14  C   UNL     1     -17.899  -6.904  14.309  1.00  0.00    -0.000 C 
BRANCH  14  15
ATOM     15  C   UNL     1     -17.651  -5.386  14.303  1.00  0.00    -0.003 C 
ATOM     16  C   UNL     1     -16.691  -4.940  13.202  1.00  0.00     0.004 C 
ENDBRANCH  14  15
ENDBRANCH  13  14
ENDBRANCH  12  13
ENDBRANCH  11  12
ENDBRANCH  10  11
ENDBRANCH   1  10
TORSDOF 12
ENDMDL
MODEL 4
REMARK VINA RESULT:    -4.710      2.395      5.961
REMARK INTER + INTRA:          -9.463
REMARK INTER:                  -8.395
REMARK INTRA:                  -1.067
REMARK UNBOUND:                -1.448
REMARK SMILES CCCCCCCCCCCCCC(=O)[O-]
REMARK SMILES IDX 8 1 9 2 10 3 11 4 12 5 13 6 14 7 15 8 16 9 7 10 6 11 5 12
REMARK SMILES IDX 4 13 3 14 2 15 1 16
REMARK H PARENT
REMARK Flexibility Score: inf
ROOT
ATOM      1  C   UNL     1     -22.454  -9.514  16.110  1.00  0.00     0.000 C 
ENDROOT
BRANCH   1   2
ATOM      2  C   UNL     1     -23.622 -10.293  16.739  1.00  0.00     0.000 C 
BRANCH   2   3
ATOM      3  C   UNL     1     -24.872  -9.420  16.944  1.00  0.00     0.000 C 
BRANCH   3   4
ATOM      4  C   UNL     1     -24.743  -8.479  18.153  1.00  0.00     0.000 C 
BRANCH   4   5
ATOM      5  C   UNL     1     -24.589  -7.004  17.744  1.00  0.00     0.006 C 
BRANCH   5   6
ATOM      6  C   UNL     1     -23.569  -6.264  18.618  1.00  0.00     0.053 C 
BRANCH   6   7
ATOM      7  C   UNL     1     -22.191  -6.318  18.032  1.00  0.00     0.041 C 
ATOM      8  O   UNL     1     -21.756  -5.356  17.348  1.00  0.00    -0.550 OA
ATOM      9  O   UNL     1     -21.376  -7.418  18.271  1.00  0.00    -0.550 OA
ENDBRANCH   6   7
ENDBRANCH   5   6
ENDBRANCH   4   5
ENDBRANCH   3   4
ENDBRANCH   2   3
ENDBRANCH   1   2
BRANCH   1  10
ATOM     10  C   UNL     1     -22.893  -8.672  14.898  1.00  0.00     0.000 C 
BRANCH  10  11
ATOM     11  C   UNL     1     -21.916  -7.526  14.591  1.00  0.00    -0.000 C 
BRANCH  11  12
ATOM     12  C   UNL     1     -20.499  -8.024  14.264  1.00  0.00    -0.000 C 
BRANCH  12  13
ATOM     13  C   UNL     1     -19.465  -7.399  15.213  1.00  0.00    -0.000 C 
BRANCH  13  14
ATOM     14  C   UNL     1     -18.171  -6.989  14.479  1.00  0.00    -0.000 C 
BRANCH  14  15
ATOM     15  C   UNL     1     -17.926  -5.471  14.463  1.00  0.00    -0.003 C 
ATOM     16  C   UNL     1     -16.851  -5.048  13.464  1.00  0.00     0.004 C 
ENDBRANCH  14  15
ENDBRANCH  13  14
ENDBRANCH  12  13
ENDBRANCH  11  12
ENDBRANCH  10  11
ENDBRANCH   1  10
TORSDOF 12
ENDMDL
MODEL 5
REMARK VINA RESULT:    -4.685      3.679      6.686
REMARK INTER + INTRA:          -9.420
REMARK INTER:                  -8.448
REMARK INTRA:                  -0.972
REMARK UNBOUND:                -1.448
REMARK SMILES CCCCCCCCCCCCCC(=O)[O-]
REMARK SMILES IDX 8 1 9 2 10 3 11 4 12 5 13 6 14 7 15 8 16 9 7 10 6 11 5 12
REMARK SMILES IDX 4 13 3 14 2 15 1 16
REMARK H PARENT
REMARK Flexibility Score: inf
ROOT
ATOM      1  C   UNL     1     -21.115  -5.583  15.971  1.00  0.00     0.000 C 
ENDROOT
BRANCH   1   2
ATOM      2  C   UNL     1     -21.763  -5.610  17.366  1.00  0.00     0.000 C 
BRANCH   2   3
ATOM      3  C   UNL     1     -21.914  -7.038  17.920  1.00  0.00     0.000 C 
BRANCH   3   4
ATOM      4  C   UNL     1     -23.373  -7.391  18.250  1.00  0.00     0.000 C 
BRANCH   4   5
ATOM      5  C   UNL     1     -23.851  -8.667  17.535  1.00  0.00     0.006 C 
BRANCH   5   6
ATOM      6  C   UNL     1     -25.381  -8.775  17.504  1.00  0.00     0.053 C 
BRANCH   6   7
ATOM      7  C   UNL     1     -26.017  -7.518  16.995  1.00  0.00     0.041 C 
ATOM      8  O   UNL     1     -25.861  -7.171  15.795  1.00  0.00    -0.550 OA
ATOM      9  O   UNL     1     -26.810  -6.749  17.837  1.00  0.00    -0.550 OA
ENDBRANCH   6   7
ENDBRANCH   5   6
ENDBRANCH   4   5
ENDBRANCH   3   4
ENDBRANCH   2   3
ENDBRANCH   1   2
BRANCH   1  10
ATOM     10  C   UNL     1     -21.731  -6.620  15.015  1.00  0.00     0.000 C 
BRANCH  10  11
ATOM     11  C   UNL     1     -20.704  -7.652  14.521  1.00  0.00    -0.000 C 
BRANCH  11  12
ATOM     12  C   UNL     1     -19.368  -7.566  15.274  1.00  0.00    -0.000 C 
BRANCH  12  13
ATOM     13  C   UNL     1     -18.215  -7.244  14.311  1.00  0.00    -0.000 C 
BRANCH  13  14
ATOM     14  C   UNL     1     -17.729  -5.786  14.449  1.00  0.00    -0.000 C 
BRANCH  14  15
ATOM     15  C   UNL     1     -16.933  -5.285  13.231  1.00  0.00    -0.003 C 
ATOM     16  C   UNL     1     -15.932  -4.185  13.581  1.00  0.00     0.004 C 
ENDBRANCH  14  15
ENDBRANCH  13  14
ENDBRANCH  12  13
ENDBRANCH  11  12
ENDBRANCH  10  11
ENDBRANCH   1  10
TORSDOF 12
ENDMDL
MODEL 6
REMARK VINA RESULT:    -4.649      0.963      2.240
REMARK INTER + INTRA:          -9.358
REMARK INTER:                  -8.111
REMARK INTRA:                  -1.247
REMARK UNBOUND:                -1.448
REMARK SMILES CCCCCCCCCCCCCC(=O)[O-]
REMARK SMILES IDX 8 1 9 2 10 3 11 4 12 5 13 6 14 7 15 8 16 9 7 10 6 11 5 12
REMARK SMILES IDX 4 13 3 14 2 15 1 16
REMARK H PARENT
REMARK Flexibility Score: inf
ROOT
ATOM      1  C   UNL     1     -21.770  -6.350  15.548  1.00  0.00     0.000 C 
ENDROOT
BRANCH   1   2
ATOM      2  C   UNL     1     -20.622  -5.615  14.836  1.00  0.00     0.000 C 
BRANCH   2   3
ATOM      3  C   UNL     1     -19.269  -6.327  15.006  1.00  0.00     0.000 C 
BRANCH   3   4
ATOM      4  C   UNL     1     -19.422  -7.839  15.234  1.00  0.00     0.000 C 
BRANCH   4   5
ATOM      5  C   UNL     1     -18.338  -8.412  16.164  1.00  0.00     0.006 C 
BRANCH   5   6
ATOM      6  C   UNL     1     -18.926  -8.954  17.473  1.00  0.00     0.053 C 
BRANCH   6   7
ATOM      7  C   UNL     1     -17.907  -9.710  18.269  1.00  0.00     0.041 C 
ATOM      8  O   UNL     1     -18.119 -10.907  18.596  1.00  0.00    -0.550 OA
ATOM      9  O   UNL     1     -16.707  -9.103  18.619  1.00  0.00    -0.550 OA
ENDBRANCH   6   7
ENDBRANCH   5   6
ENDBRANCH   4   5
ENDBRANCH   3   4
ENDBRANCH   2   3
ENDBRANCH   1   2
BRANCH   1  10
ATOM     10  C   UNL     1     -21.943  -5.899  17.009  1.00  0.00     0.000 C 
BRANCH  10  11
ATOM     11  C   UNL     1     -21.993  -7.081  17.990  1.00  0.00    -0.000 C 
BRANCH  11  12
ATOM     12  C   UNL     1     -22.613  -8.343  17.370  1.00  0.00    -0.000 C 
BRANCH  12  13
ATOM     13  C   UNL     1     -24.146  -8.294  17.443  1.00  0.00    -0.000 C 
BRANCH  13  14
ATOM     14  C   UNL     1     -24.648  -7.518  18.680  1.00  0.00    -0.000 C 
BRANCH  14  15
ATOM     15  C   UNL     1     -25.572  -6.338  18.333  1.00  0.00    -0.003 C 
ATOM     16  C   UNL     1     -26.047  -5.568  19.564  1.00  0.00     0.004 C 
ENDBRANCH  14  15
ENDBRANCH  13  14
ENDBRANCH  12  13
ENDBRANCH  11  12
ENDBRANCH  10  11
ENDBRANCH   1  10
TORSDOF 12
ENDMDL
MODEL 7
REMARK VINA RESULT:    -4.605      3.271      5.763
REMARK INTER + INTRA:          -9.284
REMARK INTER:                  -7.688
REMARK INTRA:                  -1.596
REMARK UNBOUND:                -1.448
REMARK SMILES CCCCCCCCCCCCCC(=O)[O-]
REMARK SMILES IDX 8 1 9 2 10 3 11 4 12 5 13 6 14 7 15 8 16 9 7 10 6 11 5 12
REMARK SMILES IDX 4 13 3 14 2 15 1 16
REMARK H PARENT
REMARK Flexibility Score: inf
ROOT
ATOM      1  C   UNL     1     -21.146  -4.942  16.798  1.00  0.00     0.000 C 
ENDROOT
BRANCH   1   2
ATOM      2  C   UNL     1     -22.287  -5.801  17.371  1.00  0.00     0.000 C 
BRANCH   2   3
ATOM      3  C   UNL     1     -21.778  -7.088  18.043  1.00  0.00     0.000 C 
BRANCH   3   4
ATOM      4  C   UNL     1     -22.284  -8.359  17.342  1.00  0.00     0.000 C 
BRANCH   4   5
ATOM      5  C   UNL     1     -23.633  -8.149  16.632  1.00  0.00     0.006 C 
BRANCH   5   6
ATOM      6  C   UNL     1     -24.820  -8.572  17.506  1.00  0.00     0.053 C 
BRANCH   6   7
ATOM      7  C   UNL     1     -25.654  -7.398  17.917  1.00  0.00     0.041 C 
ATOM      8  O   UNL     1     -26.757  -7.175  17.352  1.00  0.00    -0.550 OA
ATOM      9  O   UNL     1     -25.229  -6.569  18.948  1.00  0.00    -0.550 OA
ENDBRANCH   6   7
ENDBRANCH   5   6
ENDBRANCH   4   5
ENDBRANCH   3   4
ENDBRANCH   2   3
ENDBRANCH   1   2
BRANCH   1  10
ATOM     10  C   UNL     1     -20.995  -5.102  15.275  1.00  0.00     0.000 C 
BRANCH  10  11
ATOM     11  C   UNL     1     -19.736  -5.894  14.887  1.00  0.00    -0.000 C 
BRANCH  11  12
ATOM     12  C   UNL     1     -20.002  -7.401  14.747  1.00  0.00    -0.000 C 
BRANCH  12  13
ATOM     13  C   UNL     1     -18.743  -8.214  15.081  1.00  0.00    -0.000 C 
BRANCH  13  14
ATOM     14  C   UNL     1     -18.370  -8.125  16.577  1.00  0.00    -0.000 C 
BRANCH  14  15
ATOM     15  C   UNL     1     -18.811  -9.350  17.395  1.00  0.00    -0.003 C 
ATOM     16  C   UNL     1     -17.868  -9.668  18.554  1.00  0.00     0.004 C 
ENDBRANCH  14  15
ENDBRANCH  13  14
ENDBRANCH  12  13
ENDBRANCH  11  12
ENDBRANCH  10  11
ENDBRANCH   1  10
TORSDOF 12
ENDMDL
MODEL 8
REMARK VINA RESULT:    -4.562      3.924      6.559
REMARK INTER + INTRA:          -9.210
REMARK INTER:                  -7.688
REMARK INTRA:                  -1.522
REMARK UNBOUND:                -1.448
REMARK SMILES CCCCCCCCCCCCCC(=O)[O-]
REMARK SMILES IDX 8 1 9 2 10 3 11 4 12 5 13 6 14 7 15 8 16 9 7 10 6 11 5 12
REMARK SMILES IDX 4 13 3 14 2 15 1 16
REMARK H PARENT
REMARK Flexibility Score: inf
ROOT
ATOM      1  C   UNL     1     -22.253  -8.550  17.075  1.00  0.00     0.000 C 
ENDROOT
BRANCH   1   2
ATOM      2  C   UNL     1     -23.670  -9.145  17.002  1.00  0.00     0.000 C 
BRANCH   2   3
ATOM      3  C   UNL     1     -24.643  -8.477  17.988  1.00  0.00     0.000 C 
BRANCH   3   4
ATOM      4  C   UNL     1     -25.848  -7.834  17.284  1.00  0.00     0.000 C 
BRANCH   4   5
ATOM      5  C   UNL     1     -26.115  -6.394  17.758  1.00  0.00     0.006 C 
BRANCH   5   6
ATOM      6  C   UNL     1     -25.324  -6.046  19.025  1.00  0.00     0.053 C 
BRANCH   6   7
ATOM      7  C   UNL     1     -26.193  -5.411  20.066  1.00  0.00     0.041 C 
ATOM      8  O   UNL     1     -27.346  -5.005  19.767  1.00  0.00    -0.550 OA
ATOM      9  O   UNL     1     -25.742  -5.300  21.376  1.00  0.00    -0.550 OA
ENDBRANCH   6   7
ENDBRANCH   5   6
ENDBRANCH   4   5
ENDBRANCH   3   4
ENDBRANCH   2   3
ENDBRANCH   1   2
BRANCH   1  10
ATOM     10  C   UNL     1     -22.157  -7.377  18.066  1.00  0.00     0.000 C 
BRANCH  10  11
ATOM     11  C   UNL     1     -21.886  -6.034  17.367  1.00  0.00    -0.000 C 
BRANCH  11  12
ATOM     12  C   UNL     1     -21.818  -6.164  15.838  1.00  0.00    -0.000 C 
BRANCH  12  13
ATOM     13  C   UNL     1     -20.775  -5.201  15.251  1.00  0.00    -0.000 C 
BRANCH  13  14
ATOM     14  C   UNL     1     -19.439  -5.907  14.935  1.00  0.00    -0.000 C 
BRANCH  14  15
ATOM     15  C   UNL     1     -19.569  -7.434  14.792  1.00  0.00    -0.003 C 
ATOM     16  C   UNL     1     -18.730  -8.204  15.810  1.00  0.00     0.004 C 
ENDBRANCH  14  15
ENDBRANCH  13  14
ENDBRANCH  12  13
ENDBRANCH  11  12
ENDBRANCH  10  11
ENDBRANCH   1  10
TORSDOF 12
ENDMDL
MODEL 9
REMARK VINA RESULT:    -4.504      3.468      6.048
REMARK INTER + INTRA:          -9.112
REMARK INTER:                  -7.398
REMARK INTRA:                  -1.714
REMARK UNBOUND:                -1.448
REMARK SMILES CCCCCCCCCCCCCC(=O)[O-]
REMARK SMILES IDX 8 1 9 2 10 3 11 4 12 5 13 6 14 7 15 8 16 9 7 10 6 11 5 12
REMARK SMILES IDX 4 13 3 14 2 15 1 16
REMARK H PARENT
REMARK Flexibility Score: inf
ROOT
ATOM      1  C   UNL     1     -21.763  -6.373  17.880  1.00  0.00     0.000 C 
ENDROOT
BRANCH   1   2
ATOM      2  C   UNL     1     -21.904  -7.904  17.926  1.00  0.00     0.000 C 
BRANCH   2   3
ATOM      3  C   UNL     1     -22.546  -8.477  16.650  1.00  0.00     0.000 C 
BRANCH   3   4
ATOM      4  C   UNL     1     -23.761  -9.369  16.951  1.00  0.00     0.000 C 
BRANCH   4   5
ATOM      5  C   UNL     1     -24.793  -8.680  17.863  1.00  0.00     0.006 C 
BRANCH   5   6
ATOM      6  C   UNL     1     -25.464  -7.484  17.177  1.00  0.00     0.053 C 
BRANCH   6   7
ATOM      7  C   UNL     1     -25.736  -6.371  18.141  1.00  0.00     0.041 C 
ATOM      8  O   UNL     1     -24.988  -6.200  19.139  1.00  0.00    -0.550 OA
ATOM      9  O   UNL     1     -26.796  -5.500  17.918  1.00  0.00    -0.550 OA
ENDBRANCH   6   7
ENDBRANCH   5   6
ENDBRANCH   4   5
ENDBRANCH   3   4
ENDBRANCH   2   3
ENDBRANCH   1   2
BRANCH   1  10
ATOM     10  C   UNL     1     -22.112  -5.790  16.499  1.00  0.00     0.000 C 
BRANCH  10  11
ATOM     11  C   UNL     1     -20.993  -4.901  15.933  1.00  0.00    -0.000 C 
BRANCH  11  12
ATOM     12  C   UNL     1     -20.301  -5.524  14.710  1.00  0.00    -0.000 C 
BRANCH  12  13
ATOM     13  C   UNL     1     -18.778  -5.562  14.902  1.00  0.00    -0.000 C 
BRANCH  13  14
ATOM     14  C   UNL     1     -18.211  -6.993  14.796  1.00  0.00    -0.000 C 
BRANCH  14  15
ATOM     15  C   UNL     1     -19.133  -8.068  15.397  1.00  0.00    -0.003 C 
ATOM     16  C   UNL     1     -18.577  -8.687  16.677  1.00  0.00     0.004 C 
ENDBRANCH  14  15
ENDBRANCH  13  14
ENDBRANCH  12  13
ENDBRANCH  11  12
ENDBRANCH  10  11
ENDBRANCH   1  10
TORSDOF 12
ENDMDL
