MODEL 1
REMARK VINA RESULT:    -7.119      0.000      0.000
REMARK INTER + INTRA:          -8.642
REMARK INTER:                  -8.367
REMARK INTRA:                  -0.275
REMARK UNBOUND:                -0.275
REMARK SMILES O=c1cc(-c2ccc(O)c(O)c2)oc2cc(O)cc(O)c12
REMARK SMILES IDX 4 1 3 2 2 3 1 4 21 5 19 6 18 7 16 8 15 9 14 10 13 11 5 12
REMARK SMILES IDX 6 13 7 14 8 15 12 16 10 17 9 18 11 20 20 22 17 24
REMARK H PARENT 9 19 11 21 20 23 17 25
REMARK Flexibility Score: inf
ROOT
ATOM      1  C   UNL     1     -12.466 -18.035  24.553  1.00  0.00     0.138 A 
ATOM      2  C   UNL     1     -12.424 -19.126  25.433  1.00  0.00     0.100 A 
ATOM      3  C   UNL     1     -12.286 -18.901  26.804  1.00  0.00     0.197 A 
ATOM      4  O   UNL     1     -12.314 -19.896  27.574  1.00  0.00    -0.289 OA
ATOM      5  C   UNL     1     -12.158 -17.578  27.290  1.00  0.00     0.107 A 
ATOM      6  C   UNL     1     -11.971 -17.232  28.662  1.00  0.00     0.134 A 
ATOM      7  C   UNL     1     -11.974 -15.883  29.040  1.00  0.00     0.093 A 
ATOM      8  C   UNL     1     -12.096 -14.869  28.087  1.00  0.00     0.123 A 
ATOM      9  C   UNL     1     -12.225 -15.196  26.739  1.00  0.00     0.094 A 
ATOM     10  C   UNL     1     -12.260 -16.533  26.335  1.00  0.00     0.146 A 
ATOM     11  O   UNL     1     -12.398 -16.802  25.041  1.00  0.00    -0.456 OA
ENDROOT
BRANCH   1  12
ATOM     12  C   UNL     1     -12.610 -18.218  23.087  1.00  0.00     0.021 A 
ATOM     13  C   UNL     1     -13.546 -17.479  22.338  1.00  0.00     0.016 A 
ATOM     14  C   UNL     1     -13.668 -17.679  20.961  1.00  0.00     0.051 A 
ATOM     15  C   UNL     1     -12.867 -18.619  20.307  1.00  0.00     0.157 A 
ATOM     16  C   UNL     1     -11.816 -19.171  22.426  1.00  0.00     0.062 A 
ATOM     17  C   UNL     1     -11.936 -19.371  21.043  1.00  0.00     0.158 A 
BRANCH  15  18
ATOM     18  O   UNL     1     -13.011 -18.794  18.931  1.00  0.00    -0.504 OA
ATOM     19  H   UNL     1     -12.675 -18.111  18.264  1.00  0.00     0.293 HD
ENDBRANCH  15  18
BRANCH  17  20
ATOM     20  O   UNL     1     -11.136 -20.314  20.398  1.00  0.00    -0.504 OA
ATOM     21  H   UNL     1     -11.534 -21.137  19.961  1.00  0.00     0.293 HD
ENDBRANCH  17  20
ENDBRANCH   1  12
BRANCH   6  22
ATOM     22  O   UNL     1     -11.755 -18.165  29.682  1.00  0.00    -0.507 OA
ATOM     23  H   UNL     1     -12.071 -18.061  30.634  1.00  0.00     0.293 HD
ENDBRANCH   6  22
BRANCH   8  24
ATOM     24  O   UNL     1     -12.083 -13.529  28.471  1.00  0.00    -0.508 OA
ATOM     25  H   UNL     1     -12.928 -13.054  28.764  1.00  0.00     0.293 HD
ENDBRANCH   8  24
TORSDOF 5
ENDMDL
MODEL 2
REMARK VINA RESULT:    -7.112      4.767      7.822
REMARK INTER + INTRA:          -8.634
REMARK INTER:                  -8.338
REMARK INTRA:                  -0.295
REMARK UNBOUND:                -0.275
REMARK SMILES O=c1cc(-c2ccc(O)c(O)c2)oc2cc(O)cc(O)c12
REMARK SMILES IDX 4 1 3 2 2 3 1 4 21 5 19 6 18 7 16 8 15 9 14 10 13 11 5 12
REMARK SMILES IDX 6 13 7 14 8 15 12 16 10 17 9 18 11 20 20 22 17 24
REMARK H PARENT 9 19 11 21 20 23 17 25
REMARK Flexibility Score: inf
ROOT
ATOM      1  C   UNL     1     -10.279 -16.493  18.970  1.00  0.00     0.138 A 
ATOM      2  C   UNL     1     -10.033 -17.628  18.184  1.00  0.00     0.100 A 
ATOM      3  C   UNL     1     -10.641 -18.841  18.513  1.00  0.00     0.197 A 
ATOM      4  O   UNL     1     -10.450 -19.825  17.753  1.00  0.00    -0.289 OA
ATOM      5  C   UNL     1     -11.475 -18.922  19.653  1.00  0.00     0.107 A 
ATOM      6  C   UNL     1     -12.115 -20.114  20.108  1.00  0.00     0.134 A 
ATOM      7  C   UNL     1     -13.011 -20.050  21.183  1.00  0.00     0.093 A 
ATOM      8  C   UNL     1     -13.242 -18.848  21.856  1.00  0.00     0.123 A 
ATOM      9  C   UNL     1     -12.582 -17.690  21.454  1.00  0.00     0.094 A 
ATOM     10  C   UNL     1     -11.708 -17.715  20.364  1.00  0.00     0.146 A 
ATOM     11  O   UNL     1     -11.109 -16.585  20.003  1.00  0.00    -0.456 OA
ENDROOT
BRANCH   1  12
ATOM     12  C   UNL     1      -9.657 -15.180  18.666  1.00  0.00     0.021 A 
ATOM     13  C   UNL     1      -8.298 -15.068  18.318  1.00  0.00     0.016 A 
ATOM     14  C   UNL     1      -7.737 -13.817  18.047  1.00  0.00     0.051 A 
ATOM     15  C   UNL     1      -8.515 -12.659  18.125  1.00  0.00     0.157 A 
ATOM     16  C   UNL     1     -10.432 -14.010  18.756  1.00  0.00     0.062 A 
ATOM     17  C   UNL     1      -9.870 -12.754  18.483  1.00  0.00     0.158 A 
BRANCH  15  18
ATOM     18  O   UNL     1      -7.927 -11.426  17.847  1.00  0.00    -0.504 OA
ATOM     19  H   UNL     1      -8.418 -10.695  17.346  1.00  0.00     0.293 HD
ENDBRANCH  15  18
BRANCH  17  20
ATOM     20  O   UNL     1     -10.652 -11.603  18.567  1.00  0.00    -0.504 OA
ATOM     21  H   UNL     1     -10.647 -10.904  17.833  1.00  0.00     0.293 HD
ENDBRANCH  17  20
ENDBRANCH   1  12
BRANCH   6  22
ATOM     22  O   UNL     1     -11.888 -21.381  19.560  1.00  0.00    -0.507 OA
ATOM     23  H   UNL     1     -11.452 -22.150  20.046  1.00  0.00     0.293 HD
ENDBRANCH   6  22
BRANCH   8  24
ATOM     24  O   UNL     1     -14.124 -18.797  22.934  1.00  0.00    -0.508 OA
ATOM     25  H   UNL     1     -14.839 -19.502  23.067  1.00  0.00     0.293 HD
ENDBRANCH   8  24
TORSDOF 5
ENDMDL
MODEL 3
REMARK VINA RESULT:    -6.878      1.598      3.218
REMARK INTER + INTRA:          -8.359
REMARK INTER:                  -8.097
REMARK INTRA:                  -0.262
REMARK UNBOUND:                -0.275
REMARK SMILES O=c1cc(-c2ccc(O)c(O)c2)oc2cc(O)cc(O)c12
REMARK SMILES IDX 4 1 3 2 2 3 1 4 21 5 19 6 18 7 16 8 15 9 14 10 13 11 5 12
REMARK SMILES IDX 6 13 7 14 8 15 12 16 10 17 9 18 11 20 20 22 17 24
REMARK H PARENT 9 19 11 21 20 23 17 25
REMARK Flexibility Score: inf
ROOT
ATOM      1  C   UNL     1     -12.502 -18.426  24.464  1.00  0.00     0.138 A 
ATOM      2  C   UNL     1     -12.272 -17.098  24.850  1.00  0.00     0.100 A 
ATOM      3  C   UNL     1     -12.489 -16.717  26.175  1.00  0.00     0.197 A 
ATOM      4  O   UNL     1     -12.215 -15.534  26.505  1.00  0.00    -0.289 OA
ATOM      5  C   UNL     1     -12.968 -17.666  27.110  1.00  0.00     0.107 A 
ATOM      6  C   UNL     1     -13.264 -17.381  28.477  1.00  0.00     0.134 A 
ATOM      7  C   UNL     1     -13.622 -18.426  29.337  1.00  0.00     0.093 A 
ATOM      8  C   UNL     1     -13.754 -19.735  28.866  1.00  0.00     0.123 A 
ATOM      9  C   UNL     1     -13.519 -20.014  27.521  1.00  0.00     0.094 A 
ATOM     10  C   UNL     1     -13.127 -18.998  26.645  1.00  0.00     0.146 A 
ATOM     11  O   UNL     1     -12.900 -19.308  25.373  1.00  0.00    -0.456 OA
ENDROOT
BRANCH   1  12
ATOM     12  C   UNL     1     -12.289 -18.884  23.068  1.00  0.00     0.021 A 
ATOM     13  C   UNL     1     -11.098 -19.523  22.673  1.00  0.00     0.016 A 
ATOM     14  C   UNL     1     -10.920 -19.934  21.349  1.00  0.00     0.051 A 
ATOM     15  C   UNL     1     -11.918 -19.711  20.398  1.00  0.00     0.157 A 
ATOM     16  C   UNL     1     -13.284 -18.650  22.102  1.00  0.00     0.062 A 
ATOM     17  C   UNL     1     -13.107 -19.064  20.774  1.00  0.00     0.158 A 
BRANCH  15  18
ATOM     18  O   UNL     1     -11.711 -20.134  19.085  1.00  0.00    -0.504 OA
ATOM     19  H   UNL     1     -11.597 -21.112  18.847  1.00  0.00     0.293 HD
ENDBRANCH  15  18
BRANCH  17  20
ATOM     20  O   UNL     1     -14.105 -18.834  19.829  1.00  0.00    -0.504 OA
ATOM     21  H   UNL     1     -14.782 -19.549  19.587  1.00  0.00     0.293 HD
ENDBRANCH  17  20
ENDBRANCH   1  12
BRANCH   6  22
ATOM     22  O   UNL     1     -13.246 -16.097  29.029  1.00  0.00    -0.507 OA
ATOM     23  H   UNL     1     -13.924 -15.743  29.687  1.00  0.00     0.293 HD
ENDBRANCH   6  22
BRANCH   8  24
ATOM     24  O   UNL     1     -14.125 -20.766  29.726  1.00  0.00    -0.508 OA
ATOM     25  H   UNL     1     -13.669 -20.899  30.621  1.00  0.00     0.293 HD
ENDBRANCH   8  24
TORSDOF 5
ENDMDL
MODEL 4
REMARK VINA RESULT:    -6.144      6.176      8.612
REMARK INTER + INTRA:          -7.496
REMARK INTER:                  -7.233
REMARK INTRA:                  -0.264
REMARK UNBOUND:                -0.275
REMARK SMILES O=c1cc(-c2ccc(O)c(O)c2)oc2cc(O)cc(O)c12
REMARK SMILES IDX 4 1 3 2 2 3 1 4 21 5 19 6 18 7 16 8 15 9 14 10 13 11 5 12
REMARK SMILES IDX 6 13 7 14 8 15 12 16 10 17 9 18 11 20 20 22 17 24
REMARK H PARENT 9 19 11 21 20 23 17 25
REMARK Flexibility Score: inf
ROOT
ATOM      1  C   UNL     1      -9.748 -15.639  18.830  1.00  0.00     0.138 A 
ATOM      2  C   UNL     1      -8.368 -15.433  18.962  1.00  0.00     0.100 A 
ATOM      3  C   UNL     1      -7.836 -14.160  18.748  1.00  0.00     0.197 A 
ATOM      4  O   UNL     1      -6.602 -13.994  18.933  1.00  0.00    -0.289 OA
ATOM      5  C   UNL     1      -8.689 -13.096  18.371  1.00  0.00     0.107 A 
ATOM      6  C   UNL     1      -8.253 -11.767  18.087  1.00  0.00     0.134 A 
ATOM      7  C   UNL     1      -9.202 -10.768  17.837  1.00  0.00     0.093 A 
ATOM      8  C   UNL     1     -10.566 -11.064  17.800  1.00  0.00     0.123 A 
ATOM      9  C   UNL     1     -10.999 -12.370  18.022  1.00  0.00     0.094 A 
ATOM     10  C   UNL     1     -10.079 -13.381  18.309  1.00  0.00     0.146 A 
ATOM     11  O   UNL     1     -10.533 -14.610  18.529  1.00  0.00    -0.456 OA
ENDROOT
BRANCH   1  12
ATOM     12  C   UNL     1     -10.366 -16.971  19.045  1.00  0.00     0.021 A 
ATOM     13  C   UNL     1     -11.171 -17.241  20.168  1.00  0.00     0.016 A 
ATOM     14  C   UNL     1     -11.731 -18.508  20.351  1.00  0.00     0.051 A 
ATOM     15  C   UNL     1     -11.495 -19.527  19.425  1.00  0.00     0.157 A 
ATOM     16  C   UNL     1     -10.121 -18.005  18.124  1.00  0.00     0.062 A 
ATOM     17  C   UNL     1     -10.684 -19.276  18.306  1.00  0.00     0.158 A 
BRANCH  15  18
ATOM     18  O   UNL     1     -12.069 -20.781  19.634  1.00  0.00    -0.504 OA
ATOM     19  H   UNL     1     -11.554 -21.640  19.485  1.00  0.00     0.293 HD
ENDBRANCH  15  18
BRANCH  17  20
ATOM     20  O   UNL     1     -10.441 -20.290  17.380  1.00  0.00    -0.504 OA
ATOM     21  H   UNL     1     -10.034 -20.093  16.472  1.00  0.00     0.293 HD
ENDBRANCH  17  20
ENDBRANCH   1  12
BRANCH   6  22
ATOM     22  O   UNL     1      -6.910 -11.384  18.015  1.00  0.00    -0.507 OA
ATOM     23  H   UNL     1      -6.142 -11.895  18.423  1.00  0.00     0.293 HD
ENDBRANCH   6  22
BRANCH   8  24
ATOM     24  O   UNL     1     -11.503 -10.067  17.535  1.00  0.00    -0.508 OA
ATOM     25  H   UNL     1     -11.496  -9.552  16.662  1.00  0.00     0.293 HD
ENDBRANCH   8  24
TORSDOF 5
ENDMDL
MODEL 5
REMARK VINA RESULT:    -5.431      2.257      7.422
REMARK INTER + INTRA:          -6.658
REMARK INTER:                  -6.389
REMARK INTRA:                  -0.269
REMARK UNBOUND:                -0.275
REMARK SMILES O=c1cc(-c2ccc(O)c(O)c2)oc2cc(O)cc(O)c12
REMARK SMILES IDX 4 1 3 2 2 3 1 4 21 5 19 6 18 7 16 8 15 9 14 10 13 11 5 12
REMARK SMILES IDX 6 13 7 14 8 15 12 16 10 17 9 18 11 20 20 22 17 24
REMARK H PARENT 9 19 11 21 20 23 17 25
REMARK Flexibility Score: inf
ROOT
ATOM      1  C   UNL     1     -12.789 -18.599  22.386  1.00  0.00     0.138 A 
ATOM      2  C   UNL     1     -13.637 -19.422  21.631  1.00  0.00     0.100 A 
ATOM      3  C   UNL     1     -13.381 -19.614  20.272  1.00  0.00     0.197 A 
ATOM      4  O   UNL     1     -14.123 -20.407  19.635  1.00  0.00    -0.289 OA
ATOM      5  C   UNL     1     -12.289 -18.953  19.661  1.00  0.00     0.107 A 
ATOM      6  C   UNL     1     -11.956 -19.042  18.276  1.00  0.00     0.134 A 
ATOM      7  C   UNL     1     -10.784 -18.437  17.807  1.00  0.00     0.093 A 
ATOM      8  C   UNL     1      -9.965 -17.695  18.663  1.00  0.00     0.123 A 
ATOM      9  C   UNL     1     -10.309 -17.557  20.005  1.00  0.00     0.094 A 
ATOM     10  C   UNL     1     -11.454 -18.178  20.510  1.00  0.00     0.146 A 
ATOM     11  O   UNL     1     -11.740 -18.034  21.800  1.00  0.00    -0.456 OA
ENDROOT
BRANCH   1  12
ATOM     12  C   UNL     1     -13.016 -18.359  23.833  1.00  0.00     0.021 A 
ATOM     13  C   UNL     1     -13.940 -17.399  24.288  1.00  0.00     0.016 A 
ATOM     14  C   UNL     1     -14.125 -17.187  25.657  1.00  0.00     0.051 A 
ATOM     15  C   UNL     1     -13.391 -17.920  26.593  1.00  0.00     0.157 A 
ATOM     16  C   UNL     1     -12.271 -19.083  24.780  1.00  0.00     0.062 A 
ATOM     17  C   UNL     1     -12.457 -18.872  26.154  1.00  0.00     0.158 A 
BRANCH  15  18
ATOM     18  O   UNL     1     -13.599 -17.686  27.952  1.00  0.00    -0.504 OA
ATOM     19  H   UNL     1     -13.338 -16.813  28.394  1.00  0.00     0.293 HD
ENDBRANCH  15  18
BRANCH  17  20
ATOM     20  O   UNL     1     -11.718 -19.604  27.082  1.00  0.00    -0.504 OA
ATOM     21  H   UNL     1     -12.100 -20.426  27.535  1.00  0.00     0.293 HD
ENDBRANCH  17  20
ENDBRANCH   1  12
BRANCH   6  22
ATOM     22  O   UNL     1     -12.750 -19.686  17.322  1.00  0.00    -0.507 OA
ATOM     23  H   UNL     1     -12.476 -20.507  16.803  1.00  0.00     0.293 HD
ENDBRANCH   6  22
BRANCH   8  24
ATOM     24  O   UNL     1      -8.808 -17.083  18.184  1.00  0.00    -0.508 OA
ATOM     25  H   UNL     1      -7.955 -17.063  18.730  1.00  0.00     0.293 HD
ENDBRANCH   8  24
TORSDOF 5
ENDMDL
MODEL 6
REMARK VINA RESULT:    -5.356      5.720      8.729
REMARK INTER + INTRA:          -6.570
REMARK INTER:                  -6.299
REMARK INTRA:                  -0.271
REMARK UNBOUND:                -0.275
REMARK SMILES O=c1cc(-c2ccc(O)c(O)c2)oc2cc(O)cc(O)c12
REMARK SMILES IDX 4 1 3 2 2 3 1 4 21 5 19 6 18 7 16 8 15 9 14 10 13 11 5 12
REMARK SMILES IDX 6 13 7 14 8 15 12 16 10 17 9 18 11 20 20 22 17 24
REMARK H PARENT 9 19 11 21 20 23 17 25
REMARK Flexibility Score: inf
ROOT
ATOM      1  C   UNL     1     -10.333 -15.656  19.174  1.00  0.00     0.138 A 
ATOM      2  C   UNL     1     -11.359 -15.610  20.129  1.00  0.00     0.100 A 
ATOM      3  C   UNL     1     -12.173 -16.727  20.322  1.00  0.00     0.197 A 
ATOM      4  O   UNL     1     -13.044 -16.677  21.228  1.00  0.00    -0.289 OA
ATOM      5  C   UNL     1     -11.977 -17.885  19.532  1.00  0.00     0.107 A 
ATOM      6  C   UNL     1     -12.772 -19.068  19.612  1.00  0.00     0.134 A 
ATOM      7  C   UNL     1     -12.412 -20.194  18.862  1.00  0.00     0.093 A 
ATOM      8  C   UNL     1     -11.321 -20.159  17.989  1.00  0.00     0.123 A 
ATOM      9  C   UNL     1     -10.571 -18.992  17.863  1.00  0.00     0.094 A 
ATOM     10  C   UNL     1     -10.885 -17.863  18.624  1.00  0.00     0.146 A 
ATOM     11  O   UNL     1     -10.136 -16.774  18.485  1.00  0.00    -0.456 OA
ENDROOT
BRANCH   1  12
ATOM     12  C   UNL     1      -9.440 -14.497  18.928  1.00  0.00     0.021 A 
ATOM     13  C   UNL     1      -8.038 -14.619  18.978  1.00  0.00     0.016 A 
ATOM     14  C   UNL     1      -7.221 -13.508  18.753  1.00  0.00     0.051 A 
ATOM     15  C   UNL     1      -7.783 -12.259  18.481  1.00  0.00     0.157 A 
ATOM     16  C   UNL     1     -10.000 -13.233  18.668  1.00  0.00     0.062 A 
ATOM     17  C   UNL     1      -9.180 -12.118  18.440  1.00  0.00     0.158 A 
BRANCH  15  18
ATOM     18  O   UNL     1      -6.941 -11.169  18.259  1.00  0.00    -0.504 OA
ATOM     19  H   UNL     1      -5.938 -11.231  18.383  1.00  0.00     0.293 HD
ENDBRANCH  15  18
BRANCH  17  20
ATOM     20  O   UNL     1      -9.749 -10.873  18.174  1.00  0.00    -0.504 OA
ATOM     21  H   UNL     1     -10.737 -10.700  18.318  1.00  0.00     0.293 HD
ENDBRANCH  17  20
ENDBRANCH   1  12
BRANCH   6  22
ATOM     22  O   UNL     1     -13.930 -19.180  20.388  1.00  0.00    -0.507 OA
ATOM     23  H   UNL     1     -14.542 -18.414  20.624  1.00  0.00     0.293 HD
ENDBRANCH   6  22
BRANCH   8  24
ATOM     24  O   UNL     1     -10.979 -21.279  17.235  1.00  0.00    -0.508 OA
ATOM     25  H   UNL     1     -11.543 -22.121  17.251  1.00  0.00     0.293 HD
ENDBRANCH   8  24
TORSDOF 5
ENDMDL
MODEL 7
REMARK VINA RESULT:    -4.922      1.200      2.613
REMARK INTER + INTRA:          -6.060
REMARK INTER:                  -5.767
REMARK INTRA:                  -0.293
REMARK UNBOUND:                -0.275
REMARK SMILES O=c1cc(-c2ccc(O)c(O)c2)oc2cc(O)cc(O)c12
REMARK SMILES IDX 4 1 3 2 2 3 1 4 21 5 19 6 18 7 16 8 15 9 14 10 13 11 5 12
REMARK SMILES IDX 6 13 7 14 8 15 12 16 10 17 9 18 11 20 20 22 17 24
REMARK H PARENT 9 19 11 21 20 23 17 25
REMARK Flexibility Score: inf
ROOT
ATOM      1  C   UNL     1     -12.659 -17.713  24.576  1.00  0.00     0.138 A 
ATOM      2  C   UNL     1     -12.915 -16.349  24.770  1.00  0.00     0.100 A 
ATOM      3  C   UNL     1     -12.777 -15.795  26.045  1.00  0.00     0.197 A 
ATOM      4  O   UNL     1     -12.953 -14.556  26.176  1.00  0.00    -0.289 OA
ATOM      5  C   UNL     1     -12.411 -16.621  27.134  1.00  0.00     0.107 A 
ATOM      6  C   UNL     1     -12.281 -16.175  28.484  1.00  0.00     0.134 A 
ATOM      7  C   UNL     1     -11.800 -17.058  29.459  1.00  0.00     0.093 A 
ATOM      8  C   UNL     1     -11.503 -18.386  29.144  1.00  0.00     0.123 A 
ATOM      9  C   UNL     1     -11.678 -18.846  27.841  1.00  0.00     0.094 A 
ATOM     10  C   UNL     1     -12.124 -17.980  26.839  1.00  0.00     0.146 A 
ATOM     11  O   UNL     1     -12.264 -18.454  25.605  1.00  0.00    -0.456 OA
ENDROOT
BRANCH   1  12
ATOM     12  C   UNL     1     -12.791 -18.353  23.243  1.00  0.00     0.021 A 
ATOM     13  C   UNL     1     -13.916 -18.134  22.426  1.00  0.00     0.016 A 
ATOM     14  C   UNL     1     -14.020 -18.758  21.180  1.00  0.00     0.051 A 
ATOM     15  C   UNL     1     -13.010 -19.613  20.730  1.00  0.00     0.157 A 
ATOM     16  C   UNL     1     -11.786 -19.226  22.791  1.00  0.00     0.062 A 
ATOM     17  C   UNL     1     -11.888 -19.851  21.540  1.00  0.00     0.158 A 
BRANCH  15  18
ATOM     18  O   UNL     1     -13.141 -20.220  19.481  1.00  0.00    -0.504 OA
ATOM     19  H   UNL     1     -12.450 -20.101  18.750  1.00  0.00     0.293 HD
ENDBRANCH  15  18
BRANCH  17  20
ATOM     20  O   UNL     1     -10.879 -20.707  21.099  1.00  0.00    -0.504 OA
ATOM     21  H   UNL     1     -10.923 -21.156  20.192  1.00  0.00     0.293 HD
ENDBRANCH  17  20
ENDBRANCH   1  12
BRANCH   6  22
ATOM     22  O   UNL     1     -12.630 -14.893  28.920  1.00  0.00    -0.507 OA
ATOM     23  H   UNL     1     -13.573 -14.538  28.968  1.00  0.00     0.293 HD
ENDBRANCH   6  22
BRANCH   8  24
ATOM     24  O   UNL     1     -11.039 -19.261  30.124  1.00  0.00    -0.508 OA
ATOM     25  H   UNL     1     -10.927 -18.967  31.087  1.00  0.00     0.293 HD
ENDBRANCH   8  24
TORSDOF 5
ENDMDL
MODEL 8
REMARK VINA RESULT:    -4.537     20.122     21.879
REMARK INTER + INTRA:          -5.607
REMARK INTER:                  -5.311
REMARK INTRA:                  -0.297
REMARK UNBOUND:                -0.275
REMARK SMILES O=c1cc(-c2ccc(O)c(O)c2)oc2cc(O)cc(O)c12
REMARK SMILES IDX 4 1 3 2 2 3 1 4 21 5 19 6 18 7 16 8 15 9 14 10 13 11 5 12
REMARK SMILES IDX 6 13 7 14 8 15 12 16 10 17 9 18 11 20 20 22 17 24
REMARK H PARENT 9 19 11 21 20 23 17 25
REMARK Flexibility Score: inf
ROOT
ATOM      1  C   UNL     1       4.242 -16.123  11.316  1.00  0.00     0.138 A 
ATOM      2  C   UNL     1       5.068 -16.890  12.149  1.00  0.00     0.100 A 
ATOM      3  C   UNL     1       4.736 -18.219  12.417  1.00  0.00     0.197 A 
ATOM      4  O   UNL     1       5.529 -18.900  13.118  1.00  0.00    -0.289 OA
ATOM      5  C   UNL     1       3.552 -18.772  11.872  1.00  0.00     0.107 A 
ATOM      6  C   UNL     1       3.092 -20.101  12.110  1.00  0.00     0.134 A 
ATOM      7  C   UNL     1       1.967 -20.576  11.423  1.00  0.00     0.093 A 
ATOM      8  C   UNL     1       1.252 -19.748  10.554  1.00  0.00     0.123 A 
ATOM      9  C   UNL     1       1.662 -18.432  10.356  1.00  0.00     0.094 A 
ATOM     10  C   UNL     1       2.800 -17.940  11.000  1.00  0.00     0.146 A 
ATOM     11  O   UNL     1       3.166 -16.683  10.773  1.00  0.00    -0.456 OA
ENDROOT
BRANCH   1  12
ATOM     12  C   UNL     1       4.548 -14.706  10.999  1.00  0.00     0.021 A 
ATOM     13  C   UNL     1       5.865 -14.269  10.760  1.00  0.00     0.016 A 
ATOM     14  C   UNL     1       6.125 -12.926  10.474  1.00  0.00     0.051 A 
ATOM     15  C   UNL     1       5.082 -11.997  10.428  1.00  0.00     0.157 A 
ATOM     16  C   UNL     1       3.505 -13.763  10.964  1.00  0.00     0.062 A 
ATOM     17  C   UNL     1       3.765 -12.415  10.676  1.00  0.00     0.158 A 
BRANCH  15  18
ATOM     18  O   UNL     1       5.374 -10.664  10.139  1.00  0.00    -0.504 OA
ATOM     19  H   UNL     1       5.489  -9.968  10.866  1.00  0.00     0.293 HD
ENDBRANCH  15  18
BRANCH  17  20
ATOM     20  O   UNL     1       2.721 -11.493  10.637  1.00  0.00    -0.504 OA
ATOM     21  H   UNL     1       1.751 -11.788  10.637  1.00  0.00     0.293 HD
ENDBRANCH  17  20
ENDBRANCH   1  12
BRANCH   6  22
ATOM     22  O   UNL     1       3.683 -20.982  13.022  1.00  0.00    -0.507 OA
ATOM     23  H   UNL     1       3.710 -21.985  12.920  1.00  0.00     0.293 HD
ENDBRANCH   6  22
BRANCH   8  24
ATOM     24  O   UNL     1       0.126 -20.224   9.886  1.00  0.00    -0.508 OA
ATOM     25  H   UNL     1      -0.794 -20.193  10.310  1.00  0.00     0.293 HD
ENDBRANCH   8  24
TORSDOF 5
ENDMDL
MODEL 9
REMARK VINA RESULT:    -4.371      5.493      7.550
REMARK INTER + INTRA:          -5.413
REMARK INTER:                  -5.095
REMARK INTRA:                  -0.318
REMARK UNBOUND:                -0.275
REMARK SMILES O=c1cc(-c2ccc(O)c(O)c2)oc2cc(O)cc(O)c12
REMARK SMILES IDX 4 1 3 2 2 3 1 4 21 5 19 6 18 7 16 8 15 9 14 10 13 11 5 12
REMARK SMILES IDX 6 13 7 14 8 15 12 16 10 17 9 18 11 20 20 22 17 24
REMARK H PARENT 9 19 11 21 20 23 17 25
REMARK Flexibility Score: inf
ROOT
ATOM      1  C   UNL     1     -10.427 -16.489  19.205  1.00  0.00     0.138 A 
ATOM      2  C   UNL     1      -9.456 -16.421  18.195  1.00  0.00     0.100 A 
ATOM      3  C   UNL     1      -8.647 -15.288  18.091  1.00  0.00     0.197 A 
ATOM      4  O   UNL     1      -7.744 -15.282  17.214  1.00  0.00    -0.289 OA
ATOM      5  C   UNL     1      -8.833 -14.207  18.984  1.00  0.00     0.107 A 
ATOM      6  C   UNL     1      -8.096 -12.985  18.947  1.00  0.00     0.134 A 
ATOM      7  C   UNL     1      -8.287 -12.032  19.955  1.00  0.00     0.093 A 
ATOM      8  C   UNL     1      -9.234 -12.230  20.963  1.00  0.00     0.123 A 
ATOM      9  C   UNL     1      -9.997 -13.395  20.978  1.00  0.00     0.094 A 
ATOM     10  C   UNL     1      -9.805 -14.380  20.006  1.00  0.00     0.146 A 
ATOM     11  O   UNL     1     -10.544 -15.483  20.064  1.00  0.00    -0.456 OA
ENDROOT
BRANCH   1  12
ATOM     12  C   UNL     1     -11.314 -17.669  19.360  1.00  0.00     0.021 A 
ATOM     13  C   UNL     1     -11.217 -18.785  18.506  1.00  0.00     0.016 A 
ATOM     14  C   UNL     1     -12.073 -19.878  18.668  1.00  0.00     0.051 A 
ATOM     15  C   UNL     1     -13.041 -19.876  19.676  1.00  0.00     0.157 A 
ATOM     16  C   UNL     1     -12.300 -17.668  20.362  1.00  0.00     0.062 A 
ATOM     17  C   UNL     1     -13.158 -18.765  20.527  1.00  0.00     0.158 A 
BRANCH  15  18
ATOM     18  O   UNL     1     -13.880 -20.982  19.813  1.00  0.00    -0.504 OA
ATOM     19  H   UNL     1     -13.744 -21.830  19.276  1.00  0.00     0.293 HD
ENDBRANCH  15  18
BRANCH  17  20
ATOM     20  O   UNL     1     -14.125 -18.754  21.531  1.00  0.00    -0.504 OA
ATOM     21  H   UNL     1     -14.498 -19.613  21.918  1.00  0.00     0.293 HD
ENDBRANCH  17  20
ENDBRANCH   1  12
BRANCH   6  22
ATOM     22  O   UNL     1      -7.188 -12.652  17.937  1.00  0.00    -0.507 OA
ATOM     23  H   UNL     1      -7.415 -12.586  16.956  1.00  0.00     0.293 HD
ENDBRANCH   6  22
BRANCH   8  24
ATOM     24  O   UNL     1      -9.428 -11.269  21.953  1.00  0.00    -0.508 OA
ATOM     25  H   UNL     1     -10.105 -10.524  21.842  1.00  0.00     0.293 HD
ENDBRANCH   8  24
TORSDOF 5
ENDMDL
