MODEL 1
REMARK VINA RESULT:    -1.194      0.000      0.000
REMARK INTER + INTRA:          -1.330
REMARK INTER:                  -1.299
REMARK INTRA:                  -0.032
REMARK UNBOUND:                -0.032
REMARK SMILES CC1(C)CC[C@]2(C(=O)[O-])CC[C@@]3(C)C(=CC[C@@H]4[C@]5(C)CC[C@H](O)C(C)(C)[C@H]5CC[C@@]43C)[C@@H]2C1
REMARK SMILES IDX 6 1 5 2 10 3 32 4 4 5 11 6 14 7 33 8 2 9 12 10 15 11 1 12
REMARK SMILES IDX 3 13 13 14 30 15 16 16 17 17 29 18 31 19 18 20 28 21 27 22
REMARK SMILES IDX 20 23 19 24 24 25 21 26 22 27 25 28 26 29 7 30 8 31 9 32
REMARK SMILES IDX 23 33
REMARK H PARENT 23 34
REMARK Flexibility Score: inf
ROOT
ATOM      1  C   UNL     1      14.195 -16.773  -8.674  1.00  0.00     0.017 C 
ATOM      2  C   UNL     1      12.973 -15.996  -8.078  1.00  0.00     0.014 C 
ATOM      3  C   UNL     1      14.056 -16.773 -10.235  1.00  0.00     0.014 C 
ATOM      4  C   UNL     1      14.270 -18.227  -8.046  1.00  0.00     0.028 C 
ATOM      5  C   UNL     1      12.800 -16.266  -6.578  1.00  0.00     0.007 C 
ATOM      6  C   UNL     1      13.558 -18.106 -10.809  1.00  0.00     0.013 C 
ATOM      7  C   UNL     1      14.817 -19.297  -8.993  1.00  0.00    -0.064 C 
ATOM      8  C   UNL     1      12.923 -18.694  -7.439  1.00  0.00     0.015 C 
ATOM      9  C   UNL     1      12.418 -17.754  -6.299  1.00  0.00    -0.035 C 
ATOM     10  C   UNL     1      14.544 -19.279 -10.498  1.00  0.00    -0.006 C 
ATOM     11  C   UNL     1      15.498 -20.333  -8.475  1.00  0.00    -0.027 C 
ATOM     12  C   UNL     1      10.880 -17.883  -6.195  1.00  0.00     0.011 C 
ATOM     13  C   UNL     1      13.028 -18.192  -4.948  1.00  0.00     0.011 C 
ATOM     14  C   UNL     1      15.899 -18.951 -11.222  1.00  0.00     0.017 C 
ATOM     15  C   UNL     1      13.971 -20.721 -10.959  1.00  0.00    -0.020 C 
ATOM     16  C   UNL     1      15.958 -21.459  -9.351  1.00  0.00     0.032 C 
ATOM     17  C   UNL     1      14.811 -21.939 -10.290  1.00  0.00     0.006 C 
ATOM     18  C   UNL     1      13.915 -20.761 -12.525  1.00  0.00     0.008 C 
ATOM     19  C   UNL     1      12.490 -20.887 -10.478  1.00  0.00     0.012 C 
ATOM     20  C   UNL     1      15.110 -23.271 -11.171  1.00  0.00    -0.025 C 
ATOM     21  C   UNL     1      13.820 -22.157 -13.104  1.00  0.00     0.005 C 
ATOM     22  C   UNL     1      15.074 -22.963 -12.714  1.00  0.00     0.003 C 
ATOM     23  C   UNL     1      16.509 -23.940 -10.833  1.00  0.00     0.010 C 
ATOM     24  C   UNL     1      14.009 -24.317 -10.785  1.00  0.00     0.012 C 
ATOM     25  C   UNL     1      15.362 -24.187 -13.696  1.00  0.00    -0.006 C 
ATOM     26  C   UNL     1      17.255 -24.592 -12.013  1.00  0.00     0.033 C 
ATOM     27  C   UNL     1      16.308 -25.246 -13.024  1.00  0.00     0.120 C 
ATOM     28  C   UNL     1      16.038 -23.628 -14.985  1.00  0.00     0.014 C 
ATOM     29  C   UNL     1      14.065 -24.910 -14.151  1.00  0.00     0.014 C 
ENDROOT
BRANCH   1  30
ATOM     30  C   UNL     1      15.497 -16.045  -8.332  1.00  0.00     0.048 C 
ATOM     31  O   UNL     1      16.620 -16.486  -8.702  1.00  0.00    -0.550 OA
ATOM     32  O   UNL     1      15.455 -14.881  -7.568  1.00  0.00    -0.550 OA
ENDBRANCH   1  30
BRANCH  27  33
ATOM     33  O   UNL     1      17.026 -26.002 -13.975  1.00  0.00    -0.393 OA
ATOM     34  H   UNL     1      17.540 -25.381 -14.553  1.00  0.00     0.210 HD
ENDBRANCH  27  33
TORSDOF 2
ENDMDL
