MODEL 1
REMARK VINA RESULT:    -2.043      0.000      0.000
REMARK INTER + INTRA:          -2.043
REMARK INTER:                  -2.043
REMARK INTRA:                   0.000
REMARK UNBOUND:                 0.000
REMARK SMILES CC1(C)O[C@]2(C)CC[C@H]1CC2
REMARK SMILES IDX 1 1 2 2 9 3 10 4 11 5 5 6 4 7 7 8 8 9 6 10 3 11
REMARK H PARENT
REMARK Flexibility Score: inf
ROOT
ATOM      1  C   UNL     1       4.729  -5.706  17.449  1.00  0.00     0.042 C 
ATOM      2  C   UNL     1       4.187  -4.273  17.640  1.00  0.00     0.066 C 
ATOM      3  C   UNL     1       4.528  -3.736  19.084  1.00  0.00     0.021 C 
ATOM      4  C   UNL     1       3.919  -2.322  19.237  1.00  0.00     0.009 C 
ATOM      5  C   UNL     1       2.422  -2.368  18.844  1.00  0.00     0.035 C 
ATOM      6  C   UNL     1       2.008  -3.832  18.516  1.00  0.00     0.066 C 
ATOM      7  O   UNL     1       2.771  -4.297  17.402  1.00  0.00    -0.369 OA
ATOM      8  C   UNL     1       2.308  -4.731  19.751  1.00  0.00     0.035 C 
ATOM      9  C   UNL     1       3.808  -4.629  20.122  1.00  0.00     0.009 C 
ATOM     10  C   UNL     1       0.520  -3.898  18.159  1.00  0.00     0.042 C 
ATOM     11  C   UNL     1       4.841  -3.386  16.559  1.00  0.00     0.042 C 
ENDROOT
TORSDOF 0
ENDMDL
MODEL 2
REMARK VINA RESULT:    -2.030      2.399      3.857
REMARK INTER + INTRA:          -2.030
REMARK INTER:                  -2.030
REMARK INTRA:                   0.000
REMARK UNBOUND:                 0.000
REMARK SMILES CC1(C)O[C@]2(C)CC[C@H]1CC2
REMARK SMILES IDX 1 1 2 2 9 3 10 4 11 5 5 6 4 7 7 8 8 9 6 10 3 11
REMARK H PARENT
REMARK Flexibility Score: inf
ROOT
ATOM      1  C   UNL     1       6.913  -0.796  19.944  1.00  0.00     0.042 C 
ATOM      2  C   UNL     1       5.997  -1.895  20.525  1.00  0.00     0.066 C 
ATOM      3  C   UNL     1       6.535  -3.328  20.141  1.00  0.00     0.021 C 
ATOM      4  C   UNL     1       5.554  -4.386  20.703  1.00  0.00     0.009 C 
ATOM      5  C   UNL     1       4.115  -4.035  20.252  1.00  0.00     0.035 C 
ATOM      6  C   UNL     1       4.144  -2.794  19.314  1.00  0.00     0.066 C 
ATOM      7  O   UNL     1       4.668  -1.675  20.030  1.00  0.00    -0.369 OA
ATOM      8  C   UNL     1       5.070  -3.101  18.100  1.00  0.00     0.035 C 
ATOM      9  C   UNL     1       6.486  -3.473  18.601  1.00  0.00     0.009 C 
ATOM     10  C   UNL     1       2.730  -2.456  18.833  1.00  0.00     0.042 C 
ATOM     11  C   UNL     1       5.976  -1.713  22.058  1.00  0.00     0.042 C 
ENDROOT
TORSDOF 0
ENDMDL
MODEL 3
REMARK VINA RESULT:    -2.007      1.137      2.369
REMARK INTER + INTRA:          -2.007
REMARK INTER:                  -2.007
REMARK INTRA:                   0.000
REMARK UNBOUND:                 0.000
REMARK SMILES CC1(C)O[C@]2(C)CC[C@H]1CC2
REMARK SMILES IDX 1 1 2 2 9 3 10 4 11 5 5 6 4 7 7 8 8 9 6 10 3 11
REMARK H PARENT
REMARK Flexibility Score: inf
ROOT
ATOM      1  C   UNL     1       4.927  -2.223  17.512  1.00  0.00     0.042 C 
ATOM      2  C   UNL     1       4.190  -2.855  18.713  1.00  0.00     0.066 C 
ATOM      3  C   UNL     1       4.339  -4.426  18.693  1.00  0.00     0.021 C 
ATOM      4  C   UNL     1       3.541  -5.008  19.885  1.00  0.00     0.009 C 
ATOM      5  C   UNL     1       2.100  -4.441  19.858  1.00  0.00     0.035 C 
ATOM      6  C   UNL     1       1.908  -3.552  18.595  1.00  0.00     0.066 C 
ATOM      7  O   UNL     1       2.815  -2.450  18.655  1.00  0.00    -0.369 OA
ATOM      8  C   UNL     1       2.218  -4.400  17.328  1.00  0.00     0.035 C 
ATOM      9  C   UNL     1       3.656  -4.967  17.414  1.00  0.00     0.009 C 
ATOM     10  C   UNL     1       0.476  -3.012  18.537  1.00  0.00     0.042 C 
ATOM     11  C   UNL     1       4.812  -2.264  19.996  1.00  0.00     0.042 C 
ENDROOT
TORSDOF 0
ENDMDL
MODEL 4
REMARK VINA RESULT:    -1.970      1.556      2.595
REMARK INTER + INTRA:          -1.970
REMARK INTER:                  -1.970
REMARK INTRA:                   0.000
REMARK UNBOUND:                 0.000
REMARK SMILES CC1(C)O[C@]2(C)CC[C@H]1CC2
REMARK SMILES IDX 1 1 2 2 9 3 10 4 11 5 5 6 4 7 7 8 8 9 6 10 3 11
REMARK H PARENT
REMARK Flexibility Score: inf
ROOT
ATOM      1  C   UNL     1       6.690  -3.077  17.800  1.00  0.00     0.042 C 
ATOM      2  C   UNL     1       5.186  -3.400  17.935  1.00  0.00     0.066 C 
ATOM      3  C   UNL     1       4.439  -2.257  18.726  1.00  0.00     0.021 C 
ATOM      4  C   UNL     1       2.951  -2.656  18.875  1.00  0.00     0.009 C 
ATOM      5  C   UNL     1       2.865  -4.086  19.464  1.00  0.00     0.035 C 
ATOM      6  C   UNL     1       4.293  -4.606  19.794  1.00  0.00     0.066 C 
ATOM      7  O   UNL     1       5.059  -4.671  18.590  1.00  0.00    -0.369 OA
ATOM      8  C   UNL     1       4.977  -3.617  20.781  1.00  0.00     0.035 C 
ATOM      9  C   UNL     1       5.014  -2.199  20.162  1.00  0.00     0.009 C 
ATOM     10  C   UNL     1       4.221  -6.007  20.409  1.00  0.00     0.042 C 
ATOM     11  C   UNL     1       4.616  -3.537  16.506  1.00  0.00     0.042 C 
ENDROOT
TORSDOF 0
ENDMDL
MODEL 5
REMARK VINA RESULT:    -1.937      1.546      3.330
REMARK INTER + INTRA:          -1.937
REMARK INTER:                  -1.937
REMARK INTRA:                   0.000
REMARK UNBOUND:                 0.000
REMARK SMILES CC1(C)O[C@]2(C)CC[C@H]1CC2
REMARK SMILES IDX 1 1 2 2 9 3 10 4 11 5 5 6 4 7 7 8 8 9 6 10 3 11
REMARK H PARENT
REMARK Flexibility Score: inf
ROOT
ATOM      1  C   UNL     1       0.418  -4.543  16.262  1.00  0.00     0.042 C 
ATOM      2  C   UNL     1       1.343  -4.942  17.433  1.00  0.00     0.066 C 
ATOM      3  C   UNL     1       0.567  -4.874  18.805  1.00  0.00     0.021 C 
ATOM      4  C   UNL     1       1.552  -5.232  19.943  1.00  0.00     0.009 C 
ATOM      5  C   UNL     1       2.821  -4.354  19.813  1.00  0.00     0.035 C 
ATOM      6  C   UNL     1       2.645  -3.345  18.642  1.00  0.00     0.066 C 
ATOM      7  O   UNL     1       2.481  -4.066  17.421  1.00  0.00    -0.369 OA
ATOM      8  C   UNL     1       1.373  -2.486  18.902  1.00  0.00     0.035 C 
ATOM      9  C   UNL     1       0.139  -3.407  19.053  1.00  0.00     0.009 C 
ATOM     10  C   UNL     1       3.879  -2.446  18.524  1.00  0.00     0.042 C 
ATOM     11  C   UNL     1       1.840  -6.378  17.157  1.00  0.00     0.042 C 
ENDROOT
TORSDOF 0
ENDMDL
MODEL 6
REMARK VINA RESULT:    -1.913      1.513      1.753
REMARK INTER + INTRA:          -1.913
REMARK INTER:                  -1.913
REMARK INTRA:                   0.000
REMARK UNBOUND:                 0.000
REMARK SMILES CC1(C)O[C@]2(C)CC[C@H]1CC2
REMARK SMILES IDX 1 1 2 2 9 3 10 4 11 5 5 6 4 7 7 8 8 9 6 10 3 11
REMARK H PARENT
REMARK Flexibility Score: inf
ROOT
ATOM      1  C   UNL     1       6.826  -5.057  18.592  1.00  0.00     0.042 C 
ATOM      2  C   UNL     1       5.948  -3.788  18.517  1.00  0.00     0.066 C 
ATOM      3  C   UNL     1       5.720  -3.183  19.956  1.00  0.00     0.021 C 
ATOM      4  C   UNL     1       4.795  -1.949  19.828  1.00  0.00     0.009 C 
ATOM      5  C   UNL     1       3.530  -2.343  19.026  1.00  0.00     0.035 C 
ATOM      6  C   UNL     1       3.567  -3.863  18.698  1.00  0.00     0.066 C 
ATOM      7  O   UNL     1       4.708  -4.141  17.885  1.00  0.00    -0.369 OA
ATOM      8  C   UNL     1       3.679  -4.665  20.027  1.00  0.00     0.035 C 
ATOM      9  C   UNL     1       4.940  -4.217  20.804  1.00  0.00     0.009 C 
ATOM     10  C   UNL     1       2.304  -4.274  17.934  1.00  0.00     0.042 C 
ATOM     11  C   UNL     1       6.679  -2.776  17.609  1.00  0.00     0.042 C 
ENDROOT
TORSDOF 0
ENDMDL
MODEL 7
REMARK VINA RESULT:    -1.900      1.333      2.610
REMARK INTER + INTRA:          -1.900
REMARK INTER:                  -1.900
REMARK INTRA:                   0.000
REMARK UNBOUND:                 0.000
REMARK SMILES CC1(C)O[C@]2(C)CC[C@H]1CC2
REMARK SMILES IDX 1 1 2 2 9 3 10 4 11 5 5 6 4 7 7 8 8 9 6 10 3 11
REMARK H PARENT
REMARK Flexibility Score: inf
ROOT
ATOM      1  C   UNL     1       4.932  -4.064  20.756  1.00  0.00     0.042 C 
ATOM      2  C   UNL     1       4.069  -4.694  19.640  1.00  0.00     0.066 C 
ATOM      3  C   UNL     1       4.345  -3.987  18.257  1.00  0.00     0.021 C 
ATOM      4  C   UNL     1       3.419  -4.621  17.190  1.00  0.00     0.009 C 
ATOM      5  C   UNL     1       1.960  -4.602  17.707  1.00  0.00     0.035 C 
ATOM      6  C   UNL     1       1.897  -3.872  19.080  1.00  0.00     0.066 C 
ATOM      7  O   UNL     1       2.691  -4.586  20.028  1.00  0.00    -0.369 OA
ATOM      8  C   UNL     1       2.469  -2.434  18.915  1.00  0.00     0.035 C 
ATOM      9  C   UNL     1       3.916  -2.505  18.370  1.00  0.00     0.009 C 
ATOM     10  C   UNL     1       0.453  -3.816  19.587  1.00  0.00     0.042 C 
ATOM     11  C   UNL     1       4.432  -6.193  19.570  1.00  0.00     0.042 C 
ENDROOT
TORSDOF 0
ENDMDL
MODEL 8
REMARK VINA RESULT:    -1.898      3.489      4.813
REMARK INTER + INTRA:          -1.898
REMARK INTER:                  -1.898
REMARK INTRA:                   0.000
REMARK UNBOUND:                 0.000
REMARK SMILES CC1(C)O[C@]2(C)CC[C@H]1CC2
REMARK SMILES IDX 1 1 2 2 9 3 10 4 11 5 5 6 4 7 7 8 8 9 6 10 3 11
REMARK H PARENT
REMARK Flexibility Score: inf
ROOT
ATOM      1  C   UNL     1       8.519  -1.106  20.058  1.00  0.00     0.042 C 
ATOM      2  C   UNL     1       7.268  -1.969  19.785  1.00  0.00     0.066 C 
ATOM      3  C   UNL     1       5.952  -1.134  20.026  1.00  0.00     0.021 C 
ATOM      4  C   UNL     1       4.734  -2.060  19.789  1.00  0.00     0.009 C 
ATOM      5  C   UNL     1       4.907  -3.351  20.626  1.00  0.00     0.035 C 
ATOM      6  C   UNL     1       6.194  -3.249  21.493  1.00  0.00     0.066 C 
ATOM      7  O   UNL     1       7.329  -3.124  20.635  1.00  0.00    -0.369 OA
ATOM      8  C   UNL     1       6.096  -1.985  22.396  1.00  0.00     0.035 C 
ATOM      9  C   UNL     1       5.897  -0.726  21.518  1.00  0.00     0.009 C 
ATOM     10  C   UNL     1       6.359  -4.506  22.352  1.00  0.00     0.042 C 
ATOM     11  C   UNL     1       7.351  -2.448  18.319  1.00  0.00     0.042 C 
ENDROOT
TORSDOF 0
ENDMDL
MODEL 9
REMARK VINA RESULT:    -1.875      1.803      2.623
REMARK INTER + INTRA:          -1.875
REMARK INTER:                  -1.875
REMARK INTRA:                   0.000
REMARK UNBOUND:                 0.000
REMARK SMILES CC1(C)O[C@]2(C)CC[C@H]1CC2
REMARK SMILES IDX 1 1 2 2 9 3 10 4 11 5 5 6 4 7 7 8 8 9 6 10 3 11
REMARK H PARENT
REMARK Flexibility Score: inf
ROOT
ATOM      1  C   UNL     1       0.241  -6.158  17.207  1.00  0.00     0.042 C 
ATOM      2  C   UNL     1       1.238  -4.996  17.410  1.00  0.00     0.066 C 
ATOM      3  C   UNL     1       2.171  -5.274  18.651  1.00  0.00     0.021 C 
ATOM      4  C   UNL     1       3.112  -4.059  18.838  1.00  0.00     0.009 C 
ATOM      5  C   UNL     1       2.266  -2.762  18.875  1.00  0.00     0.035 C 
ATOM      6  C   UNL     1       0.753  -3.118  18.805  1.00  0.00     0.066 C 
ATOM      7  O   UNL     1       0.484  -3.785  17.571  1.00  0.00    -0.369 OA
ATOM      8  C   UNL     1       0.402  -4.069  19.986  1.00  0.00     0.035 C 
ATOM      9  C   UNL     1       1.291  -5.335  19.922  1.00  0.00     0.009 C 
ATOM     10  C   UNL     1      -0.097  -1.846  18.875  1.00  0.00     0.042 C 
ATOM     11  C   UNL     1       2.072  -4.875  16.116  1.00  0.00     0.042 C 
ENDROOT
TORSDOF 0
ENDMDL
