MODEL 1
REMARK VINA RESULT:    -4.301      0.000      0.000
REMARK INTER + INTRA:          -9.583
REMARK INTER:                  -7.822
REMARK INTRA:                  -1.761
REMARK UNBOUND:                -1.761
REMARK SMILES CCCCCCCCCCCCCCCC(=O)[O-]
REMARK SMILES IDX 9 1 10 2 11 3 12 4 13 5 14 6 15 7 16 8 17 9 18 10 8 11 7 12
REMARK SMILES IDX 6 13 5 14 4 15 3 16 2 17 1 18
REMARK H PARENT
REMARK Flexibility Score: inf
ROOT
ATOM      1  C   UNL     1     -10.235  -6.884 -12.797  1.00  0.00     0.000 C 
ENDROOT
BRANCH   1   2
ATOM      2  C   UNL     1      -9.993  -7.872 -13.948  1.00  0.00     0.000 C 
BRANCH   2   3
ATOM      3  C   UNL     1      -8.505  -8.010 -14.315  1.00  0.00     0.000 C 
BRANCH   3   4
ATOM      4  C   UNL     1      -7.527  -7.936 -13.123  1.00  0.00     0.000 C 
BRANCH   4   5
ATOM      5  C   UNL     1      -6.449  -6.843 -13.228  1.00  0.00     0.000 C 
BRANCH   5   6
ATOM      6  C   UNL     1      -6.778  -5.779 -14.290  1.00  0.00     0.006 C 
BRANCH   6   7
ATOM      7  C   UNL     1      -7.515  -4.574 -13.692  1.00  0.00     0.053 C 
BRANCH   7   8
ATOM      8  C   UNL     1      -6.565  -3.565 -13.125  1.00  0.00     0.041 C 
ATOM      9  O   UNL     1      -5.326  -3.786 -13.136  1.00  0.00    -0.550 OA
ATOM     10  O   UNL     1      -7.050  -2.394 -12.556  1.00  0.00    -0.550 OA
ENDBRANCH   7   8
ENDBRANCH   6   7
ENDBRANCH   5   6
ENDBRANCH   4   5
ENDBRANCH   3   4
ENDBRANCH   2   3
ENDBRANCH   1   2
BRANCH   1  11
ATOM     11  C   UNL     1     -10.872  -7.589 -11.595  1.00  0.00     0.000 C 
BRANCH  11  12
ATOM     12  C   UNL     1     -10.454  -6.916 -10.279  1.00  0.00    -0.000 C 
BRANCH  12  13
ATOM     13  C   UNL     1      -8.929  -6.910 -10.072  1.00  0.00    -0.000 C 
BRANCH  13  14
ATOM     14  C   UNL     1      -8.248  -5.552 -10.326  1.00  0.00    -0.000 C 
BRANCH  14  15
ATOM     15  C   UNL     1      -6.788  -5.485  -9.827  1.00  0.00    -0.000 C 
BRANCH  15  16
ATOM     16  C   UNL     1      -6.367  -4.054  -9.447  1.00  0.00    -0.000 C 
BRANCH  16  17
ATOM     17  C   UNL     1      -5.378  -4.023  -8.273  1.00  0.00    -0.003 C 
ATOM     18  C   UNL     1      -4.916  -5.417  -7.850  1.00  0.00     0.004 C 
ENDBRANCH  16  17
ENDBRANCH  15  16
ENDBRANCH  14  15
ENDBRANCH  13  14
ENDBRANCH  12  13
ENDBRANCH  11  12
ENDBRANCH   1  11
TORSDOF 14
ENDMDL
MODEL 2
REMARK VINA RESULT:    -4.137      2.080      4.487
REMARK INTER + INTRA:          -9.285
REMARK INTER:                  -7.621
REMARK INTRA:                  -1.664
REMARK UNBOUND:                -1.761
REMARK SMILES CCCCCCCCCCCCCCCC(=O)[O-]
REMARK SMILES IDX 9 1 10 2 11 3 12 4 13 5 14 6 15 7 16 8 17 9 18 10 8 11 7 12
REMARK SMILES IDX 6 13 5 14 4 15 3 16 2 17 1 18
REMARK H PARENT
REMARK Flexibility Score: inf
ROOT
ATOM      1  C   UNL     1     -11.106  -7.351 -11.012  1.00  0.00     0.000 C 
ENDROOT
BRANCH   1   2
ATOM      2  C   UNL     1     -10.144  -7.029  -9.859  1.00  0.00     0.000 C 
BRANCH   2   3
ATOM      3  C   UNL     1      -8.791  -7.752  -9.989  1.00  0.00     0.000 C 
BRANCH   3   4
ATOM      4  C   UNL     1      -7.632  -6.881 -10.517  1.00  0.00     0.000 C 
BRANCH   4   5
ATOM      5  C   UNL     1      -7.741  -5.379 -10.196  1.00  0.00     0.000 C 
BRANCH   5   6
ATOM      6  C   UNL     1      -6.373  -4.679 -10.140  1.00  0.00     0.006 C 
BRANCH   6   7
ATOM      7  C   UNL     1      -6.235  -3.774  -8.909  1.00  0.00     0.053 C 
BRANCH   7   8
ATOM      8  C   UNL     1      -5.153  -4.248  -7.987  1.00  0.00     0.041 C 
ATOM      9  O   UNL     1      -4.438  -3.415  -7.372  1.00  0.00    -0.550 OA
ATOM     10  O   UNL     1      -4.916  -5.607  -7.831  1.00  0.00    -0.550 OA
ENDBRANCH   7   8
ENDBRANCH   6   7
ENDBRANCH   5   6
ENDBRANCH   4   5
ENDBRANCH   3   4
ENDBRANCH   2   3
ENDBRANCH   1   2
BRANCH   1  11
ATOM     11  C   UNL     1     -10.355  -7.975 -12.194  1.00  0.00     0.000 C 
BRANCH  11  12
ATOM     12  C   UNL     1     -10.749  -7.296 -13.515  1.00  0.00    -0.000 C 
BRANCH  12  13
ATOM     13  C   UNL     1      -9.540  -6.725 -14.275  1.00  0.00    -0.000 C 
BRANCH  13  14
ATOM     14  C   UNL     1      -8.208  -7.456 -14.013  1.00  0.00    -0.000 C 
BRANCH  14  15
ATOM     15  C   UNL     1      -6.985  -6.516 -13.949  1.00  0.00    -0.000 C 
BRANCH  15  16
ATOM     16  C   UNL     1      -7.358  -5.053 -14.245  1.00  0.00    -0.000 C 
BRANCH  16  17
ATOM     17  C   UNL     1      -6.310  -4.059 -13.723  1.00  0.00    -0.003 C 
ATOM     18  C   UNL     1      -6.932  -2.892 -12.957  1.00  0.00     0.004 C 
ENDBRANCH  16  17
ENDBRANCH  15  16
ENDBRANCH  14  15
ENDBRANCH  13  14
ENDBRANCH  12  13
ENDBRANCH  11  12
ENDBRANCH   1  11
TORSDOF 14
ENDMDL
MODEL 3
REMARK VINA RESULT:    -3.953     13.819     16.172
REMARK INTER + INTRA:          -8.949
REMARK INTER:                  -7.744
REMARK INTRA:                  -1.205
REMARK UNBOUND:                -1.761
REMARK SMILES CCCCCCCCCCCCCCCC(=O)[O-]
REMARK SMILES IDX 9 1 10 2 11 3 12 4 13 5 14 6 15 7 16 8 17 9 18 10 8 11 7 12
REMARK SMILES IDX 6 13 5 14 4 15 3 16 2 17 1 18
REMARK H PARENT
REMARK Flexibility Score: inf
ROOT
ATOM      1  C   UNL     1       3.974  -1.223 -13.843  1.00  0.00     0.000 C 
ENDROOT
BRANCH   1   2
ATOM      2  C   UNL     1       4.956  -2.379 -14.084  1.00  0.00     0.000 C 
BRANCH   2   3
ATOM      3  C   UNL     1       4.960  -3.408 -12.939  1.00  0.00     0.000 C 
BRANCH   3   4
ATOM      4  C   UNL     1       6.325  -4.074 -12.663  1.00  0.00     0.000 C 
BRANCH   4   5
ATOM      5  C   UNL     1       7.348  -3.191 -11.927  1.00  0.00     0.000 C 
BRANCH   5   6
ATOM      6  C   UNL     1       8.585  -3.976 -11.456  1.00  0.00     0.006 C 
BRANCH   6   7
ATOM      7  C   UNL     1       9.038  -3.555 -10.052  1.00  0.00     0.053 C 
BRANCH   7   8
ATOM      8  C   UNL     1       8.474  -4.451  -8.993  1.00  0.00     0.041 C 
ATOM      9  O   UNL     1       8.277  -5.671  -9.235  1.00  0.00    -0.550 OA
ATOM     10  O   UNL     1       8.138  -3.934  -7.749  1.00  0.00    -0.550 OA
ENDBRANCH   7   8
ENDBRANCH   6   7
ENDBRANCH   5   6
ENDBRANCH   4   5
ENDBRANCH   3   4
ENDBRANCH   2   3
ENDBRANCH   1   2
BRANCH   1  11
ATOM     11  C   UNL     1       4.725   0.082 -13.554  1.00  0.00     0.000 C 
BRANCH  11  12
ATOM     12  C   UNL     1       6.209  -0.043 -13.931  1.00  0.00    -0.000 C 
BRANCH  12  13
ATOM     13  C   UNL     1       7.079   1.056 -13.298  1.00  0.00    -0.000 C 
BRANCH  13  14
ATOM     14  C   UNL     1       8.373   0.552 -12.630  1.00  0.00    -0.000 C 
BRANCH  14  15
ATOM     15  C   UNL     1       8.960   1.531 -11.591  1.00  0.00    -0.000 C 
BRANCH  15  16
ATOM     16  C   UNL     1       8.303   2.921 -11.665  1.00  0.00    -0.000 C 
BRANCH  16  17
ATOM     17  C   UNL     1       8.243   3.619 -10.298  1.00  0.00    -0.003 C 
ATOM     18  C   UNL     1       8.677   2.709  -9.149  1.00  0.00     0.004 C 
ENDBRANCH  16  17
ENDBRANCH  15  16
ENDBRANCH  14  15
ENDBRANCH  13  14
ENDBRANCH  12  13
ENDBRANCH  11  12
ENDBRANCH   1  11
TORSDOF 14
ENDMDL
MODEL 4
REMARK VINA RESULT:    -3.803      2.750      6.165
REMARK INTER + INTRA:          -8.676
REMARK INTER:                  -7.277
REMARK INTRA:                  -1.399
REMARK UNBOUND:                -1.761
REMARK SMILES CCCCCCCCCCCCCCCC(=O)[O-]
REMARK SMILES IDX 9 1 10 2 11 3 12 4 13 5 14 6 15 7 16 8 17 9 18 10 8 11 7 12
REMARK SMILES IDX 6 13 5 14 4 15 3 16 2 17 1 18
REMARK H PARENT
REMARK Flexibility Score: inf
ROOT
ATOM      1  C   UNL     1      -7.024  -3.073 -10.589  1.00  0.00     0.000 C 
ENDROOT
BRANCH   1   2
ATOM      2  C   UNL     1      -6.782  -4.489 -10.047  1.00  0.00     0.000 C 
BRANCH   2   3
ATOM      3  C   UNL     1      -7.768  -5.524 -10.616  1.00  0.00     0.000 C 
BRANCH   3   4
ATOM      4  C   UNL     1      -7.590  -6.961 -10.081  1.00  0.00     0.000 C 
BRANCH   4   5
ATOM      5  C   UNL     1      -8.617  -7.984 -10.598  1.00  0.00     0.000 C 
BRANCH   5   6
ATOM      6  C   UNL     1      -9.953  -7.337 -11.002  1.00  0.00     0.006 C 
BRANCH   6   7
ATOM      7  C   UNL     1     -11.115  -7.808 -10.119  1.00  0.00     0.053 C 
BRANCH   7   8
ATOM      8  C   UNL     1     -11.017  -7.258  -8.729  1.00  0.00     0.041 C 
ATOM      9  O   UNL     1     -11.066  -6.015  -8.536  1.00  0.00    -0.550 OA
ATOM     10  O   UNL     1     -10.841  -8.116  -7.651  1.00  0.00    -0.550 OA
ENDBRANCH   7   8
ENDBRANCH   6   7
ENDBRANCH   5   6
ENDBRANCH   4   5
ENDBRANCH   3   4
ENDBRANCH   2   3
ENDBRANCH   1   2
BRANCH   1  11
ATOM     11  C   UNL     1      -6.481  -2.933 -12.016  1.00  0.00     0.000 C 
BRANCH  11  12
ATOM     12  C   UNL     1      -7.257  -3.832 -12.990  1.00  0.00    -0.000 C 
BRANCH  12  13
ATOM     13  C   UNL     1      -6.343  -4.534 -14.009  1.00  0.00    -0.000 C 
BRANCH  13  14
ATOM     14  C   UNL     1      -6.990  -5.723 -14.747  1.00  0.00    -0.000 C 
BRANCH  14  15
ATOM     15  C   UNL     1      -7.106  -7.000 -13.887  1.00  0.00    -0.000 C 
BRANCH  15  16
ATOM     16  C   UNL     1      -8.318  -7.861 -14.284  1.00  0.00    -0.000 C 
BRANCH  16  17
ATOM     17  C   UNL     1      -9.563  -7.018 -14.600  1.00  0.00    -0.003 C 
ATOM     18  C   UNL     1     -10.846  -7.847 -14.633  1.00  0.00     0.004 C 
ENDBRANCH  16  17
ENDBRANCH  15  16
ENDBRANCH  14  15
ENDBRANCH  13  14
ENDBRANCH  12  13
ENDBRANCH  11  12
ENDBRANCH   1  11
TORSDOF 14
ENDMDL
MODEL 5
REMARK VINA RESULT:    -3.784      0.968      1.670
REMARK INTER + INTRA:          -8.642
REMARK INTER:                  -6.981
REMARK INTRA:                  -1.661
REMARK UNBOUND:                -1.761
REMARK SMILES CCCCCCCCCCCCCCCC(=O)[O-]
REMARK SMILES IDX 9 1 10 2 11 3 12 4 13 5 14 6 15 7 16 8 17 9 18 10 8 11 7 12
REMARK SMILES IDX 6 13 5 14 4 15 3 16 2 17 1 18
REMARK H PARENT
REMARK Flexibility Score: inf
ROOT
ATOM      1  C   UNL     1     -10.733  -6.921 -11.256  1.00  0.00     0.000 C 
ENDROOT
BRANCH   1   2
ATOM      2  C   UNL     1     -10.688  -7.877 -12.456  1.00  0.00     0.000 C 
BRANCH   2   3
ATOM      3  C   UNL     1     -10.704  -7.142 -13.808  1.00  0.00     0.000 C 
BRANCH   3   4
ATOM      4  C   UNL     1      -9.349  -6.546 -14.245  1.00  0.00     0.000 C 
BRANCH   4   5
ATOM      5  C   UNL     1      -8.109  -7.340 -13.797  1.00  0.00     0.000 C 
BRANCH   5   6
ATOM      6  C   UNL     1      -6.797  -6.564 -14.006  1.00  0.00     0.006 C 
BRANCH   6   7
ATOM      7  C   UNL     1      -7.042  -5.139 -14.518  1.00  0.00     0.053 C 
BRANCH   7   8
ATOM      8  C   UNL     1      -6.654  -4.108 -13.503  1.00  0.00     0.041 C 
ATOM      9  O   UNL     1      -7.494  -3.253 -13.117  1.00  0.00    -0.550 OA
ATOM     10  O   UNL     1      -5.357  -4.072 -13.007  1.00  0.00    -0.550 OA
ENDBRANCH   7   8
ENDBRANCH   6   7
ENDBRANCH   5   6
ENDBRANCH   4   5
ENDBRANCH   3   4
ENDBRANCH   2   3
ENDBRANCH   1   2
BRANCH   1  11
ATOM     11  C   UNL     1     -10.091  -7.562 -10.020  1.00  0.00     0.000 C 
BRANCH  11  12
ATOM     12  C   UNL     1      -8.701  -8.125 -10.353  1.00  0.00    -0.000 C 
BRANCH  12  13
ATOM     13  C   UNL     1      -7.563  -7.333  -9.685  1.00  0.00    -0.000 C 
BRANCH  13  14
ATOM     14  C   UNL     1      -6.998  -6.176 -10.532  1.00  0.00    -0.000 C 
BRANCH  14  15
ATOM     15  C   UNL     1      -7.504  -4.783 -10.100  1.00  0.00    -0.000 C 
BRANCH  15  16
ATOM     16  C   UNL     1      -6.404  -3.949  -9.420  1.00  0.00    -0.000 C 
BRANCH  16  17
ATOM     17  C   UNL     1      -5.570  -4.771  -8.425  1.00  0.00    -0.003 C 
ATOM     18  C   UNL     1      -4.609  -3.911  -7.606  1.00  0.00     0.004 C 
ENDBRANCH  16  17
ENDBRANCH  15  16
ENDBRANCH  14  15
ENDBRANCH  13  14
ENDBRANCH  12  13
ENDBRANCH  11  12
ENDBRANCH   1  11
TORSDOF 14
ENDMDL
MODEL 6
REMARK VINA RESULT:    -3.771     12.365     14.290
REMARK INTER + INTRA:          -8.618
REMARK INTER:                  -7.957
REMARK INTRA:                  -0.660
REMARK UNBOUND:                -1.761
REMARK SMILES CCCCCCCCCCCCCCCC(=O)[O-]
REMARK SMILES IDX 9 1 10 2 11 3 12 4 13 5 14 6 15 7 16 8 17 9 18 10 8 11 7 12
REMARK SMILES IDX 6 13 5 14 4 15 3 16 2 17 1 18
REMARK H PARENT
REMARK Flexibility Score: inf
ROOT
ATOM      1  C   UNL     1       4.725  -3.453 -13.106  1.00  0.00     0.000 C 
ENDROOT
BRANCH   1   2
ATOM      2  C   UNL     1       4.816  -3.180 -14.614  1.00  0.00     0.000 C 
BRANCH   2   3
ATOM      3  C   UNL     1       4.596  -1.698 -14.968  1.00  0.00     0.000 C 
BRANCH   3   4
ATOM      4  C   UNL     1       3.497  -0.986 -14.151  1.00  0.00     0.000 C 
BRANCH   4   5
ATOM      5  C   UNL     1       2.425  -0.264 -14.986  1.00  0.00     0.000 C 
BRANCH   5   6
ATOM      6  C   UNL     1       2.594   1.265 -14.981  1.00  0.00     0.006 C 
BRANCH   6   7
ATOM      7  C   UNL     1       1.246   1.996 -14.921  1.00  0.00     0.053 C 
BRANCH   7   8
ATOM      8  C   UNL     1       1.401   3.416 -14.470  1.00  0.00     0.041 C 
ATOM      9  O   UNL     1       0.470   3.986 -13.844  1.00  0.00    -0.550 OA
ATOM     10  O   UNL     1       2.562   4.118 -14.768  1.00  0.00    -0.550 OA
ENDBRANCH   7   8
ENDBRANCH   6   7
ENDBRANCH   5   6
ENDBRANCH   4   5
ENDBRANCH   3   4
ENDBRANCH   2   3
ENDBRANCH   1   2
BRANCH   1  11
ATOM     11  C   UNL     1       5.995  -4.145 -12.597  1.00  0.00     0.000 C 
BRANCH  11  12
ATOM     12  C   UNL     1       6.938  -3.135 -11.924  1.00  0.00    -0.000 C 
BRANCH  12  13
ATOM     13  C   UNL     1       8.237  -3.782 -11.414  1.00  0.00    -0.000 C 
BRANCH  13  14
ATOM     14  C   UNL     1       8.285  -4.025  -9.893  1.00  0.00    -0.000 C 
BRANCH  14  15
ATOM     15  C   UNL     1       9.125  -5.254  -9.484  1.00  0.00    -0.000 C 
BRANCH  15  16
ATOM     16  C   UNL     1       8.961  -6.424 -10.469  1.00  0.00    -0.000 C 
BRANCH  16  17
ATOM     17  C   UNL     1       8.966  -7.791  -9.768  1.00  0.00    -0.003 C 
ATOM     18  C   UNL     1       7.636  -8.112  -9.087  1.00  0.00     0.004 C 
ENDBRANCH  16  17
ENDBRANCH  15  16
ENDBRANCH  14  15
ENDBRANCH  13  14
ENDBRANCH  12  13
ENDBRANCH  11  12
ENDBRANCH   1  11
TORSDOF 14
ENDMDL
MODEL 7
REMARK VINA RESULT:    -3.676      2.037      4.383
REMARK INTER + INTRA:          -8.446
REMARK INTER:                  -6.963
REMARK INTRA:                  -1.484
REMARK UNBOUND:                -1.761
REMARK SMILES CCCCCCCCCCCCCCCC(=O)[O-]
REMARK SMILES IDX 9 1 10 2 11 3 12 4 13 5 14 6 15 7 16 8 17 9 18 10 8 11 7 12
REMARK SMILES IDX 6 13 5 14 4 15 3 16 2 17 1 18
REMARK H PARENT
REMARK Flexibility Score: inf
ROOT
ATOM      1  C   UNL     1      -9.510  -7.053 -12.927  1.00  0.00     0.000 C 
ENDROOT
BRANCH   1   2
ATOM      2  C   UNL     1     -10.529  -7.611 -11.923  1.00  0.00     0.000 C 
BRANCH   2   3
ATOM      3  C   UNL     1     -10.032  -7.546 -10.468  1.00  0.00     0.000 C 
BRANCH   3   4
ATOM      4  C   UNL     1      -8.509  -7.357 -10.305  1.00  0.00     0.000 C 
BRANCH   4   5
ATOM      5  C   UNL     1      -8.058  -5.922  -9.978  1.00  0.00     0.000 C 
BRANCH   5   6
ATOM      6  C   UNL     1      -6.559  -5.829  -9.644  1.00  0.00     0.006 C 
BRANCH   6   7
ATOM      7  C   UNL     1      -6.153  -4.420  -9.192  1.00  0.00     0.053 C 
BRANCH   7   8
ATOM      8  C   UNL     1      -5.153  -4.459  -8.078  1.00  0.00     0.041 C 
ATOM      9  O   UNL     1      -4.714  -3.387  -7.585  1.00  0.00    -0.550 OA
ATOM     10  O   UNL     1      -4.682  -5.677  -7.607  1.00  0.00    -0.550 OA
ENDBRANCH   7   8
ENDBRANCH   6   7
ENDBRANCH   5   6
ENDBRANCH   4   5
ENDBRANCH   3   4
ENDBRANCH   2   3
ENDBRANCH   1   2
BRANCH   1  11
ATOM     11  C   UNL     1      -9.225  -8.069 -14.040  1.00  0.00     0.000 C 
BRANCH  11  12
ATOM     12  C   UNL     1      -7.723  -8.125 -14.360  1.00  0.00    -0.000 C 
BRANCH  12  13
ATOM     13  C   UNL     1      -6.845  -7.721 -13.163  1.00  0.00    -0.000 C 
BRANCH  13  14
ATOM     14  C   UNL     1      -6.155  -6.350 -13.302  1.00  0.00    -0.000 C 
BRANCH  14  15
ATOM     15  C   UNL     1      -6.759  -5.458 -14.407  1.00  0.00    -0.000 C 
BRANCH  15  16
ATOM     16  C   UNL     1      -6.575  -3.959 -14.111  1.00  0.00    -0.000 C 
BRANCH  16  17
ATOM     17  C   UNL     1      -6.179  -3.690 -12.651  1.00  0.00    -0.003 C 
ATOM     18  C   UNL     1      -6.891  -2.474 -12.060  1.00  0.00     0.004 C 
ENDBRANCH  16  17
ENDBRANCH  15  16
ENDBRANCH  14  15
ENDBRANCH  13  14
ENDBRANCH  12  13
ENDBRANCH  11  12
ENDBRANCH   1  11
TORSDOF 14
ENDMDL
MODEL 8
REMARK VINA RESULT:    -3.544      2.374      4.302
REMARK INTER + INTRA:          -8.206
REMARK INTER:                  -6.712
REMARK INTRA:                  -1.494
REMARK UNBOUND:                -1.761
REMARK SMILES CCCCCCCCCCCCCCCC(=O)[O-]
REMARK SMILES IDX 9 1 10 2 11 3 12 4 13 5 14 6 15 7 16 8 17 9 18 10 8 11 7 12
REMARK SMILES IDX 6 13 5 14 4 15 3 16 2 17 1 18
REMARK H PARENT
REMARK Flexibility Score: inf
ROOT
ATOM      1  C   UNL     1      -6.809  -6.591 -12.610  1.00  0.00     0.000 C 
ENDROOT
BRANCH   1   2
ATOM      2  C   UNL     1      -7.037  -7.912 -13.359  1.00  0.00     0.000 C 
BRANCH   2   3
ATOM      3  C   UNL     1      -8.373  -7.944 -14.122  1.00  0.00     0.000 C 
BRANCH   3   4
ATOM      4  C   UNL     1      -9.395  -6.868 -13.698  1.00  0.00     0.000 C 
BRANCH   4   5
ATOM      5  C   UNL     1     -10.814  -7.390 -13.410  1.00  0.00     0.000 C 
BRANCH   5   6
ATOM      6  C   UNL     1     -11.108  -7.520 -11.905  1.00  0.00     0.006 C 
BRANCH   6   7
ATOM      7  C   UNL     1     -10.062  -6.797 -11.046  1.00  0.00     0.053 C 
BRANCH   7   8
ATOM      8  C   UNL     1     -10.551  -6.566  -9.650  1.00  0.00     0.041 C 
ATOM      9  O   UNL     1     -10.802  -5.397  -9.253  1.00  0.00    -0.550 OA
ATOM     10  O   UNL     1     -10.701  -7.636  -8.778  1.00  0.00    -0.550 OA
ENDBRANCH   7   8
ENDBRANCH   6   7
ENDBRANCH   5   6
ENDBRANCH   4   5
ENDBRANCH   3   4
ENDBRANCH   2   3
ENDBRANCH   1   2
BRANCH   1  11
ATOM     11  C   UNL     1      -5.860  -5.674 -13.392  1.00  0.00     0.000 C 
BRANCH  11  12
ATOM     12  C   UNL     1      -6.615  -4.467 -13.968  1.00  0.00    -0.000 C 
BRANCH  12  13
ATOM     13  C   UNL     1      -7.381  -3.676 -12.893  1.00  0.00    -0.000 C 
BRANCH  13  14
ATOM     14  C   UNL     1      -6.525  -3.214 -11.698  1.00  0.00    -0.000 C 
BRANCH  14  15
ATOM     15  C   UNL     1      -7.140  -3.556 -10.323  1.00  0.00    -0.000 C 
BRANCH  15  16
ATOM     16  C   UNL     1      -6.351  -4.655  -9.590  1.00  0.00    -0.000 C 
BRANCH  16  17
ATOM     17  C   UNL     1      -5.467  -4.095  -8.465  1.00  0.00    -0.003 C 
ATOM     18  C   UNL     1      -4.724  -5.188  -7.698  1.00  0.00     0.004 C 
ENDBRANCH  16  17
ENDBRANCH  15  16
ENDBRANCH  14  15
ENDBRANCH  13  14
ENDBRANCH  12  13
ENDBRANCH  11  12
ENDBRANCH   1  11
TORSDOF 14
ENDMDL
MODEL 9
REMARK VINA RESULT:    -3.186      1.984      4.672
REMARK INTER + INTRA:          -7.555
REMARK INTER:                  -6.176
REMARK INTRA:                  -1.379
REMARK UNBOUND:                -1.761
REMARK SMILES CCCCCCCCCCCCCCCC(=O)[O-]
REMARK SMILES IDX 9 1 10 2 11 3 12 4 13 5 14 6 15 7 16 8 17 9 18 10 8 11 7 12
REMARK SMILES IDX 6 13 5 14 4 15 3 16 2 17 1 18
REMARK H PARENT
REMARK Flexibility Score: inf
ROOT
ATOM      1  C   UNL     1      -6.398  -6.657 -13.231  1.00  0.00     0.000 C 
ENDROOT
BRANCH   1   2
ATOM      2  C   UNL     1      -6.634  -5.721 -14.426  1.00  0.00     0.000 C 
BRANCH   2   3
ATOM      3  C   UNL     1      -6.905  -4.267 -14.003  1.00  0.00     0.000 C 
BRANCH   3   4
ATOM      4  C   UNL     1      -5.958  -3.713 -12.918  1.00  0.00     0.000 C 
BRANCH   4   5
ATOM      5  C   UNL     1      -6.651  -3.188 -11.648  1.00  0.00     0.000 C 
BRANCH   5   6
ATOM      6  C   UNL     1      -6.769  -4.256 -10.547  1.00  0.00     0.006 C 
BRANCH   6   7
ATOM      7  C   UNL     1      -6.577  -3.665  -9.144  1.00  0.00     0.053 C 
BRANCH   7   8
ATOM      8  C   UNL     1      -5.436  -4.309  -8.419  1.00  0.00     0.041 C 
ATOM      9  O   UNL     1      -4.488  -3.607  -7.981  1.00  0.00    -0.550 OA
ATOM     10  O   UNL     1      -5.406  -5.688  -8.253  1.00  0.00    -0.550 OA
ENDBRANCH   7   8
ENDBRANCH   6   7
ENDBRANCH   5   6
ENDBRANCH   4   5
ENDBRANCH   3   4
ENDBRANCH   2   3
ENDBRANCH   1   2
BRANCH   1  11
ATOM     11  C   UNL     1      -7.119  -7.995 -13.432  1.00  0.00     0.000 C 
BRANCH  11  12
ATOM     12  C   UNL     1      -8.245  -7.861 -14.468  1.00  0.00    -0.000 C 
BRANCH  12  13
ATOM     13  C   UNL     1      -9.503  -7.186 -13.896  1.00  0.00    -0.000 C 
BRANCH  13  14
ATOM     14  C   UNL     1     -10.440  -8.125 -13.110  1.00  0.00    -0.000 C 
BRANCH  14  15
ATOM     15  C   UNL     1     -10.392  -7.915 -11.581  1.00  0.00    -0.000 C 
BRANCH  15  16
ATOM     16  C   UNL     1      -9.709  -6.591 -11.197  1.00  0.00    -0.000 C 
BRANCH  16  17
ATOM     17  C   UNL     1      -9.892  -6.242  -9.711  1.00  0.00    -0.003 C 
ATOM     18  C   UNL     1     -11.062  -6.987  -9.069  1.00  0.00     0.004 C 
ENDBRANCH  16  17
ENDBRANCH  15  16
ENDBRANCH  14  15
ENDBRANCH  13  14
ENDBRANCH  12  13
ENDBRANCH  11  12
ENDBRANCH   1  11
TORSDOF 14
ENDMDL
