MODEL 1
REMARK VINA RESULT:    -1.407      0.000      0.000
REMARK INTER + INTRA:          -7.645
REMARK INTER:                  -3.215
REMARK INTRA:                  -4.429
REMARK UNBOUND:                -4.429
REMARK SMILES CCCCCCCCCCCCCCCCCCCCCCCC(=O)[O-]
REMARK SMILES IDX 13 1 14 2 15 3 16 4 17 5 18 6 19 7 20 8 21 9 22 10 23 11
REMARK SMILES IDX 24 12 25 13 26 14 12 15 11 16 10 17 9 18 8 19 7 20 6 21 5 22
REMARK SMILES IDX 4 23 3 24 2 25 1 26
REMARK H PARENT
REMARK Flexibility Score: inf
ROOT
ATOM      1  C   UNL     1     -30.839 -31.230  16.908  1.00  0.00     0.000 C 
ENDROOT
BRANCH   1   2
ATOM      2  C   UNL     1     -31.692 -31.589  15.683  1.00  0.00     0.000 C 
BRANCH   2   3
ATOM      3  C   UNL     1     -31.801 -30.431  14.680  1.00  0.00     0.000 C 
BRANCH   3   4
ATOM      4  C   UNL     1     -33.144 -30.426  13.928  1.00  0.00     0.000 C 
BRANCH   4   5
ATOM      5  C   UNL     1     -34.133 -31.463  14.501  1.00  0.00     0.000 C 
BRANCH   5   6
ATOM      6  C   UNL     1     -34.746 -32.390  13.435  1.00  0.00     0.000 C 
BRANCH   6   7
ATOM      7  C   UNL     1     -34.492 -33.880  13.723  1.00  0.00     0.000 C 
BRANCH   7   8
ATOM      8  C   UNL     1     -33.879 -34.627  12.524  1.00  0.00     0.000 C 
BRANCH   8   9
ATOM      9  C   UNL     1     -33.258 -36.000  12.850  1.00  0.00     0.000 C 
BRANCH   9  10
ATOM     10  C   UNL     1     -31.752 -36.124  12.555  1.00  0.00     0.006 C 
BRANCH  10  11
ATOM     11  C   UNL     1     -31.067 -34.767  12.356  1.00  0.00     0.053 C 
BRANCH  11  12
ATOM     12  C   UNL     1     -29.778 -34.713  13.113  1.00  0.00     0.041 C 
ATOM     13  O   UNL     1     -29.466 -33.677  13.759  1.00  0.00    -0.550 OA
ATOM     14  O   UNL     1     -28.940 -35.821  13.144  1.00  0.00    -0.550 OA
ENDBRANCH  11  12
ENDBRANCH  10  11
ENDBRANCH   9  10
ENDBRANCH   8   9
ENDBRANCH   7   8
ENDBRANCH   6   7
ENDBRANCH   5   6
ENDBRANCH   4   5
ENDBRANCH   3   4
ENDBRANCH   2   3
ENDBRANCH   1   2
BRANCH   1  15
ATOM     15  C   UNL     1     -31.535 -31.674  18.204  1.00  0.00     0.000 C 
BRANCH  15  16
ATOM     16  C   UNL     1     -32.993 -32.116  17.984  1.00  0.00     0.000 C 
BRANCH  16  17
ATOM     17  C   UNL     1     -33.601 -32.966  19.119  1.00  0.00     0.000 C 
BRANCH  17  18
ATOM     18  C   UNL     1     -33.903 -34.430  18.752  1.00  0.00    -0.000 C 
BRANCH  18  19
ATOM     19  C   UNL     1     -34.122 -34.638  17.247  1.00  0.00    -0.000 C 
BRANCH  19  20
ATOM     20  C   UNL     1     -33.176 -35.720  16.706  1.00  0.00    -0.000 C 
BRANCH  20  21
ATOM     21  C   UNL     1     -31.892 -35.136  16.094  1.00  0.00    -0.000 C 
BRANCH  21  22
ATOM     22  C   UNL     1     -30.588 -35.782  16.601  1.00  0.00    -0.000 C 
BRANCH  22  23
ATOM     23  C   UNL     1     -30.615 -36.125  18.106  1.00  0.00    -0.000 C 
BRANCH  23  24
ATOM     24  C   UNL     1     -30.180 -34.935  18.979  1.00  0.00    -0.000 C 
BRANCH  24  25
ATOM     25  C   UNL     1     -30.032 -35.310  20.461  1.00  0.00    -0.003 C 
ATOM     26  C   UNL     1     -31.374 -35.575  21.143  1.00  0.00     0.004 C 
ENDBRANCH  24  25
ENDBRANCH  23  24
ENDBRANCH  22  23
ENDBRANCH  21  22
ENDBRANCH  20  21
ENDBRANCH  19  20
ENDBRANCH  18  19
ENDBRANCH  17  18
ENDBRANCH  16  17
ENDBRANCH  15  16
ENDBRANCH   1  15
TORSDOF 22
ENDMDL
MODEL 2
REMARK VINA RESULT:    -1.393     18.793     21.965
REMARK INTER + INTRA:          -7.614
REMARK INTER:                  -2.642
REMARK INTRA:                  -4.973
REMARK UNBOUND:                -4.429
REMARK SMILES CCCCCCCCCCCCCCCCCCCCCCCC(=O)[O-]
REMARK SMILES IDX 13 1 14 2 15 3 16 4 17 5 18 6 19 7 20 8 21 9 22 10 23 11
REMARK SMILES IDX 24 12 25 13 26 14 12 15 11 16 10 17 9 18 8 19 7 20 6 21 5 22
REMARK SMILES IDX 4 23 3 24 2 25 1 26
REMARK H PARENT
REMARK Flexibility Score: inf
ROOT
ATOM      1  C   UNL     1     -18.480 -24.543  29.736  1.00  0.00     0.000 C 
ENDROOT
BRANCH   1   2
ATOM      2  C   UNL     1     -17.022 -25.024  29.755  1.00  0.00     0.000 C 
BRANCH   2   3
ATOM      3  C   UNL     1     -16.439 -25.083  31.176  1.00  0.00     0.000 C 
BRANCH   3   4
ATOM      4  C   UNL     1     -15.477 -23.917  31.469  1.00  0.00     0.000 C 
BRANCH   4   5
ATOM      5  C   UNL     1     -16.227 -22.653  31.941  1.00  0.00     0.000 C 
BRANCH   5   6
ATOM      6  C   UNL     1     -16.357 -21.568  30.856  1.00  0.00     0.000 C 
BRANCH   6   7
ATOM      7  C   UNL     1     -15.235 -21.635  29.807  1.00  0.00     0.000 C 
BRANCH   7   8
ATOM      8  C   UNL     1     -15.754 -21.516  28.363  1.00  0.00     0.000 C 
BRANCH   8   9
ATOM      9  C   UNL     1     -17.288 -21.535  28.209  1.00  0.00     0.000 C 
BRANCH   9  10
ATOM     10  C   UNL     1     -17.816 -22.362  27.023  1.00  0.00     0.006 C 
BRANCH  10  11
ATOM     11  C   UNL     1     -18.834 -21.600  26.166  1.00  0.00     0.053 C 
BRANCH  11  12
ATOM     12  C   UNL     1     -18.301 -21.383  24.785  1.00  0.00     0.041 C 
ATOM     13  O   UNL     1     -19.056 -21.526  23.786  1.00  0.00    -0.550 OA
ATOM     14  O   UNL     1     -16.985 -20.979  24.601  1.00  0.00    -0.550 OA
ENDBRANCH  11  12
ENDBRANCH  10  11
ENDBRANCH   9  10
ENDBRANCH   8   9
ENDBRANCH   7   8
ENDBRANCH   6   7
ENDBRANCH   5   6
ENDBRANCH   4   5
ENDBRANCH   3   4
ENDBRANCH   2   3
ENDBRANCH   1   2
BRANCH   1  15
ATOM     15  C   UNL     1     -19.273 -25.167  30.895  1.00  0.00     0.000 C 
BRANCH  15  16
ATOM     16  C   UNL     1     -20.229 -24.169  31.576  1.00  0.00     0.000 C 
BRANCH  16  17
ATOM     17  C   UNL     1     -19.835 -22.684  31.440  1.00  0.00     0.000 C 
BRANCH  17  18
ATOM     18  C   UNL     1     -20.925 -21.768  30.855  1.00  0.00    -0.000 C 
BRANCH  18  19
ATOM     19  C   UNL     1     -20.741 -21.500  29.354  1.00  0.00    -0.000 C 
BRANCH  19  20
ATOM     20  C   UNL     1     -22.013 -21.871  28.578  1.00  0.00    -0.000 C 
BRANCH  20  21
ATOM     21  C   UNL     1     -22.260 -23.388  28.528  1.00  0.00    -0.000 C 
BRANCH  21  22
ATOM     22  C   UNL     1     -21.344 -24.155  27.554  1.00  0.00    -0.000 C 
BRANCH  22  23
ATOM     23  C   UNL     1     -21.489 -25.689  27.651  1.00  0.00    -0.000 C 
BRANCH  23  24
ATOM     24  C   UNL     1     -20.219 -26.422  27.185  1.00  0.00    -0.000 C 
BRANCH  24  25
ATOM     25  C   UNL     1     -19.365 -25.578  26.228  1.00  0.00    -0.003 C 
ATOM     26  C   UNL     1     -17.896 -26.002  26.213  1.00  0.00     0.004 C 
ENDBRANCH  24  25
ENDBRANCH  23  24
ENDBRANCH  22  23
ENDBRANCH  21  22
ENDBRANCH  20  21
ENDBRANCH  19  20
ENDBRANCH  18  19
ENDBRANCH  17  18
ENDBRANCH  16  17
ENDBRANCH  15  16
ENDBRANCH   1  15
TORSDOF 22
ENDMDL
MODEL 3
REMARK VINA RESULT:    -1.386     16.631     20.261
REMARK INTER + INTRA:          -7.598
REMARK INTER:                  -2.401
REMARK INTRA:                  -5.197
REMARK UNBOUND:                -4.429
REMARK SMILES CCCCCCCCCCCCCCCCCCCCCCCC(=O)[O-]
REMARK SMILES IDX 13 1 14 2 15 3 16 4 17 5 18 6 19 7 20 8 21 9 22 10 23 11
REMARK SMILES IDX 24 12 25 13 26 14 12 15 11 16 10 17 9 18 8 19 7 20 6 21 5 22
REMARK SMILES IDX 4 23 3 24 2 25 1 26
REMARK H PARENT
REMARK Flexibility Score: inf
ROOT
ATOM      1  C   UNL     1     -19.403 -30.272  28.645  1.00  0.00     0.000 C 
ENDROOT
BRANCH   1   2
ATOM      2  C   UNL     1     -18.007 -29.794  28.219  1.00  0.00     0.000 C 
BRANCH   2   3
ATOM      3  C   UNL     1     -17.174 -30.911  27.571  1.00  0.00     0.000 C 
BRANCH   3   4
ATOM      4  C   UNL     1     -16.733 -31.982  28.585  1.00  0.00     0.000 C 
BRANCH   4   5
ATOM      5  C   UNL     1     -15.743 -31.419  29.628  1.00  0.00     0.000 C 
BRANCH   5   6
ATOM      6  C   UNL     1     -15.880 -32.060  31.022  1.00  0.00     0.000 C 
BRANCH   6   7
ATOM      7  C   UNL     1     -16.176 -31.030  32.125  1.00  0.00     0.000 C 
BRANCH   7   8
ATOM      8  C   UNL     1     -15.754 -29.600  31.742  1.00  0.00     0.000 C 
BRANCH   8   9
ATOM      9  C   UNL     1     -16.905 -28.580  31.630  1.00  0.00     0.000 C 
BRANCH   9  10
ATOM     10  C   UNL     1     -16.574 -27.304  30.835  1.00  0.00     0.006 C 
BRANCH  10  11
ATOM     11  C   UNL     1     -17.799 -26.414  30.593  1.00  0.00     0.053 C 
BRANCH  11  12
ATOM     12  C   UNL     1     -18.016 -26.206  29.127  1.00  0.00     0.041 C 
ATOM     13  O   UNL     1     -17.037 -26.221  28.334  1.00  0.00    -0.550 OA
ATOM     14  O   UNL     1     -19.303 -26.039  28.630  1.00  0.00    -0.550 OA
ENDBRANCH  11  12
ENDBRANCH  10  11
ENDBRANCH   9  10
ENDBRANCH   8   9
ENDBRANCH   7   8
ENDBRANCH   6   7
ENDBRANCH   5   6
ENDBRANCH   4   5
ENDBRANCH   3   4
ENDBRANCH   2   3
ENDBRANCH   1   2
BRANCH   1  15
ATOM     15  C   UNL     1     -20.004 -29.327  29.697  1.00  0.00     0.000 C 
BRANCH  15  16
ATOM     16  C   UNL     1     -20.296 -30.027  31.038  1.00  0.00     0.000 C 
BRANCH  16  17
ATOM     17  C   UNL     1     -19.632 -31.407  31.218  1.00  0.00     0.000 C 
BRANCH  17  18
ATOM     18  C   UNL     1     -20.413 -32.401  32.096  1.00  0.00    -0.000 C 
BRANCH  18  19
ATOM     19  C   UNL     1     -20.081 -33.867  31.782  1.00  0.00    -0.000 C 
BRANCH  19  20
ATOM     20  C   UNL     1     -19.101 -33.960  30.603  1.00  0.00    -0.000 C 
BRANCH  20  21
ATOM     21  C   UNL     1     -19.706 -34.670  29.380  1.00  0.00    -0.000 C 
BRANCH  21  22
ATOM     22  C   UNL     1     -19.914 -33.763  28.151  1.00  0.00    -0.000 C 
BRANCH  22  23
ATOM     23  C   UNL     1     -21.387 -33.667  27.699  1.00  0.00    -0.000 C 
BRANCH  23  24
ATOM     24  C   UNL     1     -22.342 -33.426  28.882  1.00  0.00    -0.000 C 
BRANCH  24  25
ATOM     25  C   UNL     1     -22.747 -31.952  29.024  1.00  0.00    -0.003 C 
ATOM     26  C   UNL     1     -23.558 -31.680  30.292  1.00  0.00     0.004 C 
ENDBRANCH  24  25
ENDBRANCH  23  24
ENDBRANCH  22  23
ENDBRANCH  21  22
ENDBRANCH  20  21
ENDBRANCH  19  20
ENDBRANCH  18  19
ENDBRANCH  17  18
ENDBRANCH  16  17
ENDBRANCH  15  16
ENDBRANCH   1  15
TORSDOF 22
ENDMDL
MODEL 4
REMARK VINA RESULT:    -1.363     20.450     22.712
REMARK INTER + INTRA:          -7.546
REMARK INTER:                  -3.021
REMARK INTRA:                  -4.526
REMARK UNBOUND:                -4.429
REMARK SMILES CCCCCCCCCCCCCCCCCCCCCCCC(=O)[O-]
REMARK SMILES IDX 13 1 14 2 15 3 16 4 17 5 18 6 19 7 20 8 21 9 22 10 23 11
REMARK SMILES IDX 24 12 25 13 26 14 12 15 11 16 10 17 9 18 8 19 7 20 6 21 5 22
REMARK SMILES IDX 4 23 3 24 2 25 1 26
REMARK H PARENT
REMARK Flexibility Score: inf
ROOT
ATOM      1  C   UNL     1     -19.213 -21.383  27.440  1.00  0.00     0.000 C 
ENDROOT
BRANCH   1   2
ATOM      2  C   UNL     1     -20.404 -22.033  26.721  1.00  0.00     0.000 C 
BRANCH   2   3
ATOM      3  C   UNL     1     -21.751 -21.663  27.359  1.00  0.00     0.000 C 
BRANCH   3   4
ATOM      4  C   UNL     1     -21.641 -20.461  28.316  1.00  0.00     0.000 C 
BRANCH   4   5
ATOM      5  C   UNL     1     -22.431 -19.238  27.802  1.00  0.00     0.000 C 
BRANCH   5   6
ATOM      6  C   UNL     1     -21.539 -18.120  27.231  1.00  0.00     0.000 C 
BRANCH   6   7
ATOM      7  C   UNL     1     -21.208 -18.321  25.743  1.00  0.00     0.000 C 
BRANCH   7   8
ATOM      8  C   UNL     1     -19.808 -17.805  25.364  1.00  0.00     0.000 C 
BRANCH   8   9
ATOM      9  C   UNL     1     -18.824 -18.877  24.855  1.00  0.00     0.000 C 
BRANCH   9  10
ATOM     10  C   UNL     1     -17.403 -18.792  25.442  1.00  0.00     0.006 C 
BRANCH  10  11
ATOM     11  C   UNL     1     -17.083 -17.418  26.041  1.00  0.00     0.053 C 
BRANCH  11  12
ATOM     12  C   UNL     1     -15.604 -17.215  26.134  1.00  0.00     0.041 C 
ATOM     13  O   UNL     1     -14.875 -18.102  26.653  1.00  0.00    -0.550 OA
ATOM     14  O   UNL     1     -15.023 -16.069  25.607  1.00  0.00    -0.550 OA
ENDBRANCH  11  12
ENDBRANCH  10  11
ENDBRANCH   9  10
ENDBRANCH   8   9
ENDBRANCH   7   8
ENDBRANCH   6   7
ENDBRANCH   5   6
ENDBRANCH   4   5
ENDBRANCH   3   4
ENDBRANCH   2   3
ENDBRANCH   1   2
BRANCH   1  15
ATOM     15  C   UNL     1     -17.978 -22.295  27.381  1.00  0.00     0.000 C 
BRANCH  15  16
ATOM     16  C   UNL     1     -18.336 -23.793  27.346  1.00  0.00     0.000 C 
BRANCH  16  17
ATOM     17  C   UNL     1     -17.691 -24.648  28.456  1.00  0.00     0.000 C 
BRANCH  17  18
ATOM     18  C   UNL     1     -18.582 -24.911  29.683  1.00  0.00    -0.000 C 
BRANCH  18  19
ATOM     19  C   UNL     1     -20.061 -24.584  29.431  1.00  0.00    -0.000 C 
BRANCH  19  20
ATOM     20  C   UNL     1     -20.537 -23.466  30.371  1.00  0.00    -0.000 C 
BRANCH  20  21
ATOM     21  C   UNL     1     -19.418 -22.942  31.287  1.00  0.00    -0.000 C 
BRANCH  21  22
ATOM     22  C   UNL     1     -19.092 -21.446  31.110  1.00  0.00    -0.000 C 
BRANCH  22  23
ATOM     23  C   UNL     1     -17.584 -21.129  31.213  1.00  0.00    -0.000 C 
BRANCH  23  24
ATOM     24  C   UNL     1     -16.810 -22.228  31.961  1.00  0.00    -0.000 C 
BRANCH  24  25
ATOM     25  C   UNL     1     -15.733 -22.891  31.090  1.00  0.00    -0.003 C 
ATOM     26  C   UNL     1     -15.370 -22.059  29.860  1.00  0.00     0.004 C 
ENDBRANCH  24  25
ENDBRANCH  23  24
ENDBRANCH  22  23
ENDBRANCH  21  22
ENDBRANCH  20  21
ENDBRANCH  19  20
ENDBRANCH  18  19
ENDBRANCH  17  18
ENDBRANCH  16  17
ENDBRANCH  15  16
ENDBRANCH   1  15
TORSDOF 22
ENDMDL
MODEL 5
REMARK VINA RESULT:    -1.349     20.247     22.978
REMARK INTER + INTRA:          -7.514
REMARK INTER:                  -3.571
REMARK INTRA:                  -3.943
REMARK UNBOUND:                -4.429
REMARK SMILES CCCCCCCCCCCCCCCCCCCCCCCC(=O)[O-]
REMARK SMILES IDX 13 1 14 2 15 3 16 4 17 5 18 6 19 7 20 8 21 9 22 10 23 11
REMARK SMILES IDX 24 12 25 13 26 14 12 15 11 16 10 17 9 18 8 19 7 20 6 21 5 22
REMARK SMILES IDX 4 23 3 24 2 25 1 26
REMARK H PARENT
REMARK Flexibility Score: inf
ROOT
ATOM      1  C   UNL     1     -18.313 -22.671  27.714  1.00  0.00     0.000 C 
ENDROOT
BRANCH   1   2
ATOM      2  C   UNL     1     -17.326 -23.794  28.063  1.00  0.00     0.000 C 
BRANCH   2   3
ATOM      3  C   UNL     1     -15.863 -23.327  28.022  1.00  0.00     0.000 C 
BRANCH   3   4
ATOM      4  C   UNL     1     -15.709 -21.837  28.375  1.00  0.00     0.000 C 
BRANCH   4   5
ATOM      5  C   UNL     1     -15.259 -21.632  29.838  1.00  0.00     0.000 C 
BRANCH   5   6
ATOM      6  C   UNL     1     -16.426 -21.454  30.826  1.00  0.00     0.000 C 
BRANCH   6   7
ATOM      7  C   UNL     1     -16.276 -22.319  32.088  1.00  0.00     0.000 C 
BRANCH   7   8
ATOM      8  C   UNL     1     -16.440 -23.824  31.808  1.00  0.00     0.000 C 
BRANCH   8   9
ATOM      9  C   UNL     1     -15.126 -24.626  31.721  1.00  0.00     0.000 C 
BRANCH   9  10
ATOM     10  C   UNL     1     -15.127 -25.774  30.694  1.00  0.00     0.006 C 
BRANCH  10  11
ATOM     11  C   UNL     1     -16.501 -26.437  30.538  1.00  0.00     0.053 C 
BRANCH  11  12
ATOM     12  C   UNL     1     -16.532 -27.755  31.244  1.00  0.00     0.041 C 
ATOM     13  O   UNL     1     -17.463 -28.573  31.017  1.00  0.00    -0.550 OA
ATOM     14  O   UNL     1     -15.511 -28.101  32.120  1.00  0.00    -0.550 OA
ENDBRANCH  11  12
ENDBRANCH  10  11
ENDBRANCH   9  10
ENDBRANCH   8   9
ENDBRANCH   7   8
ENDBRANCH   6   7
ENDBRANCH   5   6
ENDBRANCH   4   5
ENDBRANCH   3   4
ENDBRANCH   2   3
ENDBRANCH   1   2
BRANCH   1  15
ATOM     15  C   UNL     1     -19.277 -22.412  28.883  1.00  0.00     0.000 C 
BRANCH  15  16
ATOM     16  C   UNL     1     -19.342 -23.583  29.881  1.00  0.00     0.000 C 
BRANCH  16  17
ATOM     17  C   UNL     1     -20.014 -23.259  31.231  1.00  0.00     0.000 C 
BRANCH  17  18
ATOM     18  C   UNL     1     -21.255 -24.107  31.566  1.00  0.00    -0.000 C 
BRANCH  18  19
ATOM     19  C   UNL     1     -22.263 -24.177  30.409  1.00  0.00    -0.000 C 
BRANCH  19  20
ATOM     20  C   UNL     1     -23.643 -23.680  30.863  1.00  0.00    -0.000 C 
BRANCH  20  21
ATOM     21  C   UNL     1     -24.108 -22.431  30.096  1.00  0.00    -0.000 C 
BRANCH  21  22
ATOM     22  C   UNL     1     -23.062 -21.847  29.126  1.00  0.00    -0.000 C 
BRANCH  22  23
ATOM     23  C   UNL     1     -22.344 -20.595  29.674  1.00  0.00    -0.000 C 
BRANCH  23  24
ATOM     24  C   UNL     1     -23.119 -19.944  30.833  1.00  0.00    -0.000 C 
BRANCH  24  25
ATOM     25  C   UNL     1     -22.291 -19.852  32.123  1.00  0.00    -0.003 C 
ATOM     26  C   UNL     1     -21.196 -18.787  32.050  1.00  0.00     0.004 C 
ENDBRANCH  24  25
ENDBRANCH  23  24
ENDBRANCH  22  23
ENDBRANCH  21  22
ENDBRANCH  20  21
ENDBRANCH  19  20
ENDBRANCH  18  19
ENDBRANCH  17  18
ENDBRANCH  16  17
ENDBRANCH  15  16
ENDBRANCH   1  15
TORSDOF 22
ENDMDL
MODEL 6
REMARK VINA RESULT:    -1.315     19.112     21.740
REMARK INTER + INTRA:          -7.435
REMARK INTER:                  -2.295
REMARK INTRA:                  -5.140
REMARK UNBOUND:                -4.429
REMARK SMILES CCCCCCCCCCCCCCCCCCCCCCCC(=O)[O-]
REMARK SMILES IDX 13 1 14 2 15 3 16 4 17 5 18 6 19 7 20 8 21 9 22 10 23 11
REMARK SMILES IDX 24 12 25 13 26 14 12 15 11 16 10 17 9 18 8 19 7 20 6 21 5 22
REMARK SMILES IDX 4 23 3 24 2 25 1 26
REMARK H PARENT
REMARK Flexibility Score: inf
ROOT
ATOM      1  C   UNL     1     -21.141 -21.697  26.596  1.00  0.00     0.000 C 
ENDROOT
BRANCH   1   2
ATOM      2  C   UNL     1     -19.885 -20.815  26.566  1.00  0.00     0.000 C 
BRANCH   2   3
ATOM      3  C   UNL     1     -18.784 -21.389  25.661  1.00  0.00     0.000 C 
BRANCH   3   4
ATOM      4  C   UNL     1     -19.307 -22.490  24.720  1.00  0.00     0.000 C 
BRANCH   4   5
ATOM      5  C   UNL     1     -18.595 -23.840  24.956  1.00  0.00     0.000 C 
BRANCH   5   6
ATOM      6  C   UNL     1     -19.523 -24.944  25.495  1.00  0.00     0.000 C 
BRANCH   6   7
ATOM      7  C   UNL     1     -19.472 -25.070  27.027  1.00  0.00     0.000 C 
BRANCH   7   8
ATOM      8  C   UNL     1     -18.078 -24.776  27.609  1.00  0.00     0.000 C 
BRANCH   8   9
ATOM      9  C   UNL     1     -18.032 -23.674  28.687  1.00  0.00     0.000 C 
BRANCH   9  10
ATOM     10  C   UNL     1     -16.990 -22.567  28.447  1.00  0.00     0.006 C 
BRANCH  10  11
ATOM     11  C   UNL     1     -16.885 -21.578  29.615  1.00  0.00     0.053 C 
BRANCH  11  12
ATOM     12  C   UNL     1     -16.107 -22.177  30.743  1.00  0.00     0.041 C 
ATOM     13  O   UNL     1     -15.085 -22.875  30.507  1.00  0.00    -0.550 OA
ATOM     14  O   UNL     1     -16.483 -21.929  32.058  1.00  0.00    -0.550 OA
ENDBRANCH  11  12
ENDBRANCH  10  11
ENDBRANCH   9  10
ENDBRANCH   8   9
ENDBRANCH   7   8
ENDBRANCH   6   7
ENDBRANCH   5   6
ENDBRANCH   4   5
ENDBRANCH   3   4
ENDBRANCH   2   3
ENDBRANCH   1   2
BRANCH   1  15
ATOM     15  C   UNL     1     -21.395 -22.234  28.014  1.00  0.00     0.000 C 
BRANCH  15  16
ATOM     16  C   UNL     1     -22.665 -23.099  28.112  1.00  0.00     0.000 C 
BRANCH  16  17
ATOM     17  C   UNL     1     -22.729 -24.036  29.336  1.00  0.00     0.000 C 
BRANCH  17  18
ATOM     18  C   UNL     1     -21.389 -24.261  30.059  1.00  0.00    -0.000 C 
BRANCH  18  19
ATOM     19  C   UNL     1     -21.521 -24.228  31.589  1.00  0.00    -0.000 C 
BRANCH  19  20
ATOM     20  C   UNL     1     -21.312 -22.801  32.119  1.00  0.00    -0.000 C 
BRANCH  20  21
ATOM     21  C   UNL     1     -19.982 -22.183  31.657  1.00  0.00    -0.000 C 
BRANCH  21  22
ATOM     22  C   UNL     1     -20.102 -20.756  31.087  1.00  0.00    -0.000 C 
BRANCH  22  23
ATOM     23  C   UNL     1     -21.481 -20.107  31.337  1.00  0.00    -0.000 C 
BRANCH  23  24
ATOM     24  C   UNL     1     -22.000 -19.355  30.098  1.00  0.00    -0.000 C 
BRANCH  24  25
ATOM     25  C   UNL     1     -23.465 -19.683  29.778  1.00  0.00    -0.003 C 
ATOM     26  C   UNL     1     -24.042 -20.769  30.686  1.00  0.00     0.004 C 
ENDBRANCH  24  25
ENDBRANCH  23  24
ENDBRANCH  22  23
ENDBRANCH  21  22
ENDBRANCH  20  21
ENDBRANCH  19  20
ENDBRANCH  18  19
ENDBRANCH  17  18
ENDBRANCH  16  17
ENDBRANCH  15  16
ENDBRANCH   1  15
TORSDOF 22
ENDMDL
MODEL 7
REMARK VINA RESULT:    -1.282     18.634     21.913
REMARK INTER + INTRA:          -7.359
REMARK INTER:                  -2.359
REMARK INTRA:                  -5.000
REMARK UNBOUND:                -4.429
REMARK SMILES CCCCCCCCCCCCCCCCCCCCCCCC(=O)[O-]
REMARK SMILES IDX 13 1 14 2 15 3 16 4 17 5 18 6 19 7 20 8 21 9 22 10 23 11
REMARK SMILES IDX 24 12 25 13 26 14 12 15 11 16 10 17 9 18 8 19 7 20 6 21 5 22
REMARK SMILES IDX 4 23 3 24 2 25 1 26
REMARK H PARENT
REMARK Flexibility Score: inf
ROOT
ATOM      1  C   UNL     1     -19.858 -26.481  27.611  1.00  0.00     0.000 C 
ENDROOT
BRANCH   1   2
ATOM      2  C   UNL     1     -21.211 -25.840  27.951  1.00  0.00     0.000 C 
BRANCH   2   3
ATOM      3  C   UNL     1     -21.432 -25.697  29.464  1.00  0.00     0.000 C 
BRANCH   3   4
ATOM      4  C   UNL     1     -20.192 -26.100  30.283  1.00  0.00     0.000 C 
BRANCH   4   5
ATOM      5  C   UNL     1     -19.822 -25.035  31.337  1.00  0.00     0.000 C 
BRANCH   5   6
ATOM      6  C   UNL     1     -20.643 -23.738  31.222  1.00  0.00     0.000 C 
BRANCH   6   7
ATOM      7  C   UNL     1     -19.808 -22.477  31.500  1.00  0.00     0.000 C 
BRANCH   7   8
ATOM      8  C   UNL     1     -20.228 -21.275  30.635  1.00  0.00     0.000 C 
BRANCH   8   9
ATOM      9  C   UNL     1     -21.599 -21.407  29.943  1.00  0.00     0.000 C 
BRANCH   9  10
ATOM     10  C   UNL     1     -21.561 -21.373  28.404  1.00  0.00     0.006 C 
BRANCH  10  11
ATOM     11  C   UNL     1     -22.571 -22.330  27.758  1.00  0.00     0.053 C 
BRANCH  11  12
ATOM     12  C   UNL     1     -23.643 -21.564  27.051  1.00  0.00     0.041 C 
ATOM     13  O   UNL     1     -24.057 -21.948  25.924  1.00  0.00    -0.550 OA
ATOM     14  O   UNL     1     -24.219 -20.452  27.653  1.00  0.00    -0.550 OA
ENDBRANCH  11  12
ENDBRANCH  10  11
ENDBRANCH   9  10
ENDBRANCH   8   9
ENDBRANCH   7   8
ENDBRANCH   6   7
ENDBRANCH   5   6
ENDBRANCH   4   5
ENDBRANCH   3   4
ENDBRANCH   2   3
ENDBRANCH   1   2
BRANCH   1  15
ATOM     15  C   UNL     1     -18.989 -25.516  26.790  1.00  0.00     0.000 C 
BRANCH  15  16
ATOM     16  C   UNL     1     -19.337 -24.035  27.035  1.00  0.00     0.000 C 
BRANCH  16  17
ATOM     17  C   UNL     1     -18.504 -23.338  28.130  1.00  0.00     0.000 C 
BRANCH  17  18
ATOM     18  C   UNL     1     -17.342 -22.469  27.616  1.00  0.00    -0.000 C 
BRANCH  18  19
ATOM     19  C   UNL     1     -16.903 -21.397  28.625  1.00  0.00    -0.000 C 
BRANCH  19  20
ATOM     20  C   UNL     1     -15.388 -21.466  28.864  1.00  0.00    -0.000 C 
BRANCH  20  21
ATOM     21  C   UNL     1     -15.019 -22.284  30.113  1.00  0.00    -0.000 C 
BRANCH  21  22
ATOM     22  C   UNL     1     -16.106 -22.312  31.206  1.00  0.00    -0.000 C 
BRANCH  22  23
ATOM     23  C   UNL     1     -16.402 -23.729  31.743  1.00  0.00    -0.000 C 
BRANCH  23  24
ATOM     24  C   UNL     1     -15.556 -24.805  31.039  1.00  0.00    -0.000 C 
BRANCH  24  25
ATOM     25  C   UNL     1     -16.387 -25.694  30.104  1.00  0.00    -0.003 C 
ATOM     26  C   UNL     1     -15.795 -25.793  28.698  1.00  0.00     0.004 C 
ENDBRANCH  24  25
ENDBRANCH  23  24
ENDBRANCH  22  23
ENDBRANCH  21  22
ENDBRANCH  20  21
ENDBRANCH  19  20
ENDBRANCH  18  19
ENDBRANCH  17  18
ENDBRANCH  16  17
ENDBRANCH  15  16
ENDBRANCH   1  15
TORSDOF 22
ENDMDL
MODEL 8
REMARK VINA RESULT:    -1.251      2.710      6.156
REMARK INTER + INTRA:          -7.290
REMARK INTER:                  -2.899
REMARK INTRA:                  -4.391
REMARK UNBOUND:                -4.429
REMARK SMILES CCCCCCCCCCCCCCCCCCCCCCCC(=O)[O-]
REMARK SMILES IDX 13 1 14 2 15 3 16 4 17 5 18 6 19 7 20 8 21 9 22 10 23 11
REMARK SMILES IDX 24 12 25 13 26 14 12 15 11 16 10 17 9 18 8 19 7 20 6 21 5 22
REMARK SMILES IDX 4 23 3 24 2 25 1 26
REMARK H PARENT
REMARK Flexibility Score: inf
ROOT
ATOM      1  C   UNL     1     -31.242 -32.141  15.791  1.00  0.00     0.000 C 
ENDROOT
BRANCH   1   2
ATOM      2  C   UNL     1     -31.083 -32.249  17.315  1.00  0.00     0.000 C 
BRANCH   2   3
ATOM      3  C   UNL     1     -30.943 -33.702  17.791  1.00  0.00     0.000 C 
BRANCH   3   4
ATOM      4  C   UNL     1     -31.320 -34.721  16.700  1.00  0.00     0.000 C 
BRANCH   4   5
ATOM      5  C   UNL     1     -32.388 -35.723  17.187  1.00  0.00     0.000 C 
BRANCH   5   6
ATOM      6  C   UNL     1     -33.004 -35.359  18.550  1.00  0.00     0.000 C 
BRANCH   6   7
ATOM      7  C   UNL     1     -34.541 -35.330  18.521  1.00  0.00     0.000 C 
BRANCH   7   8
ATOM      8  C   UNL     1     -35.122 -33.941  18.840  1.00  0.00     0.000 C 
BRANCH   8   9
ATOM      9  C   UNL     1     -34.120 -32.923  19.420  1.00  0.00     0.000 C 
BRANCH   9  10
ATOM     10  C   UNL     1     -34.247 -31.492  18.868  1.00  0.00     0.006 C 
BRANCH  10  11
ATOM     11  C   UNL     1     -33.518 -30.451  19.727  1.00  0.00     0.053 C 
BRANCH  11  12
ATOM     12  C   UNL     1     -33.578 -29.102  19.083  1.00  0.00     0.041 C 
ATOM     13  O   UNL     1     -32.743 -28.788  18.193  1.00  0.00    -0.550 OA
ATOM     14  O   UNL     1     -34.583 -28.208  19.431  1.00  0.00    -0.550 OA
ENDBRANCH  11  12
ENDBRANCH  10  11
ENDBRANCH   9  10
ENDBRANCH   8   9
ENDBRANCH   7   8
ENDBRANCH   6   7
ENDBRANCH   5   6
ENDBRANCH   4   5
ENDBRANCH   3   4
ENDBRANCH   2   3
ENDBRANCH   1   2
BRANCH   1  15
ATOM     15  C   UNL     1     -31.391 -30.673  15.362  1.00  0.00     0.000 C 
BRANCH  15  16
ATOM     16  C   UNL     1     -32.730 -30.384  14.660  1.00  0.00     0.000 C 
BRANCH  16  17
ATOM     17  C   UNL     1     -33.990 -30.767  15.463  1.00  0.00     0.000 C 
BRANCH  17  18
ATOM     18  C   UNL     1     -34.948 -31.742  14.755  1.00  0.00    -0.000 C 
BRANCH  18  19
ATOM     19  C   UNL     1     -34.968 -33.136  15.398  1.00  0.00    -0.000 C 
BRANCH  19  20
ATOM     20  C   UNL     1     -34.282 -34.164  14.485  1.00  0.00    -0.000 C 
BRANCH  20  21
ATOM     21  C   UNL     1     -34.363 -33.786  12.996  1.00  0.00    -0.000 C 
BRANCH  21  22
ATOM     22  C   UNL     1     -33.290 -34.446  12.108  1.00  0.00    -0.000 C 
BRANCH  22  23
ATOM     23  C   UNL     1     -32.943 -35.890  12.531  1.00  0.00    -0.000 C 
BRANCH  23  24
ATOM     24  C   UNL     1     -31.425 -36.114  12.637  1.00  0.00    -0.000 C 
BRANCH  24  25
ATOM     25  C   UNL     1     -30.631 -34.800  12.641  1.00  0.00    -0.003 C 
ATOM     26  C   UNL     1     -29.429 -34.836  13.586  1.00  0.00     0.004 C 
ENDBRANCH  24  25
ENDBRANCH  23  24
ENDBRANCH  22  23
ENDBRANCH  21  22
ENDBRANCH  20  21
ENDBRANCH  19  20
ENDBRANCH  18  19
ENDBRANCH  17  18
ENDBRANCH  16  17
ENDBRANCH  15  16
ENDBRANCH   1  15
TORSDOF 22
ENDMDL
MODEL 9
REMARK VINA RESULT:    -0.619     19.342     22.377
REMARK INTER + INTRA:          -5.845
REMARK INTER:                  -1.039
REMARK INTRA:                  -4.806
REMARK UNBOUND:                -4.429
REMARK SMILES CCCCCCCCCCCCCCCCCCCCCCCC(=O)[O-]
REMARK SMILES IDX 13 1 14 2 15 3 16 4 17 5 18 6 19 7 20 8 21 9 22 10 23 11
REMARK SMILES IDX 24 12 25 13 26 14 12 15 11 16 10 17 9 18 8 19 7 20 6 21 5 22
REMARK SMILES IDX 4 23 3 24 2 25 1 26
REMARK H PARENT
REMARK Flexibility Score: inf
ROOT
ATOM      1  C   UNL     1     -17.694 -21.429  27.346  1.00  0.00     0.000 C 
ENDROOT
BRANCH   1   2
ATOM      2  C   UNL     1     -19.098 -21.745  27.883  1.00  0.00     0.000 C 
BRANCH   2   3
ATOM      3  C   UNL     1     -20.211 -21.264  26.940  1.00  0.00     0.000 C 
BRANCH   3   4
ATOM      4  C   UNL     1     -21.217 -22.378  26.597  1.00  0.00     0.000 C 
BRANCH   4   5
ATOM      5  C   UNL     1     -20.680 -23.777  26.969  1.00  0.00     0.000 C 
BRANCH   5   6
ATOM      6  C   UNL     1     -21.706 -24.660  27.703  1.00  0.00     0.000 C 
BRANCH   6   7
ATOM      7  C   UNL     1     -22.686 -23.845  28.564  1.00  0.00     0.000 C 
BRANCH   7   8
ATOM      8  C   UNL     1     -22.301 -23.821  30.054  1.00  0.00     0.000 C 
BRANCH   8   9
ATOM      9  C   UNL     1     -21.671 -22.505  30.552  1.00  0.00     0.000 C 
BRANCH   9  10
ATOM     10  C   UNL     1     -22.380 -21.222  30.084  1.00  0.00     0.006 C 
BRANCH  10  11
ATOM     11  C   UNL     1     -21.495 -19.974  30.194  1.00  0.00     0.053 C 
BRANCH  11  12
ATOM     12  C   UNL     1     -22.284 -18.814  30.714  1.00  0.00     0.041 C 
ATOM     13  O   UNL     1     -23.202 -18.308  30.015  1.00  0.00    -0.550 OA
ATOM     14  O   UNL     1     -22.038 -18.319  31.989  1.00  0.00    -0.550 OA
ENDBRANCH  11  12
ENDBRANCH  10  11
ENDBRANCH   9  10
ENDBRANCH   8   9
ENDBRANCH   7   8
ENDBRANCH   6   7
ENDBRANCH   5   6
ENDBRANCH   4   5
ENDBRANCH   3   4
ENDBRANCH   2   3
ENDBRANCH   1   2
BRANCH   1  15
ATOM     15  C   UNL     1     -16.728 -22.588  27.636  1.00  0.00     0.000 C 
BRANCH  15  16
ATOM     16  C   UNL     1     -15.285 -22.117  27.901  1.00  0.00     0.000 C 
BRANCH  16  17
ATOM     17  C   UNL     1     -14.881 -22.043  29.388  1.00  0.00     0.000 C 
BRANCH  17  18
ATOM     18  C   UNL     1     -14.875 -23.389  30.134  1.00  0.00    -0.000 C 
BRANCH  18  19
ATOM     19  C   UNL     1     -15.634 -23.339  31.468  1.00  0.00    -0.000 C 
BRANCH  19  20
ATOM     20  C   UNL     1     -16.595 -22.141  31.499  1.00  0.00    -0.000 C 
BRANCH  20  21
ATOM     21  C   UNL     1     -18.060 -22.546  31.264  1.00  0.00    -0.000 C 
BRANCH  21  22
ATOM     22  C   UNL     1     -18.324 -24.063  31.328  1.00  0.00    -0.000 C 
BRANCH  22  23
ATOM     23  C   UNL     1     -18.719 -24.678  29.968  1.00  0.00    -0.000 C 
BRANCH  23  24
ATOM     24  C   UNL     1     -18.046 -26.041  29.730  1.00  0.00    -0.000 C 
BRANCH  24  25
ATOM     25  C   UNL     1     -17.066 -26.021  28.549  1.00  0.00    -0.003 C 
ATOM     26  C   UNL     1     -17.757 -26.227  27.201  1.00  0.00     0.004 C 
ENDBRANCH  24  25
ENDBRANCH  23  24
ENDBRANCH  22  23
ENDBRANCH  21  22
ENDBRANCH  20  21
ENDBRANCH  19  20
ENDBRANCH  18  19
ENDBRANCH  17  18
ENDBRANCH  16  17
ENDBRANCH  15  16
ENDBRANCH   1  15
TORSDOF 22
ENDMDL
