MODEL 1
REMARK VINA RESULT:    -5.013      0.000      0.000
REMARK INTER + INTRA:          -6.259
REMARK INTER:                  -6.039
REMARK INTRA:                  -0.219
REMARK UNBOUND:                -0.219
REMARK SMILES O=c1c(O)c(-c2ccc(O)c(O)c2)oc2cc(O)cc(O)c12
REMARK SMILES IDX 5 1 3 2 2 3 1 4 22 5 20 6 19 7 17 8 16 9 15 10 14 11 6 12
REMARK SMILES IDX 7 13 8 14 9 15 13 16 11 17 10 18 12 20 4 22 21 24 18 26
REMARK H PARENT 10 19 12 21 4 23 21 25 18 27
REMARK Flexibility Score: inf
ROOT
ATOM      1  C   UNL     1     173.829 177.319 154.646  1.00  0.00     0.180 A 
ATOM      2  C   UNL     1     173.018 177.561 155.771  1.00  0.00     0.208 A 
ATOM      3  C   UNL     1     172.813 178.886 156.187  1.00  0.00     0.238 A 
ATOM      4  O   UNL     1     172.080 179.116 157.187  1.00  0.00    -0.285 OA
ATOM      5  C   UNL     1     173.436 179.940 155.488  1.00  0.00     0.111 A 
ATOM      6  C   UNL     1     173.284 181.302 155.845  1.00  0.00     0.134 A 
ATOM      7  C   UNL     1     173.944 182.293 155.103  1.00  0.00     0.093 A 
ATOM      8  C   UNL     1     174.752 181.950 154.016  1.00  0.00     0.123 A 
ATOM      9  C   UNL     1     174.905 180.607 153.659  1.00  0.00     0.094 A 
ATOM     10  C   UNL     1     174.254 179.605 154.384  1.00  0.00     0.146 A 
ATOM     11  O   UNL     1     174.413 178.337 154.020  1.00  0.00    -0.452 OA
ENDROOT
BRANCH   1  12
ATOM     12  C   UNL     1     174.078 175.952 154.135  1.00  0.00     0.025 A 
ATOM     13  C   UNL     1     175.377 175.426 154.174  1.00  0.00     0.016 A 
ATOM     14  C   UNL     1     175.636 174.146 153.679  1.00  0.00     0.051 A 
ATOM     15  C   UNL     1     174.611 173.374 153.123  1.00  0.00     0.157 A 
ATOM     16  C   UNL     1     173.049 175.188 153.557  1.00  0.00     0.062 A 
ATOM     17  C   UNL     1     173.300 173.904 153.055  1.00  0.00     0.158 A 
BRANCH  15  18
ATOM     18  O   UNL     1     174.935 172.100 152.653  1.00  0.00    -0.504 OA
ATOM     19  H   UNL     1     175.880 171.779 152.496  1.00  0.00     0.293 HD
ENDBRANCH  15  18
BRANCH  17  20
ATOM     20  O   UNL     1     172.231 173.201 152.497  1.00  0.00    -0.504 OA
ATOM     21  H   UNL     1     171.487 173.632 151.966  1.00  0.00     0.293 HD
ENDBRANCH  17  20
ENDBRANCH   1  12
BRANCH   2  22
ATOM     22  O   UNL     1     172.452 176.495 156.477  1.00  0.00    -0.502 OA
ATOM     23  H   UNL     1     171.452 176.332 156.504  1.00  0.00     0.293 HD
ENDBRANCH   2  22
BRANCH   6  24
ATOM     24  O   UNL     1     172.485 181.677 156.926  1.00  0.00    -0.507 OA
ATOM     25  H   UNL     1     172.856 181.739 157.867  1.00  0.00     0.293 HD
ENDBRANCH   6  24
BRANCH   8  26
ATOM     26  O   UNL     1     175.397 182.954 153.297  1.00  0.00    -0.508 OA
ATOM     27  H   UNL     1     175.039 183.903 153.274  1.00  0.00     0.293 HD
ENDBRANCH   8  26
TORSDOF 6
ENDMDL
MODEL 2
REMARK VINA RESULT:    -5.012      4.558      7.101
REMARK INTER + INTRA:          -6.257
REMARK INTER:                  -6.038
REMARK INTRA:                  -0.220
REMARK UNBOUND:                -0.219
REMARK SMILES O=c1c(O)c(-c2ccc(O)c(O)c2)oc2cc(O)cc(O)c12
REMARK SMILES IDX 5 1 3 2 2 3 1 4 22 5 20 6 19 7 17 8 16 9 15 10 14 11 6 12
REMARK SMILES IDX 7 13 8 14 9 15 13 16 11 17 10 18 12 20 4 22 21 24 18 26
REMARK H PARENT 10 19 12 21 4 23 21 25 18 27
REMARK Flexibility Score: inf
ROOT
ATOM      1  C   UNL     1     177.307 174.355 154.666  1.00  0.00     0.180 A 
ATOM      2  C   UNL     1     177.540 175.156 155.800  1.00  0.00     0.208 A 
ATOM      3  C   UNL     1     178.861 175.362 156.226  1.00  0.00     0.238 A 
ATOM      4  O   UNL     1     179.084 176.086 157.234  1.00  0.00    -0.285 OA
ATOM      5  C   UNL     1     179.922 174.749 155.527  1.00  0.00     0.111 A 
ATOM      6  C   UNL     1     181.281 174.902 155.893  1.00  0.00     0.134 A 
ATOM      7  C   UNL     1     182.279 174.252 155.151  1.00  0.00     0.093 A 
ATOM      8  C   UNL     1     181.945 173.454 154.054  1.00  0.00     0.123 A 
ATOM      9  C   UNL     1     180.605 173.299 153.688  1.00  0.00     0.094 A 
ATOM     10  C   UNL     1     179.596 173.941 154.413  1.00  0.00     0.146 A 
ATOM     11  O   UNL     1     178.331 173.781 154.041  1.00  0.00    -0.452 OA
ENDROOT
BRANCH   1  12
ATOM     12  C   UNL     1     175.944 174.107 154.145  1.00  0.00     0.025 A 
ATOM     13  C   UNL     1     175.424 172.805 154.164  1.00  0.00     0.016 A 
ATOM     14  C   UNL     1     174.148 172.546 153.660  1.00  0.00     0.051 A 
ATOM     15  C   UNL     1     173.374 173.574 153.113  1.00  0.00     0.157 A 
ATOM     16  C   UNL     1     175.178 175.139 153.576  1.00  0.00     0.062 A 
ATOM     17  C   UNL     1     173.899 174.888 153.064  1.00  0.00     0.158 A 
BRANCH  15  18
ATOM     18  O   UNL     1     172.104 173.250 152.632  1.00  0.00    -0.504 OA
ATOM     19  H   UNL     1     171.315 173.030 153.223  1.00  0.00     0.293 HD
ENDBRANCH  15  18
BRANCH  17  20
ATOM     20  O   UNL     1     173.194 175.961 152.516  1.00  0.00    -0.504 OA
ATOM     21  H   UNL     1     172.784 175.956 151.593  1.00  0.00     0.293 HD
ENDBRANCH  17  20
ENDBRANCH   1  12
BRANCH   2  22
ATOM     22  O   UNL     1     176.468 175.711 156.505  1.00  0.00    -0.502 OA
ATOM     23  H   UNL     1     176.312 176.711 156.555  1.00  0.00     0.293 HD
ENDBRANCH   2  22
BRANCH   6  24
ATOM     24  O   UNL     1     181.647 175.692 156.984  1.00  0.00    -0.507 OA
ATOM     25  H   UNL     1     181.971 175.284 157.853  1.00  0.00     0.293 HD
ENDBRANCH   6  24
BRANCH   8  26
ATOM     26  O   UNL     1     182.956 172.819 153.335  1.00  0.00    -0.508 OA
ATOM     27  H   UNL     1     182.966 172.821 152.321  1.00  0.00     0.293 HD
ENDBRANCH   8  26
TORSDOF 6
ENDMDL
MODEL 3
REMARK VINA RESULT:    -5.009      4.649      9.938
REMARK INTER + INTRA:          -6.253
REMARK INTER:                  -6.003
REMARK INTRA:                  -0.250
REMARK UNBOUND:                -0.219
REMARK SMILES O=c1c(O)c(-c2ccc(O)c(O)c2)oc2cc(O)cc(O)c12
REMARK SMILES IDX 5 1 3 2 2 3 1 4 22 5 20 6 19 7 17 8 16 9 15 10 14 11 6 12
REMARK SMILES IDX 7 13 8 14 9 15 13 16 11 17 10 18 12 20 4 22 21 24 18 26
REMARK H PARENT 10 19 12 21 4 23 21 25 18 27
REMARK Flexibility Score: inf
ROOT
ATOM      1  C   UNL     1     174.380 171.015 154.693  1.00  0.00     0.180 A 
ATOM      2  C   UNL     1     175.118 170.802 155.872  1.00  0.00     0.208 A 
ATOM      3  C   UNL     1     175.333 169.486 156.309  1.00  0.00     0.238 A 
ATOM      4  O   UNL     1     176.002 169.281 157.357  1.00  0.00    -0.285 OA
ATOM      5  C   UNL     1     174.792 168.410 155.574  1.00  0.00     0.111 A 
ATOM      6  C   UNL     1     174.959 167.055 155.948  1.00  0.00     0.134 A 
ATOM      7  C   UNL     1     174.381 166.042 155.169  1.00  0.00     0.093 A 
ATOM      8  C   UNL     1     173.640 166.356 154.027  1.00  0.00     0.123 A 
ATOM      9  C   UNL     1     173.472 167.693 153.653  1.00  0.00     0.094 A 
ATOM     10  C   UNL     1     174.042 168.717 154.415  1.00  0.00     0.146 A 
ATOM     11  O   UNL     1     173.871 169.978 154.034  1.00  0.00    -0.452 OA
ENDROOT
BRANCH   1  12
ATOM     12  C   UNL     1     174.127 172.373 154.157  1.00  0.00     0.025 A 
ATOM     13  C   UNL     1     172.823 172.888 154.172  1.00  0.00     0.016 A 
ATOM     14  C   UNL     1     172.559 174.159 153.656  1.00  0.00     0.051 A 
ATOM     15  C   UNL     1     173.585 174.931 153.100  1.00  0.00     0.157 A 
ATOM     16  C   UNL     1     175.156 173.136 153.581  1.00  0.00     0.062 A 
ATOM     17  C   UNL     1     174.900 174.410 153.056  1.00  0.00     0.158 A 
BRANCH  15  18
ATOM     18  O   UNL     1     173.256 176.195 152.607  1.00  0.00    -0.504 OA
ATOM     19  H   UNL     1     172.837 176.926 153.163  1.00  0.00     0.293 HD
ENDBRANCH  15  18
BRANCH  17  20
ATOM     20  O   UNL     1     175.971 175.113 152.501  1.00  0.00    -0.504 OA
ATOM     21  H   UNL     1     176.560 174.755 151.762  1.00  0.00     0.293 HD
ENDBRANCH  17  20
ENDBRANCH   1  12
BRANCH   2  22
ATOM     22  O   UNL     1     175.602 171.887 156.608  1.00  0.00    -0.502 OA
ATOM     23  H   UNL     1     175.964 171.785 157.550  1.00  0.00     0.293 HD
ENDBRANCH   2  22
BRANCH   6  24
ATOM     24  O   UNL     1     175.692 166.709 157.084  1.00  0.00    -0.507 OA
ATOM     25  H   UNL     1     176.583 167.143 157.296  1.00  0.00     0.293 HD
ENDBRANCH   6  24
BRANCH   8  26
ATOM     26  O   UNL     1     173.076 165.331 153.271  1.00  0.00    -0.508 OA
ATOM     27  H   UNL     1     173.434 165.090 152.354  1.00  0.00     0.293 HD
ENDBRANCH   8  26
TORSDOF 6
ENDMDL
MODEL 4
REMARK VINA RESULT:    -4.990      4.471      7.064
REMARK INTER + INTRA:          -6.231
REMARK INTER:                  -5.978
REMARK INTRA:                  -0.253
REMARK UNBOUND:                -0.219
REMARK SMILES O=c1c(O)c(-c2ccc(O)c(O)c2)oc2cc(O)cc(O)c12
REMARK SMILES IDX 5 1 3 2 2 3 1 4 22 5 20 6 19 7 17 8 16 9 15 10 14 11 6 12
REMARK SMILES IDX 7 13 8 14 9 15 13 16 11 17 10 18 12 20 4 22 21 24 18 26
REMARK H PARENT 10 19 12 21 4 23 21 25 18 27
REMARK Flexibility Score: inf
ROOT
ATOM      1  C   UNL     1     171.051 173.791 154.684  1.00  0.00     0.180 A 
ATOM      2  C   UNL     1     170.834 173.067 155.872  1.00  0.00     0.208 A 
ATOM      3  C   UNL     1     169.517 172.862 156.311  1.00  0.00     0.238 A 
ATOM      4  O   UNL     1     169.309 172.207 157.368  1.00  0.00    -0.285 OA
ATOM      5  C   UNL     1     168.444 173.400 155.570  1.00  0.00     0.111 A 
ATOM      6  C   UNL     1     167.088 173.242 155.946  1.00  0.00     0.134 A 
ATOM      7  C   UNL     1     166.077 173.815 155.159  1.00  0.00     0.093 A 
ATOM      8  C   UNL     1     166.395 174.540 154.008  1.00  0.00     0.123 A 
ATOM      9  C   UNL     1     167.733 174.699 153.632  1.00  0.00     0.094 A 
ATOM     10  C   UNL     1     168.754 174.134 154.402  1.00  0.00     0.146 A 
ATOM     11  O   UNL     1     170.015 174.296 154.019  1.00  0.00    -0.452 OA
ENDROOT
BRANCH   1  12
ATOM     12  C   UNL     1     172.409 174.032 154.147  1.00  0.00     0.025 A 
ATOM     13  C   UNL     1     172.934 175.332 154.155  1.00  0.00     0.016 A 
ATOM     14  C   UNL     1     174.205 175.585 153.635  1.00  0.00     0.051 A 
ATOM     15  C   UNL     1     174.970 174.551 153.084  1.00  0.00     0.157 A 
ATOM     16  C   UNL     1     173.165 172.995 153.575  1.00  0.00     0.062 A 
ATOM     17  C   UNL     1     174.440 173.239 153.047  1.00  0.00     0.158 A 
BRANCH  15  18
ATOM     18  O   UNL     1     176.235 174.869 152.588  1.00  0.00    -0.504 OA
ATOM     19  H   UNL     1     177.100 174.544 152.996  1.00  0.00     0.293 HD
ENDBRANCH  15  18
BRANCH  17  20
ATOM     20  O   UNL     1     175.135 172.161 152.497  1.00  0.00    -0.504 OA
ATOM     21  H   UNL     1     175.230 171.261 152.946  1.00  0.00     0.293 HD
ENDBRANCH  17  20
ENDBRANCH   1  12
BRANCH   2  22
ATOM     22  O   UNL     1     171.917 172.588 156.615  1.00  0.00    -0.502 OA
ATOM     23  H   UNL     1     172.878 172.775 156.355  1.00  0.00     0.293 HD
ENDBRANCH   2  22
BRANCH   6  24
ATOM     24  O   UNL     1     166.738 172.524 157.090  1.00  0.00    -0.507 OA
ATOM     25  H   UNL     1     165.969 171.863 157.090  1.00  0.00     0.293 HD
ENDBRANCH   6  24
BRANCH   8  26
ATOM     26  O   UNL     1     165.372 175.100 153.246  1.00  0.00    -0.508 OA
ATOM     27  H   UNL     1     165.296 176.103 153.116  1.00  0.00     0.293 HD
ENDBRANCH   8  26
TORSDOF 6
ENDMDL
MODEL 5
REMARK VINA RESULT:    -4.734      7.655      8.558
REMARK INTER + INTRA:          -5.922
REMARK INTER:                  -5.602
REMARK INTRA:                  -0.320
REMARK UNBOUND:                -0.219
REMARK SMILES O=c1c(O)c(-c2ccc(O)c(O)c2)oc2cc(O)cc(O)c12
REMARK SMILES IDX 5 1 3 2 2 3 1 4 22 5 20 6 19 7 17 8 16 9 15 10 14 11 6 12
REMARK SMILES IDX 7 13 8 14 9 15 13 16 11 17 10 18 12 20 4 22 21 24 18 26
REMARK H PARENT 10 19 12 21 4 23 21 25 18 27
REMARK Flexibility Score: inf
ROOT
ATOM      1  C   UNL     1     165.802 176.783 153.185  1.00  0.00     0.180 A 
ATOM      2  C   UNL     1     164.977 176.903 152.050  1.00  0.00     0.208 A 
ATOM      3  C   UNL     1     164.913 178.137 151.385  1.00  0.00     0.238 A 
ATOM      4  O   UNL     1     164.185 178.254 150.362  1.00  0.00    -0.285 OA
ATOM      5  C   UNL     1     165.655 179.232 151.875  1.00  0.00     0.111 A 
ATOM      6  C   UNL     1     165.643 180.510 151.266  1.00  0.00     0.134 A 
ATOM      7  C   UNL     1     166.403 181.551 151.819  1.00  0.00     0.093 A 
ATOM      8  C   UNL     1     167.172 181.340 152.966  1.00  0.00     0.123 A 
ATOM      9  C   UNL     1     167.188 180.080 153.572  1.00  0.00     0.094 A 
ATOM     10  C   UNL     1     166.439 179.029 153.034  1.00  0.00     0.146 A 
ATOM     11  O   UNL     1     166.477 177.841 153.627  1.00  0.00    -0.452 OA
ENDROOT
BRANCH   1  12
ATOM     12  C   UNL     1     165.937 175.509 153.928  1.00  0.00     0.025 A 
ATOM     13  C   UNL     1     165.024 175.205 154.948  1.00  0.00     0.016 A 
ATOM     14  C   UNL     1     165.145 174.019 155.674  1.00  0.00     0.051 A 
ATOM     15  C   UNL     1     166.186 173.122 155.410  1.00  0.00     0.157 A 
ATOM     16  C   UNL     1     166.997 174.622 153.674  1.00  0.00     0.062 A 
ATOM     17  C   UNL     1     167.128 173.431 154.400  1.00  0.00     0.158 A 
BRANCH  15  18
ATOM     18  O   UNL     1     166.246 171.951 156.167  1.00  0.00    -0.504 OA
ATOM     19  H   UNL     1     165.620 171.167 156.046  1.00  0.00     0.293 HD
ENDBRANCH  15  18
BRANCH  17  20
ATOM     20  O   UNL     1     168.204 172.596 154.093  1.00  0.00    -0.504 OA
ATOM     21  H   UNL     1     169.111 172.927 153.795  1.00  0.00     0.293 HD
ENDBRANCH  17  20
ENDBRANCH   1  12
BRANCH   2  22
ATOM     22  O   UNL     1     164.212 175.816 151.615  1.00  0.00    -0.502 OA
ATOM     23  H   UNL     1     164.579 175.114 150.983  1.00  0.00     0.293 HD
ENDBRANCH   2  22
BRANCH   6  24
ATOM     24  O   UNL     1     164.884 180.752 150.120  1.00  0.00    -0.507 OA
ATOM     25  H   UNL     1     165.141 180.364 149.219  1.00  0.00     0.293 HD
ENDBRANCH   6  24
BRANCH   8  26
ATOM     26  O   UNL     1     167.917 182.392 153.495  1.00  0.00    -0.508 OA
ATOM     27  H   UNL     1     168.278 182.362 154.442  1.00  0.00     0.293 HD
ENDBRANCH   8  26
TORSDOF 6
ENDMDL
MODEL 6
REMARK VINA RESULT:    -4.727     11.073     13.418
REMARK INTER + INTRA:          -5.914
REMARK INTER:                  -5.602
REMARK INTRA:                  -0.312
REMARK UNBOUND:                -0.219
REMARK SMILES O=c1c(O)c(-c2ccc(O)c(O)c2)oc2cc(O)cc(O)c12
REMARK SMILES IDX 5 1 3 2 2 3 1 4 22 5 20 6 19 7 17 8 16 9 15 10 14 11 6 12
REMARK SMILES IDX 7 13 8 14 9 15 13 16 11 17 10 18 12 20 4 22 21 24 18 26
REMARK H PARENT 10 19 12 21 4 23 21 25 18 27
REMARK Flexibility Score: inf
ROOT
ATOM      1  C   UNL     1     171.366 165.770 153.159  1.00  0.00     0.180 A 
ATOM      2  C   UNL     1     171.233 164.945 152.025  1.00  0.00     0.208 A 
ATOM      3  C   UNL     1     169.995 164.893 151.366  1.00  0.00     0.238 A 
ATOM      4  O   UNL     1     169.866 164.166 150.344  1.00  0.00    -0.285 OA
ATOM      5  C   UNL     1     168.910 165.647 151.860  1.00  0.00     0.111 A 
ATOM      6  C   UNL     1     167.629 165.647 151.257  1.00  0.00     0.134 A 
ATOM      7  C   UNL     1     166.598 166.418 151.814  1.00  0.00     0.093 A 
ATOM      8  C   UNL     1     166.821 167.185 152.960  1.00  0.00     0.123 A 
ATOM      9  C   UNL     1     168.085 167.189 153.560  1.00  0.00     0.094 A 
ATOM     10  C   UNL     1     169.126 166.430 153.018  1.00  0.00     0.146 A 
ATOM     11  O   UNL     1     170.317 166.455 153.605  1.00  0.00    -0.452 OA
ENDROOT
BRANCH   1  12
ATOM     12  C   UNL     1     172.644 165.893 153.896  1.00  0.00     0.025 A 
ATOM     13  C   UNL     1     172.963 164.953 154.886  1.00  0.00     0.016 A 
ATOM     14  C   UNL     1     174.154 165.061 155.607  1.00  0.00     0.051 A 
ATOM     15  C   UNL     1     175.041 166.116 155.366  1.00  0.00     0.157 A 
ATOM     16  C   UNL     1     173.522 166.966 153.667  1.00  0.00     0.062 A 
ATOM     17  C   UNL     1     174.717 167.086 154.387  1.00  0.00     0.158 A 
BRANCH  15  18
ATOM     18  O   UNL     1     176.217 166.163 156.116  1.00  0.00    -0.504 OA
ATOM     19  H   UNL     1     176.281 165.886 157.085  1.00  0.00     0.293 HD
ENDBRANCH  15  18
BRANCH  17  20
ATOM     20  O   UNL     1     175.542 168.176 154.106  1.00  0.00    -0.504 OA
ATOM     21  H   UNL     1     176.019 168.311 153.225  1.00  0.00     0.293 HD
ENDBRANCH  17  20
ENDBRANCH   1  12
BRANCH   2  22
ATOM     22  O   UNL     1     172.310 164.170 151.586  1.00  0.00    -0.502 OA
ATOM     23  H   UNL     1     172.591 163.317 152.055  1.00  0.00     0.293 HD
ENDBRANCH   2  22
BRANCH   6  24
ATOM     24  O   UNL     1     167.374 164.890 150.113  1.00  0.00    -0.507 OA
ATOM     25  H   UNL     1     166.454 164.511 149.918  1.00  0.00     0.293 HD
ENDBRANCH   6  24
BRANCH   8  26
ATOM     26  O   UNL     1     165.779 167.941 153.493  1.00  0.00    -0.508 OA
ATOM     27  H   UNL     1     165.006 168.258 152.918  1.00  0.00     0.293 HD
ENDBRANCH   8  26
TORSDOF 6
ENDMDL
MODEL 7
REMARK VINA RESULT:    -4.621      3.570      6.420
REMARK INTER + INTRA:          -5.786
REMARK INTER:                  -5.644
REMARK INTRA:                  -0.142
REMARK UNBOUND:                -0.219
REMARK SMILES O=c1c(O)c(-c2ccc(O)c(O)c2)oc2cc(O)cc(O)c12
REMARK SMILES IDX 5 1 3 2 2 3 1 4 22 5 20 6 19 7 17 8 16 9 15 10 14 11 6 12
REMARK SMILES IDX 7 13 8 14 9 15 13 16 11 17 10 18 12 20 4 22 21 24 18 26
REMARK H PARENT 10 19 12 21 4 23 21 25 18 27
REMARK Flexibility Score: inf
ROOT
ATOM      1  C   UNL     1     174.329 171.743 154.683  1.00  0.00     0.180 A 
ATOM      2  C   UNL     1     174.526 172.380 153.443  1.00  0.00     0.208 A 
ATOM      3  C   UNL     1     174.138 173.721 153.299  1.00  0.00     0.238 A 
ATOM      4  O   UNL     1     174.319 174.305 152.197  1.00  0.00    -0.285 OA
ATOM      5  C   UNL     1     173.543 174.394 154.386  1.00  0.00     0.111 A 
ATOM      6  C   UNL     1     173.120 175.744 154.322  1.00  0.00     0.134 A 
ATOM      7  C   UNL     1     172.528 176.341 155.446  1.00  0.00     0.093 A 
ATOM      8  C   UNL     1     172.350 175.617 156.627  1.00  0.00     0.123 A 
ATOM      9  C   UNL     1     172.766 174.283 156.695  1.00  0.00     0.094 A 
ATOM     10  C   UNL     1     173.360 173.672 155.588  1.00  0.00     0.146 A 
ATOM     11  O   UNL     1     173.750 172.405 155.682  1.00  0.00    -0.452 OA
ENDROOT
BRANCH   1  12
ATOM     12  C   UNL     1     174.729 170.337 154.919  1.00  0.00     0.025 A 
ATOM     13  C   UNL     1     175.746 170.055 155.842  1.00  0.00     0.016 A 
ATOM     14  C   UNL     1     176.152 168.738 156.066  1.00  0.00     0.051 A 
ATOM     15  C   UNL     1     175.565 167.680 155.363  1.00  0.00     0.157 A 
ATOM     16  C   UNL     1     174.152 169.280 154.196  1.00  0.00     0.062 A 
ATOM     17  C   UNL     1     174.555 167.956 154.410  1.00  0.00     0.158 A 
BRANCH  15  18
ATOM     18  O   UNL     1     176.011 166.387 155.638  1.00  0.00    -0.504 OA
ATOM     19  H   UNL     1     175.633 165.555 155.207  1.00  0.00     0.293 HD
ENDBRANCH  15  18
BRANCH  17  20
ATOM     20  O   UNL     1     173.937 166.956 153.657  1.00  0.00    -0.504 OA
ATOM     21  H   UNL     1     173.763 167.022 152.664  1.00  0.00     0.293 HD
ENDBRANCH  17  20
ENDBRANCH   1  12
BRANCH   2  22
ATOM     22  O   UNL     1     175.073 171.675 152.367  1.00  0.00    -0.502 OA
ATOM     23  H   UNL     1     174.818 170.716 152.161  1.00  0.00     0.293 HD
ENDBRANCH   2  22
BRANCH   6  24
ATOM     24  O   UNL     1     173.283 176.494 153.157  1.00  0.00    -0.507 OA
ATOM     25  H   UNL     1     173.603 177.455 153.182  1.00  0.00     0.293 HD
ENDBRANCH   6  24
BRANCH   8  26
ATOM     26  O   UNL     1     171.758 176.234 157.727  1.00  0.00    -0.508 OA
ATOM     27  H   UNL     1     171.723 177.244 157.813  1.00  0.00     0.293 HD
ENDBRANCH   8  26
TORSDOF 6
ENDMDL
MODEL 8
REMARK VINA RESULT:    -4.573      4.655      7.450
REMARK INTER + INTRA:          -5.728
REMARK INTER:                  -5.397
REMARK INTRA:                  -0.331
REMARK UNBOUND:                -0.219
REMARK SMILES O=c1c(O)c(-c2ccc(O)c(O)c2)oc2cc(O)cc(O)c12
REMARK SMILES IDX 5 1 3 2 2 3 1 4 22 5 20 6 19 7 17 8 16 9 15 10 14 11 6 12
REMARK SMILES IDX 7 13 8 14 9 15 13 16 11 17 10 18 12 20 4 22 21 24 18 26
REMARK H PARENT 10 19 12 21 4 23 21 25 18 27
REMARK Flexibility Score: inf
ROOT
ATOM      1  C   UNL     1     178.239 173.278 154.715  1.00  0.00     0.180 A 
ATOM      2  C   UNL     1     177.655 172.432 155.677  1.00  0.00     0.208 A 
ATOM      3  C   UNL     1     176.259 172.422 155.814  1.00  0.00     0.238 A 
ATOM      4  O   UNL     1     175.724 171.661 156.664  1.00  0.00    -0.285 OA
ATOM      5  C   UNL     1     175.473 173.269 155.005  1.00  0.00     0.111 A 
ATOM      6  C   UNL     1     174.061 173.323 155.084  1.00  0.00     0.134 A 
ATOM      7  C   UNL     1     173.350 174.200 154.250  1.00  0.00     0.093 A 
ATOM      8  C   UNL     1     174.023 175.022 153.343  1.00  0.00     0.123 A 
ATOM      9  C   UNL     1     175.418 174.974 153.261  1.00  0.00     0.094 A 
ATOM     10  C   UNL     1     176.143 174.105 154.082  1.00  0.00     0.146 A 
ATOM     11  O   UNL     1     177.468 174.075 153.980  1.00  0.00    -0.452 OA
ENDROOT
BRANCH   1  12
ATOM     12  C   UNL     1     179.703 173.331 154.497  1.00  0.00     0.025 A 
ATOM     13  C   UNL     1     180.456 174.337 155.118  1.00  0.00     0.016 A 
ATOM     14  C   UNL     1     181.835 174.417 154.911  1.00  0.00     0.051 A 
ATOM     15  C   UNL     1     182.485 173.506 154.071  1.00  0.00     0.157 A 
ATOM     16  C   UNL     1     180.348 172.428 153.636  1.00  0.00     0.062 A 
ATOM     17  C   UNL     1     181.730 172.502 153.419  1.00  0.00     0.158 A 
BRANCH  15  18
ATOM     18  O   UNL     1     183.866 173.636 153.912  1.00  0.00    -0.504 OA
ATOM     19  H   UNL     1     184.320 173.794 153.024  1.00  0.00     0.293 HD
ENDBRANCH  15  18
BRANCH  17  20
ATOM     20  O   UNL     1     182.305 171.571 152.552  1.00  0.00    -0.504 OA
ATOM     21  H   UNL     1     182.955 170.854 152.843  1.00  0.00     0.293 HD
ENDBRANCH  17  20
ENDBRANCH   1  12
BRANCH   2  22
ATOM     22  O   UNL     1     178.460 171.638 156.500  1.00  0.00    -0.502 OA
ATOM     23  H   UNL     1     179.198 172.027 157.074  1.00  0.00     0.293 HD
ENDBRANCH   2  22
BRANCH   6  24
ATOM     24  O   UNL     1     173.360 172.514 155.980  1.00  0.00    -0.507 OA
ATOM     25  H   UNL     1     173.719 171.616 156.281  1.00  0.00     0.293 HD
ENDBRANCH   6  24
BRANCH   8  26
ATOM     26  O   UNL     1     173.293 175.885 152.527  1.00  0.00    -0.508 OA
ATOM     27  H   UNL     1     172.597 176.513 152.911  1.00  0.00     0.293 HD
ENDBRANCH   8  26
TORSDOF 6
ENDMDL
MODEL 9
REMARK VINA RESULT:    -4.567      4.860      7.581
REMARK INTER + INTRA:          -5.721
REMARK INTER:                  -5.391
REMARK INTRA:                  -0.330
REMARK UNBOUND:                -0.219
REMARK SMILES O=c1c(O)c(-c2ccc(O)c(O)c2)oc2cc(O)cc(O)c12
REMARK SMILES IDX 5 1 3 2 2 3 1 4 22 5 20 6 19 7 17 8 16 9 15 10 14 11 6 12
REMARK SMILES IDX 7 13 8 14 9 15 13 16 11 17 10 18 12 20 4 22 21 24 18 26
REMARK H PARENT 10 19 12 21 4 23 21 25 18 27
REMARK Flexibility Score: inf
ROOT
ATOM      1  C   UNL     1     173.252 169.829 154.701  1.00  0.00     0.180 A 
ATOM      2  C   UNL     1     172.438 170.393 155.702  1.00  0.00     0.208 A 
ATOM      3  C   UNL     1     172.425 171.787 155.860  1.00  0.00     0.238 A 
ATOM      4  O   UNL     1     171.693 172.305 156.746  1.00  0.00    -0.285 OA
ATOM      5  C   UNL     1     173.236 172.590 155.031  1.00  0.00     0.111 A 
ATOM      6  C   UNL     1     173.283 174.002 155.128  1.00  0.00     0.134 A 
ATOM      7  C   UNL     1     174.123 174.730 154.271  1.00  0.00     0.093 A 
ATOM      8  C   UNL     1     174.914 174.076 153.324  1.00  0.00     0.123 A 
ATOM      9  C   UNL     1     174.872 172.682 153.225  1.00  0.00     0.094 A 
ATOM     10  C   UNL     1     174.040 171.939 154.067  1.00  0.00     0.146 A 
ATOM     11  O   UNL     1     174.015 170.616 153.947  1.00  0.00    -0.452 OA
ENDROOT
BRANCH   1  12
ATOM     12  C   UNL     1     173.306 168.369 154.460  1.00  0.00     0.025 A 
ATOM     13  C   UNL     1     174.323 167.609 155.054  1.00  0.00     0.016 A 
ATOM     14  C   UNL     1     174.404 166.234 154.826  1.00  0.00     0.051 A 
ATOM     15  C   UNL     1     173.483 165.594 153.989  1.00  0.00     0.157 A 
ATOM     16  C   UNL     1     172.392 167.734 153.602  1.00  0.00     0.062 A 
ATOM     17  C   UNL     1     172.467 166.355 153.363  1.00  0.00     0.158 A 
BRANCH  15  18
ATOM     18  O   UNL     1     173.615 164.216 153.808  1.00  0.00    -0.504 OA
ATOM     19  H   UNL     1     173.140 163.693 153.085  1.00  0.00     0.293 HD
ENDBRANCH  15  18
BRANCH  17  20
ATOM     20  O   UNL     1     171.526 165.790 152.501  1.00  0.00    -0.504 OA
ATOM     21  H   UNL     1     170.555 166.068 152.465  1.00  0.00     0.293 HD
ENDBRANCH  17  20
ENDBRANCH   1  12
BRANCH   2  22
ATOM     22  O   UNL     1     171.682 169.571 156.543  1.00  0.00    -0.502 OA
ATOM     23  H   UNL     1     170.982 168.930 156.189  1.00  0.00     0.293 HD
ENDBRANCH   2  22
BRANCH   6  24
ATOM     24  O   UNL     1     172.504 174.684 156.064  1.00  0.00    -0.507 OA
ATOM     25  H   UNL     1     172.805 174.799 157.025  1.00  0.00     0.293 HD
ENDBRANCH   6  24
BRANCH   8  26
ATOM     26  O   UNL     1     175.740 174.823 152.487  1.00  0.00    -0.508 OA
ATOM     27  H   UNL     1     175.564 174.889 151.491  1.00  0.00     0.293 HD
ENDBRANCH   8  26
TORSDOF 6
ENDMDL
