MODEL 1
REMARK VINA RESULT:    -4.897      0.000      0.000
REMARK INTER + INTRA:          -7.320
REMARK INTER:                  -6.757
REMARK INTRA:                  -0.562
REMARK UNBOUND:                -0.562
REMARK SMILES CC[C@H](CC[C@H](C)[C@@H]1CC[C@H]2[C@@H]3CC=C4C[C@@H](O)CC[C@]4(C)[C@@H]3CC[C@]21C)C(C)C
REMARK SMILES IDX 5 1 4 2 3 3 2 4 1 5 28 6 29 7 30 8 6 9 7 10 8 11 9 12 26 13
REMARK SMILES IDX 10 14 11 15 25 16 27 17 12 18 24 19 23 20 13 21 21 22 14 23
REMARK SMILES IDX 15 24 20 25 22 26 16 27 19 28 17 29 18 30
REMARK H PARENT 18 31
REMARK Flexibility Score: inf
ROOT
ATOM      1  C   UNL     1      40.611  11.749   2.500  1.00  0.00     0.004 C 
ENDROOT
BRANCH   1   2
ATOM      2  C   UNL     1      41.590  10.614   2.095  1.00  0.00     0.004 C 
BRANCH   2   3
ATOM      3  C   UNL     1      41.206   9.912   0.762  1.00  0.00    -0.009 C 
BRANCH   3   4
ATOM      4  C   UNL     1      41.834  10.695  -0.430  1.00  0.00     0.000 C 
ATOM      5  C   UNL     1      42.604  11.953  -0.030  1.00  0.00     0.004 C 
ENDBRANCH   3   4
BRANCH   3   6
ATOM      6  C   UNL     1      41.576   8.388   0.828  1.00  0.00    -0.014 C 
ATOM      7  C   UNL     1      41.850   7.754  -0.546  1.00  0.00     0.007 C 
ATOM      8  C   UNL     1      40.562   7.546   1.623  1.00  0.00     0.007 C 
ENDBRANCH   3   6
ENDBRANCH   2   3
ENDBRANCH   1   2
BRANCH   1   9
ATOM      9  C   UNL     1      40.618  12.048   4.024  1.00  0.00    -0.011 C 
ATOM     10  C   UNL     1      42.007  11.826   4.658  1.00  0.00     0.008 C 
BRANCH   9  11
ATOM     11  C   UNL     1      39.411  11.377   4.775  1.00  0.00    -0.002 C 
ATOM     12  C   UNL     1      39.070  12.121   6.075  1.00  0.00     0.005 C 
ATOM     13  C   UNL     1      39.367   9.824   5.121  1.00  0.00    -0.026 C 
ATOM     14  C   UNL     1      38.321  11.121   6.924  1.00  0.00     0.005 C 
ATOM     15  C   UNL     1      39.019   9.797   6.646  1.00  0.00    -0.001 C 
ATOM     16  C   UNL     1      38.247   9.149   4.267  1.00  0.00     0.007 C 
ATOM     17  C   UNL     1      40.695   9.066   4.871  1.00  0.00     0.012 C 
ATOM     18  C   UNL     1      38.217   8.578   7.205  1.00  0.00     0.000 C 
ATOM     19  C   UNL     1      37.709   7.834   4.843  1.00  0.00     0.005 C 
ATOM     20  C   UNL     1      37.108   8.068   6.248  1.00  0.00     0.003 C 
ATOM     21  C   UNL     1      39.160   7.438   7.632  1.00  0.00     0.031 C 
ATOM     22  C   UNL     1      36.303   6.851   6.881  1.00  0.00    -0.008 C 
ATOM     23  C   UNL     1      38.432   6.209   8.081  1.00  0.00    -0.027 C 
ATOM     24  C   UNL     1      37.203   5.871   7.645  1.00  0.00    -0.065 C 
ATOM     25  C   UNL     1      35.528   6.043   5.791  1.00  0.00     0.014 C 
ATOM     26  C   UNL     1      35.274   7.441   7.886  1.00  0.00     0.016 C 
ATOM     27  C   UNL     1      36.605   4.558   8.124  1.00  0.00     0.063 C 
ATOM     28  C   UNL     1      34.828   4.785   6.332  1.00  0.00     0.033 C 
ATOM     29  C   UNL     1      35.841   3.844   6.997  1.00  0.00     0.118 C 
BRANCH  29  30
ATOM     30  O   UNL     1      35.161   2.732   7.515  1.00  0.00    -0.393 OA
ATOM     31  H   UNL     1      34.600   2.369   6.780  1.00  0.00     0.210 HD
ENDBRANCH  29  30
ENDBRANCH   9  11
ENDBRANCH   1   9
TORSDOF 7
ENDMDL
MODEL 2
REMARK VINA RESULT:    -4.331      9.647     14.984
REMARK INTER + INTRA:          -6.539
REMARK INTER:                  -6.231
REMARK INTRA:                  -0.308
REMARK UNBOUND:                -0.562
REMARK SMILES CC[C@H](CC[C@H](C)[C@@H]1CC[C@H]2[C@@H]3CC=C4C[C@@H](O)CC[C@]4(C)[C@@H]3CC[C@]21C)C(C)C
REMARK SMILES IDX 5 1 4 2 3 3 2 4 1 5 28 6 29 7 30 8 6 9 7 10 8 11 9 12 26 13
REMARK SMILES IDX 10 14 11 15 25 16 27 17 12 18 24 19 23 20 13 21 21 22 14 23
REMARK SMILES IDX 15 24 20 25 22 26 16 27 19 28 17 29 18 30
REMARK H PARENT 18 31
REMARK Flexibility Score: inf
ROOT
ATOM      1  C   UNL     1      44.119   8.266  -6.618  1.00  0.00     0.004 C 
ENDROOT
BRANCH   1   2
ATOM      2  C   UNL     1      42.774   8.695  -5.974  1.00  0.00     0.004 C 
BRANCH   2   3
ATOM      3  C   UNL     1      42.698   8.404  -4.448  1.00  0.00    -0.009 C 
BRANCH   3   4
ATOM      4  C   UNL     1      44.065   8.762  -3.789  1.00  0.00     0.000 C 
ATOM      5  C   UNL     1      44.110  10.136  -3.121  1.00  0.00     0.004 C 
ENDBRANCH   3   4
BRANCH   3   6
ATOM      6  C   UNL     1      41.449   9.120  -3.823  1.00  0.00    -0.014 C 
ATOM      7  C   UNL     1      41.165   8.718  -2.366  1.00  0.00     0.007 C 
ATOM      8  C   UNL     1      40.178   8.990  -4.681  1.00  0.00     0.007 C 
ENDBRANCH   3   6
ENDBRANCH   2   3
ENDBRANCH   1   2
BRANCH   1   9
ATOM      9  C   UNL     1      44.124   8.392  -8.167  1.00  0.00    -0.011 C 
ATOM     10  C   UNL     1      43.649   9.781  -8.643  1.00  0.00     0.008 C 
BRANCH   9  11
ATOM     11  C   UNL     1      43.446   7.161  -8.873  1.00  0.00    -0.002 C 
ATOM     12  C   UNL     1      44.101   6.857 -10.228  1.00  0.00     0.005 C 
ATOM     13  C   UNL     1      41.874   7.054  -9.097  1.00  0.00    -0.026 C 
ATOM     14  C   UNL     1      43.069   6.071 -11.004  1.00  0.00     0.005 C 
ATOM     15  C   UNL     1      41.744   6.712 -10.618  1.00  0.00    -0.001 C 
ATOM     16  C   UNL     1      41.314   5.904  -8.202  1.00  0.00     0.007 C 
ATOM     17  C   UNL     1      41.085   8.349  -8.779  1.00  0.00     0.012 C 
ATOM     18  C   UNL     1      40.518   5.863 -11.087  1.00  0.00     0.000 C 
ATOM     19  C   UNL     1      39.981   5.315  -8.679  1.00  0.00     0.005 C 
ATOM     20  C   UNL     1      40.130   4.730 -10.103  1.00  0.00     0.003 C 
ATOM     21  C   UNL     1      39.311   6.760 -11.418  1.00  0.00     0.031 C 
ATOM     22  C   UNL     1      38.902   3.879 -10.646  1.00  0.00    -0.008 C 
ATOM     23  C   UNL     1      38.081   5.984 -11.776  1.00  0.00    -0.027 C 
ATOM     24  C   UNL     1      37.829   4.740 -11.325  1.00  0.00    -0.065 C 
ATOM     25  C   UNL     1      38.213   3.065  -9.502  1.00  0.00     0.014 C 
ATOM     26  C   UNL     1      39.454   2.879 -11.701  1.00  0.00     0.016 C 
ATOM     27  C   UNL     1      36.508   4.090 -11.705  1.00  0.00     0.063 C 
ATOM     28  C   UNL     1      36.946   2.317  -9.950  1.00  0.00     0.033 C 
ATOM     29  C   UNL     1      35.916   3.292 -10.532  1.00  0.00     0.118 C 
BRANCH  29  30
ATOM     30  O   UNL     1      34.796   2.569 -10.968  1.00  0.00    -0.393 OA
ATOM     31  H   UNL     1      34.717   1.776 -10.376  1.00  0.00     0.210 HD
ENDBRANCH  29  30
ENDBRANCH   9  11
ENDBRANCH   1   9
TORSDOF 7
ENDMDL
MODEL 3
REMARK VINA RESULT:    -3.392      2.857      7.726
REMARK INTER + INTRA:          -5.243
REMARK INTER:                  -4.070
REMARK INTRA:                  -1.172
REMARK UNBOUND:                -0.562
REMARK SMILES CC[C@H](CC[C@H](C)[C@@H]1CC[C@H]2[C@@H]3CC=C4C[C@@H](O)CC[C@]4(C)[C@@H]3CC[C@]21C)C(C)C
REMARK SMILES IDX 5 1 4 2 3 3 2 4 1 5 28 6 29 7 30 8 6 9 7 10 8 11 9 12 26 13
REMARK SMILES IDX 10 14 11 15 25 16 27 17 12 18 24 19 23 20 13 21 21 22 14 23
REMARK SMILES IDX 15 24 20 25 22 26 16 27 19 28 17 29 18 30
REMARK H PARENT 18 31
REMARK Flexibility Score: inf
ROOT
ATOM      1  C   UNL     1      37.546   9.341   8.124  1.00  0.00     0.004 C 
ENDROOT
BRANCH   1   2
ATOM      2  C   UNL     1      36.036   9.355   7.762  1.00  0.00     0.004 C 
BRANCH   2   3
ATOM      3  C   UNL     1      35.555   8.051   7.063  1.00  0.00    -0.009 C 
BRANCH   3   4
ATOM      4  C   UNL     1      34.895   8.414   5.699  1.00  0.00     0.000 C 
ATOM      5  C   UNL     1      33.690   7.551   5.325  1.00  0.00     0.004 C 
ENDBRANCH   3   4
BRANCH   3   6
ATOM      6  C   UNL     1      36.733   7.017   6.981  1.00  0.00    -0.014 C 
ATOM      7  C   UNL     1      37.350   6.887   5.578  1.00  0.00     0.007 C 
ATOM      8  C   UNL     1      36.372   5.632   7.548  1.00  0.00     0.007 C 
ENDBRANCH   3   6
ENDBRANCH   2   3
ENDBRANCH   1   2
BRANCH   1   9
ATOM      9  C   UNL     1      38.227  10.728   7.966  1.00  0.00    -0.011 C 
ATOM     10  C   UNL     1      37.201  11.878   7.891  1.00  0.00     0.008 C 
BRANCH   9  11
ATOM     11  C   UNL     1      39.336  10.731   6.852  1.00  0.00    -0.002 C 
ATOM     12  C   UNL     1      40.285  11.929   7.004  1.00  0.00     0.005 C 
ATOM     13  C   UNL     1      39.000  10.616   5.301  1.00  0.00    -0.026 C 
ATOM     14  C   UNL     1      40.913  12.117   5.643  1.00  0.00     0.005 C 
ATOM     15  C   UNL     1      39.786  11.810   4.666  1.00  0.00    -0.001 C 
ATOM     16  C   UNL     1      39.521   9.242   4.773  1.00  0.00     0.007 C 
ATOM     17  C   UNL     1      37.494  10.733   4.953  1.00  0.00     0.012 C 
ATOM     18  C   UNL     1      40.301  11.665   3.197  1.00  0.00     0.000 C 
ATOM     19  C   UNL     1      39.775   9.194   3.261  1.00  0.00     0.005 C 
ATOM     20  C   UNL     1      40.831  10.248   2.858  1.00  0.00     0.003 C 
ATOM     21  C   UNL     1      39.236  12.125   2.185  1.00  0.00     0.031 C 
ATOM     22  C   UNL     1      41.373  10.168   1.365  1.00  0.00    -0.008 C 
ATOM     23  C   UNL     1      39.645  11.910   0.761  1.00  0.00    -0.027 C 
ATOM     24  C   UNL     1      40.503  10.947   0.370  1.00  0.00    -0.065 C 
ATOM     25  C   UNL     1      41.470   8.690   0.865  1.00  0.00     0.014 C 
ATOM     26  C   UNL     1      42.798  10.791   1.348  1.00  0.00     0.016 C 
ATOM     27  C   UNL     1      40.781  10.790  -1.116  1.00  0.00     0.063 C 
ATOM     28  C   UNL     1      41.875   8.561  -0.613  1.00  0.00     0.033 C 
ATOM     29  C   UNL     1      40.885   9.309  -1.515  1.00  0.00     0.118 C 
BRANCH  29  30
ATOM     30  O   UNL     1      41.311   9.204  -2.847  1.00  0.00    -0.393 OA
ATOM     31  H   UNL     1      42.257   9.502  -2.871  1.00  0.00     0.210 HD
ENDBRANCH  29  30
ENDBRANCH   9  11
ENDBRANCH   1   9
TORSDOF 7
ENDMDL
MODEL 4
REMARK VINA RESULT:    -2.815      2.816      7.776
REMARK INTER + INTRA:          -4.447
REMARK INTER:                  -3.271
REMARK INTRA:                  -1.176
REMARK UNBOUND:                -0.562
REMARK SMILES CC[C@H](CC[C@H](C)[C@@H]1CC[C@H]2[C@@H]3CC=C4C[C@@H](O)CC[C@]4(C)[C@@H]3CC[C@]21C)C(C)C
REMARK SMILES IDX 5 1 4 2 3 3 2 4 1 5 28 6 29 7 30 8 6 9 7 10 8 11 9 12 26 13
REMARK SMILES IDX 10 14 11 15 25 16 27 17 12 18 24 19 23 20 13 21 21 22 14 23
REMARK SMILES IDX 15 24 20 25 22 26 16 27 19 28 17 29 18 30
REMARK H PARENT 18 31
REMARK Flexibility Score: inf
ROOT
ATOM      1  C   UNL     1      35.489   8.896   7.375  1.00  0.00     0.004 C 
ENDROOT
BRANCH   1   2
ATOM      2  C   UNL     1      35.753   7.549   8.100  1.00  0.00     0.004 C 
BRANCH   2   3
ATOM      3  C   UNL     1      36.325   6.445   7.165  1.00  0.00    -0.009 C 
BRANCH   3   4
ATOM      4  C   UNL     1      37.588   5.816   7.827  1.00  0.00     0.000 C 
ATOM      5  C   UNL     1      38.869   6.632   7.658  1.00  0.00     0.004 C 
ENDBRANCH   3   4
BRANCH   3   6
ATOM      6  C   UNL     1      35.196   5.426   6.779  1.00  0.00    -0.014 C 
ATOM      7  C   UNL     1      35.674   3.967   6.703  1.00  0.00     0.007 C 
ATOM      8  C   UNL     1      34.432   5.816   5.500  1.00  0.00     0.007 C 
ENDBRANCH   3   6
ENDBRANCH   2   3
ENDBRANCH   1   2
BRANCH   1   9
ATOM      9  C   UNL     1      36.373  10.059   7.903  1.00  0.00    -0.011 C 
ATOM     10  C   UNL     1      35.573  11.366   8.087  1.00  0.00     0.008 C 
BRANCH   9  11
ATOM     11  C   UNL     1      37.725  10.194   7.113  1.00  0.00    -0.002 C 
ATOM     12  C   UNL     1      38.570  11.366   7.634  1.00  0.00     0.005 C 
ATOM     13  C   UNL     1      37.793  10.261   5.524  1.00  0.00    -0.026 C 
ATOM     14  C   UNL     1      39.513  11.712   6.506  1.00  0.00     0.005 C 
ATOM     15  C   UNL     1      38.677  11.522   5.248  1.00  0.00    -0.001 C 
ATOM     16  C   UNL     1      38.471   8.959   4.993  1.00  0.00     0.007 C 
ATOM     17  C   UNL     1      36.419  10.417   4.823  1.00  0.00     0.012 C 
ATOM     18  C   UNL     1      39.547  11.550   3.950  1.00  0.00     0.000 C 
ATOM     19  C   UNL     1      39.097   9.088   3.599  1.00  0.00     0.005 C 
ATOM     20  C   UNL     1      40.188  10.183   3.598  1.00  0.00     0.003 C 
ATOM     21  C   UNL     1      38.756  12.125   2.760  1.00  0.00     0.031 C 
ATOM     22  C   UNL     1      41.089  10.279   2.291  1.00  0.00    -0.008 C 
ATOM     23  C   UNL     1      39.516  12.079   1.471  1.00  0.00    -0.027 C 
ATOM     24  C   UNL     1      40.473  11.169   1.203  1.00  0.00    -0.065 C 
ATOM     25  C   UNL     1      41.353   8.870   1.667  1.00  0.00     0.014 C 
ATOM     26  C   UNL     1      42.453  10.900   2.705  1.00  0.00     0.016 C 
ATOM     27  C   UNL     1      41.119  11.187  -0.173  1.00  0.00     0.063 C 
ATOM     28  C   UNL     1      42.119   8.915   0.334  1.00  0.00     0.033 C 
ATOM     29  C   UNL     1      41.364   9.763  -0.697  1.00  0.00     0.118 C 
BRANCH  29  30
ATOM     30  O   UNL     1      42.113   9.815  -1.882  1.00  0.00    -0.393 OA
ATOM     31  H   UNL     1      41.647   9.240  -2.543  1.00  0.00     0.210 HD
ENDBRANCH  29  30
ENDBRANCH   9  11
ENDBRANCH   1   9
TORSDOF 7
ENDMDL
MODEL 5
REMARK VINA RESULT:    -2.764      2.904      7.857
REMARK INTER + INTRA:          -4.377
REMARK INTER:                  -3.319
REMARK INTRA:                  -1.058
REMARK UNBOUND:                -0.562
REMARK SMILES CC[C@H](CC[C@H](C)[C@@H]1CC[C@H]2[C@@H]3CC=C4C[C@@H](O)CC[C@]4(C)[C@@H]3CC[C@]21C)C(C)C
REMARK SMILES IDX 5 1 4 2 3 3 2 4 1 5 28 6 29 7 30 8 6 9 7 10 8 11 9 12 26 13
REMARK SMILES IDX 10 14 11 15 25 16 27 17 12 18 24 19 23 20 13 21 21 22 14 23
REMARK SMILES IDX 15 24 20 25 22 26 16 27 19 28 17 29 18 30
REMARK H PARENT 18 31
REMARK Flexibility Score: inf
ROOT
ATOM      1  C   UNL     1      37.453   6.856   7.896  1.00  0.00     0.004 C 
ENDROOT
BRANCH   1   2
ATOM      2  C   UNL     1      36.064   7.484   7.602  1.00  0.00     0.004 C 
BRANCH   2   3
ATOM      3  C   UNL     1      35.442   7.009   6.257  1.00  0.00    -0.009 C 
BRANCH   3   4
ATOM      4  C   UNL     1      34.533   5.771   6.522  1.00  0.00     0.000 C 
ATOM      5  C   UNL     1      35.275   4.436   6.579  1.00  0.00     0.004 C 
ENDBRANCH   3   4
BRANCH   3   6
ATOM      6  C   UNL     1      34.740   8.211   5.533  1.00  0.00    -0.014 C 
ATOM      7  C   UNL     1      35.082   8.323   4.038  1.00  0.00     0.007 C 
ATOM      8  C   UNL     1      34.952   9.561   6.243  1.00  0.00     0.007 C 
ENDBRANCH   3   6
ENDBRANCH   2   3
ENDBRANCH   1   2
BRANCH   1   9
ATOM      9  C   UNL     1      38.610   7.893   7.875  1.00  0.00    -0.011 C 
ATOM     10  C   UNL     1      38.111   9.332   8.121  1.00  0.00     0.008 C 
BRANCH   9  11
ATOM     11  C   UNL     1      39.564   7.704   6.640  1.00  0.00    -0.002 C 
ATOM     12  C   UNL     1      41.034   7.932   7.022  1.00  0.00     0.005 C 
ATOM     13  C   UNL     1      39.338   8.453   5.253  1.00  0.00    -0.026 C 
ATOM     14  C   UNL     1      41.739   8.255   5.725  1.00  0.00     0.005 C 
ATOM     15  C   UNL     1      40.732   9.094   4.951  1.00  0.00    -0.001 C 
ATOM     16  C   UNL     1      38.945   7.400   4.170  1.00  0.00     0.007 C 
ATOM     17  C   UNL     1      38.247   9.554   5.282  1.00  0.00     0.012 C 
ATOM     18  C   UNL     1      41.152   9.293   3.459  1.00  0.00     0.000 C 
ATOM     19  C   UNL     1      39.221   7.835   2.726  1.00  0.00     0.005 C 
ATOM     20  C   UNL     1      40.727   8.127   2.530  1.00  0.00     0.003 C 
ATOM     21  C   UNL     1      40.664  10.650   2.918  1.00  0.00     0.031 C 
ATOM     22  C   UNL     1      41.209   8.365   1.034  1.00  0.00    -0.008 C 
ATOM     23  C   UNL     1      40.956  10.843   1.462  1.00  0.00    -0.027 C 
ATOM     24  C   UNL     1      41.070   9.826   0.585  1.00  0.00    -0.065 C 
ATOM     25  C   UNL     1      40.417   7.474   0.023  1.00  0.00     0.014 C 
ATOM     26  C   UNL     1      42.714   7.981   0.958  1.00  0.00     0.016 C 
ATOM     27  C   UNL     1      41.297  10.161  -0.880  1.00  0.00     0.063 C 
ATOM     28  C   UNL     1      40.761   7.751  -1.450  1.00  0.00     0.033 C 
ATOM     29  C   UNL     1      40.501   9.222  -1.801  1.00  0.00     0.118 C 
BRANCH  29  30
ATOM     30  O   UNL     1      40.866   9.445  -3.137  1.00  0.00    -0.393 OA
ATOM     31  H   UNL     1      40.046   9.736  -3.615  1.00  0.00     0.210 HD
ENDBRANCH  29  30
ENDBRANCH   9  11
ENDBRANCH   1   9
TORSDOF 7
ENDMDL
MODEL 6
REMARK VINA RESULT:    -2.538     13.114     15.173
REMARK INTER + INTRA:          -4.065
REMARK INTER:                  -3.159
REMARK INTRA:                  -0.906
REMARK UNBOUND:                -0.562
REMARK SMILES CC[C@H](CC[C@H](C)[C@@H]1CC[C@H]2[C@@H]3CC=C4C[C@@H](O)CC[C@]4(C)[C@@H]3CC[C@]21C)C(C)C
REMARK SMILES IDX 5 1 4 2 3 3 2 4 1 5 28 6 29 7 30 8 6 9 7 10 8 11 9 12 26 13
REMARK SMILES IDX 10 14 11 15 25 16 27 17 12 18 24 19 23 20 13 21 21 22 14 23
REMARK SMILES IDX 15 24 20 25 22 26 16 27 19 28 17 29 18 30
REMARK H PARENT 18 31
REMARK Flexibility Score: inf
ROOT
ATOM      1  C   UNL     1      43.800   8.769  -9.532  1.00  0.00     0.004 C 
ENDROOT
BRANCH   1   2
ATOM      2  C   UNL     1      43.965  10.040 -10.409  1.00  0.00     0.004 C 
BRANCH   2   3
ATOM      3  C   UNL     1      43.120  10.004 -11.715  1.00  0.00    -0.009 C 
BRANCH   3   4
ATOM      4  C   UNL     1      42.871   8.520 -12.125  1.00  0.00     0.000 C 
ATOM      5  C   UNL     1      44.117   7.636 -12.100  1.00  0.00     0.004 C 
ENDBRANCH   3   4
BRANCH   3   6
ATOM      6  C   UNL     1      41.825  10.875 -11.544  1.00  0.00    -0.014 C 
ATOM      7  C   UNL     1      41.940  11.952 -10.452  1.00  0.00     0.007 C 
ATOM      8  C   UNL     1      40.547  10.039 -11.351  1.00  0.00     0.007 C 
ENDBRANCH   3   6
ENDBRANCH   2   3
ENDBRANCH   1   2
BRANCH   1   9
ATOM      9  C   UNL     1      42.687   8.907  -8.458  1.00  0.00    -0.011 C 
ATOM     10  C   UNL     1      43.255   8.912  -7.023  1.00  0.00     0.008 C 
BRANCH   9  11
ATOM     11  C   UNL     1      41.482   7.929  -8.710  1.00  0.00    -0.002 C 
ATOM     12  C   UNL     1      40.300   8.238  -7.780  1.00  0.00     0.005 C 
ATOM     13  C   UNL     1      41.645   6.345  -8.721  1.00  0.00    -0.026 C 
ATOM     14  C   UNL     1      39.485   6.966  -7.733  1.00  0.00     0.005 C 
ATOM     15  C   UNL     1      40.525   5.855  -7.745  1.00  0.00    -0.001 C 
ATOM     16  C   UNL     1      41.408   5.824 -10.173  1.00  0.00     0.007 C 
ATOM     17  C   UNL     1      43.026   5.833  -8.237  1.00  0.00     0.012 C 
ATOM     18  C   UNL     1      39.886   4.450  -7.992  1.00  0.00     0.000 C 
ATOM     19  C   UNL     1      40.992   4.351 -10.263  1.00  0.00     0.005 C 
ATOM     20  C   UNL     1      39.673   4.116  -9.491  1.00  0.00     0.003 C 
ATOM     21  C   UNL     1      40.679   3.342  -7.275  1.00  0.00     0.031 C 
ATOM     22  C   UNL     1      38.989   2.693  -9.682  1.00  0.00    -0.008 C 
ATOM     23  C   UNL     1      40.163   1.967  -7.565  1.00  0.00    -0.027 C 
ATOM     24  C   UNL     1      39.520   1.638  -8.702  1.00  0.00    -0.065 C 
ATOM     25  C   UNL     1      39.189   2.146 -11.132  1.00  0.00     0.014 C 
ATOM     26  C   UNL     1      37.466   2.865  -9.423  1.00  0.00     0.016 C 
ATOM     27  C   UNL     1      39.110   0.188  -8.904  1.00  0.00     0.063 C 
ATOM     28  C   UNL     1      38.650   0.720 -11.338  1.00  0.00     0.033 C 
ATOM     29  C   UNL     1      39.316  -0.257 -10.361  1.00  0.00     0.118 C 
BRANCH  29  30
ATOM     30  O   UNL     1      38.769  -1.535 -10.549  1.00  0.00    -0.393 OA
ATOM     31  H   UNL     1      39.470  -2.087 -10.985  1.00  0.00     0.210 HD
ENDBRANCH  29  30
ENDBRANCH   9  11
ENDBRANCH   1   9
TORSDOF 7
ENDMDL
