MODEL 1
REMARK VINA RESULT:     8.587      0.000      0.000
REMARK INTER + INTRA:          16.334
REMARK INTER:                  14.110
REMARK INTRA:                   2.224
REMARK UNBOUND:                 2.224
REMARK SMILES C[C@@H]1O[C@@H](OC[C@@H]2O[C@H](Oc3c(-c4ccc(O)c(O)c4)oc4cc(O)cc(O)c4c3=O)[C@H](O)[C@@H](O)[C@H]2O)[C@H](O)[C@H](O)[C@H]1O
REMARK SMILES IDX 7 1 36 2 34 3 32 4 9 5 8 6 6 7 5 8 4 9 1 10 2 11 42 12 3 13
REMARK SMILES IDX 40 14 38 15 43 16 41 18 39 20 37 22 35 24 10 26 11 27 12 28
REMARK SMILES IDX 30 29 21 30 29 31 31 32 22 33 27 34 23 35 26 36 24 37 13 38
REMARK SMILES IDX 20 39 14 40 18 41 15 42 16 43 19 44 17 46 28 48 25 50 33 52
REMARK H PARENT 43 17 41 19 39 21 37 23 35 25 19 45 17 47 28 49 25 51 33 53
REMARK Flexibility Score: inf
ROOT
ATOM      1  C   UNL     1     -38.135  72.995 -19.542  1.00  0.00     0.180 C 
ATOM      2  C   UNL     1     -37.711  73.618 -18.188  1.00  0.00     0.177 C 
ATOM      3  C   UNL     1     -37.555  75.147 -18.314  1.00  0.00     0.180 C 
ATOM      4  C   UNL     1     -38.830  75.732 -18.928  1.00  0.00     0.214 C 
ATOM      5  C   UNL     1     -39.152  75.038 -20.265  1.00  0.00     0.339 C 
ATOM      6  O   UNL     1     -39.270  73.628 -20.128  1.00  0.00    -0.332 OA
ENDROOT
BRANCH   1   7
ATOM      7  C   UNL     1     -36.963  72.833 -20.532  1.00  0.00     0.198 C 
BRANCH   7   8
ATOM      8  O   UNL     1     -36.299  71.609 -20.268  1.00  0.00    -0.347 OA
BRANCH   8   9
ATOM      9  C   UNL     1     -36.225  71.338 -18.877  1.00  0.00     0.281 C 
ATOM     10  C   UNL     1     -32.650  70.493 -18.591  1.00  0.00     0.041 C 
ATOM     11  C   UNL     1     -34.095  70.349 -19.066  1.00  0.00     0.150 C 
ATOM     12  C   UNL     1     -34.634  68.928 -18.766  1.00  0.00     0.174 C 
ATOM     13  O   UNL     1     -34.880  71.334 -18.409  1.00  0.00    -0.344 OA
ATOM     14  C   UNL     1     -36.119  68.835 -19.184  1.00  0.00     0.179 C 
ATOM     15  C   UNL     1     -36.923  69.997 -18.571  1.00  0.00     0.202 C 
BRANCH  12  16
ATOM     16  O   UNL     1     -33.874  67.943 -19.422  1.00  0.00    -0.388 OA
ATOM     17  H   UNL     1     -33.603  68.308 -20.304  1.00  0.00     0.211 HD
ENDBRANCH  12  16
BRANCH  14  18
ATOM     18  O   UNL     1     -36.678  67.590 -18.840  1.00  0.00    -0.387 OA
ATOM     19  H   UNL     1     -36.387  67.369 -17.917  1.00  0.00     0.211 HD
ENDBRANCH  14  18
BRANCH  15  20
ATOM     20  O   UNL     1     -37.035  69.824 -17.179  1.00  0.00    -0.385 OA
ATOM     21  H   UNL     1     -36.520  70.559 -16.756  1.00  0.00     0.211 HD
ENDBRANCH  15  20
ENDBRANCH   8   9
ENDBRANCH   7   8
ENDBRANCH   1   7
BRANCH   2  22
ATOM     22  O   UNL     1     -38.682  73.303 -17.222  1.00  0.00    -0.387 OA
ATOM     23  H   UNL     1     -38.382  73.701 -16.365  1.00  0.00     0.211 HD
ENDBRANCH   2  22
BRANCH   3  24
ATOM     24  O   UNL     1     -37.333  75.727 -17.055  1.00  0.00    -0.387 OA
ATOM     25  H   UNL     1     -37.643  75.066 -16.380  1.00  0.00     0.211 HD
ENDBRANCH   3  24
BRANCH   5  26
ATOM     26  O   UNL     1     -38.199  75.395 -21.271  1.00  0.00    -0.454 OA
BRANCH  26  27
ATOM     27  C   UNL     1     -38.551  75.675 -22.600  1.00  0.00     0.214 A 
ATOM     28  C   UNL     1     -39.895  75.936 -22.919  1.00  0.00     0.180 A 
ATOM     29  C   UNL     1     -37.602  75.663 -23.636  1.00  0.00     0.239 A 
ATOM     30  O   UNL     1     -40.262  76.092 -24.188  1.00  0.00    -0.452 OA
ATOM     31  C   UNL     1     -38.024  75.861 -24.968  1.00  0.00     0.111 A 
ATOM     32  O   UNL     1     -36.385  75.485 -23.366  1.00  0.00    -0.285 OA
ATOM     33  C   UNL     1     -39.406  76.058 -25.201  1.00  0.00     0.146 A 
ATOM     34  C   UNL     1     -37.135  75.865 -26.070  1.00  0.00     0.134 A 
ATOM     35  C   UNL     1     -39.884  76.228 -26.505  1.00  0.00     0.094 A 
ATOM     36  C   UNL     1     -37.635  76.039 -27.369  1.00  0.00     0.093 A 
ATOM     37  C   UNL     1     -39.002  76.217 -27.589  1.00  0.00     0.123 A 
BRANCH  28  38
ATOM     38  C   UNL     1     -40.938  76.014 -21.876  1.00  0.00     0.025 A 
ATOM     39  C   UNL     1     -41.984  75.079 -21.869  1.00  0.00     0.062 A 
ATOM     40  C   UNL     1     -40.929  77.045 -20.922  1.00  0.00     0.016 A 
ATOM     41  C   UNL     1     -42.997  75.150 -20.906  1.00  0.00     0.158 A 
ATOM     42  C   UNL     1     -41.944  77.125 -19.963  1.00  0.00     0.051 A 
ATOM     43  C   UNL     1     -42.980  76.180 -19.950  1.00  0.00     0.157 A 
BRANCH  41  44
ATOM     44  O   UNL     1     -44.013  74.195 -20.920  1.00  0.00    -0.504 OA
ATOM     45  H   UNL     1     -44.031  73.437 -21.590  1.00  0.00     0.293 HD
ENDBRANCH  41  44
BRANCH  43  46
ATOM     46  O   UNL     1     -43.993  76.263 -18.997  1.00  0.00    -0.504 OA
ATOM     47  H   UNL     1     -44.079  75.580 -18.255  1.00  0.00     0.293 HD
ENDBRANCH  43  46
ENDBRANCH  28  38
BRANCH  34  48
ATOM     48  O   UNL     1     -35.763  75.695 -25.886  1.00  0.00    -0.507 OA
ATOM     49  H   UNL     1     -35.365  74.803 -25.619  1.00  0.00     0.293 HD
ENDBRANCH  34  48
BRANCH  37  50
ATOM     50  O   UNL     1     -39.474  76.376 -28.891  1.00  0.00    -0.508 OA
ATOM     51  H   UNL     1     -39.264  75.704 -29.618  1.00  0.00     0.293 HD
ENDBRANCH  37  50
ENDBRANCH  26  27
ENDBRANCH   5  26
BRANCH   4  52
ATOM     52  O   UNL     1     -38.735  77.125 -19.091  1.00  0.00    -0.384 OA
ATOM     53  H   UNL     1     -39.581  77.531 -18.769  1.00  0.00     0.211 HD
ENDBRANCH   4  52
TORSDOF 16
ENDMDL
