MODEL 1
REMARK VINA RESULT:    -6.132      0.000      0.000
REMARK INTER + INTRA:          -7.805
REMARK INTER:                  -7.387
REMARK INTRA:                  -0.417
REMARK UNBOUND:                -0.417
REMARK SMILES O=c1c(O)c(-c2ccc(O)cc2O)oc2cc(O)cc(O)c12
REMARK SMILES IDX 5 1 3 2 2 3 1 4 22 5 20 6 19 7 17 8 16 9 15 10 14 11 6 12
REMARK SMILES IDX 8 13 7 14 9 15 11 16 12 17 10 18 13 20 4 22 21 24 18 26
REMARK H PARENT 10 19 13 21 4 23 21 25 18 27
REMARK Flexibility Score: inf
ROOT
ATOM      1  C   UNL     1     -42.079 -39.621 -19.933  1.00  0.00     0.184 A 
ATOM      2  C   UNL     1     -40.735 -39.724 -20.323  1.00  0.00     0.208 A 
ATOM      3  C   UNL     1     -40.003 -38.551 -20.563  1.00  0.00     0.238 A 
ATOM      4  O   UNL     1     -38.784 -38.648 -20.861  1.00  0.00    -0.285 OA
ATOM      5  C   UNL     1     -40.632 -37.289 -20.425  1.00  0.00     0.111 A 
ATOM      6  C   UNL     1     -39.999 -36.035 -20.682  1.00  0.00     0.134 A 
ATOM      7  C   UNL     1     -40.678 -34.846 -20.388  1.00  0.00     0.093 A 
ATOM      8  C   UNL     1     -41.990 -34.865 -19.907  1.00  0.00     0.123 A 
ATOM      9  C   UNL     1     -42.637 -36.083 -19.710  1.00  0.00     0.094 A 
ATOM     10  C   UNL     1     -41.973 -37.286 -19.960  1.00  0.00     0.146 A 
ATOM     11  O   UNL     1     -42.624 -38.425 -19.747  1.00  0.00    -0.451 OA
ENDROOT
BRANCH   1  12
ATOM     12  C   UNL     1     -42.909 -40.817 -19.681  1.00  0.00     0.063 A 
ATOM     13  C   UNL     1     -43.481 -42.680 -18.227  1.00  0.00     0.047 A 
ATOM     14  C   UNL     1     -42.709 -41.547 -18.499  1.00  0.00     0.020 A 
ATOM     15  C   UNL     1     -44.470 -43.089 -19.126  1.00  0.00     0.119 A 
ATOM     16  C   UNL     1     -44.693 -42.354 -20.297  1.00  0.00     0.093 A 
ATOM     17  C   UNL     1     -43.927 -41.213 -20.575  1.00  0.00     0.130 A 
BRANCH  15  18
ATOM     18  O   UNL     1     -45.227 -44.223 -18.842  1.00  0.00    -0.508 OA
ATOM     19  H   UNL     1     -44.826 -45.153 -18.888  1.00  0.00     0.293 HD
ENDBRANCH  15  18
BRANCH  17  20
ATOM     20  O   UNL     1     -44.191 -40.462 -21.719  1.00  0.00    -0.507 OA
ATOM     21  H   UNL     1     -43.998 -40.820 -22.648  1.00  0.00     0.293 HD
ENDBRANCH  17  20
ENDBRANCH   1  12
BRANCH   2  22
ATOM     22  O   UNL     1     -40.134 -40.981 -20.435  1.00  0.00    -0.502 OA
ATOM     23  H   UNL     1     -40.507 -41.804 -19.977  1.00  0.00     0.293 HD
ENDBRANCH   2  22
BRANCH   6  24
ATOM     24  O   UNL     1     -38.727 -35.905 -21.247  1.00  0.00    -0.507 OA
ATOM     25  H   UNL     1     -38.528 -35.957 -22.233  1.00  0.00     0.293 HD
ENDBRANCH   6  24
BRANCH   8  26
ATOM     26  O   UNL     1     -42.663 -33.677 -19.631  1.00  0.00    -0.508 OA
ATOM     27  H   UNL     1     -42.281 -32.777 -19.900  1.00  0.00     0.293 HD
ENDBRANCH   8  26
TORSDOF 6
ENDMDL
MODEL 2
REMARK VINA RESULT:    -6.016      2.944      5.139
REMARK INTER + INTRA:          -7.664
REMARK INTER:                  -7.417
REMARK INTRA:                  -0.247
REMARK UNBOUND:                -0.417
REMARK SMILES O=c1c(O)c(-c2ccc(O)cc2O)oc2cc(O)cc(O)c12
REMARK SMILES IDX 5 1 3 2 2 3 1 4 22 5 20 6 19 7 17 8 16 9 15 10 14 11 6 12
REMARK SMILES IDX 8 13 7 14 9 15 11 16 12 17 10 18 13 20 4 22 21 24 18 26
REMARK H PARENT 10 19 13 21 4 23 21 25 18 27
REMARK Flexibility Score: inf
ROOT
ATOM      1  C   UNL     1     -43.713 -36.894 -19.770  1.00  0.00     0.184 A 
ATOM      2  C   UNL     1     -42.924 -35.736 -19.680  1.00  0.00     0.208 A 
ATOM      3  C   UNL     1     -41.555 -35.820 -19.980  1.00  0.00     0.238 A 
ATOM      4  O   UNL     1     -40.864 -34.769 -19.950  1.00  0.00    -0.285 OA
ATOM      5  C   UNL     1     -40.991 -37.066 -20.350  1.00  0.00     0.111 A 
ATOM      6  C   UNL     1     -39.609 -37.276 -20.637  1.00  0.00     0.134 A 
ATOM      7  C   UNL     1     -39.185 -38.521 -21.119  1.00  0.00     0.093 A 
ATOM      8  C   UNL     1     -40.084 -39.582 -21.262  1.00  0.00     0.123 A 
ATOM      9  C   UNL     1     -41.424 -39.403 -20.928  1.00  0.00     0.094 A 
ATOM     10  C   UNL     1     -41.883 -38.163 -20.480  1.00  0.00     0.146 A 
ATOM     11  O   UNL     1     -43.172 -38.033 -20.183  1.00  0.00    -0.451 OA
ENDROOT
BRANCH   1  12
ATOM     12  C   UNL     1     -45.155 -36.877 -19.451  1.00  0.00     0.063 A 
ATOM     13  C   UNL     1     -47.448 -37.232 -20.180  1.00  0.00     0.047 A 
ATOM     14  C   UNL     1     -46.077 -37.232 -20.449  1.00  0.00     0.020 A 
ATOM     15  C   UNL     1     -47.915 -36.891 -18.907  1.00  0.00     0.119 A 
ATOM     16  C   UNL     1     -47.002 -36.558 -17.898  1.00  0.00     0.093 A 
ATOM     17  C   UNL     1     -45.624 -36.560 -18.159  1.00  0.00     0.130 A 
BRANCH  15  18
ATOM     18  O   UNL     1     -49.285 -36.892 -18.656  1.00  0.00    -0.508 OA
ATOM     19  H   UNL     1     -49.880 -37.650 -18.970  1.00  0.00     0.293 HD
ENDBRANCH  15  18
BRANCH  17  20
ATOM     20  O   UNL     1     -44.724 -36.275 -17.133  1.00  0.00    -0.507 OA
ATOM     21  H   UNL     1     -43.724 -36.382 -17.258  1.00  0.00     0.293 HD
ENDBRANCH  17  20
ENDBRANCH   1  12
BRANCH   2  22
ATOM     22  O   UNL     1     -43.509 -34.517 -19.329  1.00  0.00    -0.502 OA
ATOM     23  H   UNL     1     -44.483 -34.439 -19.062  1.00  0.00     0.293 HD
ENDBRANCH   2  22
BRANCH   6  24
ATOM     24  O   UNL     1     -38.616 -36.312 -20.441  1.00  0.00    -0.507 OA
ATOM     25  H   UNL     1     -38.041 -35.921 -21.171  1.00  0.00     0.293 HD
ENDBRANCH   6  24
BRANCH   8  26
ATOM     26  O   UNL     1     -39.650 -40.821 -21.727  1.00  0.00    -0.508 OA
ATOM     27  H   UNL     1     -38.681 -40.986 -21.974  1.00  0.00     0.293 HD
ENDBRANCH   8  26
TORSDOF 6
ENDMDL
MODEL 3
REMARK VINA RESULT:    -5.795      1.693      6.831
REMARK INTER + INTRA:          -7.398
REMARK INTER:                  -6.980
REMARK INTRA:                  -0.418
REMARK UNBOUND:                -0.417
REMARK SMILES O=c1c(O)c(-c2ccc(O)cc2O)oc2cc(O)cc(O)c12
REMARK SMILES IDX 5 1 3 2 2 3 1 4 22 5 20 6 19 7 17 8 16 9 15 10 14 11 6 12
REMARK SMILES IDX 8 13 7 14 9 15 11 16 12 17 10 18 13 20 4 22 21 24 18 26
REMARK H PARENT 10 19 13 21 4 23 21 25 18 27
REMARK Flexibility Score: inf
ROOT
ATOM      1  C   UNL     1     -41.984 -39.664 -20.598  1.00  0.00     0.184 A 
ATOM      2  C   UNL     1     -42.894 -39.827 -21.655  1.00  0.00     0.208 A 
ATOM      3  C   UNL     1     -43.862 -40.840 -21.569  1.00  0.00     0.238 A 
ATOM      4  O   UNL     1     -44.709 -40.948 -22.494  1.00  0.00    -0.285 OA
ATOM      5  C   UNL     1     -43.894 -41.688 -20.434  1.00  0.00     0.111 A 
ATOM      6  C   UNL     1     -44.805 -42.773 -20.259  1.00  0.00     0.134 A 
ATOM      7  C   UNL     1     -44.832 -43.463 -19.041  1.00  0.00     0.093 A 
ATOM      8  C   UNL     1     -43.936 -43.148 -18.015  1.00  0.00     0.123 A 
ATOM      9  C   UNL     1     -43.004 -42.129 -18.199  1.00  0.00     0.094 A 
ATOM     10  C   UNL     1     -42.978 -41.400 -19.389  1.00  0.00     0.146 A 
ATOM     11  O   UNL     1     -42.079 -40.429 -19.518  1.00  0.00    -0.451 OA
ENDROOT
BRANCH   1  12
ATOM     12  C   UNL     1     -40.931 -38.628 -20.634  1.00  0.00     0.063 A 
ATOM     13  C   UNL     1     -40.216 -36.373 -20.070  1.00  0.00     0.047 A 
ATOM     14  C   UNL     1     -41.191 -37.374 -20.058  1.00  0.00     0.020 A 
ATOM     15  C   UNL     1     -38.965 -36.618 -20.643  1.00  0.00     0.119 A 
ATOM     16  C   UNL     1     -38.687 -37.873 -21.198  1.00  0.00     0.093 A 
ATOM     17  C   UNL     1     -39.658 -38.884 -21.187  1.00  0.00     0.130 A 
BRANCH  15  18
ATOM     18  O   UNL     1     -38.004 -35.608 -20.650  1.00  0.00    -0.508 OA
ATOM     19  H   UNL     1     -37.039 -35.798 -20.895  1.00  0.00     0.293 HD
ENDBRANCH  15  18
BRANCH  17  20
ATOM     20  O   UNL     1     -39.354 -40.145 -21.698  1.00  0.00    -0.507 OA
ATOM     21  H   UNL     1     -38.842 -40.258 -22.566  1.00  0.00     0.293 HD
ENDBRANCH  17  20
ENDBRANCH   1  12
BRANCH   2  22
ATOM     22  O   UNL     1     -42.851 -38.966 -22.754  1.00  0.00    -0.502 OA
ATOM     23  H   UNL     1     -42.344 -38.089 -22.737  1.00  0.00     0.293 HD
ENDBRANCH   2  22
BRANCH   6  24
ATOM     24  O   UNL     1     -45.677 -43.228 -21.253  1.00  0.00    -0.507 OA
ATOM     25  H   UNL     1     -45.388 -43.643 -22.125  1.00  0.00     0.293 HD
ENDBRANCH   6  24
BRANCH   8  26
ATOM     26  O   UNL     1     -43.960 -43.849 -16.811  1.00  0.00    -0.508 OA
ATOM     27  H   UNL     1     -44.791 -44.336 -16.498  1.00  0.00     0.293 HD
ENDBRANCH   8  26
TORSDOF 6
ENDMDL
MODEL 4
REMARK VINA RESULT:    -5.693      3.469      5.674
REMARK INTER + INTRA:          -7.275
REMARK INTER:                  -6.988
REMARK INTRA:                  -0.287
REMARK UNBOUND:                -0.417
REMARK SMILES O=c1c(O)c(-c2ccc(O)cc2O)oc2cc(O)cc(O)c12
REMARK SMILES IDX 5 1 3 2 2 3 1 4 22 5 20 6 19 7 17 8 16 9 15 10 14 11 6 12
REMARK SMILES IDX 8 13 7 14 9 15 11 16 12 17 10 18 13 20 4 22 21 24 18 26
REMARK H PARENT 10 19 13 21 4 23 21 25 18 27
REMARK Flexibility Score: inf
ROOT
ATOM      1  C   UNL     1     -44.796 -40.424 -18.204  1.00  0.00     0.184 A 
ATOM      2  C   UNL     1     -44.356 -41.235 -17.146  1.00  0.00     0.208 A 
ATOM      3  C   UNL     1     -43.061 -41.774 -17.194  1.00  0.00     0.238 A 
ATOM      4  O   UNL     1     -42.653 -42.457 -16.218  1.00  0.00    -0.285 OA
ATOM      5  C   UNL     1     -42.229 -41.509 -18.309  1.00  0.00     0.111 A 
ATOM      6  C   UNL     1     -40.914 -42.035 -18.484  1.00  0.00     0.134 A 
ATOM      7  C   UNL     1     -40.134 -41.602 -19.562  1.00  0.00     0.093 A 
ATOM      8  C   UNL     1     -40.645 -40.709 -20.508  1.00  0.00     0.123 A 
ATOM      9  C   UNL     1     -41.948 -40.235 -20.379  1.00  0.00     0.094 A 
ATOM     10  C   UNL     1     -42.738 -40.622 -19.294  1.00  0.00     0.146 A 
ATOM     11  O   UNL     1     -43.972 -40.137 -19.204  1.00  0.00    -0.451 OA
ENDROOT
BRANCH   1  12
ATOM     12  C   UNL     1     -46.152 -39.839 -18.222  1.00  0.00     0.063 A 
ATOM     13  C   UNL     1     -47.560 -37.856 -18.210  1.00  0.00     0.047 A 
ATOM     14  C   UNL     1     -46.292 -38.442 -18.189  1.00  0.00     0.020 A 
ATOM     15  C   UNL     1     -48.703 -38.657 -18.280  1.00  0.00     0.119 A 
ATOM     16  C   UNL     1     -48.574 -40.050 -18.337  1.00  0.00     0.093 A 
ATOM     17  C   UNL     1     -47.305 -40.646 -18.321  1.00  0.00     0.130 A 
BRANCH  15  18
ATOM     18  O   UNL     1     -49.961 -38.057 -18.296  1.00  0.00    -0.508 OA
ATOM     19  H   UNL     1     -50.074 -37.070 -18.499  1.00  0.00     0.293 HD
ENDBRANCH  15  18
BRANCH  17  20
ATOM     20  O   UNL     1     -47.188 -42.032 -18.428  1.00  0.00    -0.507 OA
ATOM     21  H   UNL     1     -47.035 -42.617 -17.614  1.00  0.00     0.293 HD
ENDBRANCH  17  20
ENDBRANCH   1  12
BRANCH   2  22
ATOM     22  O   UNL     1     -45.191 -41.467 -16.050  1.00  0.00    -0.502 OA
ATOM     23  H   UNL     1     -44.851 -41.457 -15.096  1.00  0.00     0.293 HD
ENDBRANCH   2  22
BRANCH   6  24
ATOM     24  O   UNL     1     -40.344 -43.000 -17.648  1.00  0.00    -0.507 OA
ATOM     25  H   UNL     1     -40.289 -42.931 -16.644  1.00  0.00     0.293 HD
ENDBRANCH   6  24
BRANCH   8  26
ATOM     26  O   UNL     1     -39.866 -40.295 -21.587  1.00  0.00    -0.508 OA
ATOM     27  H   UNL     1     -39.489 -39.355 -21.638  1.00  0.00     0.293 HD
ENDBRANCH   8  26
TORSDOF 6
ENDMDL
MODEL 5
REMARK VINA RESULT:    -5.653      1.753      6.879
REMARK INTER + INTRA:          -7.227
REMARK INTER:                  -6.820
REMARK INTRA:                  -0.407
REMARK UNBOUND:                -0.417
REMARK SMILES O=c1c(O)c(-c2ccc(O)cc2O)oc2cc(O)cc(O)c12
REMARK SMILES IDX 5 1 3 2 2 3 1 4 22 5 20 6 19 7 17 8 16 9 15 10 14 11 6 12
REMARK SMILES IDX 8 13 7 14 9 15 11 16 12 17 10 18 13 20 4 22 21 24 18 26
REMARK H PARENT 10 19 13 21 4 23 21 25 18 27
REMARK Flexibility Score: inf
ROOT
ATOM      1  C   UNL     1     -43.555 -38.775 -19.613  1.00  0.00     0.184 A 
ATOM      2  C   UNL     1     -44.198 -39.445 -20.665  1.00  0.00     0.208 A 
ATOM      3  C   UNL     1     -44.466 -40.817 -20.535  1.00  0.00     0.238 A 
ATOM      4  O   UNL     1     -45.091 -41.402 -21.458  1.00  0.00    -0.285 OA
ATOM      5  C   UNL     1     -44.071 -41.503 -19.360  1.00  0.00     0.111 A 
ATOM      6  C   UNL     1     -44.255 -42.901 -19.137  1.00  0.00     0.134 A 
ATOM      7  C   UNL     1     -43.943 -43.447 -17.886  1.00  0.00     0.093 A 
ATOM      8  C   UNL     1     -43.393 -42.658 -16.872  1.00  0.00     0.123 A 
ATOM      9  C   UNL     1     -43.155 -41.305 -17.101  1.00  0.00     0.094 A 
ATOM     10  C   UNL     1     -43.489 -40.724 -18.325  1.00  0.00     0.146 A 
ATOM     11  O   UNL     1     -43.255 -39.427 -18.497  1.00  0.00    -0.451 OA
ENDROOT
BRANCH   1  12
ATOM     12  C   UNL     1     -43.230 -37.336 -19.693  1.00  0.00     0.063 A 
ATOM     13  C   UNL     1     -43.898 -35.030 -19.308  1.00  0.00     0.047 A 
ATOM     14  C   UNL     1     -44.176 -36.398 -19.251  1.00  0.00     0.020 A 
ATOM     15  C   UNL     1     -42.667 -34.582 -19.793  1.00  0.00     0.119 A 
ATOM     16  C   UNL     1     -41.706 -35.510 -20.215  1.00  0.00     0.093 A 
ATOM     17  C   UNL     1     -41.975 -36.885 -20.157  1.00  0.00     0.130 A 
BRANCH  15  18
ATOM     18  O   UNL     1     -42.407 -33.215 -19.848  1.00  0.00    -0.508 OA
ATOM     19  H   UNL     1     -43.014 -32.542 -19.394  1.00  0.00     0.293 HD
ENDBRANCH  15  18
BRANCH  17  20
ATOM     20  O   UNL     1     -40.993 -37.801 -20.534  1.00  0.00    -0.507 OA
ATOM     21  H   UNL     1     -41.110 -38.406 -21.339  1.00  0.00     0.293 HD
ENDBRANCH  17  20
ENDBRANCH   1  12
BRANCH   2  22
ATOM     22  O   UNL     1     -44.592 -38.741 -21.805  1.00  0.00    -0.502 OA
ATOM     23  H   UNL     1     -45.254 -37.976 -21.769  1.00  0.00     0.293 HD
ENDBRANCH   2  22
BRANCH   6  24
ATOM     24  O   UNL     1     -44.710 -43.793 -20.112  1.00  0.00    -0.507 OA
ATOM     25  H   UNL     1     -45.050 -43.525 -21.023  1.00  0.00     0.293 HD
ENDBRANCH   6  24
BRANCH   8  26
ATOM     26  O   UNL     1     -43.072 -43.214 -15.635  1.00  0.00    -0.508 OA
ATOM     27  H   UNL     1     -43.093 -44.216 -15.483  1.00  0.00     0.293 HD
ENDBRANCH   8  26
TORSDOF 6
ENDMDL
MODEL 6
REMARK VINA RESULT:    -5.650      2.573      4.223
REMARK INTER + INTRA:          -7.224
REMARK INTER:                  -6.810
REMARK INTRA:                  -0.414
REMARK UNBOUND:                -0.417
REMARK SMILES O=c1c(O)c(-c2ccc(O)cc2O)oc2cc(O)cc(O)c12
REMARK SMILES IDX 5 1 3 2 2 3 1 4 22 5 20 6 19 7 17 8 16 9 15 10 14 11 6 12
REMARK SMILES IDX 8 13 7 14 9 15 11 16 12 17 10 18 13 20 4 22 21 24 18 26
REMARK H PARENT 10 19 13 21 4 23 21 25 18 27
REMARK Flexibility Score: inf
ROOT
ATOM      1  C   UNL     1     -43.946 -37.617 -18.797  1.00  0.00     0.184 A 
ATOM      2  C   UNL     1     -44.207 -36.240 -18.885  1.00  0.00     0.208 A 
ATOM      3  C   UNL     1     -43.205 -35.388 -19.376  1.00  0.00     0.238 A 
ATOM      4  O   UNL     1     -43.462 -34.162 -19.504  1.00  0.00    -0.285 OA
ATOM      5  C   UNL     1     -41.950 -35.924 -19.757  1.00  0.00     0.111 A 
ATOM      6  C   UNL     1     -40.848 -35.150 -20.230  1.00  0.00     0.134 A 
ATOM      7  C   UNL     1     -39.700 -35.798 -20.700  1.00  0.00     0.093 A 
ATOM      8  C   UNL     1     -39.589 -37.190 -20.654  1.00  0.00     0.123 A 
ATOM      9  C   UNL     1     -40.635 -37.951 -20.139  1.00  0.00     0.094 A 
ATOM     10  C   UNL     1     -41.808 -37.335 -19.696  1.00  0.00     0.146 A 
ATOM     11  O   UNL     1     -42.786 -38.100 -19.223  1.00  0.00    -0.451 OA
ENDROOT
BRANCH   1  12
ATOM     12  C   UNL     1     -44.951 -38.565 -18.274  1.00  0.00     0.063 A 
ATOM     13  C   UNL     1     -47.019 -39.798 -18.614  1.00  0.00     0.047 A 
ATOM     14  C   UNL     1     -46.054 -38.900 -19.076  1.00  0.00     0.020 A 
ATOM     15  C   UNL     1     -46.889 -40.382 -17.351  1.00  0.00     0.119 A 
ATOM     16  C   UNL     1     -45.781 -40.073 -16.552  1.00  0.00     0.093 A 
ATOM     17  C   UNL     1     -44.805 -39.177 -17.010  1.00  0.00     0.130 A 
BRANCH  15  18
ATOM     18  O   UNL     1     -47.863 -41.272 -16.903  1.00  0.00    -0.508 OA
ATOM     19  H   UNL     1     -48.687 -40.950 -16.408  1.00  0.00     0.293 HD
ENDBRANCH  15  18
BRANCH  17  20
ATOM     20  O   UNL     1     -43.681 -38.914 -16.227  1.00  0.00    -0.507 OA
ATOM     21  H   UNL     1     -43.288 -37.983 -16.157  1.00  0.00     0.293 HD
ENDBRANCH  17  20
ENDBRANCH   1  12
BRANCH   2  22
ATOM     22  O   UNL     1     -45.459 -35.741 -18.519  1.00  0.00    -0.502 OA
ATOM     23  H   UNL     1     -45.614 -35.248 -17.648  1.00  0.00     0.293 HD
ENDBRANCH   2  22
BRANCH   6  24
ATOM     24  O   UNL     1     -40.821 -33.752 -20.232  1.00  0.00    -0.507 OA
ATOM     25  H   UNL     1     -41.633 -33.161 -20.326  1.00  0.00     0.293 HD
ENDBRANCH   6  24
BRANCH   8  26
ATOM     26  O   UNL     1     -38.436 -37.826 -21.111  1.00  0.00    -0.508 OA
ATOM     27  H   UNL     1     -38.257 -37.954 -22.100  1.00  0.00     0.293 HD
ENDBRANCH   8  26
TORSDOF 6
ENDMDL
MODEL 7
REMARK VINA RESULT:    -5.625      1.516      3.393
REMARK INTER + INTRA:          -7.194
REMARK INTER:                  -6.788
REMARK INTRA:                  -0.406
REMARK UNBOUND:                -0.417
REMARK SMILES O=c1c(O)c(-c2ccc(O)cc2O)oc2cc(O)cc(O)c12
REMARK SMILES IDX 5 1 3 2 2 3 1 4 22 5 20 6 19 7 17 8 16 9 15 10 14 11 6 12
REMARK SMILES IDX 8 13 7 14 9 15 11 16 12 17 10 18 13 20 4 22 21 24 18 26
REMARK H PARENT 10 19 13 21 4 23 21 25 18 27
REMARK Flexibility Score: inf
ROOT
ATOM      1  C   UNL     1     -43.298 -38.807 -19.216  1.00  0.00     0.184 A 
ATOM      2  C   UNL     1     -44.231 -37.762 -19.123  1.00  0.00     0.208 A 
ATOM      3  C   UNL     1     -43.803 -36.446 -19.358  1.00  0.00     0.238 A 
ATOM      4  O   UNL     1     -44.655 -35.518 -19.327  1.00  0.00    -0.285 OA
ATOM      5  C   UNL     1     -42.444 -36.191 -19.666  1.00  0.00     0.111 A 
ATOM      6  C   UNL     1     -41.892 -34.893 -19.883  1.00  0.00     0.134 A 
ATOM      7  C   UNL     1     -40.563 -34.770 -20.308  1.00  0.00     0.093 A 
ATOM      8  C   UNL     1     -39.749 -35.895 -20.462  1.00  0.00     0.123 A 
ATOM      9  C   UNL     1     -40.263 -37.162 -20.195  1.00  0.00     0.094 A 
ATOM     10  C   UNL     1     -41.594 -37.319 -19.804  1.00  0.00     0.146 A 
ATOM     11  O   UNL     1     -42.046 -38.547 -19.571  1.00  0.00    -0.451 OA
ENDROOT
BRANCH   1  12
ATOM     12  C   UNL     1     -43.678 -40.212 -18.964  1.00  0.00     0.063 A 
ATOM     13  C   UNL     1     -44.328 -42.380 -19.855  1.00  0.00     0.047 A 
ATOM     14  C   UNL     1     -43.969 -41.044 -20.057  1.00  0.00     0.020 A 
ATOM     15  C   UNL     1     -44.386 -42.904 -18.561  1.00  0.00     0.119 A 
ATOM     16  C   UNL     1     -44.074 -42.088 -17.465  1.00  0.00     0.093 A 
ATOM     17  C   UNL     1     -43.709 -40.749 -17.660  1.00  0.00     0.130 A 
BRANCH  15  18
ATOM     18  O   UNL     1     -44.748 -44.236 -18.375  1.00  0.00    -0.508 OA
ATOM     19  H   UNL     1     -44.128 -44.895 -17.918  1.00  0.00     0.293 HD
ENDBRANCH  15  18
BRANCH  17  20
ATOM     20  O   UNL     1     -43.354 -39.960 -16.565  1.00  0.00    -0.507 OA
ATOM     21  H   UNL     1     -43.576 -40.237 -15.616  1.00  0.00     0.293 HD
ENDBRANCH  17  20
ENDBRANCH   1  12
BRANCH   2  22
ATOM     22  O   UNL     1     -45.568 -38.043 -18.835  1.00  0.00    -0.502 OA
ATOM     23  H   UNL     1     -45.993 -37.811 -17.945  1.00  0.00     0.293 HD
ENDBRANCH   2  22
BRANCH   6  24
ATOM     24  O   UNL     1     -42.592 -33.702 -19.669  1.00  0.00    -0.507 OA
ATOM     25  H   UNL     1     -42.495 -32.869 -20.229  1.00  0.00     0.293 HD
ENDBRANCH   6  24
BRANCH   8  26
ATOM     26  O   UNL     1     -38.424 -35.762 -20.871  1.00  0.00    -0.508 OA
ATOM     27  H   UNL     1     -37.897 -34.915 -20.694  1.00  0.00     0.293 HD
ENDBRANCH   8  26
TORSDOF 6
ENDMDL
MODEL 8
REMARK VINA RESULT:    -5.616      3.670      7.083
REMARK INTER + INTRA:          -7.183
REMARK INTER:                  -6.801
REMARK INTRA:                  -0.381
REMARK UNBOUND:                -0.417
REMARK SMILES O=c1c(O)c(-c2ccc(O)cc2O)oc2cc(O)cc(O)c12
REMARK SMILES IDX 5 1 3 2 2 3 1 4 22 5 20 6 19 7 17 8 16 9 15 10 14 11 6 12
REMARK SMILES IDX 8 13 7 14 9 15 11 16 12 17 10 18 13 20 4 22 21 24 18 26
REMARK H PARENT 10 19 13 21 4 23 21 25 18 27
REMARK Flexibility Score: inf
ROOT
ATOM      1  C   UNL     1     -43.822 -36.598 -19.745  1.00  0.00     0.184 A 
ATOM      2  C   UNL     1     -44.457 -36.573 -18.493  1.00  0.00     0.208 A 
ATOM      3  C   UNL     1     -45.827 -36.870 -18.420  1.00  0.00     0.238 A 
ATOM      4  O   UNL     1     -46.380 -36.898 -17.289  1.00  0.00    -0.285 OA
ATOM      5  C   UNL     1     -46.547 -37.172 -19.602  1.00  0.00     0.111 A 
ATOM      6  C   UNL     1     -47.947 -37.448 -19.651  1.00  0.00     0.134 A 
ATOM      7  C   UNL     1     -48.527 -37.861 -20.856  1.00  0.00     0.093 A 
ATOM      8  C   UNL     1     -47.771 -37.945 -22.028  1.00  0.00     0.123 A 
ATOM      9  C   UNL     1     -46.417 -37.620 -22.003  1.00  0.00     0.094 A 
ATOM     10  C   UNL     1     -45.802 -37.240 -20.808  1.00  0.00     0.146 A 
ATOM     11  O   UNL     1     -44.506 -36.949 -20.827  1.00  0.00    -0.451 OA
ENDROOT
BRANCH   1  12
ATOM     12  C   UNL     1     -42.387 -36.280 -19.894  1.00  0.00     0.063 A 
ATOM     13  C   UNL     1     -40.104 -37.064 -20.185  1.00  0.00     0.047 A 
ATOM     14  C   UNL     1     -41.468 -37.331 -20.037  1.00  0.00     0.020 A 
ATOM     15  C   UNL     1     -39.644 -35.745 -20.207  1.00  0.00     0.119 A 
ATOM     16  C   UNL     1     -40.556 -34.688 -20.089  1.00  0.00     0.093 A 
ATOM     17  C   UNL     1     -41.926 -34.947 -19.944  1.00  0.00     0.130 A 
BRANCH  15  18
ATOM     18  O   UNL     1     -38.281 -35.496 -20.351  1.00  0.00    -0.508 OA
ATOM     19  H   UNL     1     -37.587 -36.198 -20.119  1.00  0.00     0.293 HD
ENDBRANCH  15  18
BRANCH  17  20
ATOM     20  O   UNL     1     -42.829 -33.886 -19.877  1.00  0.00    -0.507 OA
ATOM     21  H   UNL     1     -43.655 -33.927 -19.290  1.00  0.00     0.293 HD
ENDBRANCH  17  20
ENDBRANCH   1  12
BRANCH   2  22
ATOM     22  O   UNL     1     -43.720 -36.289 -17.341  1.00  0.00    -0.502 OA
ATOM     23  H   UNL     1     -43.477 -35.343 -17.071  1.00  0.00     0.293 HD
ENDBRANCH   2  22
BRANCH   6  24
ATOM     24  O   UNL     1     -48.808 -37.306 -18.559  1.00  0.00    -0.507 OA
ATOM     25  H   UNL     1     -48.745 -37.836 -17.703  1.00  0.00     0.293 HD
ENDBRANCH   6  24
BRANCH   8  26
ATOM     26  O   UNL     1     -48.361 -38.343 -23.227  1.00  0.00    -0.508 OA
ATOM     27  H   UNL     1     -47.835 -38.838 -23.937  1.00  0.00     0.293 HD
ENDBRANCH   8  26
TORSDOF 6
ENDMDL
MODEL 9
REMARK VINA RESULT:    -5.489      3.979      6.059
REMARK INTER + INTRA:          -7.030
REMARK INTER:                  -6.647
REMARK INTRA:                  -0.383
REMARK UNBOUND:                -0.417
REMARK SMILES O=c1c(O)c(-c2ccc(O)cc2O)oc2cc(O)cc(O)c12
REMARK SMILES IDX 5 1 3 2 2 3 1 4 22 5 20 6 19 7 17 8 16 9 15 10 14 11 6 12
REMARK SMILES IDX 8 13 7 14 9 15 11 16 12 17 10 18 13 20 4 22 21 24 18 26
REMARK H PARENT 10 19 13 21 4 23 21 25 18 27
REMARK Flexibility Score: inf
ROOT
ATOM      1  C   UNL     1     -45.359 -39.852 -18.669  1.00  0.00     0.184 A 
ATOM      2  C   UNL     1     -46.525 -40.420 -19.206  1.00  0.00     0.208 A 
ATOM      3  C   UNL     1     -47.696 -39.648 -19.259  1.00  0.00     0.238 A 
ATOM      4  O   UNL     1     -48.724 -40.144 -19.791  1.00  0.00    -0.285 OA
ATOM      5  C   UNL     1     -47.689 -38.323 -18.759  1.00  0.00     0.111 A 
ATOM      6  C   UNL     1     -48.828 -37.463 -18.726  1.00  0.00     0.134 A 
ATOM      7  C   UNL     1     -48.675 -36.129 -18.329  1.00  0.00     0.093 A 
ATOM      8  C   UNL     1     -47.436 -35.642 -17.903  1.00  0.00     0.123 A 
ATOM      9  C   UNL     1     -46.331 -36.490 -17.876  1.00  0.00     0.094 A 
ATOM     10  C   UNL     1     -46.445 -37.815 -18.300  1.00  0.00     0.146 A 
ATOM     11  O   UNL     1     -45.364 -38.586 -18.269  1.00  0.00    -0.451 OA
ENDROOT
BRANCH   1  12
ATOM     12  C   UNL     1     -44.099 -40.615 -18.568  1.00  0.00     0.063 A 
ATOM     13  C   UNL     1     -41.886 -41.098 -19.453  1.00  0.00     0.047 A 
ATOM     14  C   UNL     1     -43.092 -40.396 -19.523  1.00  0.00     0.020 A 
ATOM     15  C   UNL     1     -41.664 -42.015 -18.423  1.00  0.00     0.119 A 
ATOM     16  C   UNL     1     -42.652 -42.223 -17.452  1.00  0.00     0.093 A 
ATOM     17  C   UNL     1     -43.864 -41.520 -17.511  1.00  0.00     0.130 A 
BRANCH  15  18
ATOM     18  O   UNL     1     -40.457 -42.709 -18.370  1.00  0.00    -0.508 OA
ATOM     19  H   UNL     1     -39.866 -42.681 -17.547  1.00  0.00     0.293 HD
ENDBRANCH  15  18
BRANCH  17  20
ATOM     20  O   UNL     1     -44.820 -41.700 -16.512  1.00  0.00    -0.507 OA
ATOM     21  H   UNL     1     -45.537 -41.007 -16.331  1.00  0.00     0.293 HD
ENDBRANCH  17  20
ENDBRANCH   1  12
BRANCH   2  22
ATOM     22  O   UNL     1     -46.500 -41.724 -19.708  1.00  0.00    -0.502 OA
ATOM     23  H   UNL     1     -46.464 -41.923 -20.700  1.00  0.00     0.293 HD
ENDBRANCH   2  22
BRANCH   6  24
ATOM     24  O   UNL     1     -50.126 -37.875 -19.043  1.00  0.00    -0.507 OA
ATOM     25  H   UNL     1     -50.373 -38.796 -19.371  1.00  0.00     0.293 HD
ENDBRANCH   6  24
BRANCH   8  26
ATOM     26  O   UNL     1     -47.296 -34.317 -17.496  1.00  0.00    -0.508 OA
ATOM     27  H   UNL     1     -46.675 -33.677 -17.977  1.00  0.00     0.293 HD
ENDBRANCH   8  26
TORSDOF 6
ENDMDL
