MODEL 1
REMARK VINA RESULT:    -7.285      0.000      0.000
REMARK INTER + INTRA:          -9.341
REMARK INTER:                  -8.989
REMARK INTRA:                  -0.353
REMARK UNBOUND:                -0.353
REMARK SMILES Oc1cc(O)c2cc(O)c(-c3cc(O)c(O)c(O)c3)[o+]c2c1
REMARK SMILES IDX 10 1 20 2 21 3 22 4 2 5 3 6 4 7 6 8 7 9 8 10 11 11 12 12
REMARK SMILES IDX 13 13 19 14 15 15 17 16 14 17 16 19 18 21 9 23 1 25 5 27
REMARK H PARENT 14 18 16 20 18 22 9 24 1 26 5 28
REMARK Flexibility Score: inf
ROOT
ATOM      1  C   UNL     1      39.663 -11.969   8.814  1.00  0.00     0.402 A 
ATOM      2  O   UNL     1      40.252 -13.100   9.197  1.00  0.00    -0.202 OA
ATOM      3  C   UNL     1      41.218 -13.147  10.108  1.00  0.00     0.368 A 
ATOM      4  C   UNL     1      41.777 -14.383  10.442  1.00  0.00     0.162 A 
ATOM      5  C   UNL     1      42.796 -14.462  11.395  1.00  0.00     0.128 A 
ATOM      6  C   UNL     1      43.260 -13.299  12.016  1.00  0.00     0.093 A 
ATOM      7  C   UNL     1      42.717 -12.048  11.698  1.00  0.00     0.136 A 
ATOM      8  C   UNL     1      41.679 -11.964  10.733  1.00  0.00     0.125 A 
ATOM      9  C   UNL     1      41.067 -10.755  10.362  1.00  0.00     0.078 A 
ATOM     10  C   UNL     1      40.047 -10.751   9.406  1.00  0.00     0.223 A 
ENDROOT
BRANCH   1  11
ATOM     11  C   UNL     1      38.605 -12.045   7.782  1.00  0.00     0.091 A 
ATOM     12  C   UNL     1      37.286 -12.400   8.110  1.00  0.00     0.068 A 
ATOM     13  C   UNL     1      36.293 -12.445   7.121  1.00  0.00     0.162 A 
ATOM     14  C   UNL     1      38.909 -11.701   6.455  1.00  0.00     0.068 A 
ATOM     15  C   UNL     1      36.610 -12.121   5.796  1.00  0.00     0.200 A 
ATOM     16  C   UNL     1      37.921 -11.744   5.461  1.00  0.00     0.162 A 
BRANCH  13  17
ATOM     17  O   UNL     1      34.987 -12.804   7.450  1.00  0.00    -0.504 OA
ATOM     18  H   UNL     1      34.788 -13.436   8.217  1.00  0.00     0.293 HD
ENDBRANCH  13  17
BRANCH  15  19
ATOM     19  O   UNL     1      35.609 -12.175   4.824  1.00  0.00    -0.502 OA
ATOM     20  H   UNL     1      34.739 -12.672   4.974  1.00  0.00     0.293 HD
ENDBRANCH  15  19
BRANCH  16  21
ATOM     21  O   UNL     1      38.238 -11.414   4.145  1.00  0.00    -0.504 OA
ATOM     22  H   UNL     1      39.172 -11.120   3.881  1.00  0.00     0.293 HD
ENDBRANCH  16  21
ENDBRANCH   1  11
BRANCH  10  23
ATOM     23  O   UNL     1      39.403  -9.559   9.073  1.00  0.00    -0.500 OA
ATOM     24  H   UNL     1      39.263  -9.282   8.108  1.00  0.00     0.294 HD
ENDBRANCH  10  23
BRANCH   5  25
ATOM     25  O   UNL     1      43.358 -15.691  11.734  1.00  0.00    -0.507 OA
ATOM     26  H   UNL     1      42.907 -16.565  11.490  1.00  0.00     0.293 HD
ENDBRANCH   5  25
BRANCH   7  27
ATOM     27  O   UNL     1      43.237 -10.933  12.360  1.00  0.00    -0.507 OA
ATOM     28  H   UNL     1      42.820 -10.507  13.176  1.00  0.00     0.293 HD
ENDBRANCH   7  27
TORSDOF 7
ENDMDL
MODEL 2
REMARK VINA RESULT:    -7.258      1.570      2.143
REMARK INTER + INTRA:          -9.308
REMARK INTER:                  -9.387
REMARK INTRA:                   0.078
REMARK UNBOUND:                -0.353
REMARK SMILES Oc1cc(O)c2cc(O)c(-c3cc(O)c(O)c(O)c3)[o+]c2c1
REMARK SMILES IDX 10 1 20 2 21 3 22 4 2 5 3 6 4 7 6 8 7 9 8 10 11 11 12 12
REMARK SMILES IDX 13 13 19 14 15 15 17 16 14 17 16 19 18 21 9 23 1 25 5 27
REMARK H PARENT 14 18 16 20 18 22 9 24 1 26 5 28
REMARK Flexibility Score: inf
ROOT
ATOM      1  C   UNL     1      39.064 -12.920   8.647  1.00  0.00     0.402 A 
ATOM      2  O   UNL     1      39.845 -13.852   9.188  1.00  0.00    -0.202 OA
ATOM      3  C   UNL     1      40.859 -13.573  10.000  1.00  0.00     0.368 A 
ATOM      4  C   UNL     1      41.625 -14.621  10.518  1.00  0.00     0.162 A 
ATOM      5  C   UNL     1      42.698 -14.355  11.372  1.00  0.00     0.128 A 
ATOM      6  C   UNL     1      43.010 -13.036  11.708  1.00  0.00     0.093 A 
ATOM      7  C   UNL     1      42.259 -11.968  11.203  1.00  0.00     0.136 A 
ATOM      8  C   UNL     1      41.165 -12.232  10.338  1.00  0.00     0.125 A 
ATOM      9  C   UNL     1      40.350 -11.226   9.794  1.00  0.00     0.078 A 
ATOM     10  C   UNL     1      39.286 -11.564   8.952  1.00  0.00     0.223 A 
ENDROOT
BRANCH   1  11
ATOM     11  C   UNL     1      37.971 -13.357   7.749  1.00  0.00     0.091 A 
ATOM     12  C   UNL     1      38.165 -14.379   6.804  1.00  0.00     0.068 A 
ATOM     13  C   UNL     1      37.110 -14.793   5.978  1.00  0.00     0.162 A 
ATOM     14  C   UNL     1      36.698 -12.781   7.880  1.00  0.00     0.068 A 
ATOM     15  C   UNL     1      35.848 -14.198   6.100  1.00  0.00     0.200 A 
ATOM     16  C   UNL     1      35.640 -13.190   7.057  1.00  0.00     0.162 A 
BRANCH  13  17
ATOM     17  O   UNL     1      37.307 -15.802   5.037  1.00  0.00    -0.504 OA
ATOM     18  H   UNL     1      36.705 -15.897   4.227  1.00  0.00     0.293 HD
ENDBRANCH  13  17
BRANCH  15  19
ATOM     19  O   UNL     1      34.812 -14.621   5.267  1.00  0.00    -0.502 OA
ATOM     20  H   UNL     1      34.126 -15.305   5.566  1.00  0.00     0.293 HD
ENDBRANCH  15  19
BRANCH  16  21
ATOM     21  O   UNL     1      34.384 -12.600   7.187  1.00  0.00    -0.504 OA
ATOM     22  H   UNL     1      33.540 -13.074   6.885  1.00  0.00     0.293 HD
ENDBRANCH  16  21
ENDBRANCH   1  11
BRANCH  10  23
ATOM     23  O   UNL     1      38.445 -10.570   8.452  1.00  0.00    -0.500 OA
ATOM     24  H   UNL     1      38.774  -9.625   8.295  1.00  0.00     0.294 HD
ENDBRANCH  10  23
BRANCH   5  25
ATOM     25  O   UNL     1      43.466 -15.395  11.892  1.00  0.00    -0.507 OA
ATOM     26  H   UNL     1      44.210 -15.825  11.354  1.00  0.00     0.293 HD
ENDBRANCH   5  25
BRANCH   7  27
ATOM     27  O   UNL     1      42.637 -10.677  11.585  1.00  0.00    -0.507 OA
ATOM     28  H   UNL     1      43.095 -10.014  10.977  1.00  0.00     0.293 HD
ENDBRANCH   7  27
TORSDOF 7
ENDMDL
MODEL 3
REMARK VINA RESULT:    -7.219      0.084      1.790
REMARK INTER + INTRA:          -9.260
REMARK INTER:                  -8.884
REMARK INTRA:                  -0.376
REMARK UNBOUND:                -0.353
REMARK SMILES Oc1cc(O)c2cc(O)c(-c3cc(O)c(O)c(O)c3)[o+]c2c1
REMARK SMILES IDX 10 1 20 2 21 3 22 4 2 5 3 6 4 7 6 8 7 9 8 10 11 11 12 12
REMARK SMILES IDX 13 13 19 14 15 15 17 16 14 17 16 19 18 21 9 23 1 25 5 27
REMARK H PARENT 14 18 16 20 18 22 9 24 1 26 5 28
REMARK Flexibility Score: inf
ROOT
ATOM      1  C   UNL     1      39.730 -11.893   8.795  1.00  0.00     0.402 A 
ATOM      2  O   UNL     1      40.313 -13.033   9.161  1.00  0.00    -0.202 OA
ATOM      3  C   UNL     1      41.266 -13.102  10.084  1.00  0.00     0.368 A 
ATOM      4  C   UNL     1      41.819 -14.346  10.399  1.00  0.00     0.162 A 
ATOM      5  C   UNL     1      42.824 -14.447  11.365  1.00  0.00     0.128 A 
ATOM      6  C   UNL     1      43.280 -13.299  12.017  1.00  0.00     0.093 A 
ATOM      7  C   UNL     1      42.742 -12.041  11.720  1.00  0.00     0.136 A 
ATOM      8  C   UNL     1      41.719 -11.933  10.743  1.00  0.00     0.125 A 
ATOM      9  C   UNL     1      41.113 -10.716  10.390  1.00  0.00     0.078 A 
ATOM     10  C   UNL     1      40.107 -10.689   9.420  1.00  0.00     0.223 A 
ENDROOT
BRANCH   1  11
ATOM     11  C   UNL     1      38.687 -11.945   7.746  1.00  0.00     0.091 A 
ATOM     12  C   UNL     1      38.981 -11.645   6.405  1.00  0.00     0.068 A 
ATOM     13  C   UNL     1      37.984 -11.722   5.424  1.00  0.00     0.162 A 
ATOM     14  C   UNL     1      37.388 -12.356   8.085  1.00  0.00     0.068 A 
ATOM     15  C   UNL     1      36.684 -12.111   5.773  1.00  0.00     0.200 A 
ATOM     16  C   UNL     1      36.386 -12.433   7.108  1.00  0.00     0.162 A 
BRANCH  13  17
ATOM     17  O   UNL     1      38.278 -11.418   4.096  1.00  0.00    -0.504 OA
ATOM     18  H   UNL     1      38.723 -10.544   3.837  1.00  0.00     0.293 HD
ENDBRANCH  13  17
BRANCH  15  19
ATOM     19  O   UNL     1      35.704 -12.178   4.783  1.00  0.00    -0.502 OA
ATOM     20  H   UNL     1      35.936 -12.269   3.800  1.00  0.00     0.293 HD
ENDBRANCH  15  19
BRANCH  16  21
ATOM     21  O   UNL     1      35.096 -12.828   7.459  1.00  0.00    -0.504 OA
ATOM     22  H   UNL     1      34.409 -12.163   7.794  1.00  0.00     0.293 HD
ENDBRANCH  16  21
ENDBRANCH   1  11
BRANCH  10  23
ATOM     23  O   UNL     1      39.469  -9.489   9.104  1.00  0.00    -0.500 OA
ATOM     24  H   UNL     1      39.622  -8.647   9.647  1.00  0.00     0.294 HD
ENDBRANCH  10  23
BRANCH   5  25
ATOM     25  O   UNL     1      43.380 -15.684  11.684  1.00  0.00    -0.507 OA
ATOM     26  H   UNL     1      44.368 -15.785  11.884  1.00  0.00     0.293 HD
ENDBRANCH   5  25
BRANCH   7  27
ATOM     27  O   UNL     1      43.254 -10.941  12.414  1.00  0.00    -0.507 OA
ATOM     28  H   UNL     1      42.691 -10.200  12.806  1.00  0.00     0.293 HD
ENDBRANCH   7  27
TORSDOF 7
ENDMDL
MODEL 4
REMARK VINA RESULT:    -7.031      1.129      2.547
REMARK INTER + INTRA:          -9.028
REMARK INTER:                  -8.849
REMARK INTRA:                  -0.179
REMARK UNBOUND:                -0.353
REMARK SMILES Oc1cc(O)c2cc(O)c(-c3cc(O)c(O)c(O)c3)[o+]c2c1
REMARK SMILES IDX 10 1 20 2 21 3 22 4 2 5 3 6 4 7 6 8 7 9 8 10 11 11 12 12
REMARK SMILES IDX 13 13 19 14 15 15 17 16 14 17 16 19 18 21 9 23 1 25 5 27
REMARK H PARENT 14 18 16 20 18 22 9 24 1 26 5 28
REMARK Flexibility Score: inf
ROOT
ATOM      1  C   UNL     1      40.039 -12.807   8.891  1.00  0.00     0.402 A 
ATOM      2  O   UNL     1      40.767 -11.838   9.443  1.00  0.00    -0.202 OA
ATOM      3  C   UNL     1      41.708 -12.063  10.354  1.00  0.00     0.368 A 
ATOM      4  C   UNL     1      42.419 -10.979  10.878  1.00  0.00     0.162 A 
ATOM      5  C   UNL     1      43.413 -11.186  11.838  1.00  0.00     0.128 A 
ATOM      6  C   UNL     1      43.697 -12.481  12.278  1.00  0.00     0.093 A 
ATOM      7  C   UNL     1      42.999 -13.583  11.769  1.00  0.00     0.136 A 
ATOM      8  C   UNL     1      41.991 -13.379  10.791  1.00  0.00     0.125 A 
ATOM      9  C   UNL     1      41.251 -14.425  10.216  1.00  0.00     0.078 A 
ATOM     10  C   UNL     1      40.275 -14.146   9.254  1.00  0.00     0.223 A 
ENDROOT
BRANCH   1  11
ATOM     11  C   UNL     1      39.012 -12.429   7.895  1.00  0.00     0.091 A 
ATOM     12  C   UNL     1      37.661 -12.777   8.067  1.00  0.00     0.068 A 
ATOM     13  C   UNL     1      36.701 -12.390   7.123  1.00  0.00     0.162 A 
ATOM     14  C   UNL     1      39.381 -11.659   6.780  1.00  0.00     0.068 A 
ATOM     15  C   UNL     1      37.081 -11.641   6.002  1.00  0.00     0.200 A 
ATOM     16  C   UNL     1      38.425 -11.271   5.832  1.00  0.00     0.162 A 
BRANCH  13  17
ATOM     17  O   UNL     1      35.363 -12.742   7.295  1.00  0.00    -0.504 OA
ATOM     18  H   UNL     1      34.937 -12.778   8.214  1.00  0.00     0.293 HD
ENDBRANCH  13  17
BRANCH  15  19
ATOM     19  O   UNL     1      36.111 -11.268   5.071  1.00  0.00    -0.502 OA
ATOM     20  H   UNL     1      35.316 -10.691   5.322  1.00  0.00     0.293 HD
ENDBRANCH  15  19
BRANCH  16  21
ATOM     21  O   UNL     1      38.807 -10.518   4.722  1.00  0.00    -0.504 OA
ATOM     22  H   UNL     1      39.355  -9.672   4.817  1.00  0.00     0.293 HD
ENDBRANCH  16  21
ENDBRANCH   1  11
BRANCH  10  23
ATOM     23  O   UNL     1      39.574 -15.187   8.644  1.00  0.00    -0.500 OA
ATOM     24  H   UNL     1      40.031 -15.844   8.023  1.00  0.00     0.294 HD
ENDBRANCH  10  23
BRANCH   5  25
ATOM     25  O   UNL     1      44.125 -10.111  12.365  1.00  0.00    -0.507 OA
ATOM     26  H   UNL     1      43.664  -9.247  12.626  1.00  0.00     0.293 HD
ENDBRANCH   5  25
BRANCH   7  27
ATOM     27  O   UNL     1      43.341 -14.845  12.263  1.00  0.00    -0.507 OA
ATOM     28  H   UNL     1      42.905 -15.709  11.971  1.00  0.00     0.293 HD
ENDBRANCH   7  27
TORSDOF 7
ENDMDL
MODEL 5
REMARK VINA RESULT:    -6.999      1.739      7.377
REMARK INTER + INTRA:          -8.989
REMARK INTER:                  -8.622
REMARK INTRA:                  -0.366
REMARK UNBOUND:                -0.353
REMARK SMILES Oc1cc(O)c2cc(O)c(-c3cc(O)c(O)c(O)c3)[o+]c2c1
REMARK SMILES IDX 10 1 20 2 21 3 22 4 2 5 3 6 4 7 6 8 7 9 8 10 11 11 12 12
REMARK SMILES IDX 13 13 19 14 15 15 17 16 14 17 16 19 18 21 9 23 1 25 5 27
REMARK H PARENT 14 18 16 20 18 22 9 24 1 26 5 28
REMARK Flexibility Score: inf
ROOT
ATOM      1  C   UNL     1      38.925 -11.769   8.419  1.00  0.00     0.402 A 
ATOM      2  O   UNL     1      38.968 -11.259   7.190  1.00  0.00    -0.202 OA
ATOM      3  C   UNL     1      38.021 -11.466   6.281  1.00  0.00     0.368 A 
ATOM      4  C   UNL     1      38.155 -10.890   5.015  1.00  0.00     0.162 A 
ATOM      5  C   UNL     1      37.176 -11.093   4.040  1.00  0.00     0.128 A 
ATOM      6  C   UNL     1      36.057 -11.877   4.330  1.00  0.00     0.093 A 
ATOM      7  C   UNL     1      35.898 -12.466   5.591  1.00  0.00     0.136 A 
ATOM      8  C   UNL     1      36.889 -12.260   6.586  1.00  0.00     0.125 A 
ATOM      9  C   UNL     1      36.807 -12.800   7.880  1.00  0.00     0.078 A 
ATOM     10  C   UNL     1      37.821 -12.549   8.809  1.00  0.00     0.223 A 
ENDROOT
BRANCH   1  11
ATOM     11  C   UNL     1      40.047 -11.475   9.338  1.00  0.00     0.091 A 
ATOM     12  C   UNL     1      41.236 -12.223   9.306  1.00  0.00     0.068 A 
ATOM     13  C   UNL     1      42.296 -11.914  10.170  1.00  0.00     0.162 A 
ATOM     14  C   UNL     1      39.948 -10.390  10.224  1.00  0.00     0.068 A 
ATOM     15  C   UNL     1      42.180 -10.844  11.067  1.00  0.00     0.200 A 
ATOM     16  C   UNL     1      41.003 -10.077  11.092  1.00  0.00     0.162 A 
BRANCH  13  17
ATOM     17  O   UNL     1      43.471 -12.662  10.139  1.00  0.00    -0.504 OA
ATOM     18  H   UNL     1      44.059 -12.762  10.960  1.00  0.00     0.293 HD
ENDBRANCH  13  17
BRANCH  15  19
ATOM     19  O   UNL     1      43.243 -10.554  11.922  1.00  0.00    -0.502 OA
ATOM     20  H   UNL     1      44.198 -10.482  11.589  1.00  0.00     0.293 HD
ENDBRANCH  15  19
BRANCH  16  21
ATOM     21  O   UNL     1      40.886  -9.007  11.978  1.00  0.00    -0.504 OA
ATOM     22  H   UNL     1      41.443  -8.954  12.823  1.00  0.00     0.293 HD
ENDBRANCH  16  21
ENDBRANCH   1  11
BRANCH  10  23
ATOM     23  O   UNL     1      37.717 -13.043  10.110  1.00  0.00    -0.500 OA
ATOM     24  H   UNL     1      37.669 -12.424  10.911  1.00  0.00     0.294 HD
ENDBRANCH  10  23
BRANCH   5  25
ATOM     25  O   UNL     1      37.304 -10.522   2.776  1.00  0.00    -0.507 OA
ATOM     26  H   UNL     1      38.187 -10.148   2.450  1.00  0.00     0.293 HD
ENDBRANCH   5  25
BRANCH   7  27
ATOM     27  O   UNL     1      34.753 -13.239   5.801  1.00  0.00    -0.507 OA
ATOM     28  H   UNL     1      34.005 -12.990   6.432  1.00  0.00     0.293 HD
ENDBRANCH   7  27
TORSDOF 7
ENDMDL
MODEL 6
REMARK VINA RESULT:    -6.912      1.289      7.116
REMARK INTER + INTRA:          -8.881
REMARK INTER:                  -8.701
REMARK INTRA:                  -0.179
REMARK UNBOUND:                -0.353
REMARK SMILES Oc1cc(O)c2cc(O)c(-c3cc(O)c(O)c(O)c3)[o+]c2c1
REMARK SMILES IDX 10 1 20 2 21 3 22 4 2 5 3 6 4 7 6 8 7 9 8 10 11 11 12 12
REMARK SMILES IDX 13 13 19 14 15 15 17 16 14 17 16 19 18 21 9 23 1 25 5 27
REMARK H PARENT 14 18 16 20 18 22 9 24 1 26 5 28
REMARK Flexibility Score: inf
ROOT
ATOM      1  C   UNL     1      40.295 -11.960   8.262  1.00  0.00     0.402 A 
ATOM      2  O   UNL     1      39.075 -12.490   8.284  1.00  0.00    -0.202 OA
ATOM      3  C   UNL     1      38.173 -12.284   7.331  1.00  0.00     0.368 A 
ATOM      4  C   UNL     1      36.915 -12.882   7.443  1.00  0.00     0.162 A 
ATOM      5  C   UNL     1      35.947 -12.680   6.457  1.00  0.00     0.128 A 
ATOM      6  C   UNL     1      36.236 -11.874   5.353  1.00  0.00     0.093 A 
ATOM      7  C   UNL     1      37.488 -11.263   5.216  1.00  0.00     0.136 A 
ATOM      8  C   UNL     1      38.476 -11.468   6.214  1.00  0.00     0.125 A 
ATOM      9  C   UNL     1      39.762 -10.905   6.154  1.00  0.00     0.078 A 
ATOM     10  C   UNL     1      40.685 -11.156   7.174  1.00  0.00     0.223 A 
ENDROOT
BRANCH   1  11
ATOM     11  C   UNL     1      41.208 -12.256   9.390  1.00  0.00     0.091 A 
ATOM     12  C   UNL     1      41.778 -11.228  10.160  1.00  0.00     0.068 A 
ATOM     13  C   UNL     1      42.622 -11.531  11.237  1.00  0.00     0.162 A 
ATOM     14  C   UNL     1      41.468 -13.592   9.735  1.00  0.00     0.068 A 
ATOM     15  C   UNL     1      42.894 -12.866  11.562  1.00  0.00     0.200 A 
ATOM     16  C   UNL     1      42.312 -13.901  10.810  1.00  0.00     0.162 A 
BRANCH  13  17
ATOM     17  O   UNL     1      43.190 -10.509  11.996  1.00  0.00    -0.504 OA
ATOM     18  H   UNL     1      42.645  -9.979  12.667  1.00  0.00     0.293 HD
ENDBRANCH  13  17
BRANCH  15  19
ATOM     19  O   UNL     1      43.740 -13.148  12.635  1.00  0.00    -0.502 OA
ATOM     20  H   UNL     1      43.384 -13.366  13.559  1.00  0.00     0.293 HD
ENDBRANCH  15  19
BRANCH  16  21
ATOM     21  O   UNL     1      42.574 -15.231  11.134  1.00  0.00    -0.504 OA
ATOM     22  H   UNL     1      43.441 -15.509  11.580  1.00  0.00     0.293 HD
ENDBRANCH  16  21
ENDBRANCH   1  11
BRANCH  10  23
ATOM     23  O   UNL     1      41.978 -10.641   7.091  1.00  0.00    -0.500 OA
ATOM     24  H   UNL     1      42.332 -10.228   6.236  1.00  0.00     0.294 HD
ENDBRANCH  10  23
BRANCH   5  25
ATOM     25  O   UNL     1      34.691 -13.274   6.562  1.00  0.00    -0.507 OA
ATOM     26  H   UNL     1      34.509 -14.199   6.191  1.00  0.00     0.293 HD
ENDBRANCH   5  25
BRANCH   7  27
ATOM     27  O   UNL     1      37.697 -10.469   4.085  1.00  0.00    -0.507 OA
ATOM     28  H   UNL     1      37.141 -10.518   3.243  1.00  0.00     0.293 HD
ENDBRANCH   7  27
TORSDOF 7
ENDMDL
MODEL 7
REMARK VINA RESULT:    -6.909      1.291      7.275
REMARK INTER + INTRA:          -8.877
REMARK INTER:                  -8.528
REMARK INTRA:                  -0.350
REMARK UNBOUND:                -0.353
REMARK SMILES Oc1cc(O)c2cc(O)c(-c3cc(O)c(O)c(O)c3)[o+]c2c1
REMARK SMILES IDX 10 1 20 2 21 3 22 4 2 5 3 6 4 7 6 8 7 9 8 10 11 11 12 12
REMARK SMILES IDX 13 13 19 14 15 15 17 16 14 17 16 19 18 21 9 23 1 25 5 27
REMARK H PARENT 14 18 16 20 18 22 9 24 1 26 5 28
REMARK Flexibility Score: inf
ROOT
ATOM      1  C   UNL     1      39.326 -12.330   8.449  1.00  0.00     0.402 A 
ATOM      2  O   UNL     1      39.539 -11.872   7.218  1.00  0.00    -0.202 OA
ATOM      3  C   UNL     1      38.581 -11.771   6.302  1.00  0.00     0.368 A 
ATOM      4  C   UNL     1      38.903 -11.280   5.033  1.00  0.00     0.162 A 
ATOM      5  C   UNL     1      37.916 -11.165   4.051  1.00  0.00     0.128 A 
ATOM      6  C   UNL     1      36.602 -11.544   4.336  1.00  0.00     0.093 A 
ATOM      7  C   UNL     1      36.254 -12.039   5.599  1.00  0.00     0.136 A 
ATOM      8  C   UNL     1      37.252 -12.154   6.602  1.00  0.00     0.125 A 
ATOM      9  C   UNL     1      36.992 -12.628   7.898  1.00  0.00     0.078 A 
ATOM     10  C   UNL     1      38.027 -12.709   8.835  1.00  0.00     0.223 A 
ENDROOT
BRANCH   1  11
ATOM     11  C   UNL     1      40.477 -12.405   9.377  1.00  0.00     0.091 A 
ATOM     12  C   UNL     1      40.939 -11.269  10.064  1.00  0.00     0.068 A 
ATOM     13  C   UNL     1      42.017 -11.366  10.955  1.00  0.00     0.162 A 
ATOM     14  C   UNL     1      41.088 -13.645   9.621  1.00  0.00     0.068 A 
ATOM     15  C   UNL     1      42.635 -12.603  11.176  1.00  0.00     0.200 A 
ATOM     16  C   UNL     1      42.167 -13.748  10.509  1.00  0.00     0.162 A 
BRANCH  13  17
ATOM     17  O   UNL     1      42.476 -10.236  11.630  1.00  0.00    -0.504 OA
ATOM     18  H   UNL     1      43.361  -9.801  11.395  1.00  0.00     0.293 HD
ENDBRANCH  13  17
BRANCH  15  19
ATOM     19  O   UNL     1      43.709 -12.679  12.064  1.00  0.00    -0.502 OA
ATOM     20  H   UNL     1      44.175 -13.555  12.271  1.00  0.00     0.293 HD
ENDBRANCH  15  19
BRANCH  16  21
ATOM     21  O   UNL     1      42.774 -14.983  10.732  1.00  0.00    -0.504 OA
ATOM     22  H   UNL     1      42.317 -15.710  11.270  1.00  0.00     0.293 HD
ENDBRANCH  16  21
ENDBRANCH   1  11
BRANCH  10  23
ATOM     23  O   UNL     1      37.761 -13.130  10.138  1.00  0.00    -0.500 OA
ATOM     24  H   UNL     1      37.481 -14.083  10.342  1.00  0.00     0.294 HD
ENDBRANCH  10  23
BRANCH   5  25
ATOM     25  O   UNL     1      38.230 -10.677   2.784  1.00  0.00    -0.507 OA
ATOM     26  H   UNL     1      38.018  -9.723   2.517  1.00  0.00     0.293 HD
ENDBRANCH   5  25
BRANCH   7  27
ATOM     27  O   UNL     1      34.919 -12.399   5.804  1.00  0.00    -0.507 OA
ATOM     28  H   UNL     1      34.478 -13.210   5.394  1.00  0.00     0.293 HD
ENDBRANCH   7  27
TORSDOF 7
ENDMDL
MODEL 8
REMARK VINA RESULT:    -6.884      1.271      7.074
REMARK INTER + INTRA:          -8.846
REMARK INTER:                  -8.689
REMARK INTRA:                  -0.157
REMARK UNBOUND:                -0.353
REMARK SMILES Oc1cc(O)c2cc(O)c(-c3cc(O)c(O)c(O)c3)[o+]c2c1
REMARK SMILES IDX 10 1 20 2 21 3 22 4 2 5 3 6 4 7 6 8 7 9 8 10 11 11 12 12
REMARK SMILES IDX 13 13 19 14 15 15 17 16 14 17 16 19 18 21 9 23 1 25 5 27
REMARK H PARENT 14 18 16 20 18 22 9 24 1 26 5 28
REMARK Flexibility Score: inf
ROOT
ATOM      1  C   UNL     1      40.257 -12.016   8.339  1.00  0.00     0.402 A 
ATOM      2  O   UNL     1      39.018 -12.502   8.361  1.00  0.00    -0.202 OA
ATOM      3  C   UNL     1      38.129 -12.279   7.398  1.00  0.00     0.368 A 
ATOM      4  C   UNL     1      36.850 -12.830   7.513  1.00  0.00     0.162 A 
ATOM      5  C   UNL     1      35.896 -12.609   6.516  1.00  0.00     0.128 A 
ATOM      6  C   UNL     1      36.220 -11.833   5.401  1.00  0.00     0.093 A 
ATOM      7  C   UNL     1      37.495 -11.269   5.263  1.00  0.00     0.136 A 
ATOM      8  C   UNL     1      38.469 -11.493   6.271  1.00  0.00     0.125 A 
ATOM      9  C   UNL     1      39.774 -10.978   6.210  1.00  0.00     0.078 A 
ATOM     10  C   UNL     1      40.681 -11.245   7.240  1.00  0.00     0.223 A 
ENDROOT
BRANCH   1  11
ATOM     11  C   UNL     1      41.151 -12.326   9.477  1.00  0.00     0.091 A 
ATOM     12  C   UNL     1      41.484 -13.651   9.806  1.00  0.00     0.068 A 
ATOM     13  C   UNL     1      42.351 -13.923  10.874  1.00  0.00     0.162 A 
ATOM     14  C   UNL     1      41.726 -11.276  10.209  1.00  0.00     0.068 A 
ATOM     15  C   UNL     1      42.903 -12.870  11.614  1.00  0.00     0.200 A 
ATOM     16  C   UNL     1      42.592 -11.541  11.279  1.00  0.00     0.162 A 
BRANCH  13  17
ATOM     17  O   UNL     1      42.674 -15.238  11.202  1.00  0.00    -0.504 OA
ATOM     18  H   UNL     1      43.376 -15.757  10.685  1.00  0.00     0.293 HD
ENDBRANCH  13  17
BRANCH  15  19
ATOM     19  O   UNL     1      43.760 -13.159  12.676  1.00  0.00    -0.502 OA
ATOM     20  H   UNL     1      44.280 -14.028  12.727  1.00  0.00     0.293 HD
ENDBRANCH  15  19
BRANCH  16  21
ATOM     21  O   UNL     1      43.145 -10.490  12.008  1.00  0.00    -0.504 OA
ATOM     22  H   UNL     1      43.505 -10.625  12.946  1.00  0.00     0.293 HD
ENDBRANCH  16  21
ENDBRANCH   1  11
BRANCH  10  23
ATOM     23  O   UNL     1      41.993 -10.778   7.157  1.00  0.00    -0.500 OA
ATOM     24  H   UNL     1      42.321 -10.010   7.732  1.00  0.00     0.294 HD
ENDBRANCH  10  23
BRANCH   5  25
ATOM     25  O   UNL     1      34.619 -13.156   6.624  1.00  0.00    -0.507 OA
ATOM     26  H   UNL     1      33.835 -12.775   6.107  1.00  0.00     0.293 HD
ENDBRANCH   5  25
BRANCH   7  27
ATOM     27  O   UNL     1      37.739 -10.503   4.120  1.00  0.00    -0.507 OA
ATOM     28  H   UNL     1      38.652 -10.177   3.836  1.00  0.00     0.293 HD
ENDBRANCH   7  27
TORSDOF 7
ENDMDL
MODEL 9
REMARK VINA RESULT:    -6.712      6.788     10.308
REMARK INTER + INTRA:          -8.634
REMARK INTER:                  -8.390
REMARK INTRA:                  -0.244
REMARK UNBOUND:                -0.353
REMARK SMILES Oc1cc(O)c2cc(O)c(-c3cc(O)c(O)c(O)c3)[o+]c2c1
REMARK SMILES IDX 10 1 20 2 21 3 22 4 2 5 3 6 4 7 6 8 7 9 8 10 11 11 12 12
REMARK SMILES IDX 13 13 19 14 15 15 17 16 14 17 16 19 18 21 9 23 1 25 5 27
REMARK H PARENT 14 18 16 20 18 22 9 24 1 26 5 28
REMARK Flexibility Score: inf
ROOT
ATOM      1  C   UNL     1      32.809 -14.022   1.906  1.00  0.00     0.402 A 
ATOM      2  O   UNL     1      33.836 -13.266   1.527  1.00  0.00    -0.202 OA
ATOM      3  C   UNL     1      34.992 -13.225   2.183  1.00  0.00     0.368 A 
ATOM      4  C   UNL     1      36.013 -12.397   1.708  1.00  0.00     0.162 A 
ATOM      5  C   UNL     1      37.237 -12.332   2.379  1.00  0.00     0.128 A 
ATOM      6  C   UNL     1      37.441 -13.097   3.530  1.00  0.00     0.093 A 
ATOM      7  C   UNL     1      36.434 -13.934   4.026  1.00  0.00     0.136 A 
ATOM      8  C   UNL     1      35.191 -14.006   3.347  1.00  0.00     0.125 A 
ATOM      9  C   UNL     1      34.129 -14.826   3.764  1.00  0.00     0.078 A 
ATOM     10  C   UNL     1      32.934 -14.848   3.040  1.00  0.00     0.223 A 
ENDROOT
BRANCH   1  11
ATOM     11  C   UNL     1      31.569 -13.974   1.099  1.00  0.00     0.091 A 
ATOM     12  C   UNL     1      31.136 -15.086   0.356  1.00  0.00     0.068 A 
ATOM     13  C   UNL     1      29.947 -15.027  -0.384  1.00  0.00     0.162 A 
ATOM     14  C   UNL     1      30.777 -12.815   1.117  1.00  0.00     0.068 A 
ATOM     15  C   UNL     1      29.174 -13.859  -0.379  1.00  0.00     0.200 A 
ATOM     16  C   UNL     1      29.588 -12.750   0.378  1.00  0.00     0.162 A 
BRANCH  13  17
ATOM     17  O   UNL     1      29.523 -16.130  -1.125  1.00  0.00    -0.504 OA
ATOM     18  H   UNL     1      28.557 -16.235  -1.414  1.00  0.00     0.293 HD
ENDBRANCH  13  17
BRANCH  15  19
ATOM     19  O   UNL     1      27.996 -13.819  -1.125  1.00  0.00    -0.502 OA
ATOM     20  H   UNL     1      27.458 -12.967  -1.238  1.00  0.00     0.293 HD
ENDBRANCH  15  19
BRANCH  16  21
ATOM     21  O   UNL     1      28.818 -11.589   0.393  1.00  0.00    -0.504 OA
ATOM     22  H   UNL     1      29.153 -10.734   0.822  1.00  0.00     0.293 HD
ENDBRANCH  16  21
ENDBRANCH   1  11
BRANCH  10  23
ATOM     23  O   UNL     1      31.897 -15.700   3.423  1.00  0.00    -0.500 OA
ATOM     24  H   UNL     1      31.649 -16.515   2.875  1.00  0.00     0.294 HD
ENDBRANCH  10  23
BRANCH   5  25
ATOM     25  O   UNL     1      38.259 -11.509   1.912  1.00  0.00    -0.507 OA
ATOM     26  H   UNL     1      38.850 -11.785   1.136  1.00  0.00     0.293 HD
ENDBRANCH   5  25
BRANCH   7  27
ATOM     27  O   UNL     1      36.716 -14.664   5.184  1.00  0.00    -0.507 OA
ATOM     28  H   UNL     1      36.026 -15.163   5.726  1.00  0.00     0.293 HD
ENDBRANCH   7  27
TORSDOF 7
ENDMDL
