MODEL 1
REMARK VINA RESULT:    -0.746      0.000      0.000
REMARK INTER + INTRA:          -3.255
REMARK INTER:                  -1.444
REMARK INTRA:                  -1.811
REMARK UNBOUND:                -1.811
REMARK SMILES CCCCCCCCCCCCCCCCCC(=O)[O-]
REMARK SMILES IDX 10 1 11 2 12 3 13 4 14 5 15 6 16 7 17 8 18 9 19 10 20 11
REMARK SMILES IDX 9 12 8 13 7 14 6 15 5 16 4 17 3 18 2 19 1 20
REMARK H PARENT
REMARK Flexibility Score: inf
ROOT
ATOM      1  C   UNL     1       4.163  -8.710   6.321  1.00  0.00     0.000 C 
ENDROOT
BRANCH   1   2
ATOM      2  C   UNL     1       5.196  -7.786   5.657  1.00  0.00     0.000 C 
BRANCH   2   3
ATOM      3  C   UNL     1       5.895  -6.860   6.668  1.00  0.00     0.000 C 
BRANCH   3   4
ATOM      4  C   UNL     1       5.869  -5.385   6.235  1.00  0.00     0.000 C 
BRANCH   4   5
ATOM      5  C   UNL     1       5.232  -5.186   4.849  1.00  0.00     0.000 C 
BRANCH   5   6
ATOM      6  C   UNL     1       5.289  -3.714   4.384  1.00  0.00     0.000 C 
BRANCH   6   7
ATOM      7  C   UNL     1       4.533  -3.453   3.067  1.00  0.00     0.006 C 
BRANCH   7   8
ATOM      8  C   UNL     1       3.017  -3.287   3.238  1.00  0.00     0.053 C 
BRANCH   8   9
ATOM      9  C   UNL     1       2.342  -2.946   1.943  1.00  0.00     0.041 C 
ATOM     10  O   UNL     1       1.086  -2.962   1.861  1.00  0.00    -0.550 OA
ATOM     11  O   UNL     1       3.098  -2.589   0.834  1.00  0.00    -0.550 OA
ENDBRANCH   8   9
ENDBRANCH   7   8
ENDBRANCH   6   7
ENDBRANCH   5   6
ENDBRANCH   4   5
ENDBRANCH   3   4
ENDBRANCH   2   3
ENDBRANCH   1   2
BRANCH   1  12
ATOM     12  C   UNL     1       4.801  -9.695   7.311  1.00  0.00     0.000 C 
BRANCH  12  13
ATOM     13  C   UNL     1       4.097  -9.640   8.672  1.00  0.00    -0.000 C 
BRANCH  13  14
ATOM     14  C   UNL     1       4.969  -8.931   9.716  1.00  0.00    -0.000 C 
BRANCH  14  15
ATOM     15  C   UNL     1       6.461  -9.166   9.438  1.00  0.00    -0.000 C 
BRANCH  15  16
ATOM     16  C   UNL     1       7.316  -7.903   9.645  1.00  0.00    -0.000 C 
BRANCH  16  17
ATOM     17  C   UNL     1       8.712  -7.952   8.995  1.00  0.00    -0.000 C 
BRANCH  17  18
ATOM     18  C   UNL     1       9.078  -9.351   8.473  1.00  0.00    -0.000 C 
BRANCH  18  19
ATOM     19  C   UNL     1       9.494  -9.337   6.993  1.00  0.00    -0.003 C 
ATOM     20  C   UNL     1       8.341  -9.695   6.055  1.00  0.00     0.004 C 
ENDBRANCH  18  19
ENDBRANCH  17  18
ENDBRANCH  16  17
ENDBRANCH  15  16
ENDBRANCH  14  15
ENDBRANCH  13  14
ENDBRANCH  12  13
ENDBRANCH   1  12
TORSDOF 16
ENDMDL
MODEL 2
REMARK VINA RESULT:    -0.031      1.661      2.785
REMARK INTER + INTRA:          -1.870
REMARK INTER:                  -0.587
REMARK INTRA:                  -1.283
REMARK UNBOUND:                -1.811
REMARK SMILES CCCCCCCCCCCCCCCCCC(=O)[O-]
REMARK SMILES IDX 10 1 11 2 12 3 13 4 14 5 15 6 16 7 17 8 18 9 19 10 20 11
REMARK SMILES IDX 9 12 8 13 7 14 6 15 5 16 4 17 3 18 2 19 1 20
REMARK H PARENT
REMARK Flexibility Score: inf
ROOT
ATOM      1  C   UNL     1       4.122  -9.506   8.083  1.00  0.00     0.000 C 
ENDROOT
BRANCH   1   2
ATOM      2  C   UNL     1       5.358  -9.987   7.305  1.00  0.00     0.000 C 
BRANCH   2   3
ATOM      3  C   UNL     1       5.142  -9.966   5.781  1.00  0.00     0.000 C 
BRANCH   3   4
ATOM      4  C   UNL     1       6.003  -8.904   5.078  1.00  0.00     0.000 C 
BRANCH   4   5
ATOM      5  C   UNL     1       6.778  -8.018   6.068  1.00  0.00     0.000 C 
BRANCH   5   6
ATOM      6  C   UNL     1       6.038  -6.698   6.376  1.00  0.00     0.000 C 
BRANCH   6   7
ATOM      7  C   UNL     1       5.562  -5.949   5.117  1.00  0.00     0.006 C 
BRANCH   7   8
ATOM      8  C   UNL     1       5.165  -4.488   5.370  1.00  0.00     0.053 C 
BRANCH   8   9
ATOM      9  C   UNL     1       4.990  -3.726   4.090  1.00  0.00     0.041 C 
ATOM     10  O   UNL     1       5.900  -3.732   3.220  1.00  0.00    -0.550 OA
ATOM     11  O   UNL     1       3.813  -3.030   3.849  1.00  0.00    -0.550 OA
ENDBRANCH   8   9
ENDBRANCH   7   8
ENDBRANCH   6   7
ENDBRANCH   5   6
ENDBRANCH   4   5
ENDBRANCH   3   4
ENDBRANCH   2   3
ENDBRANCH   1   2
BRANCH   1  12
ATOM     12  C   UNL     1       4.232  -9.773   9.591  1.00  0.00     0.000 C 
BRANCH  12  13
ATOM     13  C   UNL     1       5.606  -9.352  10.125  1.00  0.00    -0.000 C 
BRANCH  13  14
ATOM     14  C   UNL     1       6.081  -8.053   9.464  1.00  0.00    -0.000 C 
BRANCH  14  15
ATOM     15  C   UNL     1       7.578  -7.821   9.719  1.00  0.00    -0.000 C 
BRANCH  15  16
ATOM     16  C   UNL     1       8.334  -9.114  10.072  1.00  0.00    -0.000 C 
BRANCH  16  17
ATOM     17  C   UNL     1       9.601  -9.373   9.236  1.00  0.00    -0.000 C 
BRANCH  17  18
ATOM     18  C   UNL     1       9.304 -10.086   7.907  1.00  0.00    -0.000 C 
BRANCH  18  19
ATOM     19  C   UNL     1      10.103  -9.500   6.733  1.00  0.00    -0.003 C 
ATOM     20  C   UNL     1       9.496  -9.853   5.374  1.00  0.00     0.004 C 
ENDBRANCH  18  19
ENDBRANCH  17  18
ENDBRANCH  16  17
ENDBRANCH  15  16
ENDBRANCH  14  15
ENDBRANCH  13  14
ENDBRANCH  12  13
ENDBRANCH   1  12
TORSDOF 16
ENDMDL
MODEL 3
REMARK VINA RESULT:    -0.009      3.754      7.427
REMARK INTER + INTRA:          -1.828
REMARK INTER:                  -0.358
REMARK INTRA:                  -1.471
REMARK UNBOUND:                -1.811
REMARK SMILES CCCCCCCCCCCCCCCCCC(=O)[O-]
REMARK SMILES IDX 10 1 11 2 12 3 13 4 14 5 15 6 16 7 17 8 18 9 19 10 20 11
REMARK SMILES IDX 9 12 8 13 7 14 6 15 5 16 4 17 3 18 2 19 1 20
REMARK H PARENT
REMARK Flexibility Score: inf
ROOT
ATOM      1  C   UNL     1       5.813 -10.125   6.460  1.00  0.00     0.000 C 
ENDROOT
BRANCH   1   2
ATOM      2  C   UNL     1       6.322  -9.983   5.017  1.00  0.00     0.000 C 
BRANCH   2   3
ATOM      3  C   UNL     1       7.785  -9.511   4.950  1.00  0.00     0.000 C 
BRANCH   3   4
ATOM      4  C   UNL     1       8.379  -9.230   6.340  1.00  0.00     0.000 C 
BRANCH   4   5
ATOM      5  C   UNL     1       9.607 -10.104   6.648  1.00  0.00     0.000 C 
BRANCH   5   6
ATOM      6  C   UNL     1      10.125  -9.900   8.089  1.00  0.00     0.000 C 
BRANCH   6   7
ATOM      7  C   UNL     1       9.663  -8.577   8.729  1.00  0.00     0.006 C 
BRANCH   7   8
ATOM      8  C   UNL     1       9.002  -8.744  10.103  1.00  0.00     0.053 C 
BRANCH   8   9
ATOM      9  C   UNL     1       7.529  -8.468  10.053  1.00  0.00     0.041 C 
ATOM     10  O   UNL     1       7.105  -7.283  10.095  1.00  0.00    -0.550 OA
ATOM     11  O   UNL     1       6.626  -9.517   9.938  1.00  0.00    -0.550 OA
ENDBRANCH   8   9
ENDBRANCH   7   8
ENDBRANCH   6   7
ENDBRANCH   5   6
ENDBRANCH   4   5
ENDBRANCH   3   4
ENDBRANCH   2   3
ENDBRANCH   1   2
BRANCH   1  12
ATOM     12  C   UNL     1       4.346  -9.700   6.614  1.00  0.00     0.000 C 
BRANCH  12  13
ATOM     13  C   UNL     1       4.152  -8.236   6.201  1.00  0.00    -0.000 C 
BRANCH  13  14
ATOM     14  C   UNL     1       5.162  -7.324   6.908  1.00  0.00    -0.000 C 
BRANCH  14  15
ATOM     15  C   UNL     1       5.978  -6.513   5.890  1.00  0.00    -0.000 C 
BRANCH  15  16
ATOM     16  C   UNL     1       5.485  -5.061   5.747  1.00  0.00    -0.000 C 
BRANCH  16  17
ATOM     17  C   UNL     1       5.843  -4.384   4.411  1.00  0.00    -0.000 C 
BRANCH  17  18
ATOM     18  C   UNL     1       4.818  -3.318   3.989  1.00  0.00    -0.000 C 
BRANCH  18  19
ATOM     19  C   UNL     1       3.461  -3.926   3.602  1.00  0.00    -0.003 C 
ATOM     20  C   UNL     1       2.547  -2.925   2.895  1.00  0.00     0.004 C 
ENDBRANCH  18  19
ENDBRANCH  17  18
ENDBRANCH  16  17
ENDBRANCH  15  16
ENDBRANCH  14  15
ENDBRANCH  13  14
ENDBRANCH  12  13
ENDBRANCH   1  12
TORSDOF 16
ENDMDL
MODEL 4
REMARK VINA RESULT:     0.019      3.631      7.901
REMARK INTER + INTRA:          -1.774
REMARK INTER:                  -0.172
REMARK INTRA:                  -1.602
REMARK UNBOUND:                -1.811
REMARK SMILES CCCCCCCCCCCCCCCCCC(=O)[O-]
REMARK SMILES IDX 10 1 11 2 12 3 13 4 14 5 15 6 16 7 17 8 18 9 19 10 20 11
REMARK SMILES IDX 9 12 8 13 7 14 6 15 5 16 4 17 3 18 2 19 1 20
REMARK H PARENT
REMARK Flexibility Score: inf
ROOT
ATOM      1  C   UNL     1       5.846  -9.083   5.747  1.00  0.00     0.000 C 
ENDROOT
BRANCH   1   2
ATOM      2  C   UNL     1       5.039 -10.125   6.537  1.00  0.00     0.000 C 
BRANCH   2   3
ATOM      3  C   UNL     1       3.587  -9.681   6.787  1.00  0.00     0.000 C 
BRANCH   3   4
ATOM      4  C   UNL     1       3.201  -9.730   8.274  1.00  0.00     0.000 C 
BRANCH   4   5
ATOM      5  C   UNL     1       4.417  -9.930   9.195  1.00  0.00     0.000 C 
BRANCH   5   6
ATOM      6  C   UNL     1       5.024  -8.588   9.662  1.00  0.00     0.000 C 
BRANCH   6   7
ATOM      7  C   UNL     1       6.515  -8.684  10.039  1.00  0.00     0.006 C 
BRANCH   7   8
ATOM      8  C   UNL     1       7.361  -9.491   9.045  1.00  0.00     0.053 C 
BRANCH   8   9
ATOM      9  C   UNL     1       8.455  -8.663   8.440  1.00  0.00     0.041 C 
ATOM     10  O   UNL     1       8.664  -7.492   8.851  1.00  0.00    -0.550 OA
ATOM     11  O   UNL     1       9.258  -9.193   7.437  1.00  0.00    -0.550 OA
ENDBRANCH   8   9
ENDBRANCH   7   8
ENDBRANCH   6   7
ENDBRANCH   5   6
ENDBRANCH   4   5
ENDBRANCH   3   4
ENDBRANCH   2   3
ENDBRANCH   1   2
BRANCH   1  12
ATOM     12  C   UNL     1       5.207  -7.687   5.785  1.00  0.00     0.000 C 
BRANCH  12  13
ATOM     13  C   UNL     1       6.135  -6.676   6.469  1.00  0.00    -0.000 C 
BRANCH  13  14
ATOM     14  C   UNL     1       5.671  -5.238   6.211  1.00  0.00    -0.000 C 
BRANCH  14  15
ATOM     15  C   UNL     1       5.517  -4.970   4.706  1.00  0.00    -0.000 C 
BRANCH  15  16
ATOM     16  C   UNL     1       5.203  -3.497   4.388  1.00  0.00    -0.000 C 
BRANCH  16  17
ATOM     17  C   UNL     1       4.432  -3.269   3.074  1.00  0.00    -0.000 C 
BRANCH  17  18
ATOM     18  C   UNL     1       2.921  -3.085   3.294  1.00  0.00    -0.000 C 
BRANCH  18  19
ATOM     19  C   UNL     1       2.143  -2.983   1.972  1.00  0.00    -0.003 C 
ATOM     20  C   UNL     1       0.689  -2.558   2.178  1.00  0.00     0.004 C 
ENDBRANCH  18  19
ENDBRANCH  17  18
ENDBRANCH  16  17
ENDBRANCH  15  16
ENDBRANCH  14  15
ENDBRANCH  13  14
ENDBRANCH  12  13
ENDBRANCH   1  12
TORSDOF 16
ENDMDL
MODEL 5
REMARK VINA RESULT:     0.131      0.922      2.679
REMARK INTER + INTRA:          -1.557
REMARK INTER:                   0.076
REMARK INTRA:                  -1.633
REMARK UNBOUND:                -1.811
REMARK SMILES CCCCCCCCCCCCCCCCCC(=O)[O-]
REMARK SMILES IDX 10 1 11 2 12 3 13 4 14 5 15 6 16 7 17 8 18 9 19 10 20 11
REMARK SMILES IDX 9 12 8 13 7 14 6 15 5 16 4 17 3 18 2 19 1 20
REMARK H PARENT
REMARK Flexibility Score: inf
ROOT
ATOM      1  C   UNL     1       5.589  -9.521   6.155  1.00  0.00     0.000 C 
ENDROOT
BRANCH   1   2
ATOM      2  C   UNL     1       4.770  -8.233   5.977  1.00  0.00     0.000 C 
BRANCH   2   3
ATOM      3  C   UNL     1       5.652  -6.972   5.942  1.00  0.00     0.000 C 
BRANCH   3   4
ATOM      4  C   UNL     1       5.027  -5.837   5.115  1.00  0.00     0.000 C 
BRANCH   4   5
ATOM      5  C   UNL     1       5.866  -4.548   5.150  1.00  0.00     0.000 C 
BRANCH   5   6
ATOM      6  C   UNL     1       5.176  -3.380   4.411  1.00  0.00     0.000 C 
BRANCH   6   7
ATOM      7  C   UNL     1       4.241  -3.836   3.275  1.00  0.00     0.006 C 
BRANCH   7   8
ATOM      8  C   UNL     1       2.839  -3.214   3.330  1.00  0.00     0.053 C 
BRANCH   8   9
ATOM      9  C   UNL     1       2.295  -2.939   1.959  1.00  0.00     0.041 C 
ATOM     10  O   UNL     1       3.076  -2.674   1.009  1.00  0.00    -0.550 OA
ATOM     11  O   UNL     1       0.926  -2.998   1.727  1.00  0.00    -0.550 OA
ENDBRANCH   8   9
ENDBRANCH   7   8
ENDBRANCH   6   7
ENDBRANCH   5   6
ENDBRANCH   4   5
ENDBRANCH   3   4
ENDBRANCH   2   3
ENDBRANCH   1   2
BRANCH   1  12
ATOM     12  C   UNL     1       6.315  -9.943   4.869  1.00  0.00     0.000 C 
BRANCH  12  13
ATOM     13  C   UNL     1       7.836  -9.873   5.048  1.00  0.00    -0.000 C 
BRANCH  13  14
ATOM     14  C   UNL     1       8.217  -9.866   6.533  1.00  0.00    -0.000 C 
BRANCH  14  15
ATOM     15  C   UNL     1       9.663  -9.387   6.729  1.00  0.00    -0.000 C 
BRANCH  15  16
ATOM     16  C   UNL     1      10.122  -9.448   8.197  1.00  0.00    -0.000 C 
BRANCH  16  17
ATOM     17  C   UNL     1       8.983  -9.459   9.232  1.00  0.00    -0.000 C 
BRANCH  17  18
ATOM     18  C   UNL     1       8.603  -8.049   9.716  1.00  0.00    -0.000 C 
BRANCH  18  19
ATOM     19  C   UNL     1       7.226  -7.602   9.201  1.00  0.00    -0.003 C 
ATOM     20  C   UNL     1       6.091  -8.495   9.704  1.00  0.00     0.004 C 
ENDBRANCH  18  19
ENDBRANCH  17  18
ENDBRANCH  16  17
ENDBRANCH  15  16
ENDBRANCH  14  15
ENDBRANCH  13  14
ENDBRANCH  12  13
ENDBRANCH   1  12
TORSDOF 16
ENDMDL
MODEL 6
REMARK VINA RESULT:     0.438      3.229      7.593
REMARK INTER + INTRA:          -0.964
REMARK INTER:                   0.583
REMARK INTRA:                  -1.547
REMARK UNBOUND:                -1.811
REMARK SMILES CCCCCCCCCCCCCCCCCC(=O)[O-]
REMARK SMILES IDX 10 1 11 2 12 3 13 4 14 5 15 6 16 7 17 8 18 9 19 10 20 11
REMARK SMILES IDX 9 12 8 13 7 14 6 15 5 16 4 17 3 18 2 19 1 20
REMARK H PARENT
REMARK Flexibility Score: inf
ROOT
ATOM      1  C   UNL     1       6.837  -8.670   5.608  1.00  0.00     0.000 C 
ENDROOT
BRANCH   1   2
ATOM      2  C   UNL     1       7.082  -9.851   6.562  1.00  0.00     0.000 C 
BRANCH   2   3
ATOM      3  C   UNL     1       8.545  -9.939   7.030  1.00  0.00     0.000 C 
BRANCH   3   4
ATOM      4  C   UNL     1       8.796  -9.165   8.334  1.00  0.00     0.000 C 
BRANCH   4   5
ATOM      5  C   UNL     1       7.493  -8.767   9.047  1.00  0.00     0.000 C 
BRANCH   5   6
ATOM      6  C   UNL     1       7.046  -9.821  10.084  1.00  0.00     0.000 C 
BRANCH   6   7
ATOM      7  C   UNL     1       5.535 -10.118  10.049  1.00  0.00     0.006 C 
BRANCH   7   8
ATOM      8  C   UNL     1       4.677  -8.943   9.561  1.00  0.00     0.053 C 
BRANCH   8   9
ATOM      9  C   UNL     1       3.348  -9.399   9.037  1.00  0.00     0.041 C 
ATOM     10  O   UNL     1       3.235  -9.777   7.842  1.00  0.00    -0.550 OA
ATOM     11  O   UNL     1       2.241  -9.428   9.875  1.00  0.00    -0.550 OA
ENDBRANCH   8   9
ENDBRANCH   7   8
ENDBRANCH   6   7
ENDBRANCH   5   6
ENDBRANCH   4   5
ENDBRANCH   3   4
ENDBRANCH   2   3
ENDBRANCH   1   2
BRANCH   1  12
ATOM     12  C   UNL     1       5.436  -8.062   5.768  1.00  0.00     0.000 C 
BRANCH  12  13
ATOM     13  C   UNL     1       5.459  -6.879   6.743  1.00  0.00    -0.000 C 
BRANCH  13  14
ATOM     14  C   UNL     1       6.009  -5.617   6.067  1.00  0.00    -0.000 C 
BRANCH  14  15
ATOM     15  C   UNL     1       5.208  -5.276   4.801  1.00  0.00    -0.000 C 
BRANCH  15  16
ATOM     16  C   UNL     1       5.561  -3.895   4.221  1.00  0.00    -0.000 C 
BRANCH  16  17
ATOM     17  C   UNL     1       4.392  -3.161   3.538  1.00  0.00    -0.000 C 
BRANCH  17  18
ATOM     18  C   UNL     1       3.063  -3.927   3.645  1.00  0.00    -0.000 C 
BRANCH  18  19
ATOM     19  C   UNL     1       1.961  -3.317   2.765  1.00  0.00    -0.003 C 
ATOM     20  C   UNL     1       2.518  -2.609   1.530  1.00  0.00     0.004 C 
ENDBRANCH  18  19
ENDBRANCH  17  18
ENDBRANCH  16  17
ENDBRANCH  15  16
ENDBRANCH  14  15
ENDBRANCH  13  14
ENDBRANCH  12  13
ENDBRANCH   1  12
TORSDOF 16
ENDMDL
MODEL 7
REMARK VINA RESULT:     0.799      1.180      3.432
REMARK INTER + INTRA:          -0.265
REMARK INTER:                   0.280
REMARK INTRA:                  -0.545
REMARK UNBOUND:                -1.811
REMARK SMILES CCCCCCCCCCCCCCCCCC(=O)[O-]
REMARK SMILES IDX 10 1 11 2 12 3 13 4 14 5 15 6 16 7 17 8 18 9 19 10 20 11
REMARK SMILES IDX 9 12 8 13 7 14 6 15 5 16 4 17 3 18 2 19 1 20
REMARK H PARENT
REMARK Flexibility Score: inf
ROOT
ATOM      1  C   UNL     1       6.726  -9.054   6.581  1.00  0.00     0.000 C 
ENDROOT
BRANCH   1   2
ATOM      2  C   UNL     1       6.099  -8.180   5.483  1.00  0.00     0.000 C 
BRANCH   2   3
ATOM      3  C   UNL     1       5.840  -6.737   5.953  1.00  0.00     0.000 C 
BRANCH   3   4
ATOM      4  C   UNL     1       5.062  -5.909   4.917  1.00  0.00     0.000 C 
BRANCH   4   5
ATOM      5  C   UNL     1       5.609  -4.479   4.771  1.00  0.00     0.000 C 
BRANCH   5   6
ATOM      6  C   UNL     1       4.985  -3.733   3.570  1.00  0.00     0.000 C 
BRANCH   6   7
ATOM      7  C   UNL     1       3.640  -3.057   3.896  1.00  0.00     0.006 C 
BRANCH   7   8
ATOM      8  C   UNL     1       2.439  -3.666   3.161  1.00  0.00     0.053 C 
BRANCH   8   9
ATOM      9  C   UNL     1       2.155  -2.959   1.869  1.00  0.00     0.041 C 
ATOM     10  O   UNL     1       0.970  -2.699   1.536  1.00  0.00    -0.550 OA
ATOM     11  O   UNL     1       3.202  -2.567   1.044  1.00  0.00    -0.550 OA
ENDBRANCH   8   9
ENDBRANCH   7   8
ENDBRANCH   6   7
ENDBRANCH   5   6
ENDBRANCH   4   5
ENDBRANCH   3   4
ENDBRANCH   2   3
ENDBRANCH   1   2
BRANCH   1  12
ATOM     12  C   UNL     1       8.228  -8.791   6.760  1.00  0.00     0.000 C 
BRANCH  12  13
ATOM     13  C   UNL     1       8.573  -8.557   8.236  1.00  0.00    -0.000 C 
BRANCH  13  14
ATOM     14  C   UNL     1       7.350  -8.059   9.016  1.00  0.00    -0.000 C 
BRANCH  14  15
ATOM     15  C   UNL     1       6.960  -9.054  10.120  1.00  0.00    -0.000 C 
BRANCH  15  16
ATOM     16  C   UNL     1       5.493  -9.508  10.027  1.00  0.00    -0.000 C 
BRANCH  16  17
ATOM     17  C   UNL     1       4.785  -9.148   8.708  1.00  0.00    -0.000 C 
BRANCH  17  18
ATOM     18  C   UNL     1       3.370  -9.741   8.608  1.00  0.00    -0.000 C 
BRANCH  18  19
ATOM     19  C   UNL     1       2.489  -9.367   9.811  1.00  0.00    -0.003 C 
ATOM     20  C   UNL     1       1.065  -9.912   9.689  1.00  0.00     0.004 C 
ENDBRANCH  18  19
ENDBRANCH  17  18
ENDBRANCH  16  17
ENDBRANCH  15  16
ENDBRANCH  14  15
ENDBRANCH  13  14
ENDBRANCH  12  13
ENDBRANCH   1  12
TORSDOF 16
ENDMDL
