MODEL 1
REMARK VINA RESULT:    -5.296      0.000      0.000
REMARK INTER + INTRA:          -6.511
REMARK INTER:                  -6.224
REMARK INTRA:                  -0.287
REMARK UNBOUND:                -0.287
REMARK SMILES O=c1c(O)c(-c2ccc(O)cc2)oc2cc(O)cc(O)c12
REMARK SMILES IDX 5 1 3 2 2 3 1 4 21 5 19 6 18 7 16 8 15 9 14 10 13 11 6 12
REMARK SMILES IDX 7 13 8 14 9 15 12 16 11 17 10 18 4 20 20 22 17 24
REMARK H PARENT 10 19 4 21 20 23 17 25
REMARK Flexibility Score: inf
ROOT
ATOM      1  C   UNL     1     149.212 145.340 157.050  1.00  0.00     0.180 A 
ATOM      2  C   UNL     1     148.685 146.628 156.853  1.00  0.00     0.208 A 
ATOM      3  C   UNL     1     149.568 147.710 156.709  1.00  0.00     0.238 A 
ATOM      4  O   UNL     1     149.090 148.870 156.608  1.00  0.00    -0.285 OA
ATOM      5  C   UNL     1     150.967 147.484 156.706  1.00  0.00     0.111 A 
ATOM      6  C   UNL     1     151.953 148.500 156.522  1.00  0.00     0.134 A 
ATOM      7  C   UNL     1     153.310 148.175 156.645  1.00  0.00     0.093 A 
ATOM      8  C   UNL     1     153.719 146.862 156.880  1.00  0.00     0.123 A 
ATOM      9  C   UNL     1     152.764 145.852 157.007  1.00  0.00     0.094 A 
ATOM     10  C   UNL     1     151.402 146.151 156.928  1.00  0.00     0.146 A 
ATOM     11  O   UNL     1     150.528 145.164 157.074  1.00  0.00    -0.452 OA
ENDROOT
BRANCH   1  12
ATOM     12  C   UNL     1     148.345 144.152 157.224  1.00  0.00     0.021 A 
ATOM     13  C   UNL     1     147.943 143.371 156.125  1.00  0.00     0.016 A 
ATOM     14  C   UNL     1     147.103 142.268 156.312  1.00  0.00     0.047 A 
ATOM     15  C   UNL     1     146.645 141.941 157.591  1.00  0.00     0.115 A 
ATOM     16  C   UNL     1     147.864 143.829 158.504  1.00  0.00     0.016 A 
ATOM     17  C   UNL     1     147.026 142.726 158.687  1.00  0.00     0.047 A 
BRANCH  15  18
ATOM     18  O   UNL     1     145.811 140.838 157.762  1.00  0.00    -0.508 OA
ATOM     19  H   UNL     1     145.243 140.481 157.003  1.00  0.00     0.293 HD
ENDBRANCH  15  18
ENDBRANCH   1  12
BRANCH   2  20
ATOM     20  O   UNL     1     147.303 146.820 156.782  1.00  0.00    -0.502 OA
ATOM     21  H   UNL     1     146.826 147.541 157.310  1.00  0.00     0.293 HD
ENDBRANCH   2  20
BRANCH   6  22
ATOM     22  O   UNL     1     151.660 149.827 156.196  1.00  0.00    -0.507 OA
ATOM     23  H   UNL     1     152.221 150.624 156.458  1.00  0.00     0.293 HD
ENDBRANCH   6  22
BRANCH   8  24
ATOM     24  O   UNL     1     155.077 146.573 156.979  1.00  0.00    -0.508 OA
ATOM     25  H   UNL     1     155.682 146.580 156.164  1.00  0.00     0.293 HD
ENDBRANCH   8  24
TORSDOF 5
ENDMDL
MODEL 2
REMARK VINA RESULT:    -5.294      4.947      9.155
REMARK INTER + INTRA:          -6.509
REMARK INTER:                  -6.214
REMARK INTRA:                  -0.295
REMARK UNBOUND:                -0.287
REMARK SMILES O=c1c(O)c(-c2ccc(O)cc2)oc2cc(O)cc(O)c12
REMARK SMILES IDX 5 1 3 2 2 3 1 4 21 5 19 6 18 7 16 8 15 9 14 10 13 11 6 12
REMARK SMILES IDX 7 13 8 14 9 15 12 16 11 17 10 18 4 20 20 22 17 24
REMARK H PARENT 10 19 4 21 20 23 17 25
REMARK Flexibility Score: inf
ROOT
ATOM      1  C   UNL     1     146.485 150.207 157.056  1.00  0.00     0.180 A 
ATOM      2  C   UNL     1     146.976 148.912 156.819  1.00  0.00     0.208 A 
ATOM      3  C   UNL     1     146.064 147.854 156.670  1.00  0.00     0.238 A 
ATOM      4  O   UNL     1     146.512 146.686 156.533  1.00  0.00    -0.285 OA
ATOM      5  C   UNL     1     144.672 148.113 156.703  1.00  0.00     0.111 A 
ATOM      6  C   UNL     1     143.657 147.126 156.518  1.00  0.00     0.134 A 
ATOM      7  C   UNL     1     142.312 147.480 156.678  1.00  0.00     0.093 A 
ATOM      8  C   UNL     1     141.940 148.796 156.951  1.00  0.00     0.123 A 
ATOM      9  C   UNL     1     142.921 149.781 157.079  1.00  0.00     0.094 A 
ATOM     10  C   UNL     1     144.273 149.451 156.963  1.00  0.00     0.146 A 
ATOM     11  O   UNL     1     145.174 150.414 157.113  1.00  0.00    -0.452 OA
ENDROOT
BRANCH   1  12
ATOM     12  C   UNL     1     147.383 151.370 157.237  1.00  0.00     0.021 A 
ATOM     13  C   UNL     1     147.891 151.713 158.503  1.00  0.00     0.016 A 
ATOM     14  C   UNL     1     148.718 152.832 158.653  1.00  0.00     0.047 A 
ATOM     15  C   UNL     1     149.035 153.626 157.548  1.00  0.00     0.115 A 
ATOM     16  C   UNL     1     147.690 152.185 156.134  1.00  0.00     0.016 A 
ATOM     17  C   UNL     1     148.517 153.302 156.287  1.00  0.00     0.047 A 
BRANCH  15  18
ATOM     18  O   UNL     1     149.862 154.735 157.712  1.00  0.00    -0.508 OA
ATOM     19  H   UNL     1     149.488 155.641 157.973  1.00  0.00     0.293 HD
ENDBRANCH  15  18
ENDBRANCH   1  12
BRANCH   2  20
ATOM     20  O   UNL     1     148.351 148.689 156.714  1.00  0.00    -0.502 OA
ATOM     21  H   UNL     1     148.853 148.077 157.346  1.00  0.00     0.293 HD
ENDBRANCH   2  20
BRANCH   6  22
ATOM     22  O   UNL     1     143.911 145.800 156.156  1.00  0.00    -0.507 OA
ATOM     23  H   UNL     1     143.740 144.997 156.743  1.00  0.00     0.293 HD
ENDBRANCH   6  22
BRANCH   8  24
ATOM     24  O   UNL     1     140.591 149.116 157.085  1.00  0.00    -0.508 OA
ATOM     25  H   UNL     1     140.181 149.902 156.594  1.00  0.00     0.293 HD
ENDBRANCH   8  24
TORSDOF 5
ENDMDL
MODEL 3
REMARK VINA RESULT:    -5.293      3.856      6.482
REMARK INTER + INTRA:          -6.509
REMARK INTER:                  -6.222
REMARK INTRA:                  -0.287
REMARK UNBOUND:                -0.287
REMARK SMILES O=c1c(O)c(-c2ccc(O)cc2)oc2cc(O)cc(O)c12
REMARK SMILES IDX 5 1 3 2 2 3 1 4 21 5 19 6 18 7 16 8 15 9 14 10 13 11 6 12
REMARK SMILES IDX 7 13 8 14 9 15 12 16 11 17 10 18 4 20 20 22 17 24
REMARK H PARENT 10 19 4 21 20 23 17 25
REMARK Flexibility Score: inf
ROOT
ATOM      1  C   UNL     1     145.335 146.385 157.060  1.00  0.00     0.180 A 
ATOM      2  C   UNL     1     146.627 146.900 156.856  1.00  0.00     0.208 A 
ATOM      3  C   UNL     1     147.703 146.007 156.723  1.00  0.00     0.238 A 
ATOM      4  O   UNL     1     148.866 146.476 156.615  1.00  0.00    -0.285 OA
ATOM      5  C   UNL     1     147.467 144.611 156.738  1.00  0.00     0.111 A 
ATOM      6  C   UNL     1     148.476 143.615 156.567  1.00  0.00     0.134 A 
ATOM      7  C   UNL     1     148.141 142.262 156.708  1.00  0.00     0.093 A 
ATOM      8  C   UNL     1     146.826 141.866 156.949  1.00  0.00     0.123 A 
ATOM      9  C   UNL     1     145.822 142.829 157.063  1.00  0.00     0.094 A 
ATOM     10  C   UNL     1     146.131 144.188 156.966  1.00  0.00     0.146 A 
ATOM     11  O   UNL     1     145.150 145.071 157.102  1.00  0.00    -0.452 OA
ENDROOT
BRANCH   1  12
ATOM     12  C   UNL     1     144.154 147.262 157.224  1.00  0.00     0.021 A 
ATOM     13  C   UNL     1     143.375 147.656 156.120  1.00  0.00     0.016 A 
ATOM     14  C   UNL     1     142.278 148.506 156.297  1.00  0.00     0.047 A 
ATOM     15  C   UNL     1     141.955 148.982 157.570  1.00  0.00     0.115 A 
ATOM     16  C   UNL     1     143.835 147.762 158.497  1.00  0.00     0.016 A 
ATOM     17  C   UNL     1     142.738 148.611 158.671  1.00  0.00     0.047 A 
BRANCH  15  18
ATOM     18  O   UNL     1     140.858 149.827 157.731  1.00  0.00    -0.508 OA
ATOM     19  H   UNL     1     140.902 150.806 157.474  1.00  0.00     0.293 HD
ENDBRANCH  15  18
ENDBRANCH   1  12
BRANCH   2  20
ATOM     20  O   UNL     1     146.829 148.280 156.768  1.00  0.00    -0.502 OA
ATOM     21  H   UNL     1     146.564 148.917 157.509  1.00  0.00     0.293 HD
ENDBRANCH   2  20
BRANCH   6  22
ATOM     22  O   UNL     1     149.805 143.894 156.236  1.00  0.00    -0.507 OA
ATOM     23  H   UNL     1     150.485 143.208 155.947  1.00  0.00     0.293 HD
ENDBRANCH   6  22
BRANCH   8  24
ATOM     24  O   UNL     1     146.527 140.511 157.064  1.00  0.00    -0.508 OA
ATOM     25  H   UNL     1     145.569 140.182 157.119  1.00  0.00     0.293 HD
ENDBRANCH   8  24
TORSDOF 5
ENDMDL
MODEL 4
REMARK VINA RESULT:    -5.288      3.852      6.457
REMARK INTER + INTRA:          -6.503
REMARK INTER:                  -6.214
REMARK INTRA:                  -0.289
REMARK UNBOUND:                -0.287
REMARK SMILES O=c1c(O)c(-c2ccc(O)cc2)oc2cc(O)cc(O)c12
REMARK SMILES IDX 5 1 3 2 2 3 1 4 21 5 19 6 18 7 16 8 15 9 14 10 13 11 6 12
REMARK SMILES IDX 7 13 8 14 9 15 12 16 11 17 10 18 4 20 20 22 17 24
REMARK H PARENT 10 19 4 21 20 23 17 25
REMARK Flexibility Score: inf
ROOT
ATOM      1  C   UNL     1     150.246 149.204 157.061  1.00  0.00     0.180 A 
ATOM      2  C   UNL     1     148.957 148.679 156.862  1.00  0.00     0.208 A 
ATOM      3  C   UNL     1     147.874 149.563 156.734  1.00  0.00     0.238 A 
ATOM      4  O   UNL     1     146.714 149.084 156.631  1.00  0.00    -0.285 OA
ATOM      5  C   UNL     1     148.098 150.961 156.747  1.00  0.00     0.111 A 
ATOM      6  C   UNL     1     147.081 151.949 156.580  1.00  0.00     0.134 A 
ATOM      7  C   UNL     1     147.405 153.305 156.718  1.00  0.00     0.093 A 
ATOM      8  C   UNL     1     148.718 153.712 156.953  1.00  0.00     0.123 A 
ATOM      9  C   UNL     1     149.730 152.757 157.064  1.00  0.00     0.094 A 
ATOM     10  C   UNL     1     149.432 151.395 156.969  1.00  0.00     0.146 A 
ATOM     11  O   UNL     1     150.420 150.520 157.101  1.00  0.00    -0.452 OA
ENDROOT
BRANCH   1  12
ATOM     12  C   UNL     1     151.435 148.337 157.219  1.00  0.00     0.021 A 
ATOM     13  C   UNL     1     152.184 147.911 156.108  1.00  0.00     0.016 A 
ATOM     14  C   UNL     1     153.289 147.070 156.281  1.00  0.00     0.047 A 
ATOM     15  C   UNL     1     153.650 146.636 157.560  1.00  0.00     0.115 A 
ATOM     16  C   UNL     1     151.791 147.880 158.499  1.00  0.00     0.016 A 
ATOM     17  C   UNL     1     152.896 147.041 158.669  1.00  0.00     0.047 A 
BRANCH  15  18
ATOM     18  O   UNL     1     154.755 145.802 157.717  1.00  0.00    -0.508 OA
ATOM     19  H   UNL     1     154.838 145.179 158.512  1.00  0.00     0.293 HD
ENDBRANCH  15  18
ENDBRANCH   1  12
BRANCH   2  20
ATOM     20  O   UNL     1     148.767 147.297 156.775  1.00  0.00    -0.502 OA
ATOM     21  H   UNL     1     149.240 146.726 156.086  1.00  0.00     0.293 HD
ENDBRANCH   2  20
BRANCH   6  22
ATOM     22  O   UNL     1     145.752 151.659 156.255  1.00  0.00    -0.507 OA
ATOM     23  H   UNL     1     144.951 152.176 156.582  1.00  0.00     0.293 HD
ENDBRANCH   6  22
BRANCH   8  24
ATOM     24  O   UNL     1     149.007 155.069 157.067  1.00  0.00    -0.508 OA
ATOM     25  H   UNL     1     148.990 155.542 157.965  1.00  0.00     0.293 HD
ENDBRANCH   8  24
TORSDOF 5
ENDMDL
MODEL 5
REMARK VINA RESULT:    -5.277      1.498      3.329
REMARK INTER + INTRA:          -6.489
REMARK INTER:                  -6.207
REMARK INTRA:                  -0.282
REMARK UNBOUND:                -0.287
REMARK SMILES O=c1c(O)c(-c2ccc(O)cc2)oc2cc(O)cc(O)c12
REMARK SMILES IDX 5 1 3 2 2 3 1 4 21 5 19 6 18 7 16 8 15 9 14 10 13 11 6 12
REMARK SMILES IDX 7 13 8 14 9 15 12 16 11 17 10 18 4 20 20 22 17 24
REMARK H PARENT 10 19 4 21 20 23 17 25
REMARK Flexibility Score: inf
ROOT
ATOM      1  C   UNL     1     149.965 143.966 157.588  1.00  0.00     0.180 A 
ATOM      2  C   UNL     1     151.182 143.337 157.903  1.00  0.00     0.208 A 
ATOM      3  C   UNL     1     152.377 144.063 157.774  1.00  0.00     0.238 A 
ATOM      4  O   UNL     1     153.467 143.471 157.987  1.00  0.00    -0.285 OA
ATOM      5  C   UNL     1     152.337 145.424 157.386  1.00  0.00     0.111 A 
ATOM      6  C   UNL     1     153.482 146.269 157.267  1.00  0.00     0.134 A 
ATOM      7  C   UNL     1     153.332 147.570 156.772  1.00  0.00     0.093 A 
ATOM      8  C   UNL     1     152.073 148.080 156.453  1.00  0.00     0.123 A 
ATOM      9  C   UNL     1     150.941 147.281 156.618  1.00  0.00     0.094 A 
ATOM     10  C   UNL     1     151.062 145.966 157.073  1.00  0.00     0.146 A 
ATOM     11  O   UNL     1     149.962 145.234 157.196  1.00  0.00    -0.452 OA
ENDROOT
BRANCH   1  12
ATOM     12  C   UNL     1     148.666 143.263 157.686  1.00  0.00     0.021 A 
ATOM     13  C   UNL     1     147.967 143.179 158.904  1.00  0.00     0.016 A 
ATOM     14  C   UNL     1     146.753 142.487 158.976  1.00  0.00     0.047 A 
ATOM     15  C   UNL     1     146.231 141.861 157.841  1.00  0.00     0.115 A 
ATOM     16  C   UNL     1     148.144 142.613 156.554  1.00  0.00     0.016 A 
ATOM     17  C   UNL     1     146.931 141.923 156.629  1.00  0.00     0.047 A 
BRANCH  15  18
ATOM     18  O   UNL     1     145.020 141.178 157.928  1.00  0.00    -0.508 OA
ATOM     19  H   UNL     1     144.361 141.362 158.676  1.00  0.00     0.293 HD
ENDBRANCH  15  18
ENDBRANCH   1  12
BRANCH   2  20
ATOM     20  O   UNL     1     151.194 142.016 158.358  1.00  0.00    -0.502 OA
ATOM     21  H   UNL     1     150.345 141.479 158.493  1.00  0.00     0.293 HD
ENDBRANCH   2  20
BRANCH   6  22
ATOM     22  O   UNL     1     154.776 145.893 157.640  1.00  0.00    -0.507 OA
ATOM     23  H   UNL     1     155.384 146.430 158.240  1.00  0.00     0.293 HD
ENDBRANCH   6  22
BRANCH   8  24
ATOM     24  O   UNL     1     151.960 149.385 155.980  1.00  0.00    -0.508 OA
ATOM     25  H   UNL     1     151.440 150.090 156.491  1.00  0.00     0.293 HD
ENDBRANCH   8  24
TORSDOF 5
ENDMDL
MODEL 6
REMARK VINA RESULT:    -5.265      4.493      7.476
REMARK INTER + INTRA:          -6.475
REMARK INTER:                  -6.181
REMARK INTRA:                  -0.294
REMARK UNBOUND:                -0.287
REMARK SMILES O=c1c(O)c(-c2ccc(O)cc2)oc2cc(O)cc(O)c12
REMARK SMILES IDX 5 1 3 2 2 3 1 4 21 5 19 6 18 7 16 8 15 9 14 10 13 11 6 12
REMARK SMILES IDX 7 13 8 14 9 15 12 16 11 17 10 18 4 20 20 22 17 24
REMARK H PARENT 10 19 4 21 20 23 17 25
REMARK Flexibility Score: inf
ROOT
ATOM      1  C   UNL     1     143.825 145.586 157.620  1.00  0.00     0.180 A 
ATOM      2  C   UNL     1     143.229 144.361 157.966  1.00  0.00     0.208 A 
ATOM      3  C   UNL     1     143.979 143.180 157.842  1.00  0.00     0.238 A 
ATOM      4  O   UNL     1     143.416 142.081 158.082  1.00  0.00    -0.285 OA
ATOM      5  C   UNL     1     145.333 143.244 157.429  1.00  0.00     0.111 A 
ATOM      6  C   UNL     1     146.200 142.115 157.312  1.00  0.00     0.134 A 
ATOM      7  C   UNL     1     147.489 142.287 156.791  1.00  0.00     0.093 A 
ATOM      8  C   UNL     1     147.964 143.551 156.444  1.00  0.00     0.123 A 
ATOM      9  C   UNL     1     147.144 144.668 156.606  1.00  0.00     0.094 A 
ATOM     10  C   UNL     1     145.840 144.525 157.087  1.00  0.00     0.146 A 
ATOM     11  O   UNL     1     145.087 145.610 157.205  1.00  0.00    -0.452 OA
ENDROOT
BRANCH   1  12
ATOM     12  C   UNL     1     143.095 146.871 157.711  1.00  0.00     0.021 A 
ATOM     13  C   UNL     1     142.403 147.400 156.606  1.00  0.00     0.016 A 
ATOM     14  C   UNL     1     141.742 148.629 156.708  1.00  0.00     0.047 A 
ATOM     15  C   UNL     1     141.775 149.348 157.906  1.00  0.00     0.115 A 
ATOM     16  C   UNL     1     143.141 147.610 158.905  1.00  0.00     0.016 A 
ATOM     17  C   UNL     1     142.479 148.837 159.004  1.00  0.00     0.047 A 
BRANCH  15  18
ATOM     18  O   UNL     1     141.110 150.569 157.994  1.00  0.00    -0.508 OA
ATOM     19  H   UNL     1     141.614 151.448 157.977  1.00  0.00     0.293 HD
ENDBRANCH  15  18
ENDBRANCH   1  12
BRANCH   2  20
ATOM     20  O   UNL     1     141.917 144.327 158.445  1.00  0.00    -0.502 OA
ATOM     21  H   UNL     1     141.593 143.621 159.095  1.00  0.00     0.293 HD
ENDBRANCH   2  20
BRANCH   6  22
ATOM     22  O   UNL     1     145.859 140.820 157.712  1.00  0.00    -0.507 OA
ATOM     23  H   UNL     1     145.158 140.245 157.271  1.00  0.00     0.293 HD
ENDBRANCH   6  22
BRANCH   8  24
ATOM     24  O   UNL     1     149.258 143.685 155.946  1.00  0.00    -0.508 OA
ATOM     25  H   UNL     1     150.008 143.073 156.247  1.00  0.00     0.293 HD
ENDBRANCH   8  24
TORSDOF 5
ENDMDL
MODEL 7
REMARK VINA RESULT:    -5.256      6.345      9.672
REMARK INTER + INTRA:          -6.464
REMARK INTER:                  -6.193
REMARK INTRA:                  -0.271
REMARK UNBOUND:                -0.287
REMARK SMILES O=c1c(O)c(-c2ccc(O)cc2)oc2cc(O)cc(O)c12
REMARK SMILES IDX 5 1 3 2 2 3 1 4 21 5 19 6 18 7 16 8 15 9 14 10 13 11 6 12
REMARK SMILES IDX 7 13 8 14 9 15 12 16 11 17 10 18 4 20 20 22 17 24
REMARK H PARENT 10 19 4 21 20 23 17 25
REMARK Flexibility Score: inf
ROOT
ATOM      1  C   UNL     1     145.619 151.646 157.638  1.00  0.00     0.180 A 
ATOM      2  C   UNL     1     144.403 152.267 157.973  1.00  0.00     0.208 A 
ATOM      3  C   UNL     1     143.206 151.548 157.822  1.00  0.00     0.238 A 
ATOM      4  O   UNL     1     142.117 152.135 158.053  1.00  0.00    -0.285 OA
ATOM      5  C   UNL     1     143.243 150.199 157.392  1.00  0.00     0.111 A 
ATOM      6  C   UNL     1     142.096 149.361 157.247  1.00  0.00     0.134 A 
ATOM      7  C   UNL     1     142.244 148.075 156.711  1.00  0.00     0.093 A 
ATOM      8  C   UNL     1     143.501 147.573 156.377  1.00  0.00     0.123 A 
ATOM      9  C   UNL     1     144.635 148.364 156.566  1.00  0.00     0.094 A 
ATOM     10  C   UNL     1     144.516 149.664 157.062  1.00  0.00     0.146 A 
ATOM     11  O   UNL     1     145.618 150.389 157.206  1.00  0.00    -0.452 OA
ENDROOT
BRANCH   1  12
ATOM     12  C   UNL     1     146.919 152.343 157.756  1.00  0.00     0.021 A 
ATOM     13  C   UNL     1     147.582 152.451 158.992  1.00  0.00     0.016 A 
ATOM     14  C   UNL     1     148.798 153.137 159.084  1.00  0.00     0.047 A 
ATOM     15  C   UNL     1     149.358 153.732 157.950  1.00  0.00     0.115 A 
ATOM     16  C   UNL     1     147.478 152.961 156.625  1.00  0.00     0.016 A 
ATOM     17  C   UNL     1     148.693 153.645 156.720  1.00  0.00     0.047 A 
BRANCH  15  18
ATOM     18  O   UNL     1     150.571 154.409 158.056  1.00  0.00    -0.508 OA
ATOM     19  H   UNL     1     151.150 154.331 158.884  1.00  0.00     0.293 HD
ENDBRANCH  15  18
ENDBRANCH   1  12
BRANCH   2  20
ATOM     20  O   UNL     1     144.394 153.573 158.469  1.00  0.00    -0.502 OA
ATOM     21  H   UNL     1     143.689 153.904 159.116  1.00  0.00     0.293 HD
ENDBRANCH   2  20
BRANCH   6  22
ATOM     22  O   UNL     1     140.803 149.728 157.632  1.00  0.00    -0.507 OA
ATOM     23  H   UNL     1     140.174 149.150 158.169  1.00  0.00     0.293 HD
ENDBRANCH   6  22
BRANCH   8  24
ATOM     24  O   UNL     1     143.611 146.283 155.864  1.00  0.00    -0.508 OA
ATOM     25  H   UNL     1     142.792 145.726 155.648  1.00  0.00     0.293 HD
ENDBRANCH   8  24
TORSDOF 5
ENDMDL
MODEL 8
REMARK VINA RESULT:    -5.254      4.827      6.894
REMARK INTER + INTRA:          -6.462
REMARK INTER:                  -6.164
REMARK INTRA:                  -0.298
REMARK UNBOUND:                -0.287
REMARK SMILES O=c1c(O)c(-c2ccc(O)cc2)oc2cc(O)cc(O)c12
REMARK SMILES IDX 5 1 3 2 2 3 1 4 21 5 19 6 18 7 16 8 15 9 14 10 13 11 6 12
REMARK SMILES IDX 7 13 8 14 9 15 12 16 11 17 10 18 4 20 20 22 17 24
REMARK H PARENT 10 19 4 21 20 23 17 25
REMARK Flexibility Score: inf
ROOT
ATOM      1  C   UNL     1     151.749 149.975 157.625  1.00  0.00     0.180 A 
ATOM      2  C   UNL     1     152.346 151.200 157.969  1.00  0.00     0.208 A 
ATOM      3  C   UNL     1     151.598 152.382 157.842  1.00  0.00     0.238 A 
ATOM      4  O   UNL     1     152.162 153.481 158.080  1.00  0.00    -0.285 OA
ATOM      5  C   UNL     1     150.245 152.319 157.427  1.00  0.00     0.111 A 
ATOM      6  C   UNL     1     149.379 153.448 157.306  1.00  0.00     0.134 A 
ATOM      7  C   UNL     1     148.091 153.278 156.783  1.00  0.00     0.093 A 
ATOM      8  C   UNL     1     147.614 152.014 156.438  1.00  0.00     0.123 A 
ATOM      9  C   UNL     1     148.433 150.896 156.603  1.00  0.00     0.094 A 
ATOM     10  C   UNL     1     149.736 151.038 157.086  1.00  0.00     0.146 A 
ATOM     11  O   UNL     1     150.488 149.951 157.208  1.00  0.00    -0.452 OA
ENDROOT
BRANCH   1  12
ATOM     12  C   UNL     1     152.477 148.689 157.719  1.00  0.00     0.021 A 
ATOM     13  C   UNL     1     153.260 148.211 156.653  1.00  0.00     0.016 A 
ATOM     14  C   UNL     1     153.918 146.981 156.756  1.00  0.00     0.047 A 
ATOM     15  C   UNL     1     153.792 146.210 157.915  1.00  0.00     0.115 A 
ATOM     16  C   UNL     1     152.338 147.898 158.872  1.00  0.00     0.016 A 
ATOM     17  C   UNL     1     152.997 146.670 158.972  1.00  0.00     0.047 A 
BRANCH  15  18
ATOM     18  O   UNL     1     154.455 144.988 158.004  1.00  0.00    -0.508 OA
ATOM     19  H   UNL     1     154.648 144.429 157.180  1.00  0.00     0.293 HD
ENDBRANCH  15  18
ENDBRANCH   1  12
BRANCH   2  20
ATOM     20  O   UNL     1     153.657 151.233 158.450  1.00  0.00    -0.502 OA
ATOM     21  H   UNL     1     153.874 151.247 159.439  1.00  0.00     0.293 HD
ENDBRANCH   2  20
BRANCH   6  22
ATOM     22  O   UNL     1     149.721 154.744 157.704  1.00  0.00    -0.507 OA
ATOM     23  H   UNL     1     149.093 155.398 158.146  1.00  0.00     0.293 HD
ENDBRANCH   6  22
BRANCH   8  24
ATOM     24  O   UNL     1     146.321 151.880 155.938  1.00  0.00    -0.508 OA
ATOM     25  H   UNL     1     145.642 152.629 156.017  1.00  0.00     0.293 HD
ENDBRANCH   8  24
TORSDOF 5
ENDMDL
MODEL 9
REMARK VINA RESULT:    -5.013      5.494      7.055
REMARK INTER + INTRA:          -6.179
REMARK INTER:                  -5.971
REMARK INTRA:                  -0.208
REMARK UNBOUND:                -0.287
REMARK SMILES O=c1c(O)c(-c2ccc(O)cc2)oc2cc(O)cc(O)c12
REMARK SMILES IDX 5 1 3 2 2 3 1 4 21 5 19 6 18 7 16 8 15 9 14 10 13 11 6 12
REMARK SMILES IDX 7 13 8 14 9 15 12 16 11 17 10 18 4 20 20 22 17 24
REMARK H PARENT 10 19 4 21 20 23 17 25
REMARK Flexibility Score: inf
ROOT
ATOM      1  C   UNL     1     145.011 149.843 157.037  1.00  0.00     0.180 A 
ATOM      2  C   UNL     1     146.191 149.080 157.070  1.00  0.00     0.208 A 
ATOM      3  C   UNL     1     147.424 149.724 156.878  1.00  0.00     0.238 A 
ATOM      4  O   UNL     1     148.470 149.024 156.835  1.00  0.00    -0.285 OA
ATOM      5  C   UNL     1     147.468 151.130 156.714  1.00  0.00     0.111 A 
ATOM      6  C   UNL     1     148.665 151.893 156.558  1.00  0.00     0.134 A 
ATOM      7  C   UNL     1     148.580 153.266 156.295  1.00  0.00     0.093 A 
ATOM      8  C   UNL     1     147.347 153.915 156.247  1.00  0.00     0.123 A 
ATOM      9  C   UNL     1     146.173 153.189 156.453  1.00  0.00     0.094 A 
ATOM     10  C   UNL     1     146.223 151.811 156.678  1.00  0.00     0.146 A 
ATOM     11  O   UNL     1     145.082 151.156 156.848  1.00  0.00    -0.452 OA
ENDROOT
BRANCH   1  12
ATOM     12  C   UNL     1     143.674 149.235 157.216  1.00  0.00     0.021 A 
ATOM     13  C   UNL     1     143.106 148.409 156.229  1.00  0.00     0.016 A 
ATOM     14  C   UNL     1     141.829 147.866 156.409  1.00  0.00     0.047 A 
ATOM     15  C   UNL     1     141.101 148.151 157.568  1.00  0.00     0.115 A 
ATOM     16  C   UNL     1     142.927 149.534 158.368  1.00  0.00     0.016 A 
ATOM     17  C   UNL     1     141.652 148.989 158.546  1.00  0.00     0.047 A 
BRANCH  15  18
ATOM     18  O   UNL     1     139.832 147.601 157.735  1.00  0.00    -0.508 OA
ATOM     19  H   UNL     1     139.346 147.652 158.623  1.00  0.00     0.293 HD
ENDBRANCH  15  18
ENDBRANCH   1  12
BRANCH   2  20
ATOM     20  O   UNL     1     146.133 147.705 157.310  1.00  0.00    -0.502 OA
ATOM     21  H   UNL     1     146.964 147.136 157.422  1.00  0.00     0.293 HD
ENDBRANCH   2  20
BRANCH   6  22
ATOM     22  O   UNL     1     149.953 151.362 156.675  1.00  0.00    -0.507 OA
ATOM     23  H   UNL     1     150.569 151.507 157.461  1.00  0.00     0.293 HD
ENDBRANCH   6  22
BRANCH   8  24
ATOM     24  O   UNL     1     147.301 155.285 156.001  1.00  0.00    -0.508 OA
ATOM     25  H   UNL     1     148.025 155.910 156.340  1.00  0.00     0.293 HD
ENDBRANCH   8  24
TORSDOF 5
ENDMDL
