MODEL 1
REMARK VINA RESULT:    -4.257      0.000      0.000
REMARK INTER + INTRA:          -9.992
REMARK INTER:                  -8.239
REMARK INTRA:                  -1.754
REMARK UNBOUND:                -1.754
REMARK SMILES CCCCCCCCCCCCCCCCCC(=O)[O-]
REMARK SMILES IDX 10 1 11 2 12 3 13 4 14 5 15 6 16 7 17 8 18 9 19 10 20 11
REMARK SMILES IDX 9 12 8 13 7 14 6 15 5 16 4 17 3 18 2 19 1 20
REMARK H PARENT
REMARK Flexibility Score: inf
ROOT
ATOM      1  C   UNL     1     -15.248   6.920  29.415  1.00  0.00     0.000 C 
ENDROOT
BRANCH   1   2
ATOM      2  C   UNL     1     -16.038   6.679  30.711  1.00  0.00     0.000 C 
BRANCH   2   3
ATOM      3  C   UNL     1     -16.440   5.207  30.897  1.00  0.00     0.000 C 
BRANCH   3   4
ATOM      4  C   UNL     1     -16.519   4.485  29.547  1.00  0.00     0.000 C 
BRANCH   4   5
ATOM      5  C   UNL     1     -16.796   2.986  29.738  1.00  0.00     0.000 C 
BRANCH   5   6
ATOM      6  C   UNL     1     -15.984   2.388  30.907  1.00  0.00     0.000 C 
BRANCH   6   7
ATOM      7  C   UNL     1     -16.854   1.681  31.960  1.00  0.00     0.006 C 
BRANCH   7   8
ATOM      8  C   UNL     1     -16.029   0.980  33.045  1.00  0.00     0.053 C 
BRANCH   8   9
ATOM      9  C   UNL     1     -16.084   1.753  34.325  1.00  0.00     0.041 C 
ATOM     10  O   UNL     1     -16.422   1.184  35.396  1.00  0.00    -0.550 OA
ATOM     11  O   UNL     1     -15.715   3.093  34.343  1.00  0.00    -0.550 OA
ENDBRANCH   8   9
ENDBRANCH   7   8
ENDBRANCH   6   7
ENDBRANCH   5   6
ENDBRANCH   4   5
ENDBRANCH   3   4
ENDBRANCH   2   3
ENDBRANCH   1   2
BRANCH   1  12
ATOM     12  C   UNL     1     -14.873   8.400  29.219  1.00  0.00     0.000 C 
BRANCH  12  13
ATOM     13  C   UNL     1     -14.336   8.691  27.808  1.00  0.00    -0.000 C 
BRANCH  13  14
ATOM     14  C   UNL     1     -12.808   8.562  27.715  1.00  0.00    -0.000 C 
BRANCH  14  15
ATOM     15  C   UNL     1     -12.132   9.125  28.976  1.00  0.00    -0.000 C 
BRANCH  15  16
ATOM     16  C   UNL     1     -10.737   8.527  29.216  1.00  0.00    -0.000 C 
BRANCH  16  17
ATOM     17  C   UNL     1     -10.688   7.014  28.936  1.00  0.00    -0.000 C 
BRANCH  17  18
ATOM     18  C   UNL     1     -11.097   6.167  30.156  1.00  0.00    -0.000 C 
BRANCH  18  19
ATOM     19  C   UNL     1     -12.411   5.384  29.991  1.00  0.00    -0.003 C 
ATOM     20  C   UNL     1     -12.601   4.301  31.053  1.00  0.00     0.004 C 
ENDBRANCH  18  19
ENDBRANCH  17  18
ENDBRANCH  16  17
ENDBRANCH  15  16
ENDBRANCH  14  15
ENDBRANCH  13  14
ENDBRANCH  12  13
ENDBRANCH   1  12
TORSDOF 16
ENDMDL
MODEL 2
REMARK VINA RESULT:    -4.233      2.568      6.227
REMARK INTER + INTRA:          -9.946
REMARK INTER:                  -8.244
REMARK INTRA:                  -1.702
REMARK UNBOUND:                -1.754
REMARK SMILES CCCCCCCCCCCCCCCCCC(=O)[O-]
REMARK SMILES IDX 10 1 11 2 12 3 13 4 14 5 15 6 16 7 17 8 18 9 19 10 20 11
REMARK SMILES IDX 9 12 8 13 7 14 6 15 5 16 4 17 3 18 2 19 1 20
REMARK H PARENT
REMARK Flexibility Score: inf
ROOT
ATOM      1  C   UNL     1     -14.047   7.516  28.497  1.00  0.00     0.000 C 
ENDROOT
BRANCH   1   2
ATOM      2  C   UNL     1     -13.542   8.956  28.312  1.00  0.00     0.000 C 
BRANCH   2   3
ATOM      3  C   UNL     1     -12.011   9.040  28.203  1.00  0.00     0.000 C 
BRANCH   3   4
ATOM      4  C   UNL     1     -11.365   7.683  28.504  1.00  0.00     0.000 C 
BRANCH   4   5
ATOM      5  C   UNL     1     -10.459   7.764  29.743  1.00  0.00     0.000 C 
BRANCH   5   6
ATOM      6  C   UNL     1     -10.287   6.392  30.429  1.00  0.00     0.000 C 
BRANCH   6   7
ATOM      7  C   UNL     1     -11.523   5.484  30.305  1.00  0.00     0.006 C 
BRANCH   7   8
ATOM      8  C   UNL     1     -11.529   4.340  31.325  1.00  0.00     0.053 C 
BRANCH   8   9
ATOM      9  C   UNL     1     -10.623   3.237  30.879  1.00  0.00     0.041 C 
ATOM     10  O   UNL     1      -9.854   2.676  31.703  1.00  0.00    -0.550 OA
ATOM     11  O   UNL     1     -10.664   2.794  29.563  1.00  0.00    -0.550 OA
ENDBRANCH   8   9
ENDBRANCH   7   8
ENDBRANCH   6   7
ENDBRANCH   5   6
ENDBRANCH   4   5
ENDBRANCH   3   4
ENDBRANCH   2   3
ENDBRANCH   1   2
BRANCH   1  12
ATOM     12  C   UNL     1     -14.965   7.365  29.722  1.00  0.00     0.000 C 
BRANCH  12  13
ATOM     13  C   UNL     1     -15.377   5.906  29.977  1.00  0.00    -0.000 C 
BRANCH  13  14
ATOM     14  C   UNL     1     -16.688   5.787  30.767  1.00  0.00    -0.000 C 
BRANCH  14  15
ATOM     15  C   UNL     1     -16.513   4.865  31.984  1.00  0.00    -0.000 C 
BRANCH  15  16
ATOM     16  C   UNL     1     -15.163   4.131  31.981  1.00  0.00    -0.000 C 
BRANCH  16  17
ATOM     17  C   UNL     1     -15.203   2.819  32.783  1.00  0.00    -0.000 C 
BRANCH  17  18
ATOM     18  C   UNL     1     -16.010   2.940  34.089  1.00  0.00    -0.000 C 
BRANCH  18  19
ATOM     19  C   UNL     1     -16.826   1.692  34.467  1.00  0.00    -0.003 C 
ATOM     20  C   UNL     1     -16.953   0.689  33.320  1.00  0.00     0.004 C 
ENDBRANCH  18  19
ENDBRANCH  17  18
ENDBRANCH  16  17
ENDBRANCH  15  16
ENDBRANCH  14  15
ENDBRANCH  13  14
ENDBRANCH  12  13
ENDBRANCH   1  12
TORSDOF 16
ENDMDL
MODEL 3
REMARK VINA RESULT:    -4.212      2.970      5.662
REMARK INTER + INTRA:          -9.905
REMARK INTER:                  -7.737
REMARK INTRA:                  -2.168
REMARK UNBOUND:                -1.754
REMARK SMILES CCCCCCCCCCCCCCCCCC(=O)[O-]
REMARK SMILES IDX 10 1 11 2 12 3 13 4 14 5 15 6 16 7 17 8 18 9 19 10 20 11
REMARK SMILES IDX 9 12 8 13 7 14 6 15 5 16 4 17 3 18 2 19 1 20
REMARK H PARENT
REMARK Flexibility Score: inf
ROOT
ATOM      1  C   UNL     1     -13.047   8.429  28.683  1.00  0.00     0.000 C 
ENDROOT
BRANCH   1   2
ATOM      2  C   UNL     1     -12.368   7.057  28.540  1.00  0.00     0.000 C 
BRANCH   2   3
ATOM      3  C   UNL     1     -11.354   6.777  29.661  1.00  0.00     0.000 C 
BRANCH   3   4
ATOM      4  C   UNL     1     -11.735   5.514  30.441  1.00  0.00     0.000 C 
BRANCH   4   5
ATOM      5  C   UNL     1     -12.054   4.351  29.489  1.00  0.00     0.000 C 
BRANCH   5   6
ATOM      6  C   UNL     1     -11.660   2.983  30.088  1.00  0.00     0.000 C 
BRANCH   6   7
ATOM      7  C   UNL     1     -11.045   3.083  31.495  1.00  0.00     0.006 C 
BRANCH   7   8
ATOM      8  C   UNL     1      -9.568   2.676  31.532  1.00  0.00     0.053 C 
BRANCH   8   9
ATOM      9  C   UNL     1      -8.734   3.784  32.094  1.00  0.00     0.041 C 
ATOM     10  O   UNL     1      -8.219   3.672  33.237  1.00  0.00    -0.550 OA
ATOM     11  O   UNL     1      -8.487   4.920  31.334  1.00  0.00    -0.550 OA
ENDBRANCH   8   9
ENDBRANCH   7   8
ENDBRANCH   6   7
ENDBRANCH   5   6
ENDBRANCH   4   5
ENDBRANCH   3   4
ENDBRANCH   2   3
ENDBRANCH   1   2
BRANCH   1  12
ATOM     12  C   UNL     1     -14.573   8.317  28.848  1.00  0.00     0.000 C 
BRANCH  12  13
ATOM     13  C   UNL     1     -15.011   6.938  29.369  1.00  0.00    -0.000 C 
BRANCH  13  14
ATOM     14  C   UNL     1     -16.072   7.030  30.476  1.00  0.00    -0.000 C 
BRANCH  14  15
ATOM     15  C   UNL     1     -16.259   5.673  31.172  1.00  0.00    -0.000 C 
BRANCH  15  16
ATOM     16  C   UNL     1     -15.610   4.516  30.395  1.00  0.00    -0.000 C 
BRANCH  16  17
ATOM     17  C   UNL     1     -15.235   3.332  31.304  1.00  0.00    -0.000 C 
BRANCH  17  18
ATOM     18  C   UNL     1     -15.030   3.748  32.772  1.00  0.00    -0.000 C 
BRANCH  18  19
ATOM     19  C   UNL     1     -15.915   3.003  33.788  1.00  0.00    -0.003 C 
ATOM     20  C   UNL     1     -16.028   1.506  33.499  1.00  0.00     0.004 C 
ENDBRANCH  18  19
ENDBRANCH  17  18
ENDBRANCH  16  17
ENDBRANCH  15  16
ENDBRANCH  14  15
ENDBRANCH  13  14
ENDBRANCH  12  13
ENDBRANCH   1  12
TORSDOF 16
ENDMDL
MODEL 4
REMARK VINA RESULT:    -4.209      1.737      3.361
REMARK INTER + INTRA:          -9.900
REMARK INTER:                  -7.237
REMARK INTRA:                  -2.663
REMARK UNBOUND:                -1.754
REMARK SMILES CCCCCCCCCCCCCCCCCC(=O)[O-]
REMARK SMILES IDX 10 1 11 2 12 3 13 4 14 5 15 6 16 7 17 8 18 9 19 10 20 11
REMARK SMILES IDX 9 12 8 13 7 14 6 15 5 16 4 17 3 18 2 19 1 20
REMARK H PARENT
REMARK Flexibility Score: inf
ROOT
ATOM      1  C   UNL     1     -13.105   8.058  28.582  1.00  0.00     0.000 C 
ENDROOT
BRANCH   1   2
ATOM      2  C   UNL     1     -14.560   8.101  29.079  1.00  0.00     0.000 C 
BRANCH   2   3
ATOM      3  C   UNL     1     -14.988   6.802  29.780  1.00  0.00     0.000 C 
BRANCH   3   4
ATOM      4  C   UNL     1     -16.273   7.013  30.589  1.00  0.00     0.000 C 
BRANCH   4   5
ATOM      5  C   UNL     1     -16.590   5.782  31.452  1.00  0.00     0.000 C 
BRANCH   5   6
ATOM      6  C   UNL     1     -15.626   4.610  31.171  1.00  0.00     0.000 C 
BRANCH   6   7
ATOM      7  C   UNL     1     -15.257   3.803  32.428  1.00  0.00     0.006 C 
BRANCH   7   8
ATOM      8  C   UNL     1     -14.829   2.366  32.112  1.00  0.00     0.053 C 
BRANCH   8   9
ATOM      9  C   UNL     1     -15.768   1.390  32.748  1.00  0.00     0.041 C 
ATOM     10  O   UNL     1     -16.751   1.800  33.419  1.00  0.00    -0.550 OA
ATOM     11  O   UNL     1     -15.584   0.026  32.557  1.00  0.00    -0.550 OA
ENDBRANCH   8   9
ENDBRANCH   7   8
ENDBRANCH   6   7
ENDBRANCH   5   6
ENDBRANCH   4   5
ENDBRANCH   3   4
ENDBRANCH   2   3
ENDBRANCH   1   2
BRANCH   1  12
ATOM     12  C   UNL     1     -12.416   6.718  28.895  1.00  0.00     0.000 C 
BRANCH  12  13
ATOM     13  C   UNL     1     -11.009   6.901  29.488  1.00  0.00    -0.000 C 
BRANCH  13  14
ATOM     14  C   UNL     1     -10.770   6.032  30.732  1.00  0.00    -0.000 C 
BRANCH  14  15
ATOM     15  C   UNL     1     -11.922   5.034  30.933  1.00  0.00    -0.000 C 
BRANCH  15  16
ATOM     16  C   UNL     1     -11.430   3.642  31.360  1.00  0.00    -0.000 C 
BRANCH  16  17
ATOM     17  C   UNL     1     -11.406   2.642  30.191  1.00  0.00    -0.000 C 
BRANCH  17  18
ATOM     18  C   UNL     1     -12.078   3.191  28.919  1.00  0.00    -0.000 C 
BRANCH  18  19
ATOM     19  C   UNL     1     -13.516   2.698  28.679  1.00  0.00    -0.003 C 
ATOM     20  C   UNL     1     -14.341   3.653  27.818  1.00  0.00     0.004 C 
ENDBRANCH  18  19
ENDBRANCH  17  18
ENDBRANCH  16  17
ENDBRANCH  15  16
ENDBRANCH  14  15
ENDBRANCH  13  14
ENDBRANCH  12  13
ENDBRANCH   1  12
TORSDOF 16
ENDMDL
MODEL 5
REMARK VINA RESULT:    -4.153      2.448      6.183
REMARK INTER + INTRA:          -9.792
REMARK INTER:                  -7.372
REMARK INTRA:                  -2.420
REMARK UNBOUND:                -1.754
REMARK SMILES CCCCCCCCCCCCCCCCCC(=O)[O-]
REMARK SMILES IDX 10 1 11 2 12 3 13 4 14 5 15 6 16 7 17 8 18 9 19 10 20 11
REMARK SMILES IDX 9 12 8 13 7 14 6 15 5 16 4 17 3 18 2 19 1 20
REMARK H PARENT
REMARK Flexibility Score: inf
ROOT
ATOM      1  C   UNL     1     -16.376   6.627  30.683  1.00  0.00     0.000 C 
ENDROOT
BRANCH   1   2
ATOM      2  C   UNL     1     -15.171   6.726  29.734  1.00  0.00     0.000 C 
BRANCH   2   3
ATOM      3  C   UNL     1     -14.894   8.165  29.274  1.00  0.00     0.000 C 
BRANCH   3   4
ATOM      4  C   UNL     1     -13.534   8.265  28.572  1.00  0.00     0.000 C 
BRANCH   4   5
ATOM      5  C   UNL     1     -12.843   6.895  28.508  1.00  0.00     0.000 C 
BRANCH   5   6
ATOM      6  C   UNL     1     -11.513   6.876  29.292  1.00  0.00     0.000 C 
BRANCH   6   7
ATOM      7  C   UNL     1     -11.048   5.462  29.680  1.00  0.00     0.006 C 
BRANCH   7   8
ATOM      8  C   UNL     1     -11.198   5.173  31.177  1.00  0.00     0.053 C 
BRANCH   8   9
ATOM      9  C   UNL     1     -10.290   4.057  31.588  1.00  0.00     0.041 C 
ATOM     10  O   UNL     1      -9.113   4.302  31.962  1.00  0.00    -0.550 OA
ATOM     11  O   UNL     1     -10.761   2.750  31.603  1.00  0.00    -0.550 OA
ENDBRANCH   8   9
ENDBRANCH   7   8
ENDBRANCH   6   7
ENDBRANCH   5   6
ENDBRANCH   4   5
ENDBRANCH   3   4
ENDBRANCH   2   3
ENDBRANCH   1   2
BRANCH   1  12
ATOM     12  C   UNL     1     -16.305   5.391  31.598  1.00  0.00     0.000 C 
BRANCH  12  13
ATOM     13  C   UNL     1     -14.925   4.713  31.570  1.00  0.00    -0.000 C 
BRANCH  13  14
ATOM     14  C   UNL     1     -14.837   3.506  32.515  1.00  0.00    -0.000 C 
BRANCH  14  15
ATOM     15  C   UNL     1     -14.311   2.266  31.774  1.00  0.00    -0.000 C 
BRANCH  15  16
ATOM     16  C   UNL     1     -15.413   1.231  31.497  1.00  0.00    -0.000 C 
BRANCH  16  17
ATOM     17  C   UNL     1     -15.893   1.258  30.036  1.00  0.00    -0.000 C 
BRANCH  17  18
ATOM     18  C   UNL     1     -17.046   2.252  29.803  1.00  0.00    -0.000 C 
BRANCH  18  19
ATOM     19  C   UNL     1     -16.874   3.171  28.580  1.00  0.00    -0.003 C 
ATOM     20  C   UNL     1     -15.412   3.377  28.186  1.00  0.00     0.004 C 
ENDBRANCH  18  19
ENDBRANCH  17  18
ENDBRANCH  16  17
ENDBRANCH  15  16
ENDBRANCH  14  15
ENDBRANCH  13  14
ENDBRANCH  12  13
ENDBRANCH   1  12
TORSDOF 16
ENDMDL
MODEL 6
REMARK VINA RESULT:    -4.074      1.604      3.155
REMARK INTER + INTRA:          -9.638
REMARK INTER:                  -7.868
REMARK INTRA:                  -1.770
REMARK UNBOUND:                -1.754
REMARK SMILES CCCCCCCCCCCCCCCCCC(=O)[O-]
REMARK SMILES IDX 10 1 11 2 12 3 13 4 14 5 15 6 16 7 17 8 18 9 19 10 20 11
REMARK SMILES IDX 9 12 8 13 7 14 6 15 5 16 4 17 3 18 2 19 1 20
REMARK H PARENT
REMARK Flexibility Score: inf
ROOT
ATOM      1  C   UNL     1     -13.470   8.304  27.823  1.00  0.00     0.000 C 
ENDROOT
BRANCH   1   2
ATOM      2  C   UNL     1     -14.560   8.425  28.901  1.00  0.00     0.000 C 
BRANCH   2   3
ATOM      3  C   UNL     1     -15.079   7.060  29.377  1.00  0.00     0.000 C 
BRANCH   3   4
ATOM      4  C   UNL     1     -16.194   7.229  30.416  1.00  0.00     0.000 C 
BRANCH   4   5
ATOM      5  C   UNL     1     -16.419   5.928  31.202  1.00  0.00     0.000 C 
BRANCH   5   6
ATOM      6  C   UNL     1     -16.448   4.689  30.280  1.00  0.00     0.000 C 
BRANCH   6   7
ATOM      7  C   UNL     1     -16.827   3.389  31.011  1.00  0.00     0.006 C 
BRANCH   7   8
ATOM      8  C   UNL     1     -16.871   3.551  32.534  1.00  0.00     0.053 C 
BRANCH   8   9
ATOM      9  C   UNL     1     -15.807   2.720  33.179  1.00  0.00     0.041 C 
ATOM     10  O   UNL     1     -14.879   2.228  32.485  1.00  0.00    -0.550 OA
ATOM     11  O   UNL     1     -15.813   2.531  34.556  1.00  0.00    -0.550 OA
ENDBRANCH   8   9
ENDBRANCH   7   8
ENDBRANCH   6   7
ENDBRANCH   5   6
ENDBRANCH   4   5
ENDBRANCH   3   4
ENDBRANCH   2   3
ENDBRANCH   1   2
BRANCH   1  12
ATOM     12  C   UNL     1     -12.051   8.449  28.401  1.00  0.00     0.000 C 
BRANCH  12  13
ATOM     13  C   UNL     1     -11.507   7.128  28.969  1.00  0.00    -0.000 C 
BRANCH  13  14
ATOM     14  C   UNL     1     -11.704   5.943  28.013  1.00  0.00    -0.000 C 
BRANCH  14  15
ATOM     15  C   UNL     1     -11.695   4.611  28.780  1.00  0.00    -0.000 C 
BRANCH  15  16
ATOM     16  C   UNL     1     -12.677   4.603  29.962  1.00  0.00    -0.000 C 
BRANCH  16  17
ATOM     17  C   UNL     1     -12.097   3.910  31.207  1.00  0.00    -0.000 C 
BRANCH  17  18
ATOM     18  C   UNL     1     -10.592   3.609  31.076  1.00  0.00    -0.000 C 
BRANCH  18  19
ATOM     19  C   UNL     1      -9.663   4.642  31.738  1.00  0.00    -0.003 C 
ATOM     20  C   UNL     1      -8.341   4.041  32.215  1.00  0.00     0.004 C 
ENDBRANCH  18  19
ENDBRANCH  17  18
ENDBRANCH  16  17
ENDBRANCH  15  16
ENDBRANCH  14  15
ENDBRANCH  13  14
ENDBRANCH  12  13
ENDBRANCH   1  12
TORSDOF 16
ENDMDL
MODEL 7
REMARK VINA RESULT:    -4.065      1.158      2.336
REMARK INTER + INTRA:          -9.621
REMARK INTER:                  -7.256
REMARK INTRA:                  -2.365
REMARK UNBOUND:                -1.754
REMARK SMILES CCCCCCCCCCCCCCCCCC(=O)[O-]
REMARK SMILES IDX 10 1 11 2 12 3 13 4 14 5 15 6 16 7 17 8 18 9 19 10 20 11
REMARK SMILES IDX 9 12 8 13 7 14 6 15 5 16 4 17 3 18 2 19 1 20
REMARK H PARENT
REMARK Flexibility Score: inf
ROOT
ATOM      1  C   UNL     1     -14.223   7.325  28.590  1.00  0.00     0.000 C 
ENDROOT
BRANCH   1   2
ATOM      2  C   UNL     1     -15.180   7.772  29.707  1.00  0.00     0.000 C 
BRANCH   2   3
ATOM      3  C   UNL     1     -15.942   6.598  30.342  1.00  0.00     0.000 C 
BRANCH   3   4
ATOM      4  C   UNL     1     -15.683   5.296  29.574  1.00  0.00     0.000 C 
BRANCH   4   5
ATOM      5  C   UNL     1     -16.782   4.260  29.855  1.00  0.00     0.000 C 
BRANCH   5   6
ATOM      6  C   UNL     1     -16.239   2.815  29.836  1.00  0.00     0.000 C 
BRANCH   6   7
ATOM      7  C   UNL     1     -16.569   2.017  31.109  1.00  0.00     0.006 C 
BRANCH   7   8
ATOM      8  C   UNL     1     -17.125   2.894  32.236  1.00  0.00     0.053 C 
BRANCH   8   9
ATOM      9  C   UNL     1     -16.584   2.449  33.558  1.00  0.00     0.041 C 
ATOM     10  O   UNL     1     -15.705   3.132  34.147  1.00  0.00    -0.550 OA
ATOM     11  O   UNL     1     -17.088   1.304  34.164  1.00  0.00    -0.550 OA
ENDBRANCH   8   9
ENDBRANCH   7   8
ENDBRANCH   6   7
ENDBRANCH   5   6
ENDBRANCH   4   5
ENDBRANCH   3   4
ENDBRANCH   2   3
ENDBRANCH   1   2
BRANCH   1  12
ATOM     12  C   UNL     1     -13.244   8.436  28.172  1.00  0.00     0.000 C 
BRANCH  12  13
ATOM     13  C   UNL     1     -11.774   8.043  28.394  1.00  0.00    -0.000 C 
BRANCH  13  14
ATOM     14  C   UNL     1     -11.608   6.574  28.807  1.00  0.00    -0.000 C 
BRANCH  14  15
ATOM     15  C   UNL     1     -10.558   6.432  29.922  1.00  0.00    -0.000 C 
BRANCH  15  16
ATOM     16  C   UNL     1     -10.973   5.417  30.998  1.00  0.00    -0.000 C 
BRANCH  16  17
ATOM     17  C   UNL     1     -12.429   4.946  30.835  1.00  0.00    -0.000 C 
BRANCH  17  18
ATOM     18  C   UNL     1     -12.669   3.536  31.408  1.00  0.00    -0.000 C 
BRANCH  18  19
ATOM     19  C   UNL     1     -12.576   2.394  30.381  1.00  0.00    -0.003 C 
ATOM     20  C   UNL     1     -12.689   2.877  28.935  1.00  0.00     0.004 C 
ENDBRANCH  18  19
ENDBRANCH  17  18
ENDBRANCH  16  17
ENDBRANCH  15  16
ENDBRANCH  14  15
ENDBRANCH  13  14
ENDBRANCH  12  13
ENDBRANCH   1  12
TORSDOF 16
ENDMDL
MODEL 8
REMARK VINA RESULT:    -4.064     20.557     22.973
REMARK INTER + INTRA:          -9.620
REMARK INTER:                  -6.867
REMARK INTRA:                  -2.753
REMARK UNBOUND:                -1.754
REMARK SMILES CCCCCCCCCCCCCCCCCC(=O)[O-]
REMARK SMILES IDX 10 1 11 2 12 3 13 4 14 5 15 6 16 7 17 8 18 9 19 10 20 11
REMARK SMILES IDX 9 12 8 13 7 14 6 15 5 16 4 17 3 18 2 19 1 20
REMARK H PARENT
REMARK Flexibility Score: inf
ROOT
ATOM      1  C   UNL     1       2.240  -9.240  20.944  1.00  0.00     0.000 C 
ENDROOT
BRANCH   1   2
ATOM      2  C   UNL     1       2.508  -7.796  21.401  1.00  0.00     0.000 C 
BRANCH   2   3
ATOM      3  C   UNL     1       1.339  -7.200  22.201  1.00  0.00     0.000 C 
BRANCH   3   4
ATOM      4  C   UNL     1       1.435  -5.671  22.254  1.00  0.00     0.000 C 
BRANCH   4   5
ATOM      5  C   UNL     1       2.664  -5.167  21.482  1.00  0.00     0.000 C 
BRANCH   5   6
ATOM      6  C   UNL     1       2.533  -3.680  21.086  1.00  0.00     0.000 C 
BRANCH   6   7
ATOM      7  C   UNL     1       1.576  -3.442  19.905  1.00  0.00     0.006 C 
BRANCH   7   8
ATOM      8  C   UNL     1       0.651  -2.239  20.119  1.00  0.00     0.053 C 
BRANCH   8   9
ATOM      9  C   UNL     1       1.356  -0.968  19.764  1.00  0.00     0.041 C 
ATOM     10  O   UNL     1       1.554  -0.668  18.557  1.00  0.00    -0.550 OA
ATOM     11  O   UNL     1       1.752  -0.091  20.766  1.00  0.00    -0.550 OA
ENDBRANCH   8   9
ENDBRANCH   7   8
ENDBRANCH   6   7
ENDBRANCH   5   6
ENDBRANCH   4   5
ENDBRANCH   3   4
ENDBRANCH   2   3
ENDBRANCH   1   2
BRANCH   1  12
ATOM     12  C   UNL     1       3.109  -9.648  19.741  1.00  0.00     0.000 C 
BRANCH  12  13
ATOM     13  C   UNL     1       2.270 -10.055  18.518  1.00  0.00    -0.000 C 
BRANCH  13  14
ATOM     14  C   UNL     1       0.763 -10.086  18.813  1.00  0.00    -0.000 C 
BRANCH  14  15
ATOM     15  C   UNL     1       0.018  -9.036  17.974  1.00  0.00    -0.000 C 
BRANCH  15  16
ATOM     16  C   UNL     1       0.897  -7.824  17.628  1.00  0.00    -0.000 C 
BRANCH  16  17
ATOM     17  C   UNL     1       0.531  -6.576  18.451  1.00  0.00    -0.000 C 
BRANCH  17  18
ATOM     18  C   UNL     1      -0.777  -6.747  19.246  1.00  0.00    -0.000 C 
BRANCH  18  19
ATOM     19  C   UNL     1      -1.501  -5.435  19.595  1.00  0.00    -0.003 C 
ATOM     20  C   UNL     1      -2.069  -5.423  21.014  1.00  0.00     0.004 C 
ENDBRANCH  18  19
ENDBRANCH  17  18
ENDBRANCH  16  17
ENDBRANCH  15  16
ENDBRANCH  14  15
ENDBRANCH  13  14
ENDBRANCH  12  13
ENDBRANCH   1  12
TORSDOF 16
ENDMDL
MODEL 9
REMARK VINA RESULT:    -4.045      3.307      6.548
REMARK INTER + INTRA:          -9.582
REMARK INTER:                  -7.396
REMARK INTRA:                  -2.186
REMARK UNBOUND:                -1.754
REMARK SMILES CCCCCCCCCCCCCCCCCC(=O)[O-]
REMARK SMILES IDX 10 1 11 2 12 3 13 4 14 5 15 6 16 7 17 8 18 9 19 10 20 11
REMARK SMILES IDX 9 12 8 13 7 14 6 15 5 16 4 17 3 18 2 19 1 20
REMARK H PARENT
REMARK Flexibility Score: inf
ROOT
ATOM      1  C   UNL     1     -14.391   7.069  29.236  1.00  0.00     0.000 C 
ENDROOT
BRANCH   1   2
ATOM      2  C   UNL     1     -14.208   8.322  28.364  1.00  0.00     0.000 C 
BRANCH   2   3
ATOM      3  C   UNL     1     -12.766   8.489  27.860  1.00  0.00     0.000 C 
BRANCH   3   4
ATOM      4  C   UNL     1     -11.869   9.087  28.951  1.00  0.00     0.000 C 
BRANCH   4   5
ATOM      5  C   UNL     1     -10.617   8.223  29.172  1.00  0.00     0.000 C 
BRANCH   5   6
ATOM      6  C   UNL     1     -10.971   6.749  29.464  1.00  0.00     0.000 C 
BRANCH   6   7
ATOM      7  C   UNL     1     -10.411   6.237  30.802  1.00  0.00     0.006 C 
BRANCH   7   8
ATOM      8  C   UNL     1      -9.549   4.979  30.647  1.00  0.00     0.053 C 
BRANCH   8   9
ATOM      9  C   UNL     1      -8.119   5.283  30.962  1.00  0.00     0.041 C 
ATOM     10  O   UNL     1      -7.470   6.092  30.248  1.00  0.00    -0.550 OA
ATOM     11  O   UNL     1      -7.516   4.710  32.075  1.00  0.00    -0.550 OA
ENDBRANCH   8   9
ENDBRANCH   7   8
ENDBRANCH   6   7
ENDBRANCH   5   6
ENDBRANCH   4   5
ENDBRANCH   3   4
ENDBRANCH   2   3
ENDBRANCH   1   2
BRANCH   1  12
ATOM     12  C   UNL     1     -15.644   7.149  30.127  1.00  0.00     0.000 C 
BRANCH  12  13
ATOM     13  C   UNL     1     -16.367   5.798  30.251  1.00  0.00    -0.000 C 
BRANCH  13  14
ATOM     14  C   UNL     1     -16.748   5.459  31.700  1.00  0.00    -0.000 C 
BRANCH  14  15
ATOM     15  C   UNL     1     -16.582   3.955  31.973  1.00  0.00    -0.000 C 
BRANCH  15  16
ATOM     16  C   UNL     1     -15.306   3.637  32.769  1.00  0.00    -0.000 C 
BRANCH  16  17
ATOM     17  C   UNL     1     -14.239   2.931  31.915  1.00  0.00    -0.000 C 
BRANCH  17  18
ATOM     18  C   UNL     1     -13.262   3.916  31.245  1.00  0.00    -0.000 C 
BRANCH  18  19
ATOM     19  C   UNL     1     -12.981   3.641  29.757  1.00  0.00    -0.003 C 
ATOM     20  C   UNL     1     -14.211   3.145  28.997  1.00  0.00     0.004 C 
ENDBRANCH  18  19
ENDBRANCH  17  18
ENDBRANCH  16  17
ENDBRANCH  15  16
ENDBRANCH  14  15
ENDBRANCH  13  14
ENDBRANCH  12  13
ENDBRANCH   1  12
TORSDOF 16
ENDMDL
