MODEL 1
REMARK VINA RESULT:    -5.166      0.000      0.000
REMARK INTER + INTRA:          -9.725
REMARK INTER:                  -8.186
REMARK INTRA:                  -1.539
REMARK UNBOUND:                -1.539
REMARK SMILES CCCCCCCCCCCC(=O)[O-]
REMARK SMILES IDX 7 1 8 2 9 3 10 4 11 5 12 6 13 7 14 8 6 9 5 10 4 11 3 12 2 13
REMARK SMILES IDX 1 14
REMARK H PARENT
REMARK Flexibility Score: inf
ROOT
ATOM      1  C   UNL     1       6.499  22.867  46.374  1.00  0.00     0.000 C 
ENDROOT
BRANCH   1   2
ATOM      2  C   UNL     1       8.022  22.909  46.184  1.00  0.00     0.000 C 
BRANCH   2   3
ATOM      3  C   UNL     1       8.440  23.210  44.733  1.00  0.00     0.000 C 
BRANCH   3   4
ATOM      4  C   UNL     1       7.746  24.427  44.096  1.00  0.00     0.006 C 
BRANCH   4   5
ATOM      5  C   UNL     1       6.900  24.060  42.870  1.00  0.00     0.053 C 
BRANCH   5   6
ATOM      6  C   UNL     1       5.543  24.684  42.967  1.00  0.00     0.041 C 
ATOM      7  O   UNL     1       5.384  25.759  43.602  1.00  0.00    -0.550 OA
ATOM      8  O   UNL     1       4.464  24.104  42.314  1.00  0.00    -0.550 OA
ENDBRANCH   5   6
ENDBRANCH   4   5
ENDBRANCH   3   4
ENDBRANCH   2   3
ENDBRANCH   1   2
BRANCH   1   9
ATOM      9  C   UNL     1       6.019  21.437  46.650  1.00  0.00     0.000 C 
BRANCH   9  10
ATOM     10  C   UNL     1       4.707  21.144  45.912  1.00  0.00    -0.000 C 
BRANCH  10  11
ATOM     11  C   UNL     1       4.880  21.311  44.395  1.00  0.00    -0.000 C 
BRANCH  11  12
ATOM     12  C   UNL     1       5.484  20.067  43.720  1.00  0.00    -0.000 C 
BRANCH  12  13
ATOM     13  C   UNL     1       6.948  20.222  43.270  1.00  0.00    -0.003 C 
ATOM     14  C   UNL     1       7.920  19.382  44.099  1.00  0.00     0.004 C 
ENDBRANCH  12  13
ENDBRANCH  11  12
ENDBRANCH  10  11
ENDBRANCH   9  10
ENDBRANCH   1   9
TORSDOF 10
ENDMDL
MODEL 2
REMARK VINA RESULT:    -5.079      1.738      3.362
REMARK INTER + INTRA:          -9.588
REMARK INTER:                  -7.925
REMARK INTRA:                  -1.662
REMARK UNBOUND:                -1.539
REMARK SMILES CCCCCCCCCCCC(=O)[O-]
REMARK SMILES IDX 7 1 8 2 9 3 10 4 11 5 12 6 13 7 14 8 6 9 5 10 4 11 3 12 2 13
REMARK SMILES IDX 1 14
REMARK H PARENT
REMARK Flexibility Score: inf
ROOT
ATOM      1  C   UNL     1       7.466  24.378  43.918  1.00  0.00     0.000 C 
ENDROOT
BRANCH   1   2
ATOM      2  C   UNL     1       7.783  23.892  42.496  1.00  0.00     0.000 C 
BRANCH   2   3
ATOM      3  C   UNL     1       7.403  22.418  42.266  1.00  0.00     0.000 C 
BRANCH   3   4
ATOM      4  C   UNL     1       5.894  22.148  42.133  1.00  0.00     0.006 C 
BRANCH   4   5
ATOM      5  C   UNL     1       5.335  21.296  43.279  1.00  0.00     0.053 C 
BRANCH   5   6
ATOM      6  C   UNL     1       4.512  22.137  44.202  1.00  0.00     0.041 C 
ATOM      7  O   UNL     1       3.793  23.064  43.743  1.00  0.00    -0.550 OA
ATOM      8  O   UNL     1       4.500  21.868  45.564  1.00  0.00    -0.550 OA
ENDBRANCH   5   6
ENDBRANCH   4   5
ENDBRANCH   3   4
ENDBRANCH   2   3
ENDBRANCH   1   2
BRANCH   1   9
ATOM      9  C   UNL     1       8.512  23.872  44.918  1.00  0.00     0.000 C 
BRANCH   9  10
ATOM     10  C   UNL     1       7.864  23.001  46.001  1.00  0.00    -0.000 C 
BRANCH  10  11
ATOM     11  C   UNL     1       8.178  21.515  45.772  1.00  0.00    -0.000 C 
BRANCH  11  12
ATOM     12  C   UNL     1       9.543  21.288  45.098  1.00  0.00    -0.000 C 
BRANCH  12  13
ATOM     13  C   UNL     1       9.616  20.048  44.188  1.00  0.00    -0.003 C 
ATOM     14  C   UNL     1       8.320  19.239  44.174  1.00  0.00     0.004 C 
ENDBRANCH  12  13
ENDBRANCH  11  12
ENDBRANCH  10  11
ENDBRANCH   9  10
ENDBRANCH   1   9
TORSDOF 10
ENDMDL
MODEL 3
REMARK VINA RESULT:    -5.058      2.955      4.380
REMARK INTER + INTRA:          -9.553
REMARK INTER:                  -7.889
REMARK INTRA:                  -1.664
REMARK UNBOUND:                -1.539
REMARK SMILES CCCCCCCCCCCC(=O)[O-]
REMARK SMILES IDX 7 1 8 2 9 3 10 4 11 5 12 6 13 7 14 8 6 9 5 10 4 11 3 12 2 13
REMARK SMILES IDX 1 14
REMARK H PARENT
REMARK Flexibility Score: inf
ROOT
ATOM      1  C   UNL     1       8.062  23.994  42.593  1.00  0.00     0.000 C 
ENDROOT
BRANCH   1   2
ATOM      2  C   UNL     1       7.477  24.103  44.008  1.00  0.00     0.000 C 
BRANCH   2   3
ATOM      3  C   UNL     1       8.515  23.823  45.111  1.00  0.00     0.000 C 
BRANCH   3   4
ATOM      4  C   UNL     1       8.416  22.431  45.759  1.00  0.00     0.006 C 
BRANCH   4   5
ATOM      5  C   UNL     1       9.437  21.434  45.196  1.00  0.00     0.053 C 
BRANCH   5   6
ATOM      6  C   UNL     1       8.951  20.031  45.374  1.00  0.00     0.041 C 
ATOM      7  O   UNL     1       8.143  19.754  46.298  1.00  0.00    -0.550 OA
ATOM      8  O   UNL     1       9.353  19.038  44.491  1.00  0.00    -0.550 OA
ENDBRANCH   5   6
ENDBRANCH   4   5
ENDBRANCH   3   4
ENDBRANCH   2   3
ENDBRANCH   1   2
BRANCH   1   9
ATOM      9  C   UNL     1       7.927  22.566  42.051  1.00  0.00     0.000 C 
BRANCH   9  10
ATOM     10  C   UNL     1       6.498  22.041  42.230  1.00  0.00    -0.000 C 
BRANCH  10  11
ATOM     11  C   UNL     1       6.500  20.544  42.575  1.00  0.00    -0.000 C 
BRANCH  11  12
ATOM     12  C   UNL     1       5.573  20.200  43.755  1.00  0.00    -0.000 C 
BRANCH  12  13
ATOM     13  C   UNL     1       4.967  21.416  44.478  1.00  0.00    -0.003 C 
ATOM     14  C   UNL     1       4.863  21.221  45.990  1.00  0.00     0.004 C 
ENDBRANCH  12  13
ENDBRANCH  11  12
ENDBRANCH  10  11
ENDBRANCH   9  10
ENDBRANCH   1   9
TORSDOF 10
ENDMDL
MODEL 4
REMARK VINA RESULT:    -5.053      2.302      4.659
REMARK INTER + INTRA:          -9.546
REMARK INTER:                  -7.919
REMARK INTRA:                  -1.627
REMARK UNBOUND:                -1.539
REMARK SMILES CCCCCCCCCCCC(=O)[O-]
REMARK SMILES IDX 7 1 8 2 9 3 10 4 11 5 12 6 13 7 14 8 6 9 5 10 4 11 3 12 2 13
REMARK SMILES IDX 1 14
REMARK H PARENT
REMARK Flexibility Score: inf
ROOT
ATOM      1  C   UNL     1       5.888  20.292  43.694  1.00  0.00     0.000 C 
ENDROOT
BRANCH   1   2
ATOM      2  C   UNL     1       4.546  20.726  44.301  1.00  0.00     0.000 C 
BRANCH   2   3
ATOM      3  C   UNL     1       4.704  21.464  45.643  1.00  0.00     0.000 C 
BRANCH   3   4
ATOM      4  C   UNL     1       6.084  21.318  46.307  1.00  0.00     0.006 C 
BRANCH   4   5
ATOM      5  C   UNL     1       6.888  22.624  46.310  1.00  0.00     0.053 C 
BRANCH   5   6
ATOM      6  C   UNL     1       8.285  22.379  45.834  1.00  0.00     0.041 C 
ATOM      7  O   UNL     1       8.795  21.232  45.930  1.00  0.00    -0.550 OA
ATOM      8  O   UNL     1       9.006  23.405  45.237  1.00  0.00    -0.550 OA
ENDBRANCH   5   6
ENDBRANCH   4   5
ENDBRANCH   3   4
ENDBRANCH   2   3
ENDBRANCH   1   2
BRANCH   1   9
ATOM      9  C   UNL     1       5.895  20.495  42.174  1.00  0.00     0.000 C 
BRANCH   9  10
ATOM     10  C   UNL     1       5.798  21.983  41.817  1.00  0.00    -0.000 C 
BRANCH  10  11
ATOM     11  C   UNL     1       7.046  22.745  42.289  1.00  0.00    -0.000 C 
BRANCH  11  12
ATOM     12  C   UNL     1       6.719  24.140  42.850  1.00  0.00    -0.000 C 
BRANCH  12  13
ATOM     13  C   UNL     1       5.219  24.473  42.922  1.00  0.00    -0.003 C 
ATOM     14  C   UNL     1       4.783  24.971  44.300  1.00  0.00     0.004 C 
ENDBRANCH  12  13
ENDBRANCH  11  12
ENDBRANCH  10  11
ENDBRANCH   9  10
ENDBRANCH   1   9
TORSDOF 10
ENDMDL
MODEL 5
REMARK VINA RESULT:    -5.034      3.013      4.632
REMARK INTER + INTRA:          -9.516
REMARK INTER:                  -7.803
REMARK INTRA:                  -1.713
REMARK UNBOUND:                -1.539
REMARK SMILES CCCCCCCCCCCC(=O)[O-]
REMARK SMILES IDX 7 1 8 2 9 3 10 4 11 5 12 6 13 7 14 8 6 9 5 10 4 11 3 12 2 13
REMARK SMILES IDX 1 14
REMARK H PARENT
REMARK Flexibility Score: inf
ROOT
ATOM      1  C   UNL     1       4.872  21.394  44.519  1.00  0.00     0.000 C 
ENDROOT
BRANCH   1   2
ATOM      2  C   UNL     1       5.493  21.207  45.911  1.00  0.00     0.000 C 
BRANCH   2   3
ATOM      3  C   UNL     1       6.515  22.303  46.266  1.00  0.00     0.000 C 
BRANCH   3   4
ATOM      4  C   UNL     1       7.970  21.986  45.879  1.00  0.00     0.006 C 
BRANCH   4   5
ATOM      5  C   UNL     1       8.241  20.481  45.750  1.00  0.00     0.053 C 
BRANCH   5   6
ATOM      6  C   UNL     1       9.512  20.242  44.998  1.00  0.00     0.041 C 
ATOM      7  O   UNL     1       9.477  19.901  43.787  1.00  0.00    -0.550 OA
ATOM      8  O   UNL     1      10.736  20.444  45.621  1.00  0.00    -0.550 OA
ENDBRANCH   5   6
ENDBRANCH   4   5
ENDBRANCH   3   4
ENDBRANCH   2   3
ENDBRANCH   1   2
BRANCH   1   9
ATOM      9  C   UNL     1       5.125  20.167  43.634  1.00  0.00     0.000 C 
BRANCH   9  10
ATOM     10  C   UNL     1       6.182  20.467  42.565  1.00  0.00    -0.000 C 
BRANCH  10  11
ATOM     11  C   UNL     1       6.259  21.973  42.275  1.00  0.00    -0.000 C 
BRANCH  11  12
ATOM     12  C   UNL     1       7.704  22.481  42.123  1.00  0.00    -0.000 C 
BRANCH  12  13
ATOM     13  C   UNL     1       7.940  23.919  42.618  1.00  0.00    -0.003 C 
ATOM     14  C   UNL     1       6.700  24.541  43.260  1.00  0.00     0.004 C 
ENDBRANCH  12  13
ENDBRANCH  11  12
ENDBRANCH  10  11
ENDBRANCH   9  10
ENDBRANCH   1   9
TORSDOF 10
ENDMDL
MODEL 6
REMARK VINA RESULT:    -5.033      1.306      2.727
REMARK INTER + INTRA:          -9.515
REMARK INTER:                  -7.816
REMARK INTRA:                  -1.699
REMARK UNBOUND:                -1.539
REMARK SMILES CCCCCCCCCCCC(=O)[O-]
REMARK SMILES IDX 7 1 8 2 9 3 10 4 11 5 12 6 13 7 14 8 6 9 5 10 4 11 3 12 2 13
REMARK SMILES IDX 1 14
REMARK H PARENT
REMARK Flexibility Score: inf
ROOT
ATOM      1  C   UNL     1       4.378  22.236  44.988  1.00  0.00     0.000 C 
ENDROOT
BRANCH   1   2
ATOM      2  C   UNL     1       5.094  21.340  46.010  1.00  0.00     0.000 C 
BRANCH   2   3
ATOM      3  C   UNL     1       6.306  22.026  46.665  1.00  0.00     0.000 C 
BRANCH   3   4
ATOM      4  C   UNL     1       6.587  23.458  46.175  1.00  0.00     0.006 C 
BRANCH   4   5
ATOM      5  C   UNL     1       7.857  23.560  45.321  1.00  0.00     0.053 C 
BRANCH   5   6
ATOM      6  C   UNL     1       7.540  24.150  43.983  1.00  0.00     0.041 C 
ATOM      7  O   UNL     1       8.262  23.884  42.987  1.00  0.00    -0.550 OA
ATOM      8  O   UNL     1       6.419  24.954  43.826  1.00  0.00    -0.550 OA
ENDBRANCH   5   6
ENDBRANCH   4   5
ENDBRANCH   3   4
ENDBRANCH   2   3
ENDBRANCH   1   2
BRANCH   1   9
ATOM      9  C   UNL     1       4.730  21.823  43.554  1.00  0.00     0.000 C 
BRANCH   9  10
ATOM     10  C   UNL     1       5.427  20.458  43.529  1.00  0.00    -0.000 C 
BRANCH  10  11
ATOM     11  C   UNL     1       6.651  20.483  42.599  1.00  0.00    -0.000 C 
BRANCH  11  12
ATOM     12  C   UNL     1       7.983  20.350  43.359  1.00  0.00    -0.000 C 
BRANCH  12  13
ATOM     13  C   UNL     1       7.983  19.304  44.488  1.00  0.00    -0.003 C 
ATOM     14  C   UNL     1       8.844  19.714  45.682  1.00  0.00     0.004 C 
ENDBRANCH  12  13
ENDBRANCH  11  12
ENDBRANCH  10  11
ENDBRANCH   9  10
ENDBRANCH   1   9
TORSDOF 10
ENDMDL
MODEL 7
REMARK VINA RESULT:    -5.022      1.951      3.164
REMARK INTER + INTRA:          -9.497
REMARK INTER:                  -7.760
REMARK INTRA:                  -1.737
REMARK UNBOUND:                -1.539
REMARK SMILES CCCCCCCCCCCC(=O)[O-]
REMARK SMILES IDX 7 1 8 2 9 3 10 4 11 5 12 6 13 7 14 8 6 9 5 10 4 11 3 12 2 13
REMARK SMILES IDX 1 14
REMARK H PARENT
REMARK Flexibility Score: inf
ROOT
ATOM      1  C   UNL     1       8.176  22.671  42.340  1.00  0.00     0.000 C 
ENDROOT
BRANCH   1   2
ATOM      2  C   UNL     1       7.884  24.072  42.896  1.00  0.00     0.000 C 
BRANCH   2   3
ATOM      3  C   UNL     1       8.047  24.157  44.425  1.00  0.00     0.000 C 
BRANCH   3   4
ATOM      4  C   UNL     1       6.818  23.712  45.236  1.00  0.00     0.006 C 
BRANCH   4   5
ATOM      5  C   UNL     1       5.493  24.179  44.620  1.00  0.00     0.053 C 
BRANCH   5   6
ATOM      6  C   UNL     1       4.451  23.114  44.753  1.00  0.00     0.041 C 
ATOM      7  O   UNL     1       4.632  22.144  45.535  1.00  0.00    -0.550 OA
ATOM      8  O   UNL     1       3.258  23.217  44.050  1.00  0.00    -0.550 OA
ENDBRANCH   5   6
ENDBRANCH   4   5
ENDBRANCH   3   4
ENDBRANCH   2   3
ENDBRANCH   1   2
BRANCH   1   9
ATOM      9  C   UNL     1       6.900  22.018  41.796  1.00  0.00     0.000 C 
BRANCH   9  10
ATOM     10  C   UNL     1       6.509  20.793  42.631  1.00  0.00    -0.000 C 
BRANCH  10  11
ATOM     11  C   UNL     1       7.714  20.258  43.421  1.00  0.00    -0.000 C 
BRANCH  11  12
ATOM     12  C   UNL     1       7.417  20.084  44.921  1.00  0.00    -0.000 C 
BRANCH  12  13
ATOM     13  C   UNL     1       8.568  20.487  45.860  1.00  0.00    -0.003 C 
ATOM     14  C   UNL     1       9.829  20.914  45.109  1.00  0.00     0.004 C 
ENDBRANCH  12  13
ENDBRANCH  11  12
ENDBRANCH  10  11
ENDBRANCH   9  10
ENDBRANCH   1   9
TORSDOF 10
ENDMDL
MODEL 8
REMARK VINA RESULT:    -5.016      2.254      3.961
REMARK INTER + INTRA:          -9.487
REMARK INTER:                  -7.910
REMARK INTRA:                  -1.577
REMARK UNBOUND:                -1.539
REMARK SMILES CCCCCCCCCCCC(=O)[O-]
REMARK SMILES IDX 7 1 8 2 9 3 10 4 11 5 12 6 13 7 14 8 6 9 5 10 4 11 3 12 2 13
REMARK SMILES IDX 1 14
REMARK H PARENT
REMARK Flexibility Score: inf
ROOT
ATOM      1  C   UNL     1       5.899  20.234  43.706  1.00  0.00     0.000 C 
ENDROOT
BRANCH   1   2
ATOM      2  C   UNL     1       5.963  20.558  42.206  1.00  0.00     0.000 C 
BRANCH   2   3
ATOM      3  C   UNL     1       6.368  22.016  41.923  1.00  0.00     0.000 C 
BRANCH   3   4
ATOM      4  C   UNL     1       7.863  22.324  42.112  1.00  0.00     0.006 C 
BRANCH   4   5
ATOM      5  C   UNL     1       8.114  23.551  42.999  1.00  0.00     0.053 C 
BRANCH   5   6
ATOM      6  C   UNL     1       8.387  23.130  44.408  1.00  0.00     0.041 C 
ATOM      7  O   UNL     1       8.076  23.884  45.366  1.00  0.00    -0.550 OA
ATOM      8  O   UNL     1       8.940  21.883  44.666  1.00  0.00    -0.550 OA
ENDBRANCH   5   6
ENDBRANCH   4   5
ENDBRANCH   3   4
ENDBRANCH   2   3
ENDBRANCH   1   2
BRANCH   1   9
ATOM      9  C   UNL     1       4.558  20.674  44.307  1.00  0.00     0.000 C 
BRANCH   9  10
ATOM     10  C   UNL     1       4.771  21.595  45.514  1.00  0.00    -0.000 C 
BRANCH  10  11
ATOM     11  C   UNL     1       4.636  23.071  45.110  1.00  0.00    -0.000 C 
BRANCH  11  12
ATOM     12  C   UNL     1       3.607  23.294  43.987  1.00  0.00    -0.000 C 
BRANCH  12  13
ATOM     13  C   UNL     1       3.853  24.543  43.122  1.00  0.00    -0.003 C 
ATOM     14  C   UNL     1       5.043  25.375  43.600  1.00  0.00     0.004 C 
ENDBRANCH  12  13
ENDBRANCH  11  12
ENDBRANCH  10  11
ENDBRANCH   9  10
ENDBRANCH   1   9
TORSDOF 10
ENDMDL
MODEL 9
REMARK VINA RESULT:    -4.993      1.645      3.747
REMARK INTER + INTRA:          -9.451
REMARK INTER:                  -7.872
REMARK INTRA:                  -1.579
REMARK UNBOUND:                -1.539
REMARK SMILES CCCCCCCCCCCC(=O)[O-]
REMARK SMILES IDX 7 1 8 2 9 3 10 4 11 5 12 6 13 7 14 8 6 9 5 10 4 11 3 12 2 13
REMARK SMILES IDX 1 14
REMARK H PARENT
REMARK Flexibility Score: inf
ROOT
ATOM      1  C   UNL     1       6.085  20.402  43.668  1.00  0.00     0.000 C 
ENDROOT
BRANCH   1   2
ATOM      2  C   UNL     1       4.740  20.501  44.402  1.00  0.00     0.000 C 
BRANCH   2   3
ATOM      3  C   UNL     1       4.748  21.544  45.534  1.00  0.00     0.000 C 
BRANCH   3   4
ATOM      4  C   UNL     1       4.764  23.010  45.068  1.00  0.00     0.006 C 
BRANCH   4   5
ATOM      5  C   UNL     1       3.707  23.309  43.997  1.00  0.00     0.053 C 
BRANCH   5   6
ATOM      6  C   UNL     1       3.560  24.785  43.807  1.00  0.00     0.041 C 
ATOM      7  O   UNL     1       2.459  25.348  44.042  1.00  0.00    -0.550 OA
ATOM      8  O   UNL     1       4.653  25.548  43.416  1.00  0.00    -0.550 OA
ENDBRANCH   5   6
ENDBRANCH   4   5
ENDBRANCH   3   4
ENDBRANCH   2   3
ENDBRANCH   1   2
BRANCH   1   9
ATOM      9  C   UNL     1       5.910  20.638  42.163  1.00  0.00     0.000 C 
BRANCH   9  10
ATOM     10  C   UNL     1       6.478  22.000  41.749  1.00  0.00    -0.000 C 
BRANCH  10  11
ATOM     11  C   UNL     1       7.728  22.348  42.571  1.00  0.00    -0.000 C 
BRANCH  11  12
ATOM     12  C   UNL     1       7.765  23.822  43.012  1.00  0.00    -0.000 C 
BRANCH  12  13
ATOM     13  C   UNL     1       8.343  24.063  44.417  1.00  0.00    -0.003 C 
ATOM     14  C   UNL     1       8.487  22.778  45.233  1.00  0.00     0.004 C 
ENDBRANCH  12  13
ENDBRANCH  11  12
ENDBRANCH  10  11
ENDBRANCH   9  10
ENDBRANCH   1   9
TORSDOF 10
ENDMDL
