MODEL 1
REMARK VINA RESULT:    -6.241      0.000      0.000
REMARK INTER + INTRA:         -17.617
REMARK INTER:                 -14.267
REMARK INTRA:                  -3.350
REMARK UNBOUND:                -3.350
REMARK SMILES CCCCCCCCCCCCCCCCCCCCCCCC(=O)[O-]
REMARK SMILES IDX 13 1 14 2 15 3 16 4 17 5 18 6 19 7 20 8 21 9 22 10 23 11
REMARK SMILES IDX 24 12 25 13 26 14 12 15 11 16 10 17 9 18 8 19 7 20 6 21 5 22
REMARK SMILES IDX 4 23 3 24 2 25 1 26
REMARK H PARENT
REMARK Flexibility Score: inf
ROOT
ATOM      1  C   UNL     1     102.552 106.946 231.861  1.00  0.00     0.000 C 
ENDROOT
BRANCH   1   2
ATOM      2  C   UNL     1     103.115 107.723 230.658  1.00  0.00     0.000 C 
BRANCH   2   3
ATOM      3  C   UNL     1     104.578 108.153 230.856  1.00  0.00     0.000 C 
BRANCH   3   4
ATOM      4  C   UNL     1     105.523 107.558 229.797  1.00  0.00     0.000 C 
BRANCH   4   5
ATOM      5  C   UNL     1     104.836 107.016 228.526  1.00  0.00     0.000 C 
BRANCH   5   6
ATOM      6  C   UNL     1     105.160 105.553 228.177  1.00  0.00     0.000 C 
BRANCH   6   7
ATOM      7  C   UNL     1     104.269 104.997 227.053  1.00  0.00     0.000 C 
BRANCH   7   8
ATOM      8  C   UNL     1     102.868 105.628 227.037  1.00  0.00     0.000 C 
BRANCH   8   9
ATOM      9  C   UNL     1     101.778 104.677 227.558  1.00  0.00     0.000 C 
BRANCH   9  10
ATOM     10  C   UNL     1     101.801 104.602 229.089  1.00  0.00     0.006 C 
BRANCH  10  11
ATOM     11  C   UNL     1     101.397 103.206 229.576  1.00  0.00     0.053 C 
BRANCH  11  12
ATOM     12  C   UNL     1     102.512 102.575 230.348  1.00  0.00     0.041 C 
ATOM     13  O   UNL     1     102.268 101.666 231.186  1.00  0.00    -0.550 OA
ATOM     14  O   UNL     1     103.827 102.959 230.112  1.00  0.00    -0.550 OA
ENDBRANCH  11  12
ENDBRANCH  10  11
ENDBRANCH   9  10
ENDBRANCH   8   9
ENDBRANCH   7   8
ENDBRANCH   6   7
ENDBRANCH   5   6
ENDBRANCH   4   5
ENDBRANCH   3   4
ENDBRANCH   2   3
ENDBRANCH   1   2
BRANCH   1  15
ATOM     15  C   UNL     1     103.406 105.752 232.335  1.00  0.00     0.000 C 
BRANCH  15  16
ATOM     16  C   UNL     1     104.034 105.901 233.733  1.00  0.00     0.000 C 
BRANCH  16  17
ATOM     17  C   UNL     1     105.572 105.925 233.699  1.00  0.00     0.000 C 
BRANCH  17  18
ATOM     18  C   UNL     1     106.157 105.135 232.513  1.00  0.00    -0.000 C 
BRANCH  18  19
ATOM     19  C   UNL     1     106.768 103.768 232.874  1.00  0.00    -0.000 C 
BRANCH  19  20
ATOM     20  C   UNL     1     107.218 102.970 231.639  1.00  0.00    -0.000 C 
BRANCH  20  21
ATOM     21  C   UNL     1     107.519 103.867 230.427  1.00  0.00    -0.000 C 
BRANCH  21  22
ATOM     22  C   UNL     1     108.196 103.121 229.258  1.00  0.00    -0.000 C 
BRANCH  22  23
ATOM     23  C   UNL     1     109.558 102.533 229.659  1.00  0.00    -0.000 C 
BRANCH  23  24
ATOM     24  C   UNL     1     110.649 102.932 228.654  1.00  0.00    -0.000 C 
BRANCH  24  25
ATOM     25  C   UNL     1     111.713 103.855 229.268  1.00  0.00    -0.003 C 
ATOM     26  C   UNL     1     111.717 103.825 230.797  1.00  0.00     0.004 C 
ENDBRANCH  24  25
ENDBRANCH  23  24
ENDBRANCH  22  23
ENDBRANCH  21  22
ENDBRANCH  20  21
ENDBRANCH  19  20
ENDBRANCH  18  19
ENDBRANCH  17  18
ENDBRANCH  16  17
ENDBRANCH  15  16
ENDBRANCH   1  15
TORSDOF 22
ENDMDL
MODEL 2
REMARK VINA RESULT:    -6.115      2.309      5.280
REMARK INTER + INTRA:         -17.330
REMARK INTER:                 -13.168
REMARK INTRA:                  -4.162
REMARK UNBOUND:                -3.350
REMARK SMILES CCCCCCCCCCCCCCCCCCCCCCCC(=O)[O-]
REMARK SMILES IDX 13 1 14 2 15 3 16 4 17 5 18 6 19 7 20 8 21 9 22 10 23 11
REMARK SMILES IDX 24 12 25 13 26 14 12 15 11 16 10 17 9 18 8 19 7 20 6 21 5 22
REMARK SMILES IDX 4 23 3 24 2 25 1 26
REMARK H PARENT
REMARK Flexibility Score: inf
ROOT
ATOM      1  C   UNL     1     101.669 106.284 230.317  1.00  0.00     0.000 C 
ENDROOT
BRANCH   1   2
ATOM      2  C   UNL     1     100.783 105.189 229.696  1.00  0.00     0.000 C 
BRANCH   2   3
ATOM      3  C   UNL     1     101.584 103.961 229.235  1.00  0.00     0.000 C 
BRANCH   3   4
ATOM      4  C   UNL     1     101.231 102.687 230.023  1.00  0.00     0.000 C 
BRANCH   4   5
ATOM      5  C   UNL     1     102.341 102.154 230.952  1.00  0.00     0.000 C 
BRANCH   5   6
ATOM      6  C   UNL     1     103.761 102.657 230.635  1.00  0.00     0.000 C 
BRANCH   6   7
ATOM      7  C   UNL     1     104.763 101.512 230.409  1.00  0.00     0.000 C 
BRANCH   7   8
ATOM      8  C   UNL     1     106.099 101.739 231.134  1.00  0.00     0.000 C 
BRANCH   8   9
ATOM      9  C   UNL     1     106.176 103.106 231.831  1.00  0.00     0.000 C 
BRANCH   9  10
ATOM     10  C   UNL     1     107.522 103.788 231.559  1.00  0.00     0.006 C 
BRANCH  10  11
ATOM     11  C   UNL     1     107.942 103.608 230.096  1.00  0.00     0.053 C 
BRANCH  11  12
ATOM     12  C   UNL     1     109.389 103.239 230.006  1.00  0.00     0.041 C 
ATOM     13  O   UNL     1     109.732 102.144 229.485  1.00  0.00    -0.550 OA
ATOM     14  O   UNL     1     110.362 104.122 230.459  1.00  0.00    -0.550 OA
ENDBRANCH  11  12
ENDBRANCH  10  11
ENDBRANCH   9  10
ENDBRANCH   8   9
ENDBRANCH   7   8
ENDBRANCH   6   7
ENDBRANCH   5   6
ENDBRANCH   4   5
ENDBRANCH   3   4
ENDBRANCH   2   3
ENDBRANCH   1   2
BRANCH   1  15
ATOM     15  C   UNL     1     101.582 106.411 231.852  1.00  0.00     0.000 C 
BRANCH  15  16
ATOM     16  C   UNL     1     102.511 105.475 232.648  1.00  0.00     0.000 C 
BRANCH  16  17
ATOM     17  C   UNL     1     103.712 106.209 233.269  1.00  0.00     0.000 C 
BRANCH  17  18
ATOM     18  C   UNL     1     104.904 106.331 232.300  1.00  0.00    -0.000 C 
BRANCH  18  19
ATOM     19  C   UNL     1     104.943 107.628 231.469  1.00  0.00    -0.000 C 
BRANCH  19  20
ATOM     20  C   UNL     1     105.813 107.503 230.208  1.00  0.00    -0.000 C 
BRANCH  20  21
ATOM     21  C   UNL     1     105.471 106.260 229.369  1.00  0.00    -0.000 C 
BRANCH  21  22
ATOM     22  C   UNL     1     104.419 106.524 228.272  1.00  0.00    -0.000 C 
BRANCH  22  23
ATOM     23  C   UNL     1     104.447 105.449 227.175  1.00  0.00    -0.000 C 
BRANCH  23  24
ATOM     24  C   UNL     1     105.337 104.265 227.584  1.00  0.00    -0.000 C 
BRANCH  24  25
ATOM     25  C   UNL     1     106.092 103.652 226.395  1.00  0.00    -0.003 C 
ATOM     26  C   UNL     1     107.588 103.966 226.413  1.00  0.00     0.004 C 
ENDBRANCH  24  25
ENDBRANCH  23  24
ENDBRANCH  22  23
ENDBRANCH  21  22
ENDBRANCH  20  21
ENDBRANCH  19  20
ENDBRANCH  18  19
ENDBRANCH  17  18
ENDBRANCH  16  17
ENDBRANCH  15  16
ENDBRANCH   1  15
TORSDOF 22
ENDMDL
MODEL 3
REMARK VINA RESULT:    -6.110      2.366      5.041
REMARK INTER + INTRA:         -17.318
REMARK INTER:                 -13.525
REMARK INTRA:                  -3.793
REMARK UNBOUND:                -3.350
REMARK SMILES CCCCCCCCCCCCCCCCCCCCCCCC(=O)[O-]
REMARK SMILES IDX 13 1 14 2 15 3 16 4 17 5 18 6 19 7 20 8 21 9 22 10 23 11
REMARK SMILES IDX 24 12 25 13 26 14 12 15 11 16 10 17 9 18 8 19 7 20 6 21 5 22
REMARK SMILES IDX 4 23 3 24 2 25 1 26
REMARK H PARENT
REMARK Flexibility Score: inf
ROOT
ATOM      1  C   UNL     1     104.987 105.670 228.024  1.00  0.00     0.000 C 
ENDROOT
BRANCH   1   2
ATOM      2  C   UNL     1     104.610 107.119 228.381  1.00  0.00     0.000 C 
BRANCH   2   3
ATOM      3  C   UNL     1     105.599 107.771 229.361  1.00  0.00     0.000 C 
BRANCH   3   4
ATOM      4  C   UNL     1     104.934 108.204 230.680  1.00  0.00     0.000 C 
BRANCH   4   5
ATOM      5  C   UNL     1     105.152 107.252 231.874  1.00  0.00     0.000 C 
BRANCH   5   6
ATOM      6  C   UNL     1     104.066 106.179 232.066  1.00  0.00     0.000 C 
BRANCH   6   7
ATOM      7  C   UNL     1     103.676 105.981 233.541  1.00  0.00     0.000 C 
BRANCH   7   8
ATOM      8  C   UNL     1     102.195 105.615 233.721  1.00  0.00     0.000 C 
BRANCH   8   9
ATOM      9  C   UNL     1     101.337 106.806 234.177  1.00  0.00     0.000 C 
BRANCH   9  10
ATOM     10  C   UNL     1     100.002 106.842 233.424  1.00  0.00     0.006 C 
BRANCH  10  11
ATOM     11  C   UNL     1     100.068 105.996 232.149  1.00  0.00     0.053 C 
BRANCH  11  12
ATOM     12  C   UNL     1      98.705 105.509 231.769  1.00  0.00     0.041 C 
ATOM     13  O   UNL     1      98.565 104.385 231.219  1.00  0.00    -0.550 OA
ATOM     14  O   UNL     1      97.585 106.279 232.060  1.00  0.00    -0.550 OA
ENDBRANCH  11  12
ENDBRANCH  10  11
ENDBRANCH   9  10
ENDBRANCH   8   9
ENDBRANCH   7   8
ENDBRANCH   6   7
ENDBRANCH   5   6
ENDBRANCH   4   5
ENDBRANCH   3   4
ENDBRANCH   2   3
ENDBRANCH   1   2
BRANCH   1  15
ATOM     15  C   UNL     1     103.972 104.924 227.133  1.00  0.00     0.000 C 
BRANCH  15  16
ATOM     16  C   UNL     1     102.516 105.413 227.237  1.00  0.00     0.000 C 
BRANCH  16  17
ATOM     17  C   UNL     1     101.577 104.366 227.861  1.00  0.00     0.000 C 
BRANCH  17  18
ATOM     18  C   UNL     1     101.647 104.340 229.400  1.00  0.00    -0.000 C 
BRANCH  18  19
ATOM     19  C   UNL     1     101.691 102.935 230.030  1.00  0.00    -0.000 C 
BRANCH  19  20
ATOM     20  C   UNL     1     102.807 102.785 231.078  1.00  0.00    -0.000 C 
BRANCH  20  21
ATOM     21  C   UNL     1     104.214 102.818 230.459  1.00  0.00    -0.000 C 
BRANCH  21  22
ATOM     22  C   UNL     1     105.144 101.700 230.976  1.00  0.00    -0.000 C 
BRANCH  22  23
ATOM     23  C   UNL     1     106.615 102.146 231.016  1.00  0.00    -0.000 C 
BRANCH  23  24
ATOM     24  C   UNL     1     106.743 103.650 230.729  1.00  0.00    -0.000 C 
BRANCH  24  25
ATOM     25  C   UNL     1     107.652 104.371 231.737  1.00  0.00    -0.003 C 
ATOM     26  C   UNL     1     107.114 104.319 233.166  1.00  0.00     0.004 C 
ENDBRANCH  24  25
ENDBRANCH  23  24
ENDBRANCH  22  23
ENDBRANCH  21  22
ENDBRANCH  20  21
ENDBRANCH  19  20
ENDBRANCH  18  19
ENDBRANCH  17  18
ENDBRANCH  16  17
ENDBRANCH  15  16
ENDBRANCH   1  15
TORSDOF 22
ENDMDL
MODEL 4
REMARK VINA RESULT:    -6.100      1.964      6.373
REMARK INTER + INTRA:         -17.296
REMARK INTER:                 -12.969
REMARK INTRA:                  -4.327
REMARK UNBOUND:                -3.350
REMARK SMILES CCCCCCCCCCCCCCCCCCCCCCCC(=O)[O-]
REMARK SMILES IDX 13 1 14 2 15 3 16 4 17 5 18 6 19 7 20 8 21 9 22 10 23 11
REMARK SMILES IDX 24 12 25 13 26 14 12 15 11 16 10 17 9 18 8 19 7 20 6 21 5 22
REMARK SMILES IDX 4 23 3 24 2 25 1 26
REMARK H PARENT
REMARK Flexibility Score: inf
ROOT
ATOM      1  C   UNL     1     101.825 105.122 227.111  1.00  0.00     0.000 C 
ENDROOT
BRANCH   1   2
ATOM      2  C   UNL     1     101.414 104.844 228.568  1.00  0.00     0.000 C 
BRANCH   2   3
ATOM      3  C   UNL     1     101.219 103.348 228.860  1.00  0.00     0.000 C 
BRANCH   3   4
ATOM      4  C   UNL     1     101.145 103.038 230.366  1.00  0.00     0.000 C 
BRANCH   4   5
ATOM      5  C   UNL     1     102.298 102.177 230.922  1.00  0.00     0.000 C 
BRANCH   5   6
ATOM      6  C   UNL     1     103.612 102.242 230.123  1.00  0.00     0.000 C 
BRANCH   6   7
ATOM      7  C   UNL     1     104.814 101.684 230.904  1.00  0.00     0.000 C 
BRANCH   7   8
ATOM      8  C   UNL     1     105.570 102.770 231.686  1.00  0.00     0.000 C 
BRANCH   8   9
ATOM      9  C   UNL     1     107.095 102.663 231.533  1.00  0.00     0.000 C 
BRANCH   9  10
ATOM     10  C   UNL     1     107.740 104.052 231.466  1.00  0.00     0.006 C 
BRANCH  10  11
ATOM     11  C   UNL     1     109.070 104.004 230.706  1.00  0.00     0.053 C 
BRANCH  11  12
ATOM     12  C   UNL     1     109.006 103.004 229.596  1.00  0.00     0.041 C 
ATOM     13  O   UNL     1     109.687 101.946 229.656  1.00  0.00    -0.550 OA
ATOM     14  O   UNL     1     108.161 103.219 228.513  1.00  0.00    -0.550 OA
ENDBRANCH  11  12
ENDBRANCH  10  11
ENDBRANCH   9  10
ENDBRANCH   8   9
ENDBRANCH   7   8
ENDBRANCH   6   7
ENDBRANCH   5   6
ENDBRANCH   4   5
ENDBRANCH   3   4
ENDBRANCH   2   3
ENDBRANCH   1   2
BRANCH   1  15
ATOM     15  C   UNL     1     103.217 105.761 226.929  1.00  0.00     0.000 C 
BRANCH  15  16
ATOM     16  C   UNL     1     104.393 104.772 226.833  1.00  0.00     0.000 C 
BRANCH  16  17
ATOM     17  C   UNL     1     105.462 105.005 227.914  1.00  0.00     0.000 C 
BRANCH  17  18
ATOM     18  C   UNL     1     104.877 105.574 229.221  1.00  0.00    -0.000 C 
BRANCH  18  19
ATOM     19  C   UNL     1     105.772 106.594 229.951  1.00  0.00    -0.000 C 
BRANCH  19  20
ATOM     20  C   UNL     1     105.029 107.890 230.313  1.00  0.00    -0.000 C 
BRANCH  20  21
ATOM     21  C   UNL     1     103.510 107.785 230.099  1.00  0.00    -0.000 C 
BRANCH  21  22
ATOM     22  C   UNL     1     102.699 107.762 231.412  1.00  0.00    -0.000 C 
BRANCH  22  23
ATOM     23  C   UNL     1     102.155 106.361 231.731  1.00  0.00    -0.000 C 
BRANCH  23  24
ATOM     24  C   UNL     1     103.228 105.492 232.405  1.00  0.00    -0.000 C 
BRANCH  24  25
ATOM     25  C   UNL     1     103.918 106.206 233.578  1.00  0.00    -0.003 C 
ATOM     26  C   UNL     1     105.425 105.953 233.625  1.00  0.00     0.004 C 
ENDBRANCH  24  25
ENDBRANCH  23  24
ENDBRANCH  22  23
ENDBRANCH  21  22
ENDBRANCH  20  21
ENDBRANCH  19  20
ENDBRANCH  18  19
ENDBRANCH  17  18
ENDBRANCH  16  17
ENDBRANCH  15  16
ENDBRANCH   1  15
TORSDOF 22
ENDMDL
MODEL 5
REMARK VINA RESULT:    -6.032      2.412      6.356
REMARK INTER + INTRA:         -17.140
REMARK INTER:                 -13.281
REMARK INTRA:                  -3.859
REMARK UNBOUND:                -3.350
REMARK SMILES CCCCCCCCCCCCCCCCCCCCCCCC(=O)[O-]
REMARK SMILES IDX 13 1 14 2 15 3 16 4 17 5 18 6 19 7 20 8 21 9 22 10 23 11
REMARK SMILES IDX 24 12 25 13 26 14 12 15 11 16 10 17 9 18 8 19 7 20 6 21 5 22
REMARK SMILES IDX 4 23 3 24 2 25 1 26
REMARK H PARENT
REMARK Flexibility Score: inf
ROOT
ATOM      1  C   UNL     1     102.199 107.534 231.451  1.00  0.00     0.000 C 
ENDROOT
BRANCH   1   2
ATOM      2  C   UNL     1     102.266 106.133 232.084  1.00  0.00     0.000 C 
BRANCH   2   3
ATOM      3  C   UNL     1     102.358 106.172 233.617  1.00  0.00     0.000 C 
BRANCH   3   4
ATOM      4  C   UNL     1     103.789 105.944 234.136  1.00  0.00     0.000 C 
BRANCH   4   5
ATOM      5  C   UNL     1     104.826 105.549 233.064  1.00  0.00     0.000 C 
BRANCH   5   6
ATOM      6  C   UNL     1     106.294 105.587 233.524  1.00  0.00     0.000 C 
BRANCH   6   7
ATOM      7  C   UNL     1     107.192 104.620 232.733  1.00  0.00     0.000 C 
BRANCH   7   8
ATOM      8  C   UNL     1     106.431 103.388 232.217  1.00  0.00     0.000 C 
BRANCH   8   9
ATOM      9  C   UNL     1     107.093 102.750 230.986  1.00  0.00     0.000 C 
BRANCH   9  10
ATOM     10  C   UNL     1     108.302 103.571 230.524  1.00  0.00     0.006 C 
BRANCH  10  11
ATOM     11  C   UNL     1     108.983 102.915 229.318  1.00  0.00     0.053 C 
BRANCH  11  12
ATOM     12  C   UNL     1     110.465 103.114 229.378  1.00  0.00     0.041 C 
ATOM     13  O   UNL     1     111.176 102.884 228.364  1.00  0.00    -0.550 OA
ATOM     14  O   UNL     1     111.056 103.594 230.540  1.00  0.00    -0.550 OA
ENDBRANCH  11  12
ENDBRANCH  10  11
ENDBRANCH   9  10
ENDBRANCH   8   9
ENDBRANCH   7   8
ENDBRANCH   6   7
ENDBRANCH   5   6
ENDBRANCH   4   5
ENDBRANCH   3   4
ENDBRANCH   2   3
ENDBRANCH   1   2
BRANCH   1  15
ATOM     15  C   UNL     1     103.230 107.806 230.337  1.00  0.00     0.000 C 
BRANCH  15  16
ATOM     16  C   UNL     1     104.644 108.180 230.820  1.00  0.00     0.000 C 
BRANCH  16  17
ATOM     17  C   UNL     1     105.750 107.381 230.109  1.00  0.00     0.000 C 
BRANCH  17  18
ATOM     18  C   UNL     1     105.308 106.837 228.736  1.00  0.00    -0.000 C 
BRANCH  18  19
ATOM     19  C   UNL     1     105.459 105.315 228.555  1.00  0.00    -0.000 C 
BRANCH  19  20
ATOM     20  C   UNL     1     104.727 104.786 227.311  1.00  0.00    -0.000 C 
BRANCH  20  21
ATOM     21  C   UNL     1     103.453 105.583 226.985  1.00  0.00    -0.000 C 
BRANCH  21  22
ATOM     22  C   UNL     1     102.148 104.812 227.278  1.00  0.00    -0.000 C 
BRANCH  22  23
ATOM     23  C   UNL     1     101.800 104.815 228.775  1.00  0.00    -0.000 C 
BRANCH  23  24
ATOM     24  C   UNL     1     101.085 103.516 229.178  1.00  0.00    -0.000 C 
BRANCH  24  25
ATOM     25  C   UNL     1     101.782 102.792 230.340  1.00  0.00    -0.003 C 
ATOM     26  C   UNL     1     103.302 102.738 230.183  1.00  0.00     0.004 C 
ENDBRANCH  24  25
ENDBRANCH  23  24
ENDBRANCH  22  23
ENDBRANCH  21  22
ENDBRANCH  20  21
ENDBRANCH  19  20
ENDBRANCH  18  19
ENDBRANCH  17  18
ENDBRANCH  16  17
ENDBRANCH  15  16
ENDBRANCH   1  15
TORSDOF 22
ENDMDL
MODEL 6
REMARK VINA RESULT:    -6.006      2.687      6.041
REMARK INTER + INTRA:         -17.079
REMARK INTER:                 -13.422
REMARK INTRA:                  -3.658
REMARK UNBOUND:                -3.350
REMARK SMILES CCCCCCCCCCCCCCCCCCCCCCCC(=O)[O-]
REMARK SMILES IDX 13 1 14 2 15 3 16 4 17 5 18 6 19 7 20 8 21 9 22 10 23 11
REMARK SMILES IDX 24 12 25 13 26 14 12 15 11 16 10 17 9 18 8 19 7 20 6 21 5 22
REMARK SMILES IDX 4 23 3 24 2 25 1 26
REMARK H PARENT
REMARK Flexibility Score: inf
ROOT
ATOM      1  C   UNL     1     102.049 103.853 229.591  1.00  0.00     0.000 C 
ENDROOT
BRANCH   1   2
ATOM      2  C   UNL     1     101.174 104.066 228.343  1.00  0.00     0.000 C 
BRANCH   2   3
ATOM      3  C   UNL     1     101.605 105.284 227.511  1.00  0.00     0.000 C 
BRANCH   3   4
ATOM      4  C   UNL     1     103.039 105.158 226.967  1.00  0.00     0.000 C 
BRANCH   4   5
ATOM      5  C   UNL     1     104.113 105.947 227.746  1.00  0.00     0.000 C 
BRANCH   5   6
ATOM      6  C   UNL     1     105.379 105.150 228.109  1.00  0.00     0.000 C 
BRANCH   6   7
ATOM      7  C   UNL     1     105.815 104.182 226.996  1.00  0.00     0.000 C 
BRANCH   7   8
ATOM      8  C   UNL     1     107.255 103.678 227.176  1.00  0.00     0.000 C 
BRANCH   8   9
ATOM      9  C   UNL     1     107.640 103.484 228.651  1.00  0.00     0.000 C 
BRANCH   9  10
ATOM     10  C   UNL     1     109.135 103.175 228.794  1.00  0.00     0.006 C 
BRANCH  10  11
ATOM     11  C   UNL     1     109.631 103.500 230.207  1.00  0.00     0.053 C 
BRANCH  11  12
ATOM     12  C   UNL     1     111.043 103.991 230.169  1.00  0.00     0.041 C 
ATOM     13  O   UNL     1     111.471 104.762 231.069  1.00  0.00    -0.550 OA
ATOM     14  O   UNL     1     111.902 103.563 229.163  1.00  0.00    -0.550 OA
ENDBRANCH  11  12
ENDBRANCH  10  11
ENDBRANCH   9  10
ENDBRANCH   8   9
ENDBRANCH   7   8
ENDBRANCH   6   7
ENDBRANCH   5   6
ENDBRANCH   4   5
ENDBRANCH   3   4
ENDBRANCH   2   3
ENDBRANCH   1   2
BRANCH   1  15
ATOM     15  C   UNL     1     101.791 102.543 230.363  1.00  0.00     0.000 C 
BRANCH  15  16
ATOM     16  C   UNL     1     103.007 101.963 231.109  1.00  0.00     0.000 C 
BRANCH  16  17
ATOM     17  C   UNL     1     104.305 102.741 230.833  1.00  0.00     0.000 C 
BRANCH  17  18
ATOM     18  C   UNL     1     105.561 102.010 231.345  1.00  0.00    -0.000 C 
BRANCH  18  19
ATOM     19  C   UNL     1     106.519 102.868 232.193  1.00  0.00    -0.000 C 
BRANCH  19  20
ATOM     20  C   UNL     1     106.296 104.378 232.002  1.00  0.00    -0.000 C 
BRANCH  20  21
ATOM     21  C   UNL     1     106.334 105.157 233.328  1.00  0.00    -0.000 C 
BRANCH  21  22
ATOM     22  C   UNL     1     105.371 106.363 233.365  1.00  0.00    -0.000 C 
BRANCH  22  23
ATOM     23  C   UNL     1     103.927 105.939 233.677  1.00  0.00    -0.000 C 
BRANCH  23  24
ATOM     24  C   UNL     1     103.063 105.946 232.406  1.00  0.00    -0.000 C 
BRANCH  24  25
ATOM     25  C   UNL     1     103.671 106.798 231.281  1.00  0.00    -0.003 C 
ATOM     26  C   UNL     1     102.673 107.783 230.673  1.00  0.00     0.004 C 
ENDBRANCH  24  25
ENDBRANCH  23  24
ENDBRANCH  22  23
ENDBRANCH  21  22
ENDBRANCH  20  21
ENDBRANCH  19  20
ENDBRANCH  18  19
ENDBRANCH  17  18
ENDBRANCH  16  17
ENDBRANCH  15  16
ENDBRANCH   1  15
TORSDOF 22
ENDMDL
MODEL 7
REMARK VINA RESULT:    -6.004      2.653      6.175
REMARK INTER + INTRA:         -17.075
REMARK INTER:                 -13.243
REMARK INTRA:                  -3.832
REMARK UNBOUND:                -3.350
REMARK SMILES CCCCCCCCCCCCCCCCCCCCCCCC(=O)[O-]
REMARK SMILES IDX 13 1 14 2 15 3 16 4 17 5 18 6 19 7 20 8 21 9 22 10 23 11
REMARK SMILES IDX 24 12 25 13 26 14 12 15 11 16 10 17 9 18 8 19 7 20 6 21 5 22
REMARK SMILES IDX 4 23 3 24 2 25 1 26
REMARK H PARENT
REMARK Flexibility Score: inf
ROOT
ATOM      1  C   UNL     1     101.619 104.409 229.630  1.00  0.00     0.000 C 
ENDROOT
BRANCH   1   2
ATOM      2  C   UNL     1     100.912 103.228 230.319  1.00  0.00     0.000 C 
BRANCH   2   3
ATOM      3  C   UNL     1     101.883 102.117 230.748  1.00  0.00     0.000 C 
BRANCH   3   4
ATOM      4  C   UNL     1     103.338 102.607 230.864  1.00  0.00     0.000 C 
BRANCH   4   5
ATOM      5  C   UNL     1     104.391 101.725 230.163  1.00  0.00     0.000 C 
BRANCH   5   6
ATOM      6  C   UNL     1     105.718 101.555 230.924  1.00  0.00     0.000 C 
BRANCH   6   7
ATOM      7  C   UNL     1     106.067 102.776 231.793  1.00  0.00     0.000 C 
BRANCH   7   8
ATOM      8  C   UNL     1     107.427 103.394 231.430  1.00  0.00     0.000 C 
BRANCH   8   9
ATOM      9  C   UNL     1     107.808 103.177 229.957  1.00  0.00     0.000 C 
BRANCH   9  10
ATOM     10  C   UNL     1     109.181 102.504 229.838  1.00  0.00     0.006 C 
BRANCH  10  11
ATOM     11  C   UNL     1     110.301 103.463 230.255  1.00  0.00     0.053 C 
BRANCH  11  12
ATOM     12  C   UNL     1     111.290 103.630 229.146  1.00  0.00     0.041 C 
ATOM     13  O   UNL     1     112.471 103.991 229.399  1.00  0.00    -0.550 OA
ATOM     14  O   UNL     1     110.922 103.347 227.836  1.00  0.00    -0.550 OA
ENDBRANCH  11  12
ENDBRANCH  10  11
ENDBRANCH   9  10
ENDBRANCH   8   9
ENDBRANCH   7   8
ENDBRANCH   6   7
ENDBRANCH   5   6
ENDBRANCH   4   5
ENDBRANCH   3   4
ENDBRANCH   2   3
ENDBRANCH   1   2
BRANCH   1  15
ATOM     15  C   UNL     1     101.362 105.792 230.262  1.00  0.00     0.000 C 
BRANCH  15  16
ATOM     16  C   UNL     1     100.753 105.771 231.676  1.00  0.00     0.000 C 
BRANCH  16  17
ATOM     17  C   UNL     1     101.510 106.672 232.667  1.00  0.00     0.000 C 
BRANCH  17  18
ATOM     18  C   UNL     1     102.258 105.873 233.751  1.00  0.00    -0.000 C 
BRANCH  18  19
ATOM     19  C   UNL     1     103.762 106.182 233.873  1.00  0.00    -0.000 C 
BRANCH  19  20
ATOM     20  C   UNL     1     104.578 105.662 232.678  1.00  0.00    -0.000 C 
BRANCH  20  21
ATOM     21  C   UNL     1     104.963 106.776 231.689  1.00  0.00    -0.000 C 
BRANCH  21  22
ATOM     22  C   UNL     1     105.416 106.250 230.310  1.00  0.00    -0.000 C 
BRANCH  22  23
ATOM     23  C   UNL     1     104.867 107.106 229.158  1.00  0.00    -0.000 C 
BRANCH  23  24
ATOM     24  C   UNL     1     104.378 106.223 227.999  1.00  0.00    -0.000 C 
BRANCH  24  25
ATOM     25  C   UNL     1     104.886 104.777 228.100  1.00  0.00    -0.003 C 
ATOM     26  C   UNL     1     105.807 104.387 226.944  1.00  0.00     0.004 C 
ENDBRANCH  24  25
ENDBRANCH  23  24
ENDBRANCH  22  23
ENDBRANCH  21  22
ENDBRANCH  20  21
ENDBRANCH  19  20
ENDBRANCH  18  19
ENDBRANCH  17  18
ENDBRANCH  16  17
ENDBRANCH  15  16
ENDBRANCH   1  15
TORSDOF 22
ENDMDL
MODEL 8
REMARK VINA RESULT:    -5.947      2.618      7.073
REMARK INTER + INTRA:         -16.945
REMARK INTER:                 -13.376
REMARK INTRA:                  -3.569
REMARK UNBOUND:                -3.350
REMARK SMILES CCCCCCCCCCCCCCCCCCCCCCCC(=O)[O-]
REMARK SMILES IDX 13 1 14 2 15 3 16 4 17 5 18 6 19 7 20 8 21 9 22 10 23 11
REMARK SMILES IDX 24 12 25 13 26 14 12 15 11 16 10 17 9 18 8 19 7 20 6 21 5 22
REMARK SMILES IDX 4 23 3 24 2 25 1 26
REMARK H PARENT
REMARK Flexibility Score: inf
ROOT
ATOM      1  C   UNL     1     101.258 104.593 229.932  1.00  0.00     0.000 C 
ENDROOT
BRANCH   1   2
ATOM      2  C   UNL     1     101.497 103.127 229.528  1.00  0.00     0.000 C 
BRANCH   2   3
ATOM      3  C   UNL     1     101.743 102.206 230.734  1.00  0.00     0.000 C 
BRANCH   3   4
ATOM      4  C   UNL     1     103.037 102.550 231.493  1.00  0.00     0.000 C 
BRANCH   4   5
ATOM      5  C   UNL     1     104.254 102.887 230.607  1.00  0.00     0.000 C 
BRANCH   5   6
ATOM      6  C   UNL     1     105.598 102.315 231.092  1.00  0.00     0.000 C 
BRANCH   6   7
ATOM      7  C   UNL     1     106.585 103.408 231.537  1.00  0.00     0.000 C 
BRANCH   7   8
ATOM      8  C   UNL     1     107.202 104.170 230.353  1.00  0.00     0.000 C 
BRANCH   8   9
ATOM      9  C   UNL     1     107.736 103.237 229.255  1.00  0.00     0.000 C 
BRANCH   9  10
ATOM     10  C   UNL     1     109.043 102.564 229.693  1.00  0.00     0.006 C 
BRANCH  10  11
ATOM     11  C   UNL     1     110.113 103.609 230.027  1.00  0.00     0.053 C 
BRANCH  11  12
ATOM     12  C   UNL     1     111.365 103.346 229.252  1.00  0.00     0.041 C 
ATOM     13  O   UNL     1     111.351 102.548 228.277  1.00  0.00    -0.550 OA
ATOM     14  O   UNL     1     112.539 104.013 229.579  1.00  0.00    -0.550 OA
ENDBRANCH  11  12
ENDBRANCH  10  11
ENDBRANCH   9  10
ENDBRANCH   8   9
ENDBRANCH   7   8
ENDBRANCH   6   7
ENDBRANCH   5   6
ENDBRANCH   4   5
ENDBRANCH   3   4
ENDBRANCH   2   3
ENDBRANCH   1   2
BRANCH   1  15
ATOM     15  C   UNL     1     101.824 105.646 228.957  1.00  0.00     0.000 C 
BRANCH  15  16
ATOM     16  C   UNL     1     102.203 105.120 227.561  1.00  0.00     0.000 C 
BRANCH  16  17
ATOM     17  C   UNL     1     103.630 105.512 227.140  1.00  0.00     0.000 C 
BRANCH  17  18
ATOM     18  C   UNL     1     104.522 105.897 228.336  1.00  0.00    -0.000 C 
BRANCH  18  19
ATOM     19  C   UNL     1     104.993 107.363 228.358  1.00  0.00    -0.000 C 
BRANCH  19  20
ATOM     20  C   UNL     1     104.794 108.035 229.726  1.00  0.00    -0.000 C 
BRANCH  20  21
ATOM     21  C   UNL     1     105.067 107.083 230.902  1.00  0.00    -0.000 C 
BRANCH  21  22
ATOM     22  C   UNL     1     103.856 106.894 231.841  1.00  0.00    -0.000 C 
BRANCH  22  23
ATOM     23  C   UNL     1     104.187 105.987 233.036  1.00  0.00    -0.000 C 
BRANCH  23  24
ATOM     24  C   UNL     1     103.027 105.954 234.042  1.00  0.00    -0.000 C 
BRANCH  24  25
ATOM     25  C   UNL     1     101.650 105.937 233.359  1.00  0.00    -0.003 C 
ATOM     26  C   UNL     1     100.702 107.006 233.904  1.00  0.00     0.004 C 
ENDBRANCH  24  25
ENDBRANCH  23  24
ENDBRANCH  22  23
ENDBRANCH  21  22
ENDBRANCH  20  21
ENDBRANCH  19  20
ENDBRANCH  18  19
ENDBRANCH  17  18
ENDBRANCH  16  17
ENDBRANCH  15  16
ENDBRANCH   1  15
TORSDOF 22
ENDMDL
MODEL 9
REMARK VINA RESULT:    -5.939      1.871      3.720
REMARK INTER + INTRA:         -16.927
REMARK INTER:                 -13.384
REMARK INTRA:                  -3.544
REMARK UNBOUND:                -3.350
REMARK SMILES CCCCCCCCCCCCCCCCCCCCCCCC(=O)[O-]
REMARK SMILES IDX 13 1 14 2 15 3 16 4 17 5 18 6 19 7 20 8 21 9 22 10 23 11
REMARK SMILES IDX 24 12 25 13 26 14 12 15 11 16 10 17 9 18 8 19 7 20 6 21 5 22
REMARK SMILES IDX 4 23 3 24 2 25 1 26
REMARK H PARENT
REMARK Flexibility Score: inf
ROOT
ATOM      1  C   UNL     1     101.388 103.636 228.870  1.00  0.00     0.000 C 
ENDROOT
BRANCH   1   2
ATOM      2  C   UNL     1     101.926 105.058 228.632  1.00  0.00     0.000 C 
BRANCH   2   3
ATOM      3  C   UNL     1     103.115 105.092 227.658  1.00  0.00     0.000 C 
BRANCH   3   4
ATOM      4  C   UNL     1     104.464 104.838 228.354  1.00  0.00     0.000 C 
BRANCH   4   5
ATOM      5  C   UNL     1     105.386 106.069 228.479  1.00  0.00     0.000 C 
BRANCH   5   6
ATOM      6  C   UNL     1     104.664 107.423 228.592  1.00  0.00     0.000 C 
BRANCH   6   7
ATOM      7  C   UNL     1     104.543 107.916 230.044  1.00  0.00     0.000 C 
BRANCH   7   8
ATOM      8  C   UNL     1     105.423 107.117 231.019  1.00  0.00     0.000 C 
BRANCH   8   9
ATOM      9  C   UNL     1     104.646 106.603 232.241  1.00  0.00     0.000 C 
BRANCH   9  10
ATOM     10  C   UNL     1     103.257 106.096 231.837  1.00  0.00     0.006 C 
BRANCH  10  11
ATOM     11  C   UNL     1     102.434 105.706 233.069  1.00  0.00     0.053 C 
BRANCH  11  12
ATOM     12  C   UNL     1     101.058 106.287 232.988  1.00  0.00     0.041 C 
ATOM     13  O   UNL     1     100.348 106.094 231.966  1.00  0.00    -0.550 OA
ATOM     14  O   UNL     1     100.543 107.007 234.059  1.00  0.00    -0.550 OA
ENDBRANCH  11  12
ENDBRANCH  10  11
ENDBRANCH   9  10
ENDBRANCH   8   9
ENDBRANCH   7   8
ENDBRANCH   6   7
ENDBRANCH   5   6
ENDBRANCH   4   5
ENDBRANCH   3   4
ENDBRANCH   2   3
ENDBRANCH   1   2
BRANCH   1  15
ATOM     15  C   UNL     1     101.342 103.187 230.346  1.00  0.00     0.000 C 
BRANCH  15  16
ATOM     16  C   UNL     1     102.350 102.090 230.736  1.00  0.00     0.000 C 
BRANCH  16  17
ATOM     17  C   UNL     1     103.809 102.577 230.701  1.00  0.00     0.000 C 
BRANCH  17  18
ATOM     18  C   UNL     1     104.827 101.422 230.747  1.00  0.00    -0.000 C 
BRANCH  18  19
ATOM     19  C   UNL     1     106.266 101.831 231.115  1.00  0.00    -0.000 C 
BRANCH  19  20
ATOM     20  C   UNL     1     106.420 103.346 231.331  1.00  0.00    -0.000 C 
BRANCH  20  21
ATOM     21  C   UNL     1     107.717 103.906 230.724  1.00  0.00    -0.000 C 
BRANCH  21  22
ATOM     22  C   UNL     1     108.210 103.122 229.489  1.00  0.00    -0.000 C 
BRANCH  22  23
ATOM     23  C   UNL     1     109.514 102.360 229.773  1.00  0.00    -0.000 C 
BRANCH  23  24
ATOM     24  C   UNL     1     110.599 102.719 228.745  1.00  0.00    -0.000 C 
BRANCH  24  25
ATOM     25  C   UNL     1     111.538 103.832 229.238  1.00  0.00    -0.003 C 
ATOM     26  C   UNL     1     111.685 103.855 230.759  1.00  0.00     0.004 C 
ENDBRANCH  24  25
ENDBRANCH  23  24
ENDBRANCH  22  23
ENDBRANCH  21  22
ENDBRANCH  20  21
ENDBRANCH  19  20
ENDBRANCH  18  19
ENDBRANCH  17  18
ENDBRANCH  16  17
ENDBRANCH  15  16
ENDBRANCH   1  15
TORSDOF 22
ENDMDL
