MODEL 1
REMARK VINA RESULT:     5.246      0.000      0.000
REMARK INTER + INTRA:           8.161
REMARK INTER:                   8.927
REMARK INTRA:                  -0.765
REMARK UNBOUND:                -0.765
REMARK SMILES CCCCCCCCCCCCCC(=O)[O-]
REMARK SMILES IDX 8 1 9 2 10 3 11 4 12 5 13 6 14 7 15 8 16 9 7 10 6 11 5 12
REMARK SMILES IDX 4 13 3 14 2 15 1 16
REMARK H PARENT
REMARK Flexibility Score: inf
ROOT
ATOM      1  C   UNL     1      34.550  15.970  43.683  1.00  0.00     0.000 C 
ENDROOT
BRANCH   1   2
ATOM      2  C   UNL     1      35.865  15.230  43.975  1.00  0.00     0.000 C 
BRANCH   2   3
ATOM      3  C   UNL     1      36.015  13.939  43.154  1.00  0.00     0.000 C 
BRANCH   3   4
ATOM      4  C   UNL     1      34.747  13.586  42.358  1.00  0.00     0.000 C 
BRANCH   4   5
ATOM      5  C   UNL     1      35.015  12.670  41.145  1.00  0.00     0.006 C 
BRANCH   5   6
ATOM      6  C   UNL     1      33.728  12.325  40.383  1.00  0.00     0.053 C 
BRANCH   6   7
ATOM      7  C   UNL     1      33.172  11.020  40.859  1.00  0.00     0.041 C 
ATOM      8  O   UNL     1      32.507  10.966  41.927  1.00  0.00    -0.550 OA
ATOM      9  O   UNL     1      33.433   9.855  40.150  1.00  0.00    -0.550 OA
ENDBRANCH   6   7
ENDBRANCH   5   6
ENDBRANCH   4   5
ENDBRANCH   3   4
ENDBRANCH   2   3
ENDBRANCH   1   2
BRANCH   1  10
ATOM     10  C   UNL     1      34.775  17.327  42.999  1.00  0.00     0.000 C 
BRANCH  10  11
ATOM     11  C   UNL     1      33.686  17.601  41.952  1.00  0.00    -0.000 C 
BRANCH  11  12
ATOM     12  C   UNL     1      34.060  17.072  40.557  1.00  0.00    -0.000 C 
BRANCH  12  13
ATOM     13  C   UNL     1      33.843  18.115  39.450  1.00  0.00    -0.000 C 
BRANCH  13  14
ATOM     14  C   UNL     1      32.353  18.438  39.287  1.00  0.00    -0.000 C 
BRANCH  14  15
ATOM     15  C   UNL     1      31.944  18.419  37.810  1.00  0.00    -0.003 C 
ATOM     16  C   UNL     1      31.093  19.636  37.456  1.00  0.00     0.004 C 
ENDBRANCH  14  15
ENDBRANCH  13  14
ENDBRANCH  12  13
ENDBRANCH  11  12
ENDBRANCH  10  11
ENDBRANCH   1  10
TORSDOF 12
ENDMDL
MODEL 2
REMARK VINA RESULT:     5.584      3.259      6.401
REMARK INTER + INTRA:           8.735
REMARK INTER:                   9.514
REMARK INTRA:                  -0.779
REMARK UNBOUND:                -0.765
REMARK SMILES CCCCCCCCCCCCCC(=O)[O-]
REMARK SMILES IDX 8 1 9 2 10 3 11 4 12 5 13 6 14 7 15 8 16 9 7 10 6 11 5 12
REMARK SMILES IDX 4 13 3 14 2 15 1 16
REMARK H PARENT
REMARK Flexibility Score: inf
ROOT
ATOM      1  C   UNL     1      34.427  15.892  43.501  1.00  0.00     0.000 C 
ENDROOT
BRANCH   1   2
ATOM      2  C   UNL     1      34.691  17.281  42.899  1.00  0.00     0.000 C 
BRANCH   2   3
ATOM      3  C   UNL     1      33.669  17.662  41.816  1.00  0.00     0.000 C 
BRANCH   3   4
ATOM      4  C   UNL     1      34.012  17.078  40.436  1.00  0.00     0.000 C 
BRANCH   4   5
ATOM      5  C   UNL     1      33.695  18.031  39.265  1.00  0.00     0.006 C 
BRANCH   5   6
ATOM      6  C   UNL     1      32.253  18.554  39.315  1.00  0.00     0.053 C 
BRANCH   6   7
ATOM      7  C   UNL     1      31.702  18.704  37.933  1.00  0.00     0.041 C 
ATOM      8  O   UNL     1      31.192  19.797  37.568  1.00  0.00    -0.550 OA
ATOM      9  O   UNL     1      31.706  17.622  37.062  1.00  0.00    -0.550 OA
ENDBRANCH   6   7
ENDBRANCH   5   6
ENDBRANCH   4   5
ENDBRANCH   3   4
ENDBRANCH   2   3
ENDBRANCH   1   2
BRANCH   1  10
ATOM     10  C   UNL     1      35.718  15.174  43.922  1.00  0.00     0.000 C 
BRANCH  10  11
ATOM     11  C   UNL     1      35.953  13.922  43.065  1.00  0.00    -0.000 C 
BRANCH  11  12
ATOM     12  C   UNL     1      34.656  13.377  42.444  1.00  0.00    -0.000 C 
BRANCH  12  13
ATOM     13  C   UNL     1      34.867  12.816  41.029  1.00  0.00    -0.000 C 
BRANCH  13  14
ATOM     14  C   UNL     1      33.552  12.280  40.452  1.00  0.00    -0.000 C 
BRANCH  14  15
ATOM     15  C   UNL     1      33.162  10.953  41.112  1.00  0.00    -0.003 C 
ATOM     16  C   UNL     1      33.351   9.781  40.151  1.00  0.00     0.004 C 
ENDBRANCH  14  15
ENDBRANCH  13  14
ENDBRANCH  12  13
ENDBRANCH  11  12
ENDBRANCH  10  11
ENDBRANCH   1  10
TORSDOF 12
ENDMDL
MODEL 3
REMARK VINA RESULT:     7.254      1.287      2.529
REMARK INTER + INTRA:          11.577
REMARK INTER:                  12.342
REMARK INTRA:                  -0.765
REMARK UNBOUND:                -0.765
REMARK SMILES CCCCCCCCCCCCCC(=O)[O-]
REMARK SMILES IDX 8 1 9 2 10 3 11 4 12 5 13 6 14 7 15 8 16 9 7 10 6 11 5 12
REMARK SMILES IDX 4 13 3 14 2 15 1 16
REMARK H PARENT
REMARK Flexibility Score: inf
ROOT
ATOM      1  C   UNL     1      35.893  14.050  42.931  1.00  0.00     0.000 C 
ENDROOT
BRANCH   1   2
ATOM      2  C   UNL     1      34.929  13.007  42.346  1.00  0.00     0.000 C 
BRANCH   2   3
ATOM      3  C   UNL     1      34.768  13.136  40.822  1.00  0.00     0.000 C 
BRANCH   3   4
ATOM      4  C   UNL     1      33.467  12.504  40.303  1.00  0.00     0.000 C 
BRANCH   4   5
ATOM      5  C   UNL     1      33.057  11.222  41.059  1.00  0.00     0.006 C 
BRANCH   5   6
ATOM      6  C   UNL     1      32.823  10.038  40.111  1.00  0.00     0.053 C 
BRANCH   6   7
ATOM      7  C   UNL     1      34.038   9.168  40.051  1.00  0.00     0.041 C 
ATOM      8  O   UNL     1      33.923   7.914  40.100  1.00  0.00    -0.550 OA
ATOM      9  O   UNL     1      35.301   9.741  39.992  1.00  0.00    -0.550 OA
ENDBRANCH   6   7
ENDBRANCH   5   6
ENDBRANCH   4   5
ENDBRANCH   3   4
ENDBRANCH   2   3
ENDBRANCH   1   2
BRANCH   1  10
ATOM     10  C   UNL     1      35.227  14.945  43.986  1.00  0.00     0.000 C 
BRANCH  10  11
ATOM     11  C   UNL     1      35.129  16.396  43.492  1.00  0.00    -0.000 C 
BRANCH  11  12
ATOM     12  C   UNL     1      33.783  16.701  42.814  1.00  0.00    -0.000 C 
BRANCH  12  13
ATOM     13  C   UNL     1      33.886  17.824  41.771  1.00  0.00    -0.000 C 
BRANCH  13  14
ATOM     14  C   UNL     1      33.742  17.266  40.350  1.00  0.00    -0.000 C 
BRANCH  14  15
ATOM     15  C   UNL     1      33.709  18.398  39.316  1.00  0.00    -0.003 C 
ATOM     16  C   UNL     1      32.490  18.277  38.405  1.00  0.00     0.004 C 
ENDBRANCH  14  15
ENDBRANCH  13  14
ENDBRANCH  12  13
ENDBRANCH  11  12
ENDBRANCH  10  11
ENDBRANCH   1  10
TORSDOF 12
ENDMDL
MODEL 4
REMARK VINA RESULT:     7.597      3.964      6.503
REMARK INTER + INTRA:          12.160
REMARK INTER:                  12.723
REMARK INTRA:                  -0.562
REMARK UNBOUND:                -0.765
REMARK SMILES CCCCCCCCCCCCCC(=O)[O-]
REMARK SMILES IDX 8 1 9 2 10 3 11 4 12 5 13 6 14 7 15 8 16 9 7 10 6 11 5 12
REMARK SMILES IDX 4 13 3 14 2 15 1 16
REMARK H PARENT
REMARK Flexibility Score: inf
ROOT
ATOM      1  C   UNL     1      33.341  10.976  41.218  1.00  0.00     0.000 C 
ENDROOT
BRANCH   1   2
ATOM      2  C   UNL     1      33.538   9.720  40.354  1.00  0.00     0.000 C 
BRANCH   2   3
ATOM      3  C   UNL     1      32.219   9.191  39.767  1.00  0.00     0.000 C 
BRANCH   3   4
ATOM      4  C   UNL     1      31.138   8.961  40.835  1.00  0.00     0.000 C 
BRANCH   4   5
ATOM      5  C   UNL     1      30.263   7.718  40.571  1.00  0.00     0.006 C 
BRANCH   5   6
ATOM      6  C   UNL     1      29.295   7.432  41.727  1.00  0.00     0.053 C 
BRANCH   6   7
ATOM      7  C   UNL     1      29.319   5.980  42.084  1.00  0.00     0.041 C 
ATOM      8  O   UNL     1      30.417   5.380  42.228  1.00  0.00    -0.550 OA
ATOM      9  O   UNL     1      28.128   5.275  42.207  1.00  0.00    -0.550 OA
ENDBRANCH   6   7
ENDBRANCH   5   6
ENDBRANCH   4   5
ENDBRANCH   3   4
ENDBRANCH   2   3
ENDBRANCH   1   2
BRANCH   1  10
ATOM     10  C   UNL     1      33.188  12.252  40.377  1.00  0.00     0.000 C 
BRANCH  10  11
ATOM     11  C   UNL     1      34.523  13.004  40.273  1.00  0.00    -0.000 C 
BRANCH  11  12
ATOM     12  C   UNL     1      35.384  12.860  41.539  1.00  0.00    -0.000 C 
BRANCH  12  13
ATOM     13  C   UNL     1      34.956  13.822  42.659  1.00  0.00    -0.000 C 
BRANCH  13  14
ATOM     14  C   UNL     1      36.165  14.265  43.492  1.00  0.00    -0.000 C 
BRANCH  14  15
ATOM     15  C   UNL     1      36.006  15.714  43.963  1.00  0.00    -0.003 C 
ATOM     16  C   UNL     1      34.554  16.173  43.857  1.00  0.00     0.004 C 
ENDBRANCH  14  15
ENDBRANCH  13  14
ENDBRANCH  12  13
ENDBRANCH  11  12
ENDBRANCH  10  11
ENDBRANCH   1  10
TORSDOF 12
ENDMDL
MODEL 5
REMARK VINA RESULT:     7.883      3.288      6.372
REMARK INTER + INTRA:          12.647
REMARK INTER:                  13.567
REMARK INTRA:                  -0.920
REMARK UNBOUND:                -0.765
REMARK SMILES CCCCCCCCCCCCCC(=O)[O-]
REMARK SMILES IDX 8 1 9 2 10 3 11 4 12 5 13 6 14 7 15 8 16 9 7 10 6 11 5 12
REMARK SMILES IDX 4 13 3 14 2 15 1 16
REMARK H PARENT
REMARK Flexibility Score: inf
ROOT
ATOM      1  C   UNL     1      36.151  14.362  43.539  1.00  0.00     0.000 C 
ENDROOT
BRANCH   1   2
ATOM      2  C   UNL     1      35.279  15.437  44.207  1.00  0.00     0.000 C 
BRANCH   2   3
ATOM      3  C   UNL     1      35.111  16.690  43.333  1.00  0.00     0.000 C 
BRANCH   3   4
ATOM      4  C   UNL     1      33.638  17.026  43.047  1.00  0.00     0.000 C 
BRANCH   4   5
ATOM      5  C   UNL     1      33.440  17.945  41.822  1.00  0.00     0.006 C 
BRANCH   5   6
ATOM      6  C   UNL     1      33.714  17.217  40.499  1.00  0.00     0.053 C 
BRANCH   6   7
ATOM      7  C   UNL     1      33.884  18.201  39.386  1.00  0.00     0.041 C 
ATOM      8  O   UNL     1      34.988  18.783  39.217  1.00  0.00    -0.550 OA
ATOM      9  O   UNL     1      32.808  18.513  38.565  1.00  0.00    -0.550 OA
ENDBRANCH   6   7
ENDBRANCH   5   6
ENDBRANCH   4   5
ENDBRANCH   3   4
ENDBRANCH   2   3
ENDBRANCH   1   2
BRANCH   1  10
ATOM     10  C   UNL     1      35.319  13.238  42.903  1.00  0.00     0.000 C 
BRANCH  10  11
ATOM     11  C   UNL     1      35.484  13.230  41.376  1.00  0.00    -0.000 C 
BRANCH  11  12
ATOM     12  C   UNL     1      34.137  13.257  40.635  1.00  0.00    -0.000 C 
BRANCH  12  13
ATOM     13  C   UNL     1      33.761  11.892  40.039  1.00  0.00    -0.000 C 
BRANCH  13  14
ATOM     14  C   UNL     1      32.921  11.075  41.027  1.00  0.00    -0.000 C 
BRANCH  14  15
ATOM     15  C   UNL     1      32.843   9.605  40.599  1.00  0.00    -0.003 C 
ATOM     16  C   UNL     1      34.085   9.193  39.813  1.00  0.00     0.004 C 
ENDBRANCH  14  15
ENDBRANCH  13  14
ENDBRANCH  12  13
ENDBRANCH  11  12
ENDBRANCH  10  11
ENDBRANCH   1  10
TORSDOF 12
ENDMDL
MODEL 6
REMARK VINA RESULT:     7.893      3.942      6.920
REMARK INTER + INTRA:          12.664
REMARK INTER:                  13.503
REMARK INTRA:                  -0.839
REMARK UNBOUND:                -0.765
REMARK SMILES CCCCCCCCCCCCCC(=O)[O-]
REMARK SMILES IDX 8 1 9 2 10 3 11 4 12 5 13 6 14 7 15 8 16 9 7 10 6 11 5 12
REMARK SMILES IDX 4 13 3 14 2 15 1 16
REMARK H PARENT
REMARK Flexibility Score: inf
ROOT
ATOM      1  C   UNL     1      34.550  13.393  40.262  1.00  0.00     0.000 C 
ENDROOT
BRANCH   1   2
ATOM      2  C   UNL     1      35.459  12.881  41.390  1.00  0.00     0.000 C 
BRANCH   2   3
ATOM      3  C   UNL     1      35.181  13.570  42.736  1.00  0.00     0.000 C 
BRANCH   3   4
ATOM      4  C   UNL     1      36.454  14.117  43.402  1.00  0.00     0.000 C 
BRANCH   4   5
ATOM      5  C   UNL     1      36.245  15.471  44.113  1.00  0.00     0.006 C 
BRANCH   5   6
ATOM      6  C   UNL     1      34.780  15.927  44.078  1.00  0.00     0.053 C 
BRANCH   6   7
ATOM      7  C   UNL     1      34.649  17.212  43.324  1.00  0.00     0.041 C 
ATOM      8  O   UNL     1      33.733  17.358  42.473  1.00  0.00    -0.550 OA
ATOM      9  O   UNL     1      35.571  18.232  43.525  1.00  0.00    -0.550 OA
ENDBRANCH   6   7
ENDBRANCH   5   6
ENDBRANCH   4   5
ENDBRANCH   3   4
ENDBRANCH   2   3
ENDBRANCH   1   2
BRANCH   1  10
ATOM     10  C   UNL     1      33.333  12.486  40.027  1.00  0.00     0.000 C 
BRANCH  10  11
ATOM     11  C   UNL     1      32.910  11.787  41.327  1.00  0.00    -0.000 C 
BRANCH  11  12
ATOM     12  C   UNL     1      32.703  10.274  41.146  1.00  0.00    -0.000 C 
BRANCH  12  13
ATOM     13  C   UNL     1      33.002   9.802  39.715  1.00  0.00    -0.000 C 
BRANCH  13  14
ATOM     14  C   UNL     1      34.229   8.883  39.686  1.00  0.00    -0.000 C 
BRANCH  14  15
ATOM     15  C   UNL     1      35.366   9.457  40.539  1.00  0.00    -0.003 C 
ATOM     16  C   UNL     1      36.495   9.995  39.663  1.00  0.00     0.004 C 
ENDBRANCH  14  15
ENDBRANCH  13  14
ENDBRANCH  12  13
ENDBRANCH  11  12
ENDBRANCH  10  11
ENDBRANCH   1  10
TORSDOF 12
ENDMDL
