MODEL 1
REMARK VINA RESULT:    -2.431      0.000      0.000
REMARK INTER + INTRA:          -5.463
REMARK INTER:                  -4.137
REMARK INTRA:                  -1.326
REMARK UNBOUND:                -1.326
REMARK SMILES CCCCCCCCCCCCCC(=O)[O-]
REMARK SMILES IDX 8 1 9 2 10 3 11 4 12 5 13 6 14 7 15 8 16 9 7 10 6 11 5 12
REMARK SMILES IDX 4 13 3 14 2 15 1 16
REMARK H PARENT
REMARK Flexibility Score: inf
ROOT
ATOM      1  C   UNL     1      -9.540 -22.982  19.056  1.00  0.00     0.000 C 
ENDROOT
BRANCH   1   2
ATOM      2  C   UNL     1     -10.590 -21.901  19.367  1.00  0.00     0.000 C 
BRANCH   2   3
ATOM      3  C   UNL     1      -9.961 -20.510  19.561  1.00  0.00     0.000 C 
BRANCH   3   4
ATOM      4  C   UNL     1     -10.775 -19.626  20.521  1.00  0.00     0.000 C 
BRANCH   4   5
ATOM      5  C   UNL     1     -10.869 -20.210  21.942  1.00  0.00     0.006 C 
BRANCH   5   6
ATOM      6  C   UNL     1      -9.508 -20.392  22.636  1.00  0.00     0.053 C 
BRANCH   6   7
ATOM      7  C   UNL     1      -9.252 -21.810  23.048  1.00  0.00     0.041 C 
ATOM      8  O   UNL     1      -8.263 -22.438  22.585  1.00  0.00    -0.550 OA
ATOM      9  O   UNL     1     -10.126 -22.450  23.918  1.00  0.00    -0.550 OA
ENDBRANCH   6   7
ENDBRANCH   5   6
ENDBRANCH   4   5
ENDBRANCH   3   4
ENDBRANCH   2   3
ENDBRANCH   1   2
BRANCH   1  10
ATOM     10  C   UNL     1      -9.134 -23.000  17.574  1.00  0.00     0.000 C 
BRANCH  10  11
ATOM     11  C   UNL     1      -7.691 -22.513  17.349  1.00  0.00    -0.000 C 
BRANCH  11  12
ATOM     12  C   UNL     1      -7.444 -22.046  15.906  1.00  0.00    -0.000 C 
BRANCH  12  13
ATOM     13  C   UNL     1      -8.236 -20.780  15.551  1.00  0.00    -0.000 C 
BRANCH  13  14
ATOM     14  C   UNL     1      -9.095 -21.003  14.301  1.00  0.00    -0.000 C 
BRANCH  14  15
ATOM     15  C   UNL     1     -10.532 -20.517  14.528  1.00  0.00    -0.003 C 
ATOM     16  C   UNL     1     -10.740 -20.069  15.972  1.00  0.00     0.004 C 
ENDBRANCH  14  15
ENDBRANCH  13  14
ENDBRANCH  12  13
ENDBRANCH  11  12
ENDBRANCH  10  11
ENDBRANCH   1  10
TORSDOF 12
ENDMDL
MODEL 2
REMARK VINA RESULT:    -2.159      2.702      6.149
REMARK INTER + INTRA:          -5.000
REMARK INTER:                  -3.960
REMARK INTRA:                  -1.039
REMARK UNBOUND:                -1.326
REMARK SMILES CCCCCCCCCCCCCC(=O)[O-]
REMARK SMILES IDX 8 1 9 2 10 3 11 4 12 5 13 6 14 7 15 8 16 9 7 10 6 11 5 12
REMARK SMILES IDX 4 13 3 14 2 15 1 16
REMARK H PARENT
REMARK Flexibility Score: inf
ROOT
ATOM      1  C   UNL     1     -10.704 -19.970  16.351  1.00  0.00     0.000 C 
ENDROOT
BRANCH   1   2
ATOM      2  C   UNL     1     -10.483 -21.001  15.230  1.00  0.00     0.000 C 
BRANCH   2   3
ATOM      3  C   UNL     1      -9.143 -20.799  14.501  1.00  0.00     0.000 C 
BRANCH   3   4
ATOM      4  C   UNL     1      -7.940 -20.844  15.458  1.00  0.00     0.000 C 
BRANCH   4   5
ATOM      5  C   UNL     1      -7.316 -22.246  15.574  1.00  0.00     0.006 C 
BRANCH   5   6
ATOM      6  C   UNL     1      -6.683 -22.539  16.946  1.00  0.00     0.053 C 
BRANCH   6   7
ATOM      7  C   UNL     1      -5.187 -22.454  16.925  1.00  0.00     0.041 C 
ATOM      8  O   UNL     1      -4.597 -21.855  15.987  1.00  0.00    -0.550 OA
ATOM      9  O   UNL     1      -4.442 -23.068  17.924  1.00  0.00    -0.550 OA
ENDBRANCH   6   7
ENDBRANCH   5   6
ENDBRANCH   4   5
ENDBRANCH   3   4
ENDBRANCH   2   3
ENDBRANCH   1   2
BRANCH   1  10
ATOM     10  C   UNL     1     -11.079 -20.626  17.689  1.00  0.00     0.000 C 
BRANCH  10  11
ATOM     11  C   UNL     1     -10.379 -21.980  17.903  1.00  0.00    -0.000 C 
BRANCH  11  12
ATOM     12  C   UNL     1     -10.373 -22.415  19.377  1.00  0.00    -0.000 C 
BRANCH  12  13
ATOM     13  C   UNL     1      -9.430 -21.565  20.240  1.00  0.00    -0.000 C 
BRANCH  13  14
ATOM     14  C   UNL     1     -10.209 -20.499  21.019  1.00  0.00    -0.000 C 
BRANCH  14  15
ATOM     15  C   UNL     1      -9.729 -20.420  22.473  1.00  0.00    -0.003 C 
ATOM     16  C   UNL     1      -8.780 -21.569  22.803  1.00  0.00     0.004 C 
ENDBRANCH  14  15
ENDBRANCH  13  14
ENDBRANCH  12  13
ENDBRANCH  11  12
ENDBRANCH  10  11
ENDBRANCH   1  10
TORSDOF 12
ENDMDL
MODEL 3
REMARK VINA RESULT:    -2.112      2.538      6.055
REMARK INTER + INTRA:          -4.920
REMARK INTER:                  -3.886
REMARK INTRA:                  -1.034
REMARK UNBOUND:                -1.326
REMARK SMILES CCCCCCCCCCCCCC(=O)[O-]
REMARK SMILES IDX 8 1 9 2 10 3 11 4 12 5 13 6 14 7 15 8 16 9 7 10 6 11 5 12
REMARK SMILES IDX 4 13 3 14 2 15 1 16
REMARK H PARENT
REMARK Flexibility Score: inf
ROOT
ATOM      1  C   UNL     1      -5.910 -22.323  17.408  1.00  0.00     0.000 C 
ENDROOT
BRANCH   1   2
ATOM      2  C   UNL     1      -6.029 -21.696  16.008  1.00  0.00     0.000 C 
BRANCH   2   3
ATOM      3  C   UNL     1      -7.404 -21.951  15.365  1.00  0.00     0.000 C 
BRANCH   3   4
ATOM      4  C   UNL     1      -8.234 -20.664  15.224  1.00  0.00     0.000 C 
BRANCH   4   5
ATOM      5  C   UNL     1      -9.490 -20.851  14.355  1.00  0.00     0.006 C 
BRANCH   5   6
ATOM      6  C   UNL     1     -10.800 -20.441  15.050  1.00  0.00     0.053 C 
BRANCH   6   7
ATOM      7  C   UNL     1     -10.870 -20.902  16.474  1.00  0.00     0.041 C 
ATOM      8  O   UNL     1     -11.004 -22.125  16.742  1.00  0.00    -0.550 OA
ATOM      9  O   UNL     1     -10.822 -19.975  17.508  1.00  0.00    -0.550 OA
ENDBRANCH   6   7
ENDBRANCH   5   6
ENDBRANCH   4   5
ENDBRANCH   3   4
ENDBRANCH   2   3
ENDBRANCH   1   2
BRANCH   1  10
ATOM     10  C   UNL     1      -7.197 -23.041  17.844  1.00  0.00     0.000 C 
BRANCH  10  11
ATOM     11  C   UNL     1      -8.077 -22.176  18.764  1.00  0.00    -0.000 C 
BRANCH  11  12
ATOM     12  C   UNL     1      -9.017 -23.015  19.642  1.00  0.00    -0.000 C 
BRANCH  12  13
ATOM     13  C   UNL     1     -10.176 -22.191  20.222  1.00  0.00    -0.000 C 
BRANCH  13  14
ATOM     14  C   UNL     1      -9.651 -20.997  21.027  1.00  0.00    -0.000 C 
BRANCH  14  15
ATOM     15  C   UNL     1      -9.867 -21.207  22.530  1.00  0.00    -0.003 C 
ATOM     16  C   UNL     1      -8.596 -21.715  23.204  1.00  0.00     0.004 C 
ENDBRANCH  14  15
ENDBRANCH  13  14
ENDBRANCH  12  13
ENDBRANCH  11  12
ENDBRANCH  10  11
ENDBRANCH   1  10
TORSDOF 12
ENDMDL
MODEL 4
REMARK VINA RESULT:    -2.094      2.666      5.048
REMARK INTER + INTRA:          -4.889
REMARK INTER:                  -3.865
REMARK INTRA:                  -1.025
REMARK UNBOUND:                -1.326
REMARK SMILES CCCCCCCCCCCCCC(=O)[O-]
REMARK SMILES IDX 8 1 9 2 10 3 11 4 12 5 13 6 14 7 15 8 16 9 7 10 6 11 5 12
REMARK SMILES IDX 4 13 3 14 2 15 1 16
REMARK H PARENT
REMARK Flexibility Score: inf
ROOT
ATOM      1  C   UNL     1      -7.943 -20.836  15.570  1.00  0.00     0.000 C 
ENDROOT
BRANCH   1   2
ATOM      2  C   UNL     1      -9.065 -20.708  14.525  1.00  0.00     0.000 C 
BRANCH   2   3
ATOM      3  C   UNL     1     -10.364 -20.141  15.123  1.00  0.00     0.000 C 
BRANCH   3   4
ATOM      4  C   UNL     1     -10.866 -20.960  16.324  1.00  0.00     0.000 C 
BRANCH   4   5
ATOM      5  C   UNL     1     -11.038 -20.116  17.599  1.00  0.00     0.006 C 
BRANCH   5   6
ATOM      6  C   UNL     1     -10.636 -20.845  18.893  1.00  0.00     0.053 C 
BRANCH   6   7
ATOM      7  C   UNL     1     -10.572 -19.931  20.078  1.00  0.00     0.041 C 
ATOM      8  O   UNL     1     -10.664 -20.395  21.246  1.00  0.00    -0.550 OA
ATOM      9  O   UNL     1     -10.446 -18.560  19.893  1.00  0.00    -0.550 OA
ENDBRANCH   6   7
ENDBRANCH   5   6
ENDBRANCH   4   5
ENDBRANCH   3   4
ENDBRANCH   2   3
ENDBRANCH   1   2
BRANCH   1  10
ATOM     10  C   UNL     1      -7.471 -22.287  15.751  1.00  0.00     0.000 C 
BRANCH  10  11
ATOM     11  C   UNL     1      -7.797 -22.847  17.147  1.00  0.00    -0.000 C 
BRANCH  11  12
ATOM     12  C   UNL     1      -6.544 -23.039  18.015  1.00  0.00    -0.000 C 
BRANCH  12  13
ATOM     13  C   UNL     1      -5.249 -23.043  17.189  1.00  0.00    -0.000 C 
BRANCH  13  14
ATOM     14  C   UNL     1      -4.017 -23.034  18.101  1.00  0.00    -0.000 C 
BRANCH  14  15
ATOM     15  C   UNL     1      -4.424 -23.104  19.578  1.00  0.00    -0.003 C 
ATOM     16  C   UNL     1      -3.199 -23.125  20.487  1.00  0.00     0.004 C 
ENDBRANCH  14  15
ENDBRANCH  13  14
ENDBRANCH  12  13
ENDBRANCH  11  12
ENDBRANCH  10  11
ENDBRANCH   1  10
TORSDOF 12
ENDMDL
MODEL 5
REMARK VINA RESULT:    -1.689      1.340      2.203
REMARK INTER + INTRA:          -4.200
REMARK INTER:                  -3.268
REMARK INTRA:                  -0.932
REMARK UNBOUND:                -1.326
REMARK SMILES CCCCCCCCCCCCCC(=O)[O-]
REMARK SMILES IDX 8 1 9 2 10 3 11 4 12 5 13 6 14 7 15 8 16 9 7 10 6 11 5 12
REMARK SMILES IDX 4 13 3 14 2 15 1 16
REMARK H PARENT
REMARK Flexibility Score: inf
ROOT
ATOM      1  C   UNL     1      -6.670 -22.271  18.362  1.00  0.00     0.000 C 
ENDROOT
BRANCH   1   2
ATOM      2  C   UNL     1      -7.494 -23.125  19.342  1.00  0.00     0.000 C 
BRANCH   2   3
ATOM      3  C   UNL     1      -9.000 -23.091  19.029  1.00  0.00     0.000 C 
BRANCH   3   4
ATOM      4  C   UNL     1      -9.843 -22.663  20.242  1.00  0.00     0.000 C 
BRANCH   4   5
ATOM      5  C   UNL     1     -10.593 -21.339  20.016  1.00  0.00     0.006 C 
BRANCH   5   6
ATOM      6  C   UNL     1     -10.046 -20.160  20.839  1.00  0.00     0.053 C 
BRANCH   6   7
ATOM      7  C   UNL     1     -10.020 -20.443  22.311  1.00  0.00     0.041 C 
ATOM      8  O   UNL     1      -8.989 -20.190  22.989  1.00  0.00    -0.550 OA
ATOM      9  O   UNL     1     -11.124 -21.019  22.928  1.00  0.00    -0.550 OA
ENDBRANCH   6   7
ENDBRANCH   5   6
ENDBRANCH   4   5
ENDBRANCH   3   4
ENDBRANCH   2   3
ENDBRANCH   1   2
BRANCH   1  10
ATOM     10  C   UNL     1      -5.887 -23.124  17.351  1.00  0.00     0.000 C 
BRANCH  10  11
ATOM     11  C   UNL     1      -6.238 -22.786  15.891  1.00  0.00    -0.000 C 
BRANCH  11  12
ATOM     12  C   UNL     1      -7.015 -21.466  15.761  1.00  0.00    -0.000 C 
BRANCH  12  13
ATOM     13  C   UNL     1      -8.523 -21.684  15.581  1.00  0.00    -0.000 C 
BRANCH  13  14
ATOM     14  C   UNL     1      -9.101 -20.704  14.554  1.00  0.00    -0.000 C 
BRANCH  14  15
ATOM     15  C   UNL     1     -10.367 -20.025  15.092  1.00  0.00    -0.003 C 
ATOM     16  C   UNL     1     -11.052 -20.893  16.143  1.00  0.00     0.004 C 
ENDBRANCH  14  15
ENDBRANCH  13  14
ENDBRANCH  12  13
ENDBRANCH  11  12
ENDBRANCH  10  11
ENDBRANCH   1  10
TORSDOF 12
ENDMDL
MODEL 6
REMARK VINA RESULT:    -1.600      1.153      3.044
REMARK INTER + INTRA:          -4.048
REMARK INTER:                  -3.007
REMARK INTRA:                  -1.041
REMARK UNBOUND:                -1.326
REMARK SMILES CCCCCCCCCCCCCC(=O)[O-]
REMARK SMILES IDX 8 1 9 2 10 3 11 4 12 5 13 6 14 7 15 8 16 9 7 10 6 11 5 12
REMARK SMILES IDX 4 13 3 14 2 15 1 16
REMARK H PARENT
REMARK Flexibility Score: inf
ROOT
ATOM      1  C   UNL     1     -10.450 -20.054  17.256  1.00  0.00     0.000 C 
ENDROOT
BRANCH   1   2
ATOM      2  C   UNL     1     -10.986 -20.900  18.423  1.00  0.00     0.000 C 
BRANCH   2   3
ATOM      3  C   UNL     1     -10.189 -22.201  18.621  1.00  0.00     0.000 C 
BRANCH   3   4
ATOM      4  C   UNL     1      -9.686 -22.369  20.064  1.00  0.00     0.000 C 
BRANCH   4   5
ATOM      5  C   UNL     1     -10.321 -21.366  21.043  1.00  0.00     0.006 C 
BRANCH   5   6
ATOM      6  C   UNL     1      -9.448 -21.049  22.271  1.00  0.00     0.053 C 
BRANCH   6   7
ATOM      7  C   UNL     1      -9.616 -22.047  23.376  1.00  0.00     0.041 C 
ATOM      8  O   UNL     1     -10.751 -22.250  23.883  1.00  0.00    -0.550 OA
ATOM      9  O   UNL     1      -8.512 -22.730  23.869  1.00  0.00    -0.550 OA
ENDBRANCH   6   7
ENDBRANCH   5   6
ENDBRANCH   4   5
ENDBRANCH   3   4
ENDBRANCH   2   3
ENDBRANCH   1   2
BRANCH   1  10
ATOM     10  C   UNL     1     -11.125 -20.399  15.919  1.00  0.00     0.000 C 
BRANCH  10  11
ATOM     11  C   UNL     1     -10.127 -20.913  14.865  1.00  0.00    -0.000 C 
BRANCH  11  12
ATOM     12  C   UNL     1      -8.744 -20.257  14.993  1.00  0.00    -0.000 C 
BRANCH  12  13
ATOM     13  C   UNL     1      -7.596 -21.262  14.822  1.00  0.00    -0.000 C 
BRANCH  13  14
ATOM     14  C   UNL     1      -7.399 -22.092  16.096  1.00  0.00    -0.000 C 
BRANCH  14  15
ATOM     15  C   UNL     1      -5.924 -22.117  16.514  1.00  0.00    -0.003 C 
ATOM     16  C   UNL     1      -5.716 -22.987  17.750  1.00  0.00     0.004 C 
ENDBRANCH  14  15
ENDBRANCH  13  14
ENDBRANCH  12  13
ENDBRANCH  11  12
ENDBRANCH  10  11
ENDBRANCH   1  10
TORSDOF 12
ENDMDL
MODEL 7
REMARK VINA RESULT:    -1.598      2.465      5.252
REMARK INTER + INTRA:          -4.046
REMARK INTER:                  -3.230
REMARK INTRA:                  -0.817
REMARK UNBOUND:                -1.326
REMARK SMILES CCCCCCCCCCCCCC(=O)[O-]
REMARK SMILES IDX 8 1 9 2 10 3 11 4 12 5 13 6 14 7 15 8 16 9 7 10 6 11 5 12
REMARK SMILES IDX 4 13 3 14 2 15 1 16
REMARK H PARENT
REMARK Flexibility Score: inf
ROOT
ATOM      1  C   UNL     1      -7.147 -20.561  15.342  1.00  0.00     0.000 C 
ENDROOT
BRANCH   1   2
ATOM      2  C   UNL     1      -8.387 -21.265  14.765  1.00  0.00     0.000 C 
BRANCH   2   3
ATOM      3  C   UNL     1      -9.461 -20.271  14.289  1.00  0.00     0.000 C 
BRANCH   3   4
ATOM      4  C   UNL     1     -10.884 -20.719  14.664  1.00  0.00     0.000 C 
BRANCH   4   5
ATOM      5  C   UNL     1     -11.039 -21.042  16.160  1.00  0.00     0.006 C 
BRANCH   5   6
ATOM      6  C   UNL     1     -11.053 -19.802  17.071  1.00  0.00     0.053 C 
BRANCH   6   7
ATOM      7  C   UNL     1     -11.011 -20.152  18.528  1.00  0.00     0.041 C 
ATOM      8  O   UNL     1     -10.963 -21.357  18.892  1.00  0.00    -0.550 OA
ATOM      9  O   UNL     1     -11.058 -19.147  19.486  1.00  0.00    -0.550 OA
ENDBRANCH   6   7
ENDBRANCH   5   6
ENDBRANCH   4   5
ENDBRANCH   3   4
ENDBRANCH   2   3
ENDBRANCH   1   2
BRANCH   1  10
ATOM     10  C   UNL     1      -5.995 -21.537  15.629  1.00  0.00     0.000 C 
BRANCH  10  11
ATOM     11  C   UNL     1      -6.489 -22.907  16.129  1.00  0.00    -0.000 C 
BRANCH  11  12
ATOM     12  C   UNL     1      -6.229 -23.116  17.629  1.00  0.00    -0.000 C 
BRANCH  12  13
ATOM     13  C   UNL     1      -7.507 -22.998  18.472  1.00  0.00    -0.000 C 
BRANCH  13  14
ATOM     14  C   UNL     1      -7.173 -22.898  19.964  1.00  0.00    -0.000 C 
BRANCH  14  15
ATOM     15  C   UNL     1      -8.400 -22.463  20.775  1.00  0.00    -0.003 C 
ATOM     16  C   UNL     1      -8.376 -23.068  22.176  1.00  0.00     0.004 C 
ENDBRANCH  14  15
ENDBRANCH  13  14
ENDBRANCH  12  13
ENDBRANCH  11  12
ENDBRANCH  10  11
ENDBRANCH   1  10
TORSDOF 12
ENDMDL
MODEL 8
REMARK VINA RESULT:    -1.189      1.901      3.692
REMARK INTER + INTRA:          -3.350
REMARK INTER:                  -2.466
REMARK INTRA:                  -0.884
REMARK UNBOUND:                -1.326
REMARK SMILES CCCCCCCCCCCCCC(=O)[O-]
REMARK SMILES IDX 8 1 9 2 10 3 11 4 12 5 13 6 14 7 15 8 16 9 7 10 6 11 5 12
REMARK SMILES IDX 4 13 3 14 2 15 1 16
REMARK H PARENT
REMARK Flexibility Score: inf
ROOT
ATOM      1  C   UNL     1     -10.183 -21.136  16.060  1.00  0.00     0.000 C 
ENDROOT
BRANCH   1   2
ATOM      2  C   UNL     1     -10.887 -19.965  16.766  1.00  0.00     0.000 C 
BRANCH   2   3
ATOM      3  C   UNL     1     -11.041 -20.197  18.279  1.00  0.00     0.000 C 
BRANCH   3   4
ATOM      4  C   UNL     1      -9.958 -21.130  18.844  1.00  0.00     0.000 C 
BRANCH   4   5
ATOM      5  C   UNL     1     -10.507 -22.141  19.866  1.00  0.00     0.006 C 
BRANCH   5   6
ATOM      6  C   UNL     1      -9.615 -22.327  21.106  1.00  0.00     0.053 C 
BRANCH   6   7
ATOM      7  C   UNL     1      -9.727 -21.191  22.077  1.00  0.00     0.041 C 
ATOM      8  O   UNL     1      -9.087 -21.216  23.162  1.00  0.00    -0.550 OA
ATOM      9  O   UNL     1     -10.565 -20.119  21.799  1.00  0.00    -0.550 OA
ENDBRANCH   6   7
ENDBRANCH   5   6
ENDBRANCH   4   5
ENDBRANCH   3   4
ENDBRANCH   2   3
ENDBRANCH   1   2
BRANCH   1  10
ATOM     10  C   UNL     1      -8.793 -20.754  15.528  1.00  0.00     0.000 C 
BRANCH  10  11
ATOM     11  C   UNL     1      -7.860 -21.969  15.377  1.00  0.00    -0.000 C 
BRANCH  11  12
ATOM     12  C   UNL     1      -7.581 -22.668  16.717  1.00  0.00    -0.000 C 
BRANCH  12  13
ATOM     13  C   UNL     1      -6.400 -22.044  17.474  1.00  0.00    -0.000 C 
BRANCH  13  14
ATOM     14  C   UNL     1      -5.433 -23.125  17.970  1.00  0.00    -0.000 C 
BRANCH  14  15
ATOM     15  C   UNL     1      -4.137 -23.122  17.151  1.00  0.00    -0.003 C 
ATOM     16  C   UNL     1      -4.032 -21.867  16.289  1.00  0.00     0.004 C 
ENDBRANCH  14  15
ENDBRANCH  13  14
ENDBRANCH  12  13
ENDBRANCH  11  12
ENDBRANCH  10  11
ENDBRANCH   1  10
TORSDOF 12
ENDMDL
MODEL 9
REMARK VINA RESULT:    -1.082      2.509      5.823
REMARK INTER + INTRA:          -3.167
REMARK INTER:                  -2.663
REMARK INTRA:                  -0.504
REMARK UNBOUND:                -1.326
REMARK SMILES CCCCCCCCCCCCCC(=O)[O-]
REMARK SMILES IDX 8 1 9 2 10 3 11 4 12 5 13 6 14 7 15 8 16 9 7 10 6 11 5 12
REMARK SMILES IDX 4 13 3 14 2 15 1 16
REMARK H PARENT
REMARK Flexibility Score: inf
ROOT
ATOM      1  C   UNL     1      -9.261 -20.588  14.871  1.00  0.00     0.000 C 
ENDROOT
BRANCH   1   2
ATOM      2  C   UNL     1      -8.390 -21.752  15.374  1.00  0.00     0.000 C 
BRANCH   2   3
ATOM      3  C   UNL     1      -6.919 -21.345  15.567  1.00  0.00     0.000 C 
BRANCH   3   4
ATOM      4  C   UNL     1      -6.085 -22.451  16.235  1.00  0.00     0.000 C 
BRANCH   4   5
ATOM      5  C   UNL     1      -4.682 -21.978  16.653  1.00  0.00     0.006 C 
BRANCH   5   6
ATOM      6  C   UNL     1      -3.898 -23.003  17.491  1.00  0.00     0.053 C 
BRANCH   6   7
ATOM      7  C   UNL     1      -4.326 -23.027  18.927  1.00  0.00     0.041 C 
ATOM      8  O   UNL     1      -3.469 -23.111  19.846  1.00  0.00    -0.550 OA
ATOM      9  O   UNL     1      -5.677 -22.990  19.251  1.00  0.00    -0.550 OA
ENDBRANCH   6   7
ENDBRANCH   5   6
ENDBRANCH   4   5
ENDBRANCH   3   4
ENDBRANCH   2   3
ENDBRANCH   1   2
BRANCH   1  10
ATOM     10  C   UNL     1     -10.250 -20.089  15.937  1.00  0.00     0.000 C 
BRANCH  10  11
ATOM     11  C   UNL     1     -11.097 -21.224  16.539  1.00  0.00    -0.000 C 
BRANCH  11  12
ATOM     12  C   UNL     1     -10.731 -21.522  18.001  1.00  0.00    -0.000 C 
BRANCH  12  13
ATOM     13  C   UNL     1     -10.263 -20.272  18.760  1.00  0.00    -0.000 C 
BRANCH  13  14
ATOM     14  C   UNL     1     -10.081 -20.571  20.252  1.00  0.00    -0.000 C 
BRANCH  14  15
ATOM     15  C   UNL     1     -11.004 -21.710  20.701  1.00  0.00    -0.003 C 
ATOM     16  C   UNL     1     -10.553 -22.289  22.040  1.00  0.00     0.004 C 
ENDBRANCH  14  15
ENDBRANCH  13  14
ENDBRANCH  12  13
ENDBRANCH  11  12
ENDBRANCH  10  11
ENDBRANCH   1  10
TORSDOF 12
ENDMDL
