MODEL 1
REMARK VINA RESULT:    -4.772      0.000      0.000
REMARK INTER + INTRA:         -10.532
REMARK INTER:                  -8.677
REMARK INTRA:                  -1.855
REMARK UNBOUND:                -1.855
REMARK SMILES CCCCCCCCCCCCCCCC(=O)[O-]
REMARK SMILES IDX 9 1 10 2 11 3 12 4 13 5 14 6 15 7 16 8 17 9 18 10 8 11 7 12
REMARK SMILES IDX 6 13 5 14 4 15 3 16 2 17 1 18
REMARK H PARENT
REMARK Flexibility Score: inf
ROOT
ATOM      1  C   UNL     1      13.107  14.921 -18.956  1.00  0.00     0.000 C 
ENDROOT
BRANCH   1   2
ATOM      2  C   UNL     1      12.564  16.278 -18.485  1.00  0.00     0.000 C 
BRANCH   2   3
ATOM      3  C   UNL     1      13.506  16.990 -17.498  1.00  0.00     0.000 C 
BRANCH   3   4
ATOM      4  C   UNL     1      14.812  17.524 -18.116  1.00  0.00     0.000 C 
BRANCH   4   5
ATOM      5  C   UNL     1      16.021  17.385 -17.175  1.00  0.00     0.000 C 
BRANCH   5   6
ATOM      6  C   UNL     1      16.193  15.945 -16.648  1.00  0.00     0.006 C 
BRANCH   6   7
ATOM      7  C   UNL     1      17.158  15.095 -17.491  1.00  0.00     0.053 C 
BRANCH   7   8
ATOM      8  C   UNL     1      17.267  13.691 -16.985  1.00  0.00     0.041 C 
ATOM      9  O   UNL     1      17.908  12.827 -17.640  1.00  0.00    -0.550 OA
ATOM     10  O   UNL     1      16.640  13.328 -15.799  1.00  0.00    -0.550 OA
ENDBRANCH   7   8
ENDBRANCH   6   7
ENDBRANCH   5   6
ENDBRANCH   4   5
ENDBRANCH   3   4
ENDBRANCH   2   3
ENDBRANCH   1   2
BRANCH   1  11
ATOM     11  C   UNL     1      13.240  13.945 -17.776  1.00  0.00     0.000 C 
BRANCH  11  12
ATOM     12  C   UNL     1      12.339  12.708 -17.926  1.00  0.00    -0.000 C 
BRANCH  12  13
ATOM     13  C   UNL     1      11.217  12.914 -18.955  1.00  0.00    -0.000 C 
BRANCH  13  14
ATOM     14  C   UNL     1      11.193  11.770 -19.979  1.00  0.00    -0.000 C 
BRANCH  14  15
ATOM     15  C   UNL     1      12.590  11.190 -20.264  1.00  0.00    -0.000 C 
BRANCH  15  16
ATOM     16  C   UNL     1      13.107  11.410 -21.697  1.00  0.00    -0.000 C 
BRANCH  16  17
ATOM     17  C   UNL     1      13.954  12.683 -21.839  1.00  0.00    -0.003 C 
ATOM     18  C   UNL     1      15.294  12.532 -21.123  1.00  0.00     0.004 C 
ENDBRANCH  16  17
ENDBRANCH  15  16
ENDBRANCH  14  15
ENDBRANCH  13  14
ENDBRANCH  12  13
ENDBRANCH  11  12
ENDBRANCH   1  11
TORSDOF 14
ENDMDL
MODEL 2
REMARK VINA RESULT:    -4.696      2.582      6.219
REMARK INTER + INTRA:         -10.394
REMARK INTER:                  -8.561
REMARK INTRA:                  -1.833
REMARK UNBOUND:                -1.855
REMARK SMILES CCCCCCCCCCCCCCCC(=O)[O-]
REMARK SMILES IDX 9 1 10 2 11 3 12 4 13 5 14 6 15 7 16 8 17 9 18 10 8 11 7 12
REMARK SMILES IDX 6 13 5 14 4 15 3 16 2 17 1 18
REMARK H PARENT
REMARK Flexibility Score: inf
ROOT
ATOM      1  C   UNL     1      15.722  13.473 -20.055  1.00  0.00     0.000 C 
ENDROOT
BRANCH   1   2
ATOM      2  C   UNL     1      15.571  12.553 -21.276  1.00  0.00     0.000 C 
BRANCH   2   3
ATOM      3  C   UNL     1      14.108  12.392 -21.728  1.00  0.00     0.000 C 
BRANCH   3   4
ATOM      4  C   UNL     1      13.409  11.117 -21.221  1.00  0.00     0.000 C 
BRANCH   4   5
ATOM      5  C   UNL     1      12.105  11.413 -20.460  1.00  0.00     0.000 C 
BRANCH   5   6
ATOM      6  C   UNL     1      12.318  12.392 -19.286  1.00  0.00     0.006 C 
BRANCH   6   7
ATOM      7  C   UNL     1      11.453  13.659 -19.380  1.00  0.00     0.053 C 
BRANCH   7   8
ATOM      8  C   UNL     1      10.547  13.817 -18.199  1.00  0.00     0.041 C 
ATOM      9  O   UNL     1      10.414  12.878 -17.371  1.00  0.00    -0.550 OA
ATOM     10  O   UNL     1       9.830  14.994 -18.026  1.00  0.00    -0.550 OA
ENDBRANCH   7   8
ENDBRANCH   6   7
ENDBRANCH   5   6
ENDBRANCH   4   5
ENDBRANCH   3   4
ENDBRANCH   2   3
ENDBRANCH   1   2
BRANCH   1  11
ATOM     11  C   UNL     1      17.191  13.561 -19.613  1.00  0.00     0.000 C 
BRANCH  11  12
ATOM     12  C   UNL     1      17.381  14.423 -18.355  1.00  0.00    -0.000 C 
BRANCH  12  13
ATOM     13  C   UNL     1      17.486  13.584 -17.072  1.00  0.00    -0.000 C 
BRANCH  13  14
ATOM     14  C   UNL     1      16.286  13.838 -16.149  1.00  0.00    -0.000 C 
BRANCH  14  15
ATOM     15  C   UNL     1      15.574  15.171 -16.442  1.00  0.00    -0.000 C 
BRANCH  15  16
ATOM     16  C   UNL     1      14.041  15.084 -16.537  1.00  0.00    -0.000 C 
BRANCH  16  17
ATOM     17  C   UNL     1      13.442  16.110 -17.510  1.00  0.00    -0.003 C 
ATOM     18  C   UNL     1      14.507  16.652 -18.460  1.00  0.00     0.004 C 
ENDBRANCH  16  17
ENDBRANCH  15  16
ENDBRANCH  14  15
ENDBRANCH  13  14
ENDBRANCH  12  13
ENDBRANCH  11  12
ENDBRANCH   1  11
TORSDOF 14
ENDMDL
MODEL 3
REMARK VINA RESULT:    -4.684      1.491      3.267
REMARK INTER + INTRA:         -10.373
REMARK INTER:                  -7.974
REMARK INTRA:                  -2.399
REMARK UNBOUND:                -1.855
REMARK SMILES CCCCCCCCCCCCCCCC(=O)[O-]
REMARK SMILES IDX 9 1 10 2 11 3 12 4 13 5 14 6 15 7 16 8 17 9 18 10 8 11 7 12
REMARK SMILES IDX 6 13 5 14 4 15 3 16 2 17 1 18
REMARK H PARENT
REMARK Flexibility Score: inf
ROOT
ATOM      1  C   UNL     1      13.053  14.095 -21.770  1.00  0.00     0.000 C 
ENDROOT
BRANCH   1   2
ATOM      2  C   UNL     1      13.165  15.407 -20.981  1.00  0.00     0.000 C 
BRANCH   2   3
ATOM      3  C   UNL     1      14.209  15.340 -19.851  1.00  0.00     0.000 C 
BRANCH   3   4
ATOM      4  C   UNL     1      13.629  15.415 -18.426  1.00  0.00     0.000 C 
BRANCH   4   5
ATOM      5  C   UNL     1      14.325  14.454 -17.446  1.00  0.00     0.000 C 
BRANCH   5   6
ATOM      6  C   UNL     1      15.172  15.199 -16.393  1.00  0.00     0.006 C 
BRANCH   6   7
ATOM      7  C   UNL     1      16.466  15.802 -16.963  1.00  0.00     0.053 C 
BRANCH   7   8
ATOM      8  C   UNL     1      17.295  14.787 -17.686  1.00  0.00     0.041 C 
ATOM      9  O   UNL     1      17.527  14.915 -18.917  1.00  0.00    -0.550 OA
ATOM     10  O   UNL     1      17.794  13.684 -17.003  1.00  0.00    -0.550 OA
ENDBRANCH   7   8
ENDBRANCH   6   7
ENDBRANCH   5   6
ENDBRANCH   4   5
ENDBRANCH   3   4
ENDBRANCH   2   3
ENDBRANCH   1   2
BRANCH   1  11
ATOM     11  C   UNL     1      13.938  13.004 -21.147  1.00  0.00     0.000 C 
BRANCH  11  12
ATOM     12  C   UNL     1      13.341  11.596 -21.306  1.00  0.00    -0.000 C 
BRANCH  12  13
ATOM     13  C   UNL     1      12.052  11.404 -20.493  1.00  0.00    -0.000 C 
BRANCH  13  14
ATOM     14  C   UNL     1      12.267  11.789 -19.023  1.00  0.00    -0.000 C 
BRANCH  14  15
ATOM     15  C   UNL     1      11.035  12.462 -18.392  1.00  0.00    -0.000 C 
BRANCH  15  16
ATOM     16  C   UNL     1      10.363  13.539 -19.263  1.00  0.00    -0.000 C 
BRANCH  16  17
ATOM     17  C   UNL     1       9.995  14.803 -18.474  1.00  0.00    -0.003 C 
ATOM     18  C   UNL     1       9.766  15.987 -19.410  1.00  0.00     0.004 C 
ENDBRANCH  16  17
ENDBRANCH  15  16
ENDBRANCH  14  15
ENDBRANCH  13  14
ENDBRANCH  12  13
ENDBRANCH  11  12
ENDBRANCH   1  11
TORSDOF 14
ENDMDL
MODEL 4
REMARK VINA RESULT:    -4.679      2.360      5.631
REMARK INTER + INTRA:         -10.364
REMARK INTER:                  -8.668
REMARK INTRA:                  -1.696
REMARK UNBOUND:                -1.855
REMARK SMILES CCCCCCCCCCCCCCCC(=O)[O-]
REMARK SMILES IDX 9 1 10 2 11 3 12 4 13 5 14 6 15 7 16 8 17 9 18 10 8 11 7 12
REMARK SMILES IDX 6 13 5 14 4 15 3 16 2 17 1 18
REMARK H PARENT
REMARK Flexibility Score: inf
ROOT
ATOM      1  C   UNL     1      13.017  11.334 -21.816  1.00  0.00     0.000 C 
ENDROOT
BRANCH   1   2
ATOM      2  C   UNL     1      12.786  11.302 -20.299  1.00  0.00     0.000 C 
BRANCH   2   3
ATOM      3  C   UNL     1      11.365  11.741 -19.899  1.00  0.00     0.000 C 
BRANCH   3   4
ATOM      4  C   UNL     1      11.284  13.100 -19.178  1.00  0.00     0.000 C 
BRANCH   4   5
ATOM      5  C   UNL     1      12.430  13.313 -18.174  1.00  0.00     0.000 C 
BRANCH   5   6
ATOM      6  C   UNL     1      12.781  14.805 -17.991  1.00  0.00     0.006 C 
BRANCH   6   7
ATOM      7  C   UNL     1      11.554  15.697 -17.744  1.00  0.00     0.053 C 
BRANCH   7   8
ATOM      8  C   UNL     1      11.488  16.192 -16.333  1.00  0.00     0.041 C 
ATOM      9  O   UNL     1      12.543  16.345 -15.663  1.00  0.00    -0.550 OA
ATOM     10  O   UNL     1      10.256  16.462 -15.749  1.00  0.00    -0.550 OA
ENDBRANCH   7   8
ENDBRANCH   6   7
ENDBRANCH   5   6
ENDBRANCH   4   5
ENDBRANCH   3   4
ENDBRANCH   2   3
ENDBRANCH   1   2
BRANCH   1  11
ATOM     11  C   UNL     1      14.106  12.354 -22.183  1.00  0.00     0.000 C 
BRANCH  11  12
ATOM     12  C   UNL     1      14.861  12.883 -20.952  1.00  0.00    -0.000 C 
BRANCH  12  13
ATOM     13  C   UNL     1      16.350  12.505 -20.964  1.00  0.00    -0.000 C 
BRANCH  13  14
ATOM     14  C   UNL     1      17.123  13.283 -19.890  1.00  0.00    -0.000 C 
BRANCH  14  15
ATOM     15  C   UNL     1      16.232  14.250 -19.090  1.00  0.00    -0.000 C 
BRANCH  15  16
ATOM     16  C   UNL     1      16.991  15.306 -18.267  1.00  0.00    -0.000 C 
BRANCH  16  17
ATOM     17  C   UNL     1      16.470  15.432 -16.829  1.00  0.00    -0.003 C 
ATOM     18  C   UNL     1      16.057  14.072 -16.273  1.00  0.00     0.004 C 
ENDBRANCH  16  17
ENDBRANCH  15  16
ENDBRANCH  14  15
ENDBRANCH  13  14
ENDBRANCH  12  13
ENDBRANCH  11  12
ENDBRANCH   1  11
TORSDOF 14
ENDMDL
MODEL 5
REMARK VINA RESULT:    -4.638      1.012      2.539
REMARK INTER + INTRA:         -10.289
REMARK INTER:                  -8.531
REMARK INTRA:                  -1.758
REMARK UNBOUND:                -1.855
REMARK SMILES CCCCCCCCCCCCCCCC(=O)[O-]
REMARK SMILES IDX 9 1 10 2 11 3 12 4 13 5 14 6 15 7 16 8 17 9 18 10 8 11 7 12
REMARK SMILES IDX 6 13 5 14 4 15 3 16 2 17 1 18
REMARK H PARENT
REMARK Flexibility Score: inf
ROOT
ATOM      1  C   UNL     1      13.723  14.796 -20.522  1.00  0.00     0.000 C 
ENDROOT
BRANCH   1   2
ATOM      2  C   UNL     1      13.721  16.232 -19.977  1.00  0.00     0.000 C 
BRANCH   2   3
ATOM      3  C   UNL     1      13.927  16.295 -18.453  1.00  0.00     0.000 C 
BRANCH   3   4
ATOM      4  C   UNL     1      14.579  17.592 -17.939  1.00  0.00     0.000 C 
BRANCH   4   5
ATOM      5  C   UNL     1      15.947  17.354 -17.277  1.00  0.00     0.000 C 
BRANCH   5   6
ATOM      6  C   UNL     1      16.090  15.921 -16.722  1.00  0.00     0.006 C 
BRANCH   6   7
ATOM      7  C   UNL     1      17.204  15.109 -17.401  1.00  0.00     0.053 C 
BRANCH   7   8
ATOM      8  C   UNL     1      17.254  13.695 -16.912  1.00  0.00     0.041 C 
ATOM      9  O   UNL     1      17.963  12.841 -17.508  1.00  0.00    -0.550 OA
ATOM     10  O   UNL     1      16.499  13.313 -15.810  1.00  0.00    -0.550 OA
ENDBRANCH   7   8
ENDBRANCH   6   7
ENDBRANCH   5   6
ENDBRANCH   4   5
ENDBRANCH   3   4
ENDBRANCH   2   3
ENDBRANCH   1   2
BRANCH   1  11
ATOM     11  C   UNL     1      14.872  13.980 -19.908  1.00  0.00     0.000 C 
BRANCH  11  12
ATOM     12  C   UNL     1      15.305  12.805 -20.800  1.00  0.00    -0.000 C 
BRANCH  12  13
ATOM     13  C   UNL     1      14.176  12.309 -21.716  1.00  0.00    -0.000 C 
BRANCH  13  14
ATOM     14  C   UNL     1      13.456  11.102 -21.098  1.00  0.00    -0.000 C 
BRANCH  14  15
ATOM     15  C   UNL     1      12.014  11.422 -20.663  1.00  0.00    -0.000 C 
BRANCH  15  16
ATOM     16  C   UNL     1      11.866  11.913 -19.211  1.00  0.00    -0.000 C 
BRANCH  16  17
ATOM     17  C   UNL     1      10.533  12.629 -18.955  1.00  0.00    -0.003 C 
ATOM     18  C   UNL     1      10.742  13.907 -18.147  1.00  0.00     0.004 C 
ENDBRANCH  16  17
ENDBRANCH  15  16
ENDBRANCH  14  15
ENDBRANCH  13  14
ENDBRANCH  12  13
ENDBRANCH  11  12
ENDBRANCH   1  11
TORSDOF 14
ENDMDL
MODEL 6
REMARK VINA RESULT:    -4.622      1.697      2.691
REMARK INTER + INTRA:         -10.260
REMARK INTER:                  -7.800
REMARK INTRA:                  -2.461
REMARK UNBOUND:                -1.855
REMARK SMILES CCCCCCCCCCCCCCCC(=O)[O-]
REMARK SMILES IDX 9 1 10 2 11 3 12 4 13 5 14 6 15 7 16 8 17 9 18 10 8 11 7 12
REMARK SMILES IDX 6 13 5 14 4 15 3 16 2 17 1 18
REMARK H PARENT
REMARK Flexibility Score: inf
ROOT
ATOM      1  C   UNL     1      11.613  16.499 -20.150  1.00  0.00     0.000 C 
ENDROOT
BRANCH   1   2
ATOM      2  C   UNL     1      12.656  15.470 -20.606  1.00  0.00     0.000 C 
BRANCH   2   3
ATOM      3  C   UNL     1      13.758  15.229 -19.558  1.00  0.00     0.000 C 
BRANCH   3   4
ATOM      4  C   UNL     1      13.668  16.120 -18.305  1.00  0.00     0.000 C 
BRANCH   4   5
ATOM      5  C   UNL     1      13.601  15.311 -16.998  1.00  0.00     0.000 C 
BRANCH   5   6
ATOM      6  C   UNL     1      14.474  14.039 -17.050  1.00  0.00     0.006 C 
BRANCH   6   7
ATOM      7  C   UNL     1      15.798  14.173 -16.280  1.00  0.00     0.053 C 
BRANCH   7   8
ATOM      8  C   UNL     1      16.986  14.183 -17.191  1.00  0.00     0.041 C 
ATOM      9  O   UNL     1      17.185  15.157 -17.965  1.00  0.00    -0.550 OA
ATOM     10  O   UNL     1      17.862  13.104 -17.203  1.00  0.00    -0.550 OA
ENDBRANCH   7   8
ENDBRANCH   6   7
ENDBRANCH   5   6
ENDBRANCH   4   5
ENDBRANCH   3   4
ENDBRANCH   2   3
ENDBRANCH   1   2
BRANCH   1  11
ATOM     11  C   UNL     1      10.206  16.099 -20.622  1.00  0.00     0.000 C 
BRANCH  11  12
ATOM     12  C   UNL     1       9.624  14.925 -19.817  1.00  0.00    -0.000 C 
BRANCH  12  13
ATOM     13  C   UNL     1      10.033  14.962 -18.337  1.00  0.00    -0.000 C 
BRANCH  13  14
ATOM     14  C   UNL     1      10.437  13.566 -17.842  1.00  0.00    -0.000 C 
BRANCH  14  15
ATOM     15  C   UNL     1      10.611  12.551 -18.987  1.00  0.00    -0.000 C 
BRANCH  15  16
ATOM     16  C   UNL     1      12.046  12.032 -19.186  1.00  0.00    -0.000 C 
BRANCH  16  17
ATOM     17  C   UNL     1      12.252  11.349 -20.544  1.00  0.00    -0.003 C 
ATOM     18  C   UNL     1      13.582  11.761 -21.170  1.00  0.00     0.004 C 
ENDBRANCH  16  17
ENDBRANCH  15  16
ENDBRANCH  14  15
ENDBRANCH  13  14
ENDBRANCH  12  13
ENDBRANCH  11  12
ENDBRANCH   1  11
TORSDOF 14
ENDMDL
MODEL 7
REMARK VINA RESULT:    -4.613      2.833      6.123
REMARK INTER + INTRA:         -10.244
REMARK INTER:                  -8.318
REMARK INTRA:                  -1.926
REMARK UNBOUND:                -1.855
REMARK SMILES CCCCCCCCCCCCCCCC(=O)[O-]
REMARK SMILES IDX 9 1 10 2 11 3 12 4 13 5 14 6 15 7 16 8 17 9 18 10 8 11 7 12
REMARK SMILES IDX 6 13 5 14 4 15 3 16 2 17 1 18
REMARK H PARENT
REMARK Flexibility Score: inf
ROOT
ATOM      1  C   UNL     1      14.063  12.447 -21.958  1.00  0.00     0.000 C 
ENDROOT
BRANCH   1   2
ATOM      2  C   UNL     1      12.961  11.397 -21.754  1.00  0.00     0.000 C 
BRANCH   2   3
ATOM      3  C   UNL     1      12.663  11.122 -20.268  1.00  0.00     0.000 C 
BRANCH   3   4
ATOM      4  C   UNL     1      11.330  11.699 -19.756  1.00  0.00     0.000 C 
BRANCH   4   5
ATOM      5  C   UNL     1      11.372  12.068 -18.263  1.00  0.00     0.000 C 
BRANCH   5   6
ATOM      6  C   UNL     1      10.425  13.237 -17.920  1.00  0.00     0.006 C 
BRANCH   6   7
ATOM      7  C   UNL     1      10.281  14.263 -19.055  1.00  0.00     0.053 C 
BRANCH   7   8
ATOM      8  C   UNL     1      10.178  15.666 -18.543  1.00  0.00     0.041 C 
ATOM      9  O   UNL     1      11.187  16.418 -18.542  1.00  0.00    -0.550 OA
ATOM     10  O   UNL     1       8.969  16.136 -18.044  1.00  0.00    -0.550 OA
ENDBRANCH   7   8
ENDBRANCH   6   7
ENDBRANCH   5   6
ENDBRANCH   4   5
ENDBRANCH   3   4
ENDBRANCH   2   3
ENDBRANCH   1   2
BRANCH   1  11
ATOM     11  C   UNL     1      13.458  13.851 -22.118  1.00  0.00     0.000 C 
BRANCH  11  12
ATOM     12  C   UNL     1      13.394  14.623 -20.790  1.00  0.00    -0.000 C 
BRANCH  12  13
ATOM     13  C   UNL     1      14.557  14.277 -19.848  1.00  0.00    -0.000 C 
BRANCH  13  14
ATOM     14  C   UNL     1      14.129  14.394 -18.378  1.00  0.00    -0.000 C 
BRANCH  14  15
ATOM     15  C   UNL     1      14.732  15.621 -17.672  1.00  0.00    -0.000 C 
BRANCH  15  16
ATOM     16  C   UNL     1      15.811  15.303 -16.621  1.00  0.00    -0.000 C 
BRANCH  16  17
ATOM     17  C   UNL     1      17.190  15.039 -17.240  1.00  0.00    -0.003 C 
ATOM     18  C   UNL     1      17.536  13.553 -17.196  1.00  0.00     0.004 C 
ENDBRANCH  16  17
ENDBRANCH  15  16
ENDBRANCH  14  15
ENDBRANCH  13  14
ENDBRANCH  12  13
ENDBRANCH  11  12
ENDBRANCH   1  11
TORSDOF 14
ENDMDL
MODEL 8
REMARK VINA RESULT:    -4.613      2.654      5.246
REMARK INTER + INTRA:         -10.244
REMARK INTER:                  -7.606
REMARK INTRA:                  -2.638
REMARK UNBOUND:                -1.855
REMARK SMILES CCCCCCCCCCCCCCCC(=O)[O-]
REMARK SMILES IDX 9 1 10 2 11 3 12 4 13 5 14 6 15 7 16 8 17 9 18 10 8 11 7 12
REMARK SMILES IDX 6 13 5 14 4 15 3 16 2 17 1 18
REMARK H PARENT
REMARK Flexibility Score: inf
ROOT
ATOM      1  C   UNL     1      11.859  17.979 -17.096  1.00  0.00     0.000 C 
ENDROOT
BRANCH   1   2
ATOM      2  C   UNL     1      11.205  17.373 -18.346  1.00  0.00     0.000 C 
BRANCH   2   3
ATOM      3  C   UNL     1      12.156  17.323 -19.556  1.00  0.00     0.000 C 
BRANCH   3   4
ATOM      4  C   UNL     1      12.517  15.906 -20.040  1.00  0.00     0.000 C 
BRANCH   4   5
ATOM      5  C   UNL     1      13.912  15.453 -19.575  1.00  0.00     0.000 C 
BRANCH   5   6
ATOM      6  C   UNL     1      13.919  13.994 -19.073  1.00  0.00     0.006 C 
BRANCH   6   7
ATOM      7  C   UNL     1      13.214  13.808 -17.719  1.00  0.00     0.053 C 
BRANCH   7   8
ATOM      8  C   UNL     1      11.906  13.092 -17.854  1.00  0.00     0.041 C 
ATOM      9  O   UNL     1      10.822  13.723 -17.747  1.00  0.00    -0.550 OA
ATOM     10  O   UNL     1      11.885  11.720 -18.074  1.00  0.00    -0.550 OA
ENDBRANCH   7   8
ENDBRANCH   6   7
ENDBRANCH   5   6
ENDBRANCH   4   5
ENDBRANCH   3   4
ENDBRANCH   2   3
ENDBRANCH   1   2
BRANCH   1  11
ATOM     11  C   UNL     1      12.374  16.876 -16.158  1.00  0.00     0.000 C 
BRANCH  11  12
ATOM     12  C   UNL     1      13.868  17.029 -15.828  1.00  0.00    -0.000 C 
BRANCH  12  13
ATOM     13  C   UNL     1      14.604  17.936 -16.825  1.00  0.00    -0.000 C 
BRANCH  13  14
ATOM     14  C   UNL     1      16.016  17.406 -17.112  1.00  0.00    -0.000 C 
BRANCH  14  15
ATOM     15  C   UNL     1      16.210  15.944 -16.671  1.00  0.00    -0.000 C 
BRANCH  15  16
ATOM     16  C   UNL     1      17.151  15.114 -17.561  1.00  0.00    -0.000 C 
BRANCH  16  17
ATOM     17  C   UNL     1      17.343  13.677 -17.054  1.00  0.00    -0.003 C 
ATOM     18  C   UNL     1      16.451  13.398 -15.847  1.00  0.00     0.004 C 
ENDBRANCH  16  17
ENDBRANCH  15  16
ENDBRANCH  14  15
ENDBRANCH  13  14
ENDBRANCH  12  13
ENDBRANCH  11  12
ENDBRANCH   1  11
TORSDOF 14
ENDMDL
MODEL 9
REMARK VINA RESULT:    -4.593      2.970      6.319
REMARK INTER + INTRA:         -10.206
REMARK INTER:                  -8.056
REMARK INTRA:                  -2.150
REMARK UNBOUND:                -1.855
REMARK SMILES CCCCCCCCCCCCCCCC(=O)[O-]
REMARK SMILES IDX 9 1 10 2 11 3 12 4 13 5 14 6 15 7 16 8 17 9 18 10 8 11 7 12
REMARK SMILES IDX 6 13 5 14 4 15 3 16 2 17 1 18
REMARK H PARENT
REMARK Flexibility Score: inf
ROOT
ATOM      1  C   UNL     1      14.171  13.950 -19.293  1.00  0.00     0.000 C 
ENDROOT
BRANCH   1   2
ATOM      2  C   UNL     1      13.516  13.613 -20.640  1.00  0.00     0.000 C 
BRANCH   2   3
ATOM      3  C   UNL     1      13.003  12.163 -20.711  1.00  0.00     0.000 C 
BRANCH   3   4
ATOM      4  C   UNL     1      12.181  11.705 -19.492  1.00  0.00     0.000 C 
BRANCH   4   5
ATOM      5  C   UNL     1      10.708  12.144 -19.564  1.00  0.00     0.000 C 
BRANCH   5   6
ATOM      6  C   UNL     1      10.374  13.252 -18.544  1.00  0.00     0.006 C 
BRANCH   6   7
ATOM      7  C   UNL     1       9.972  14.585 -19.196  1.00  0.00     0.053 C 
BRANCH   7   8
ATOM      8  C   UNL     1       9.618  15.629 -18.183  1.00  0.00     0.041 C 
ATOM      9  O   UNL     1      10.082  15.562 -17.014  1.00  0.00    -0.550 OA
ATOM     10  O   UNL     1       8.756  16.663 -18.523  1.00  0.00    -0.550 OA
ENDBRANCH   7   8
ENDBRANCH   6   7
ENDBRANCH   5   6
ENDBRANCH   4   5
ENDBRANCH   3   4
ENDBRANCH   2   3
ENDBRANCH   1   2
BRANCH   1  11
ATOM     11  C   UNL     1      13.522  15.193 -18.664  1.00  0.00     0.000 C 
BRANCH  11  12
ATOM     12  C   UNL     1      13.435  15.105 -17.132  1.00  0.00    -0.000 C 
BRANCH  12  13
ATOM     13  C   UNL     1      13.827  16.419 -16.440  1.00  0.00    -0.000 C 
BRANCH  13  14
ATOM     14  C   UNL     1      15.126  16.985 -17.029  1.00  0.00    -0.000 C 
BRANCH  14  15
ATOM     15  C   UNL     1      16.381  16.233 -16.549  1.00  0.00    -0.000 C 
BRANCH  15  16
ATOM     16  C   UNL     1      17.113  15.427 -17.637  1.00  0.00    -0.000 C 
BRANCH  16  17
ATOM     17  C   UNL     1      17.469  14.003 -17.188  1.00  0.00    -0.003 C 
ATOM     18  C   UNL     1      16.538  13.529 -16.075  1.00  0.00     0.004 C 
ENDBRANCH  16  17
ENDBRANCH  15  16
ENDBRANCH  14  15
ENDBRANCH  13  14
ENDBRANCH  12  13
ENDBRANCH  11  12
ENDBRANCH   1  11
TORSDOF 14
ENDMDL
