MODEL 1
REMARK VINA RESULT:    -7.088      0.000      0.000
REMARK INTER + INTRA:         -11.499
REMARK INTER:                  -9.782
REMARK INTRA:                  -1.717
REMARK UNBOUND:                -1.717
REMARK SMILES CC[C@@H](CC[C@@H](C)[C@H]1CC[C@H]2[C@@H]3CC=C4C[C@H](O)CC[C@@]4(C)[C@H]3CC[C@]12C)C(C)C
REMARK SMILES IDX 5 1 4 2 3 3 2 4 1 5 28 6 29 7 30 8 6 9 7 10 8 11 9 12 26 13
REMARK SMILES IDX 10 14 11 15 25 16 27 17 12 18 24 19 23 20 13 21 21 22 14 23
REMARK SMILES IDX 15 24 20 25 22 26 16 27 19 28 17 29 18 30
REMARK H PARENT 18 31
REMARK Flexibility Score: inf
ROOT
ATOM      1  C   UNL     1      18.877  19.906   9.374  1.00  0.00     0.004 C 
ENDROOT
BRANCH   1   2
ATOM      2  C   UNL     1      17.467  20.298   8.884  1.00  0.00     0.004 C 
BRANCH   2   3
ATOM      3  C   UNL     1      16.784  21.428   9.708  1.00  0.00    -0.009 C 
BRANCH   3   4
ATOM      4  C   UNL     1      17.749  22.595  10.077  1.00  0.00     0.000 C 
ATOM      5  C   UNL     1      17.613  23.875   9.249  1.00  0.00     0.004 C 
ENDBRANCH   3   4
BRANCH   3   6
ATOM      6  C   UNL     1      15.922  20.854  10.882  1.00  0.00    -0.014 C 
ATOM      7  C   UNL     1      15.388  19.425  10.671  1.00  0.00     0.007 C 
ATOM      8  C   UNL     1      16.624  20.972  12.243  1.00  0.00     0.007 C 
ENDBRANCH   3   6
ENDBRANCH   2   3
ENDBRANCH   1   2
BRANCH   1   9
ATOM      9  C   UNL     1      19.312  18.473   8.925  1.00  0.00    -0.011 C 
ATOM     10  C   UNL     1      20.625  18.575   8.125  1.00  0.00     0.008 C 
BRANCH   9  11
ATOM     11  C   UNL     1      19.439  17.503  10.152  1.00  0.00    -0.002 C 
ATOM     12  C   UNL     1      18.874  18.140  11.455  1.00  0.00     0.005 C 
ATOM     13  C   UNL     1      18.721  16.119  10.086  1.00  0.00    -0.026 C 
ATOM     14  C   UNL     1      18.273  17.008  12.296  1.00  0.00     0.005 C 
ATOM     15  C   UNL     1      18.715  15.746  11.578  1.00  0.00    -0.001 C 
ATOM     16  C   UNL     1      19.500  14.994   9.357  1.00  0.00     0.007 C 
ATOM     17  C   UNL     1      17.283  16.274   9.491  1.00  0.00     0.012 C 
ATOM     18  C   UNL     1      17.969  14.429  11.890  1.00  0.00     0.000 C 
ATOM     19  C   UNL     1      18.843  13.614   9.589  1.00  0.00     0.005 C 
ATOM     20  C   UNL     1      18.637  13.266  11.100  1.00  0.00     0.003 C 
ATOM     21  C   UNL     1      18.063  14.104  13.386  1.00  0.00     0.031 C 
ATOM     22  C   UNL     1      17.912  11.880  11.360  1.00  0.00    -0.008 C 
ATOM     23  C   UNL     1      17.419  12.787  13.687  1.00  0.00    -0.027 C 
ATOM     24  C   UNL     1      17.378  11.766  12.803  1.00  0.00    -0.065 C 
ATOM     25  C   UNL     1      16.694  11.683  10.401  1.00  0.00     0.014 C 
ATOM     26  C   UNL     1      18.948  10.750  11.126  1.00  0.00     0.016 C 
ATOM     27  C   UNL     1      16.549  10.548  13.152  1.00  0.00     0.063 C 
ATOM     28  C   UNL     1      15.812  10.463  10.741  1.00  0.00     0.033 C 
ATOM     29  C   UNL     1      15.347  10.476  12.208  1.00  0.00     0.118 C 
BRANCH  29  30
ATOM     30  O   UNL     1      14.613   9.313  12.485  1.00  0.00    -0.393 OA
ATOM     31  H   UNL     1      14.025   9.522  13.257  1.00  0.00     0.210 HD
ENDBRANCH  29  30
ENDBRANCH   9  11
ENDBRANCH   1   9
TORSDOF 7
ENDMDL
MODEL 2
REMARK VINA RESULT:    -7.002      1.672      3.110
REMARK INTER + INTRA:         -11.381
REMARK INTER:                  -9.947
REMARK INTRA:                  -1.433
REMARK UNBOUND:                -1.717
REMARK SMILES CC[C@@H](CC[C@@H](C)[C@H]1CC[C@H]2[C@@H]3CC=C4C[C@H](O)CC[C@@]4(C)[C@H]3CC[C@]12C)C(C)C
REMARK SMILES IDX 5 1 4 2 3 3 2 4 1 5 28 6 29 7 30 8 6 9 7 10 8 11 9 12 26 13
REMARK SMILES IDX 10 14 11 15 25 16 27 17 12 18 24 19 23 20 13 21 21 22 14 23
REMARK SMILES IDX 15 24 20 25 22 26 16 27 19 28 17 29 18 30
REMARK H PARENT 18 31
REMARK Flexibility Score: inf
ROOT
ATOM      1  C   UNL     1      20.428  19.244   8.768  1.00  0.00     0.004 C 
ENDROOT
BRANCH   1   2
ATOM      2  C   UNL     1      20.994  20.590   9.270  1.00  0.00     0.004 C 
BRANCH   2   3
ATOM      3  C   UNL     1      19.918  21.674   9.571  1.00  0.00    -0.009 C 
BRANCH   3   4
ATOM      4  C   UNL     1      18.462  21.197   9.286  1.00  0.00     0.000 C 
ATOM      5  C   UNL     1      17.550  21.035  10.504  1.00  0.00     0.004 C 
ENDBRANCH   3   4
BRANCH   3   6
ATOM      6  C   UNL     1      20.313  23.068   8.977  1.00  0.00    -0.014 C 
ATOM      7  C   UNL     1      21.099  23.022   7.653  1.00  0.00     0.007 C 
ATOM      8  C   UNL     1      19.114  24.020   8.860  1.00  0.00     0.007 C 
ENDBRANCH   3   6
ENDBRANCH   2   3
ENDBRANCH   1   2
BRANCH   1   9
ATOM      9  C   UNL     1      20.598  18.079   9.798  1.00  0.00    -0.011 C 
ATOM     10  C   UNL     1      21.295  18.622  11.059  1.00  0.00     0.008 C 
BRANCH   9  11
ATOM     11  C   UNL     1      19.221  17.403  10.126  1.00  0.00    -0.002 C 
ATOM     12  C   UNL     1      18.152  17.703   9.035  1.00  0.00     0.005 C 
ATOM     13  C   UNL     1      19.167  15.849  10.267  1.00  0.00    -0.026 C 
ATOM     14  C   UNL     1      17.240  16.474   8.935  1.00  0.00     0.005 C 
ATOM     15  C   UNL     1      17.654  15.616  10.117  1.00  0.00    -0.001 C 
ATOM     16  C   UNL     1      19.561  15.288  11.658  1.00  0.00     0.007 C 
ATOM     17  C   UNL     1      20.004  15.167   9.136  1.00  0.00     0.012 C 
ATOM     18  C   UNL     1      17.249  14.124  10.114  1.00  0.00     0.000 C 
ATOM     19  C   UNL     1      19.208  13.788  11.778  1.00  0.00     0.005 C 
ATOM     20  C   UNL     1      17.714  13.468  11.446  1.00  0.00     0.003 C 
ATOM     21  C   UNL     1      15.725  13.985  10.020  1.00  0.00     0.031 C 
ATOM     22  C   UNL     1      17.344  11.927  11.508  1.00  0.00    -0.008 C 
ATOM     23  C   UNL     1      15.314  12.549  10.104  1.00  0.00    -0.027 C 
ATOM     24  C   UNL     1      16.008  11.622  10.800  1.00  0.00    -0.065 C 
ATOM     25  C   UNL     1      18.440  11.048  10.823  1.00  0.00     0.014 C 
ATOM     26  C   UNL     1      17.214  11.529  13.001  1.00  0.00     0.016 C 
ATOM     27  C   UNL     1      15.597  10.170  10.668  1.00  0.00     0.063 C 
ATOM     28  C   UNL     1      18.046   9.566  10.651  1.00  0.00     0.033 C 
ATOM     29  C   UNL     1      16.697   9.406   9.928  1.00  0.00     0.118 C 
BRANCH  29  30
ATOM     30  O   UNL     1      16.350   8.048   9.863  1.00  0.00    -0.393 OA
ATOM     31  H   UNL     1      16.504   7.670  10.768  1.00  0.00     0.210 HD
ENDBRANCH  29  30
ENDBRANCH   9  11
ENDBRANCH   1   9
TORSDOF 7
ENDMDL
MODEL 3
REMARK VINA RESULT:    -6.991      1.424      2.142
REMARK INTER + INTRA:         -11.366
REMARK INTER:                 -10.377
REMARK INTRA:                  -0.988
REMARK UNBOUND:                -1.717
REMARK SMILES CC[C@@H](CC[C@@H](C)[C@H]1CC[C@H]2[C@@H]3CC=C4C[C@H](O)CC[C@@]4(C)[C@H]3CC[C@]12C)C(C)C
REMARK SMILES IDX 5 1 4 2 3 3 2 4 1 5 28 6 29 7 30 8 6 9 7 10 8 11 9 12 26 13
REMARK SMILES IDX 10 14 11 15 25 16 27 17 12 18 24 19 23 20 13 21 21 22 14 23
REMARK SMILES IDX 15 24 20 25 22 26 16 27 19 28 17 29 18 30
REMARK H PARENT 18 31
REMARK Flexibility Score: inf
ROOT
ATOM      1  C   UNL     1      18.804  20.443   9.093  1.00  0.00     0.004 C 
ENDROOT
BRANCH   1   2
ATOM      2  C   UNL     1      19.984  21.393   9.391  1.00  0.00     0.004 C 
BRANCH   2   3
ATOM      3  C   UNL     1      19.938  22.745   8.622  1.00  0.00    -0.009 C 
BRANCH   3   4
ATOM      4  C   UNL     1      21.280  23.101   7.916  1.00  0.00     0.000 C 
ATOM      5  C   UNL     1      21.176  23.971   6.661  1.00  0.00     0.004 C 
ENDBRANCH   3   4
BRANCH   3   6
ATOM      6  C   UNL     1      19.292  23.884   9.482  1.00  0.00    -0.014 C 
ATOM      7  C   UNL     1      17.975  24.461   8.930  1.00  0.00     0.007 C 
ATOM      8  C   UNL     1      19.132  23.489  10.958  1.00  0.00     0.007 C 
ENDBRANCH   3   6
ENDBRANCH   2   3
ENDBRANCH   1   2
BRANCH   1   9
ATOM      9  C   UNL     1      19.257  19.003   8.684  1.00  0.00    -0.011 C 
ATOM     10  C   UNL     1      20.577  19.098   7.896  1.00  0.00     0.008 C 
BRANCH   9  11
ATOM     11  C   UNL     1      19.380  18.067   9.937  1.00  0.00    -0.002 C 
ATOM     12  C   UNL     1      18.677  18.673  11.186  1.00  0.00     0.005 C 
ATOM     13  C   UNL     1      18.787  16.625   9.852  1.00  0.00    -0.026 C 
ATOM     14  C   UNL     1      18.116  17.506  12.008  1.00  0.00     0.005 C 
ATOM     15  C   UNL     1      18.711  16.276  11.348  1.00  0.00    -0.001 C 
ATOM     16  C   UNL     1      19.706  15.560   9.200  1.00  0.00     0.007 C 
ATOM     17  C   UNL     1      17.385  16.648   9.160  1.00  0.00     0.012 C 
ATOM     18  C   UNL     1      18.058  14.904  11.637  1.00  0.00     0.000 C 
ATOM     19  C   UNL     1      19.152  14.133   9.417  1.00  0.00     0.005 C 
ATOM     20  C   UNL     1      18.874  13.791  10.917  1.00  0.00     0.003 C 
ATOM     21  C   UNL     1      18.076  14.611  13.142  1.00  0.00     0.031 C 
ATOM     22  C   UNL     1      18.251  12.352  11.157  1.00  0.00    -0.008 C 
ATOM     23  C   UNL     1      17.526  13.249  13.426  1.00  0.00    -0.027 C 
ATOM     24  C   UNL     1      17.632  12.215  12.563  1.00  0.00    -0.065 C 
ATOM     25  C   UNL     1      17.122  12.038  10.123  1.00  0.00     0.014 C 
ATOM     26  C   UNL     1      19.392  11.311  11.016  1.00  0.00     0.016 C 
ATOM     27  C   UNL     1      16.885  10.936  12.881  1.00  0.00     0.063 C 
ATOM     28  C   UNL     1      16.325  10.752  10.429  1.00  0.00     0.033 C 
ATOM     29  C   UNL     1      15.761  10.749  11.860  1.00  0.00     0.118 C 
BRANCH  29  30
ATOM     30  O   UNL     1      15.110   9.531  12.112  1.00  0.00    -0.393 OA
ATOM     31  H   UNL     1      14.160   9.748  12.301  1.00  0.00     0.210 HD
ENDBRANCH  29  30
ENDBRANCH   9  11
ENDBRANCH   1   9
TORSDOF 7
ENDMDL
MODEL 4
REMARK VINA RESULT:    -6.930      1.387      2.359
REMARK INTER + INTRA:         -11.281
REMARK INTER:                 -10.157
REMARK INTRA:                  -1.124
REMARK UNBOUND:                -1.717
REMARK SMILES CC[C@@H](CC[C@@H](C)[C@H]1CC[C@H]2[C@@H]3CC=C4C[C@H](O)CC[C@@]4(C)[C@H]3CC[C@]12C)C(C)C
REMARK SMILES IDX 5 1 4 2 3 3 2 4 1 5 28 6 29 7 30 8 6 9 7 10 8 11 9 12 26 13
REMARK SMILES IDX 10 14 11 15 25 16 27 17 12 18 24 19 23 20 13 21 21 22 14 23
REMARK SMILES IDX 15 24 20 25 22 26 16 27 19 28 17 29 18 30
REMARK H PARENT 18 31
REMARK Flexibility Score: inf
ROOT
ATOM      1  C   UNL     1      18.813  18.709  10.880  1.00  0.00     0.004 C 
ENDROOT
BRANCH   1   2
ATOM      2  C   UNL     1      18.457  19.425   9.559  1.00  0.00     0.004 C 
BRANCH   2   3
ATOM      3  C   UNL     1      18.853  20.930   9.510  1.00  0.00    -0.009 C 
BRANCH   3   4
ATOM      4  C   UNL     1      17.638  21.883   9.302  1.00  0.00     0.000 C 
ATOM      5  C   UNL     1      17.933  23.383   9.377  1.00  0.00     0.004 C 
ENDBRANCH   3   4
BRANCH   3   6
ATOM      6  C   UNL     1      20.088  21.178   8.579  1.00  0.00    -0.014 C 
ATOM      7  C   UNL     1      21.311  21.817   9.263  1.00  0.00     0.007 C 
ATOM      8  C   UNL     1      20.500  19.921   7.799  1.00  0.00     0.007 C 
ENDBRANCH   3   6
ENDBRANCH   2   3
ENDBRANCH   1   2
BRANCH   1   9
ATOM      9  C   UNL     1      19.855  17.557  10.696  1.00  0.00    -0.011 C 
ATOM     10  C   UNL     1      21.275  18.151  10.759  1.00  0.00     0.008 C 
BRANCH   9  11
ATOM     11  C   UNL     1      19.640  16.419  11.755  1.00  0.00    -0.002 C 
ATOM     12  C   UNL     1      18.869  16.930  13.006  1.00  0.00     0.005 C 
ATOM     13  C   UNL     1      18.840  15.148  11.332  1.00  0.00    -0.026 C 
ATOM     14  C   UNL     1      18.012  15.768  13.524  1.00  0.00     0.005 C 
ATOM     15  C   UNL     1      18.490  14.575  12.715  1.00  0.00    -0.001 C 
ATOM     16  C   UNL     1      19.660  14.053  10.600  1.00  0.00     0.007 C 
ATOM     17  C   UNL     1      17.578  15.545  10.499  1.00  0.00     0.012 C 
ATOM     18  C   UNL     1      17.589  13.320  12.663  1.00  0.00     0.000 C 
ATOM     19  C   UNL     1      18.857  12.738  10.478  1.00  0.00     0.005 C 
ATOM     20  C   UNL     1      18.310  12.210  11.844  1.00  0.00     0.003 C 
ATOM     21  C   UNL     1      17.338  12.783  14.077  1.00  0.00     0.031 C 
ATOM     22  C   UNL     1      17.434  10.892  11.734  1.00  0.00    -0.008 C 
ATOM     23  C   UNL     1      16.539  11.519  14.033  1.00  0.00    -0.027 C 
ATOM     24  C   UNL     1      16.601  10.641  13.008  1.00  0.00    -0.065 C 
ATOM     25  C   UNL     1      16.433  10.969  10.537  1.00  0.00     0.014 C 
ATOM     26  C   UNL     1      18.399   9.696  11.532  1.00  0.00     0.016 C 
ATOM     27  C   UNL     1      15.619   9.488  12.991  1.00  0.00     0.063 C 
ATOM     28  C   UNL     1      15.402   9.821  10.500  1.00  0.00     0.033 C 
ATOM     29  C   UNL     1      14.641   9.685  11.830  1.00  0.00     0.118 C 
BRANCH  29  30
ATOM     30  O   UNL     1      13.772   8.585  11.771  1.00  0.00    -0.393 OA
ATOM     31  H   UNL     1      14.237   7.880  11.248  1.00  0.00     0.210 HD
ENDBRANCH  29  30
ENDBRANCH   9  11
ENDBRANCH   1   9
TORSDOF 7
ENDMDL
MODEL 5
REMARK VINA RESULT:    -6.873     13.940     17.849
REMARK INTER + INTRA:         -11.201
REMARK INTER:                  -9.455
REMARK INTRA:                  -1.747
REMARK UNBOUND:                -1.717
REMARK SMILES CC[C@@H](CC[C@@H](C)[C@H]1CC[C@H]2[C@@H]3CC=C4C[C@H](O)CC[C@@]4(C)[C@H]3CC[C@]12C)C(C)C
REMARK SMILES IDX 5 1 4 2 3 3 2 4 1 5 28 6 29 7 30 8 6 9 7 10 8 11 9 12 26 13
REMARK SMILES IDX 10 14 11 15 25 16 27 17 12 18 24 19 23 20 13 21 21 22 14 23
REMARK SMILES IDX 15 24 20 25 22 26 16 27 19 28 17 29 18 30
REMARK H PARENT 18 31
REMARK Flexibility Score: inf
ROOT
ATOM      1  C   UNL     1       3.007   9.781  20.239  1.00  0.00     0.004 C 
ENDROOT
BRANCH   1   2
ATOM      2  C   UNL     1       3.512   8.946  21.435  1.00  0.00     0.004 C 
BRANCH   2   3
ATOM      3  C   UNL     1       3.638   9.736  22.770  1.00  0.00    -0.009 C 
BRANCH   3   4
ATOM      4  C   UNL     1       4.740   9.176  23.719  1.00  0.00     0.000 C 
ATOM      5  C   UNL     1       6.189   9.442  23.307  1.00  0.00     0.004 C 
ENDBRANCH   3   4
BRANCH   3   6
ATOM      6  C   UNL     1       2.240  10.002  23.424  1.00  0.00    -0.014 C 
ATOM      7  C   UNL     1       1.895   9.109  24.631  1.00  0.00     0.007 C 
ATOM      8  C   UNL     1       2.023  11.483  23.769  1.00  0.00     0.007 C 
ENDBRANCH   3   6
ENDBRANCH   2   3
ENDBRANCH   1   2
BRANCH   1   9
ATOM      9  C   UNL     1       4.162  10.399  19.384  1.00  0.00    -0.011 C 
ATOM     10  C   UNL     1       4.146   9.759  17.983  1.00  0.00     0.008 C 
BRANCH   9  11
ATOM     11  C   UNL     1       4.054  11.963  19.324  1.00  0.00    -0.002 C 
ATOM     12  C   UNL     1       2.949  12.505  20.276  1.00  0.00     0.005 C 
ATOM     13  C   UNL     1       5.307  12.813  19.704  1.00  0.00    -0.026 C 
ATOM     14  C   UNL     1       3.418  13.871  20.793  1.00  0.00     0.005 C 
ATOM     15  C   UNL     1       4.643  14.177  19.952  1.00  0.00    -0.001 C 
ATOM     16  C   UNL     1       6.340  13.028  18.568  1.00  0.00     0.007 C 
ATOM     17  C   UNL     1       5.999  12.230  20.980  1.00  0.00     0.012 C 
ATOM     18  C   UNL     1       5.620  15.265  20.454  1.00  0.00     0.000 C 
ATOM     19  C   UNL     1       7.385  14.100  18.955  1.00  0.00     0.005 C 
ATOM     20  C   UNL     1       6.752  15.457  19.403  1.00  0.00     0.003 C 
ATOM     21  C   UNL     1       4.890  16.604  20.618  1.00  0.00     0.031 C 
ATOM     22  C   UNL     1       7.804  16.552  19.860  1.00  0.00    -0.008 C 
ATOM     23  C   UNL     1       5.843  17.685  21.020  1.00  0.00    -0.027 C 
ATOM     24  C   UNL     1       7.143  17.697  20.655  1.00  0.00    -0.065 C 
ATOM     25  C   UNL     1       8.912  15.936  20.774  1.00  0.00     0.014 C 
ATOM     26  C   UNL     1       8.454  17.149  18.584  1.00  0.00     0.016 C 
ATOM     27  C   UNL     1       8.050  18.745  21.266  1.00  0.00     0.063 C 
ATOM     28  C   UNL     1       9.841  16.977  21.432  1.00  0.00     0.033 C 
ATOM     29  C   UNL     1       9.052  18.056  22.194  1.00  0.00     0.118 C 
BRANCH  29  30
ATOM     30  O   UNL     1       9.937  19.016  22.710  1.00  0.00    -0.393 OA
ATOM     31  H   UNL     1       9.894  18.943  23.699  1.00  0.00     0.210 HD
ENDBRANCH  29  30
ENDBRANCH   9  11
ENDBRANCH   1   9
TORSDOF 7
ENDMDL
MODEL 6
REMARK VINA RESULT:    -6.768      2.883      8.928
REMARK INTER + INTRA:         -11.057
REMARK INTER:                  -9.716
REMARK INTRA:                  -1.341
REMARK UNBOUND:                -1.717
REMARK SMILES CC[C@@H](CC[C@@H](C)[C@H]1CC[C@H]2[C@@H]3CC=C4C[C@H](O)CC[C@@]4(C)[C@H]3CC[C@]12C)C(C)C
REMARK SMILES IDX 5 1 4 2 3 3 2 4 1 5 28 6 29 7 30 8 6 9 7 10 8 11 9 12 26 13
REMARK SMILES IDX 10 14 11 15 25 16 27 17 12 18 24 19 23 20 13 21 21 22 14 23
REMARK SMILES IDX 15 24 20 25 22 26 16 27 19 28 17 29 18 30
REMARK H PARENT 18 31
REMARK Flexibility Score: inf
ROOT
ATOM      1  C   UNL     1      18.898  11.827  11.520  1.00  0.00     0.004 C 
ENDROOT
BRANCH   1   2
ATOM      2  C   UNL     1      18.133  10.811  10.645  1.00  0.00     0.004 C 
BRANCH   2   3
ATOM      3  C   UNL     1      17.788   9.471  11.357  1.00  0.00    -0.009 C 
BRANCH   3   4
ATOM      4  C   UNL     1      18.476   8.232  10.712  1.00  0.00     0.000 C 
ATOM      5  C   UNL     1      19.836   8.476  10.054  1.00  0.00     0.004 C 
ENDBRANCH   3   4
BRANCH   3   6
ATOM      6  C   UNL     1      16.252   9.337  11.635  1.00  0.00    -0.014 C 
ATOM      7  C   UNL     1      15.829   9.519  13.104  1.00  0.00     0.007 C 
ATOM      8  C   UNL     1      15.407  10.230  10.715  1.00  0.00     0.007 C 
ENDBRANCH   3   6
ENDBRANCH   2   3
ENDBRANCH   1   2
BRANCH   1   9
ATOM      9  C   UNL     1      17.982  12.951  12.107  1.00  0.00    -0.011 C 
ATOM     10  C   UNL     1      17.725  12.660  13.598  1.00  0.00     0.008 C 
BRANCH   9  11
ATOM     11  C   UNL     1      18.605  14.372  11.878  1.00  0.00    -0.002 C 
ATOM     12  C   UNL     1      19.522  14.408  10.622  1.00  0.00     0.005 C 
ATOM     13  C   UNL     1      17.643  15.582  11.659  1.00  0.00    -0.026 C 
ATOM     14  C   UNL     1      19.401  15.807  10.005  1.00  0.00     0.005 C 
ATOM     15  C   UNL     1      18.620  16.596  11.041  1.00  0.00    -0.001 C 
ATOM     16  C   UNL     1      17.088  16.239  12.949  1.00  0.00     0.007 C 
ATOM     17  C   UNL     1      16.480  15.189  10.691  1.00  0.00     0.012 C 
ATOM     18  C   UNL     1      17.953  17.919  10.601  1.00  0.00     0.000 C 
ATOM     19  C   UNL     1      16.385  17.580  12.637  1.00  0.00     0.005 C 
ATOM     20  C   UNL     1      17.277  18.583  11.836  1.00  0.00     0.003 C 
ATOM     21  C   UNL     1      19.004  18.891  10.052  1.00  0.00     0.031 C 
ATOM     22  C   UNL     1      16.556  19.943  11.456  1.00  0.00    -0.008 C 
ATOM     23  C   UNL     1      18.384  20.207   9.704  1.00  0.00    -0.027 C 
ATOM     24  C   UNL     1      17.310  20.711  10.350  1.00  0.00    -0.065 C 
ATOM     25  C   UNL     1      15.103  19.695  10.935  1.00  0.00     0.014 C 
ATOM     26  C   UNL     1      16.510  20.829  12.728  1.00  0.00     0.016 C 
ATOM     27  C   UNL     1      16.663  21.964   9.797  1.00  0.00     0.063 C 
ATOM     28  C   UNL     1      14.421  20.946  10.343  1.00  0.00     0.033 C 
ATOM     29  C   UNL     1      15.278  21.610   9.251  1.00  0.00     0.118 C 
BRANCH  29  30
ATOM     30  O   UNL     1      14.649  22.780   8.799  1.00  0.00    -0.393 OA
ATOM     31  H   UNL     1      14.292  23.242   9.602  1.00  0.00     0.210 HD
ENDBRANCH  29  30
ENDBRANCH   9  11
ENDBRANCH   1   9
TORSDOF 7
ENDMDL
MODEL 7
REMARK VINA RESULT:    -6.702      4.295      6.626
REMARK INTER + INTRA:         -10.966
REMARK INTER:                  -8.888
REMARK INTRA:                  -2.078
REMARK UNBOUND:                -1.717
REMARK SMILES CC[C@@H](CC[C@@H](C)[C@H]1CC[C@H]2[C@@H]3CC=C4C[C@H](O)CC[C@@]4(C)[C@H]3CC[C@]12C)C(C)C
REMARK SMILES IDX 5 1 4 2 3 3 2 4 1 5 28 6 29 7 30 8 6 9 7 10 8 11 9 12 26 13
REMARK SMILES IDX 10 14 11 15 25 16 27 17 12 18 24 19 23 20 13 21 21 22 14 23
REMARK SMILES IDX 15 24 20 25 22 26 16 27 19 28 17 29 18 30
REMARK H PARENT 18 31
REMARK Flexibility Score: inf
ROOT
ATOM      1  C   UNL     1      17.351  19.464   8.200  1.00  0.00     0.004 C 
ENDROOT
BRANCH   1   2
ATOM      2  C   UNL     1      18.535  20.428   7.972  1.00  0.00     0.004 C 
BRANCH   2   3
ATOM      3  C   UNL     1      19.401  20.702   9.237  1.00  0.00    -0.009 C 
BRANCH   3   4
ATOM      4  C   UNL     1      19.523  22.215   9.586  1.00  0.00     0.000 C 
ATOM      5  C   UNL     1      18.296  23.081   9.292  1.00  0.00     0.004 C 
ENDBRANCH   3   4
BRANCH   3   6
ATOM      6  C   UNL     1      20.741  19.893   9.213  1.00  0.00    -0.014 C 
ATOM      7  C   UNL     1      20.937  18.907  10.380  1.00  0.00     0.007 C 
ATOM      8  C   UNL     1      20.984  19.192   7.868  1.00  0.00     0.007 C 
ENDBRANCH   3   6
ENDBRANCH   2   3
ENDBRANCH   1   2
BRANCH   1   9
ATOM      9  C   UNL     1      16.429  19.889   9.390  1.00  0.00    -0.011 C 
ATOM     10  C   UNL     1      15.030  20.231   8.842  1.00  0.00     0.008 C 
BRANCH   9  11
ATOM     11  C   UNL     1      16.378  18.778  10.496  1.00  0.00    -0.002 C 
ATOM     12  C   UNL     1      17.526  17.741  10.330  1.00  0.00     0.005 C 
ATOM     13  C   UNL     1      16.494  19.209  11.992  1.00  0.00    -0.026 C 
ATOM     14  C   UNL     1      17.928  17.272  11.734  1.00  0.00     0.005 C 
ATOM     15  C   UNL     1      16.857  17.860  12.635  1.00  0.00    -0.001 C 
ATOM     16  C   UNL     1      15.173  19.671  12.661  1.00  0.00     0.007 C 
ATOM     17  C   UNL     1      17.611  20.288  12.167  1.00  0.00     0.012 C 
ATOM     18  C   UNL     1      17.145  17.948  14.151  1.00  0.00     0.000 C 
ATOM     19  C   UNL     1      15.335  19.804  14.192  1.00  0.00     0.005 C 
ATOM     20  C   UNL     1      15.889  18.511  14.876  1.00  0.00     0.003 C 
ATOM     21  C   UNL     1      17.440  16.555  14.720  1.00  0.00     0.031 C 
ATOM     22  C   UNL     1      16.117  18.644  16.440  1.00  0.00    -0.008 C 
ATOM     23  C   UNL     1      17.635  16.615  16.203  1.00  0.00    -0.027 C 
ATOM     24  C   UNL     1      17.018  17.521  16.993  1.00  0.00    -0.065 C 
ATOM     25  C   UNL     1      16.799  20.003  16.805  1.00  0.00     0.014 C 
ATOM     26  C   UNL     1      14.733  18.552  17.133  1.00  0.00     0.016 C 
ATOM     27  C   UNL     1      17.428  17.598  18.449  1.00  0.00     0.063 C 
ATOM     28  C   UNL     1      17.250  20.109  18.277  1.00  0.00     0.033 C 
ATOM     29  C   UNL     1      18.144  18.928  18.694  1.00  0.00     0.118 C 
BRANCH  29  30
ATOM     30  O   UNL     1      18.465  19.033  20.057  1.00  0.00    -0.393 OA
ATOM     31  H   UNL     1      17.990  19.833  20.402  1.00  0.00     0.210 HD
ENDBRANCH  29  30
ENDBRANCH   9  11
ENDBRANCH   1   9
TORSDOF 7
ENDMDL
MODEL 8
REMARK VINA RESULT:    -6.446     15.091     18.833
REMARK INTER + INTRA:         -10.612
REMARK INTER:                  -9.284
REMARK INTRA:                  -1.328
REMARK UNBOUND:                -1.717
REMARK SMILES CC[C@@H](CC[C@@H](C)[C@H]1CC[C@H]2[C@@H]3CC=C4C[C@H](O)CC[C@@]4(C)[C@H]3CC[C@]12C)C(C)C
REMARK SMILES IDX 5 1 4 2 3 3 2 4 1 5 28 6 29 7 30 8 6 9 7 10 8 11 9 12 26 13
REMARK SMILES IDX 10 14 11 15 25 16 27 17 12 18 24 19 23 20 13 21 21 22 14 23
REMARK SMILES IDX 15 24 20 25 22 26 16 27 19 28 17 29 18 30
REMARK H PARENT 18 31
REMARK Flexibility Score: inf
ROOT
ATOM      1  C   UNL     1       2.038  11.505  22.991  1.00  0.00     0.004 C 
ENDROOT
BRANCH   1   2
ATOM      2  C   UNL     1       2.233  10.028  23.393  1.00  0.00     0.004 C 
BRANCH   2   3
ATOM      3  C   UNL     1       3.458   9.332  22.731  1.00  0.00    -0.009 C 
BRANCH   3   4
ATOM      4  C   UNL     1       4.599   8.998  23.738  1.00  0.00     0.000 C 
ATOM      5  C   UNL     1       4.166   8.410  25.083  1.00  0.00     0.004 C 
ENDBRANCH   3   4
BRANCH   3   6
ATOM      6  C   UNL     1       3.896  10.053  21.412  1.00  0.00    -0.014 C 
ATOM      7  C   UNL     1       5.408  10.307  21.270  1.00  0.00     0.007 C 
ATOM      8  C   UNL     1       3.344   9.367  20.153  1.00  0.00     0.007 C 
ENDBRANCH   3   6
ENDBRANCH   2   3
ENDBRANCH   1   2
BRANCH   1   9
ATOM      9  C   UNL     1       1.941  12.472  24.217  1.00  0.00    -0.011 C 
ATOM     10  C   UNL     1       2.574  11.790  25.444  1.00  0.00     0.008 C 
BRANCH   9  11
ATOM     11  C   UNL     1       2.602  13.860  23.902  1.00  0.00    -0.002 C 
ATOM     12  C   UNL     1       2.812  14.707  25.190  1.00  0.00     0.005 C 
ATOM     13  C   UNL     1       4.008  13.880  23.224  1.00  0.00    -0.026 C 
ATOM     14  C   UNL     1       4.087  15.535  24.993  1.00  0.00     0.005 C 
ATOM     15  C   UNL     1       4.435  15.325  23.531  1.00  0.00    -0.001 C 
ATOM     16  C   UNL     1       4.008  13.742  21.679  1.00  0.00     0.007 C 
ATOM     17  C   UNL     1       4.948  12.815  23.877  1.00  0.00     0.012 C 
ATOM     18  C   UNL     1       5.869  15.665  23.065  1.00  0.00     0.000 C 
ATOM     19  C   UNL     1       5.402  14.053  21.088  1.00  0.00     0.005 C 
ATOM     20  C   UNL     1       5.971  15.442  21.528  1.00  0.00     0.003 C 
ATOM     21  C   UNL     1       6.191  17.136  23.356  1.00  0.00     0.031 C 
ATOM     22  C   UNL     1       7.426  15.757  20.979  1.00  0.00    -0.008 C 
ATOM     23  C   UNL     1       7.544  17.500  22.831  1.00  0.00    -0.027 C 
ATOM     24  C   UNL     1       8.095  16.918  21.743  1.00  0.00    -0.065 C 
ATOM     25  C   UNL     1       8.368  14.517  21.109  1.00  0.00     0.014 C 
ATOM     26  C   UNL     1       7.294  16.159  19.487  1.00  0.00     0.016 C 
ATOM     27  C   UNL     1       9.537  17.240  21.411  1.00  0.00     0.063 C 
ATOM     28  C   UNL     1       9.850  14.814  20.800  1.00  0.00     0.033 C 
ATOM     29  C   UNL     1      10.390  15.990  21.632  1.00  0.00     0.118 C 
BRANCH  29  30
ATOM     30  O   UNL     1      11.716  16.265  21.261  1.00  0.00    -0.393 OA
ATOM     31  H   UNL     1      12.294  15.660  21.795  1.00  0.00     0.210 HD
ENDBRANCH  29  30
ENDBRANCH   9  11
ENDBRANCH   1   9
TORSDOF 7
ENDMDL
MODEL 9
REMARK VINA RESULT:    -6.429     14.623     18.802
REMARK INTER + INTRA:         -10.590
REMARK INTER:                  -8.831
REMARK INTRA:                  -1.759
REMARK UNBOUND:                -1.717
REMARK SMILES CC[C@@H](CC[C@@H](C)[C@H]1CC[C@H]2[C@@H]3CC=C4C[C@H](O)CC[C@@]4(C)[C@H]3CC[C@]12C)C(C)C
REMARK SMILES IDX 5 1 4 2 3 3 2 4 1 5 28 6 29 7 30 8 6 9 7 10 8 11 9 12 26 13
REMARK SMILES IDX 10 14 11 15 25 16 27 17 12 18 24 19 23 20 13 21 21 22 14 23
REMARK SMILES IDX 15 24 20 25 22 26 16 27 19 28 17 29 18 30
REMARK H PARENT 18 31
REMARK Flexibility Score: inf
ROOT
ATOM      1  C   UNL     1       3.711   9.713  24.094  1.00  0.00     0.004 C 
ENDROOT
BRANCH   1   2
ATOM      2  C   UNL     1       4.859   9.157  24.965  1.00  0.00     0.004 C 
BRANCH   2   3
ATOM      3  C   UNL     1       5.715   8.052  24.281  1.00  0.00    -0.009 C 
BRANCH   3   4
ATOM      4  C   UNL     1       5.266   6.606  24.646  1.00  0.00     0.000 C 
ATOM      5  C   UNL     1       3.899   6.165  24.116  1.00  0.00     0.004 C 
ENDBRANCH   3   4
BRANCH   3   6
ATOM      6  C   UNL     1       7.249   8.345  24.400  1.00  0.00    -0.014 C 
ATOM      7  C   UNL     1       7.928   8.842  23.111  1.00  0.00     0.007 C 
ATOM      8  C   UNL     1       7.582   9.272  25.578  1.00  0.00     0.007 C 
ENDBRANCH   3   6
ENDBRANCH   2   3
ENDBRANCH   1   2
BRANCH   1   9
ATOM      9  C   UNL     1       4.171  10.132  22.659  1.00  0.00    -0.011 C 
ATOM     10  C   UNL     1       3.413   9.283  21.622  1.00  0.00     0.008 C 
BRANCH   9  11
ATOM     11  C   UNL     1       3.975  11.671  22.424  1.00  0.00    -0.002 C 
ATOM     12  C   UNL     1       3.267  12.356  23.629  1.00  0.00     0.005 C 
ATOM     13  C   UNL     1       5.239  12.558  22.196  1.00  0.00    -0.026 C 
ATOM     14  C   UNL     1       3.827  13.780  23.742  1.00  0.00     0.005 C 
ATOM     15  C   UNL     1       4.647  13.950  22.476  1.00  0.00    -0.001 C 
ATOM     16  C   UNL     1       5.778  12.596  20.743  1.00  0.00     0.007 C 
ATOM     17  C   UNL     1       6.373  12.166  23.199  1.00  0.00     0.012 C 
ATOM     18  C   UNL     1       5.687  15.092  22.428  1.00  0.00     0.000 C 
ATOM     19  C   UNL     1       6.840  13.705  20.566  1.00  0.00     0.005 C 
ATOM     20  C   UNL     1       6.350  15.118  21.020  1.00  0.00     0.003 C 
ATOM     21  C   UNL     1       5.004  16.446  22.659  1.00  0.00     0.031 C 
ATOM     22  C   UNL     1       7.443  16.261  20.901  1.00  0.00    -0.008 C 
ATOM     23  C   UNL     1       5.986  17.568  22.529  1.00  0.00    -0.027 C 
ATOM     24  C   UNL     1       7.063  17.515  21.715  1.00  0.00    -0.065 C 
ATOM     25  C   UNL     1       8.835  15.778  21.424  1.00  0.00     0.014 C 
ATOM     26  C   UNL     1       7.557  16.657  19.407  1.00  0.00     0.016 C 
ATOM     27  C   UNL     1       8.079  18.635  21.798  1.00  0.00     0.063 C 
ATOM     28  C   UNL     1       9.890  16.897  21.543  1.00  0.00     0.033 C 
ATOM     29  C   UNL     1       9.382  18.083  22.381  1.00  0.00     0.118 C 
BRANCH  29  30
ATOM     30  O   UNL     1      10.347  19.102  22.398  1.00  0.00    -0.393 OA
ATOM     31  H   UNL     1      10.031  19.785  23.046  1.00  0.00     0.210 HD
ENDBRANCH  29  30
ENDBRANCH   9  11
ENDBRANCH   1   9
TORSDOF 7
ENDMDL
