MODEL 1
REMARK VINA RESULT:    -4.652      0.000      0.000
REMARK INTER + INTRA:          -5.594
REMARK INTER:                  -5.468
REMARK INTRA:                  -0.126
REMARK UNBOUND:                -0.126
REMARK SMILES O=C([O-])C=Cc1ccc(O)c(O)c1
REMARK SMILES IDX 6 1 13 2 7 3 11 4 8 5 9 6 5 7 4 8 2 9 1 10 3 11 12 12 10 14
REMARK H PARENT 12 13 10 15
REMARK Flexibility Score: inf
ROOT
ATOM      1  C   UNL     1    -117.955 -98.283  43.911  1.00  0.00    -0.022 A 
ATOM      2  C   UNL     1    -116.913 -98.951  43.239  1.00  0.00     0.058 A 
ATOM      3  C   UNL     1    -118.920 -97.599  43.155  1.00  0.00     0.012 A 
ATOM      4  C   UNL     1    -116.825 -98.913  41.841  1.00  0.00     0.157 A 
ATOM      5  C   UNL     1    -118.833 -97.557  41.761  1.00  0.00     0.051 A 
ATOM      6  C   UNL     1    -117.787 -98.210  41.098  1.00  0.00     0.157 A 
ENDROOT
BRANCH   1   7
ATOM      7  C   UNL     1    -118.097 -98.305  45.388  1.00  0.00     0.010 C 
ATOM      8  C   UNL     1    -117.958 -99.412  46.132  1.00  0.00     0.025 C 
BRANCH   8   9
ATOM      9  C   UNL     1    -118.095 -99.386  47.597  1.00  0.00     0.064 C 
ATOM     10  O   UNL     1    -119.077 -98.796  48.119  1.00  0.00    -0.545 OA
ATOM     11  O   UNL     1    -117.155-100.001  48.417  1.00  0.00    -0.545 OA
ENDBRANCH   8   9
ENDBRANCH   1   7
BRANCH   4  12
ATOM     12  O   UNL     1    -115.777 -99.583  41.211  1.00  0.00    -0.504 OA
ATOM     13  H   UNL     1    -115.261-100.325  41.668  1.00  0.00     0.293 HD
ENDBRANCH   4  12
BRANCH   6  14
ATOM     14  O   UNL     1    -117.701 -98.165  39.708  1.00  0.00    -0.504 OA
ATOM     15  H   UNL     1    -117.698 -99.010  39.149  1.00  0.00     0.293 HD
ENDBRANCH   6  14
TORSDOF 4
ENDMDL
MODEL 2
REMARK VINA RESULT:    -4.634      1.497      5.807
REMARK INTER + INTRA:          -5.573
REMARK INTER:                  -5.429
REMARK INTRA:                  -0.144
REMARK UNBOUND:                -0.126
REMARK SMILES O=C([O-])C=Cc1ccc(O)c(O)c1
REMARK SMILES IDX 6 1 13 2 7 3 11 4 8 5 9 6 5 7 4 8 2 9 1 10 3 11 12 12 10 14
REMARK H PARENT 12 13 10 15
REMARK Flexibility Score: inf
ROOT
ATOM      1  C   UNL     1    -118.057 -98.504  45.462  1.00  0.00    -0.022 A 
ATOM      2  C   UNL     1    -117.924 -99.128  46.718  1.00  0.00     0.058 A 
ATOM      3  C   UNL     1    -118.389 -97.141  45.415  1.00  0.00     0.012 A 
ATOM      4  C   UNL     1    -118.145 -98.409  47.900  1.00  0.00     0.157 A 
ATOM      5  C   UNL     1    -118.612 -96.422  46.592  1.00  0.00     0.051 A 
ATOM      6  C   UNL     1    -118.494 -97.050  47.838  1.00  0.00     0.157 A 
ENDROOT
BRANCH   1   7
ATOM      7  C   UNL     1    -117.822 -99.221  44.185  1.00  0.00     0.010 C 
ATOM      8  C   UNL     1    -117.146 -98.699  43.152  1.00  0.00     0.025 C 
BRANCH   8   9
ATOM      9  C   UNL     1    -116.925 -99.451  41.907  1.00  0.00     0.064 C 
ATOM     10  O   UNL     1    -117.882-100.078  41.381  1.00  0.00    -0.545 OA
ATOM     11  O   UNL     1    -115.673 -99.485  41.301  1.00  0.00    -0.545 OA
ENDBRANCH   8   9
ENDBRANCH   1   7
BRANCH   4  12
ATOM     12  O   UNL     1    -118.007 -99.061  49.125  1.00  0.00    -0.504 OA
ATOM     13  H   UNL     1    -118.018 -98.561  50.005  1.00  0.00     0.293 HD
ENDBRANCH   4  12
BRANCH   6  14
ATOM     14  O   UNL     1    -118.719 -96.331  49.010  1.00  0.00    -0.504 OA
ATOM     15  H   UNL     1    -119.423 -96.616  49.680  1.00  0.00     0.293 HD
ENDBRANCH   6  14
TORSDOF 4
ENDMDL
MODEL 3
REMARK VINA RESULT:    -4.346      8.366     11.270
REMARK INTER + INTRA:          -5.234
REMARK INTER:                  -5.086
REMARK INTRA:                  -0.148
REMARK UNBOUND:                -0.126
REMARK SMILES O=C([O-])C=Cc1ccc(O)c(O)c1
REMARK SMILES IDX 6 1 13 2 7 3 11 4 8 5 9 6 5 7 4 8 2 9 1 10 3 11 12 12 10 14
REMARK H PARENT 12 13 10 15
REMARK Flexibility Score: inf
ROOT
ATOM      1  C   UNL     1    -117.243 -98.427  32.830  1.00  0.00    -0.022 A 
ATOM      2  C   UNL     1    -117.585 -97.324  32.023  1.00  0.00     0.058 A 
ATOM      3  C   UNL     1    -117.516 -99.721  32.359  1.00  0.00     0.012 A 
ATOM      4  C   UNL     1    -118.212 -97.512  30.785  1.00  0.00     0.157 A 
ATOM      5  C   UNL     1    -118.144 -99.911  31.125  1.00  0.00     0.051 A 
ATOM      6  C   UNL     1    -118.497 -98.811  30.334  1.00  0.00     0.157 A 
ENDROOT
BRANCH   1   7
ATOM      7  C   UNL     1    -116.566 -98.278  34.142  1.00  0.00     0.010 C 
ATOM      8  C   UNL     1    -116.648 -99.182  35.128  1.00  0.00     0.025 C 
BRANCH   8   9
ATOM      9  C   UNL     1    -115.950 -99.000  36.410  1.00  0.00     0.064 C 
ATOM     10  O   UNL     1    -114.702 -98.835  36.420  1.00  0.00    -0.545 OA
ATOM     11  O   UNL     1    -116.645 -99.010  37.615  1.00  0.00    -0.545 OA
ENDBRANCH   8   9
ENDBRANCH   1   7
BRANCH   4  12
ATOM     12  O   UNL     1    -118.540 -96.395  30.016  1.00  0.00    -0.504 OA
ATOM     13  H   UNL     1    -119.218 -95.710  30.325  1.00  0.00     0.293 HD
ENDBRANCH   4  12
BRANCH   6  14
ATOM     14  O   UNL     1    -119.125 -99.003  29.105  1.00  0.00    -0.504 OA
ATOM     15  H   UNL     1    -119.404 -99.925  28.791  1.00  0.00     0.293 HD
ENDBRANCH   6  14
TORSDOF 4
ENDMDL
MODEL 4
REMARK VINA RESULT:    -4.205      8.335     11.225
REMARK INTER + INTRA:          -5.068
REMARK INTER:                  -4.919
REMARK INTRA:                  -0.149
REMARK UNBOUND:                -0.126
REMARK SMILES O=C([O-])C=Cc1ccc(O)c(O)c1
REMARK SMILES IDX 6 1 13 2 7 3 11 4 8 5 9 6 5 7 4 8 2 9 1 10 3 11 12 12 10 14
REMARK H PARENT 12 13 10 15
REMARK Flexibility Score: inf
ROOT
ATOM      1  C   UNL     1    -117.257 -98.393  32.782  1.00  0.00    -0.022 A 
ATOM      2  C   UNL     1    -117.918 -99.036  31.716  1.00  0.00     0.058 A 
ATOM      3  C   UNL     1    -117.186 -96.992  32.788  1.00  0.00     0.012 A 
ATOM      4  C   UNL     1    -118.472 -98.291  30.667  1.00  0.00     0.157 A 
ATOM      5  C   UNL     1    -117.736 -96.247  31.741  1.00  0.00     0.051 A 
ATOM      6  C   UNL     1    -118.377 -96.890  30.676  1.00  0.00     0.157 A 
ENDROOT
BRANCH   1   7
ATOM      7  C   UNL     1    -116.666 -99.138  33.921  1.00  0.00     0.010 C 
ATOM      8  C   UNL     1    -116.541 -98.633  35.156  1.00  0.00     0.025 C 
BRANCH   8   9
ATOM      9  C   UNL     1    -115.960 -99.413  36.260  1.00  0.00     0.064 C 
ATOM     10  O   UNL     1    -114.943-100.125  36.050  1.00  0.00    -0.545 OA
ATOM     11  O   UNL     1    -116.517 -99.379  37.534  1.00  0.00    -0.545 OA
ENDBRANCH   8   9
ENDBRANCH   1   7
BRANCH   4  12
ATOM     12  O   UNL     1    -119.115 -98.962  29.626  1.00  0.00    -0.504 OA
ATOM     13  H   UNL     1    -119.822 -98.517  29.055  1.00  0.00     0.293 HD
ENDBRANCH   4  12
BRANCH   6  14
ATOM     14  O   UNL     1    -118.923 -96.145  29.632  1.00  0.00    -0.504 OA
ATOM     15  H   UNL     1    -119.561 -96.559  28.963  1.00  0.00     0.293 HD
ENDBRANCH   6  14
TORSDOF 4
ENDMDL
MODEL 5
REMARK VINA RESULT:    -3.968      8.268     11.918
REMARK INTER + INTRA:          -4.789
REMARK INTER:                  -4.655
REMARK INTRA:                  -0.134
REMARK UNBOUND:                -0.126
REMARK SMILES O=C([O-])C=Cc1ccc(O)c(O)c1
REMARK SMILES IDX 6 1 13 2 7 3 11 4 8 5 9 6 5 7 4 8 2 9 1 10 3 11 12 12 10 14
REMARK H PARENT 12 13 10 15
REMARK Flexibility Score: inf
ROOT
ATOM      1  C   UNL     1    -117.158 -98.577  33.404  1.00  0.00    -0.022 A 
ATOM      2  C   UNL     1    -115.981 -98.113  34.023  1.00  0.00     0.058 A 
ATOM      3  C   UNL     1    -118.015 -99.424  34.125  1.00  0.00     0.012 A 
ATOM      4  C   UNL     1    -115.656 -98.509  35.327  1.00  0.00     0.157 A 
ATOM      5  C   UNL     1    -117.692 -99.822  35.425  1.00  0.00     0.051 A 
ATOM      6  C   UNL     1    -116.513 -99.371  36.031  1.00  0.00     0.157 A 
ENDROOT
BRANCH   1   7
ATOM      7  C   UNL     1    -117.551 -98.175  32.031  1.00  0.00     0.010 C 
ATOM      8  C   UNL     1    -118.545 -97.318  31.762  1.00  0.00     0.025 C 
BRANCH   8   9
ATOM      9  C   UNL     1    -118.892 -96.937  30.383  1.00  0.00     0.064 C 
ATOM     10  O   UNL     1    -119.036 -97.831  29.509  1.00  0.00    -0.545 OA
ATOM     11  O   UNL     1    -119.062 -95.603  30.028  1.00  0.00    -0.545 OA
ENDBRANCH   8   9
ENDBRANCH   1   7
BRANCH   4  12
ATOM     12  O   UNL     1    -114.480 -98.032  35.906  1.00  0.00    -0.504 OA
ATOM     13  H   UNL     1    -113.670 -98.624  36.044  1.00  0.00     0.293 HD
ENDBRANCH   4  12
BRANCH   6  14
ATOM     14  O   UNL     1    -116.192 -99.772  37.326  1.00  0.00    -0.504 OA
ATOM     15  H   UNL     1    -116.447-100.688  37.677  1.00  0.00     0.293 HD
ENDBRANCH   6  14
TORSDOF 4
ENDMDL
MODEL 6
REMARK VINA RESULT:    -2.767      8.940     12.191
REMARK INTER + INTRA:          -3.378
REMARK INTER:                  -3.236
REMARK INTRA:                  -0.142
REMARK UNBOUND:                -0.126
REMARK SMILES O=C([O-])C=Cc1ccc(O)c(O)c1
REMARK SMILES IDX 6 1 13 2 7 3 11 4 8 5 9 6 5 7 4 8 2 9 1 10 3 11 12 12 10 14
REMARK H PARENT 12 13 10 15
REMARK Flexibility Score: inf
ROOT
ATOM      1  C   UNL     1    -117.074 -97.940  33.180  1.00  0.00    -0.022 A 
ATOM      2  C   UNL     1    -117.599 -98.701  34.244  1.00  0.00     0.058 A 
ATOM      3  C   UNL     1    -115.707 -97.624  33.183  1.00  0.00     0.012 A 
ATOM      4  C   UNL     1    -116.776 -99.112  35.300  1.00  0.00     0.157 A 
ATOM      5  C   UNL     1    -114.885 -98.032  34.237  1.00  0.00     0.051 A 
ATOM      6  C   UNL     1    -115.414 -98.773  35.300  1.00  0.00     0.157 A 
ENDROOT
BRANCH   1   7
ATOM      7  C   UNL     1    -117.902 -97.493  32.033  1.00  0.00     0.010 C 
ATOM      8  C   UNL     1    -117.911 -96.236  31.567  1.00  0.00     0.025 C 
BRANCH   8   9
ATOM      9  C   UNL     1    -118.740 -95.839  30.418  1.00  0.00     0.064 C 
ATOM     10  O   UNL     1    -119.106 -96.709  29.585  1.00  0.00    -0.545 OA
ATOM     11  O   UNL     1    -119.125 -94.515  30.233  1.00  0.00    -0.545 OA
ENDBRANCH   8   9
ENDBRANCH   1   7
BRANCH   4  12
ATOM     12  O   UNL     1    -117.332 -99.860  36.338  1.00  0.00    -0.504 OA
ATOM     13  H   UNL     1    -117.167-100.854  36.433  1.00  0.00     0.293 HD
ENDBRANCH   4  12
BRANCH   6  14
ATOM     14  O   UNL     1    -114.592 -99.177  36.351  1.00  0.00    -0.504 OA
ATOM     15  H   UNL     1    -114.893 -99.875  37.021  1.00  0.00     0.293 HD
ENDBRANCH   6  14
TORSDOF 4
ENDMDL
MODEL 7
REMARK VINA RESULT:    -2.727      5.223      7.524
REMARK INTER + INTRA:          -3.331
REMARK INTER:                  -3.199
REMARK INTRA:                  -0.132
REMARK UNBOUND:                -0.126
REMARK SMILES O=C([O-])C=Cc1ccc(O)c(O)c1
REMARK SMILES IDX 6 1 13 2 7 3 11 4 8 5 9 6 5 7 4 8 2 9 1 10 3 11 12 12 10 14
REMARK H PARENT 12 13 10 15
REMARK Flexibility Score: inf
ROOT
ATOM      1  C   UNL     1    -116.799 -99.685  36.595  1.00  0.00    -0.022 A 
ATOM      2  C   UNL     1    -117.711-100.119  35.612  1.00  0.00     0.058 A 
ATOM      3  C   UNL     1    -115.795 -98.774  36.233  1.00  0.00     0.012 A 
ATOM      4  C   UNL     1    -117.602 -99.669  34.290  1.00  0.00     0.157 A 
ATOM      5  C   UNL     1    -115.683 -98.326  34.913  1.00  0.00     0.051 A 
ATOM      6  C   UNL     1    -116.582 -98.772  33.937  1.00  0.00     0.157 A 
ENDROOT
BRANCH   1   7
ATOM      7  C   UNL     1    -116.881-100.123  38.010  1.00  0.00     0.010 C 
ATOM      8  C   UNL     1    -117.206 -99.308  39.024  1.00  0.00     0.025 C 
BRANCH   8   9
ATOM      9  C   UNL     1    -117.289 -99.789  40.412  1.00  0.00     0.064 C 
ATOM     10  O   UNL     1    -118.414 -99.907  40.963  1.00  0.00    -0.545 OA
ATOM     11  O   UNL     1    -116.142-100.112  41.129  1.00  0.00    -0.545 OA
ENDBRANCH   8   9
ENDBRANCH   1   7
BRANCH   4  12
ATOM     12  O   UNL     1    -118.521-100.124  33.343  1.00  0.00    -0.504 OA
ATOM     13  H   UNL     1    -119.520-100.045  33.483  1.00  0.00     0.293 HD
ENDBRANCH   4  12
BRANCH   6  14
ATOM     14  O   UNL     1    -116.467 -98.325  32.622  1.00  0.00    -0.504 OA
ATOM     15  H   UNL     1    -116.063 -98.908  31.898  1.00  0.00     0.293 HD
ENDBRANCH   6  14
TORSDOF 4
ENDMDL
MODEL 8
REMARK VINA RESULT:    -2.460      2.921      6.718
REMARK INTER + INTRA:          -3.018
REMARK INTER:                  -2.878
REMARK INTRA:                  -0.140
REMARK UNBOUND:                -0.126
REMARK SMILES O=C([O-])C=Cc1ccc(O)c(O)c1
REMARK SMILES IDX 6 1 13 2 7 3 11 4 8 5 9 6 5 7 4 8 2 9 1 10 3 11 12 12 10 14
REMARK H PARENT 12 13 10 15
REMARK Flexibility Score: inf
ROOT
ATOM      1  C   UNL     1    -117.608 -99.075  40.419  1.00  0.00    -0.022 A 
ATOM      2  C   UNL     1    -117.057 -99.522  41.636  1.00  0.00     0.058 A 
ATOM      3  C   UNL     1    -118.479 -97.975  40.434  1.00  0.00     0.012 A 
ATOM      4  C   UNL     1    -117.392 -98.897  42.844  1.00  0.00     0.157 A 
ATOM      5  C   UNL     1    -118.817 -97.351  41.638  1.00  0.00     0.051 A 
ATOM      6  C   UNL     1    -118.279 -97.809  42.847  1.00  0.00     0.157 A 
ENDROOT
BRANCH   1   7
ATOM      7  C   UNL     1    -117.273 -99.697  39.114  1.00  0.00     0.010 C 
ATOM      8  C   UNL     1    -116.908 -98.999  38.029  1.00  0.00     0.025 C 
BRANCH   8   9
ATOM      9  C   UNL     1    -116.572 -99.658  36.758  1.00  0.00     0.064 C 
ATOM     10  O   UNL     1    -117.493-100.120  36.035  1.00  0.00    -0.545 OA
ATOM     11  O   UNL     1    -115.251 -99.783  36.341  1.00  0.00    -0.545 OA
ENDBRANCH   8   9
ENDBRANCH   1   7
BRANCH   4  12
ATOM     12  O   UNL     1    -116.830 -99.371  44.030  1.00  0.00    -0.504 OA
ATOM     13  H   UNL     1    -117.215 -99.139  44.937  1.00  0.00     0.293 HD
ENDBRANCH   4  12
BRANCH   6  14
ATOM     14  O   UNL     1    -118.620 -97.186  44.047  1.00  0.00    -0.504 OA
ATOM     15  H   UNL     1    -117.922 -96.735  44.626  1.00  0.00     0.293 HD
ENDBRANCH   6  14
TORSDOF 4
ENDMDL
MODEL 9
REMARK VINA RESULT:    -2.175      3.373      7.355
REMARK INTER + INTRA:          -2.683
REMARK INTER:                  -2.558
REMARK INTRA:                  -0.125
REMARK UNBOUND:                -0.126
REMARK SMILES O=C([O-])C=Cc1ccc(O)c(O)c1
REMARK SMILES IDX 6 1 13 2 7 3 11 4 8 5 9 6 5 7 4 8 2 9 1 10 3 11 12 12 10 14
REMARK H PARENT 12 13 10 15
REMARK Flexibility Score: inf
ROOT
ATOM      1  C   UNL     1    -117.363 -99.702  39.564  1.00  0.00    -0.022 A 
ATOM      2  C   UNL     1    -116.513 -99.098  40.513  1.00  0.00     0.058 A 
ATOM      3  C   UNL     1    -118.676-100.025  39.940  1.00  0.00     0.012 A 
ATOM      4  C   UNL     1    -116.962 -98.848  41.816  1.00  0.00     0.157 A 
ATOM      5  C   UNL     1    -119.125 -99.779  41.241  1.00  0.00     0.051 A 
ATOM      6  C   UNL     1    -118.272 -99.193  42.184  1.00  0.00     0.157 A 
ENDROOT
BRANCH   1   7
ATOM      7  C   UNL     1    -116.937 -99.974  38.170  1.00  0.00     0.010 C 
ATOM      8  C   UNL     1    -116.429 -99.042  37.351  1.00  0.00     0.025 C 
BRANCH   8   9
ATOM      9  C   UNL     1    -116.008 -99.360  35.977  1.00  0.00     0.064 C 
ATOM     10  O   UNL     1    -114.936 -99.993  35.787  1.00  0.00    -0.545 OA
ATOM     11  O   UNL     1    -116.772 -98.970  34.883  1.00  0.00    -0.545 OA
ENDBRANCH   8   9
ENDBRANCH   1   7
BRANCH   4  12
ATOM     12  O   UNL     1    -116.091 -98.252  42.728  1.00  0.00    -0.504 OA
ATOM     13  H   UNL     1    -116.392 -97.519  43.358  1.00  0.00     0.293 HD
ENDBRANCH   4  12
BRANCH   6  14
ATOM     14  O   UNL     1    -118.722 -98.951  43.481  1.00  0.00    -0.504 OA
ATOM     15  H   UNL     1    -118.156 -98.445  44.152  1.00  0.00     0.293 HD
ENDBRANCH   6  14
TORSDOF 4
ENDMDL
