MODEL 1
REMARK VINA RESULT:    -3.482      0.000      0.000
REMARK INTER + INTRA:         -10.807
REMARK INTER:                  -7.553
REMARK INTRA:                  -3.254
REMARK UNBOUND:                -3.254
REMARK SMILES CCCCCCCCCCCCCCCCCCCCCC(=O)[O-]
REMARK SMILES IDX 12 1 11 2 10 3 9 4 8 5 7 6 6 7 5 8 4 9 3 10 2 11 1 12 13 13
REMARK SMILES IDX 14 14 15 15 16 16 17 17 18 18 19 19 20 20 21 21 22 22 23 23
REMARK SMILES IDX 24 24
REMARK H PARENT
REMARK Flexibility Score: inf
ROOT
ATOM      1  C   UNL     1     -21.581 -12.998   3.475  1.00  0.00     0.000 C 
ENDROOT
BRANCH   1   2
ATOM      2  C   UNL     1     -21.210 -11.757   4.309  1.00  0.00     0.000 C 
BRANCH   2   3
ATOM      3  C   UNL     1     -22.364 -11.257   5.190  1.00  0.00     0.000 C 
BRANCH   3   4
ATOM      4  C   UNL     1     -23.056 -10.050   4.548  1.00  0.00    -0.000 C 
BRANCH   4   5
ATOM      5  C   UNL     1     -24.585 -10.185   4.621  1.00  0.00    -0.000 C 
BRANCH   5   6
ATOM      6  C   UNL     1     -25.054 -11.080   5.782  1.00  0.00    -0.000 C 
BRANCH   6   7
ATOM      7  C   UNL     1     -26.320 -11.909   5.498  1.00  0.00    -0.000 C 
BRANCH   7   8
ATOM      8  C   UNL     1     -26.653 -11.998   3.999  1.00  0.00    -0.000 C 
BRANCH   8   9
ATOM      9  C   UNL     1     -28.152 -11.805   3.718  1.00  0.00    -0.000 C 
BRANCH   9  10
ATOM     10  C   UNL     1     -28.650 -12.667   2.548  1.00  0.00    -0.000 C 
BRANCH  10  11
ATOM     11  C   UNL     1     -30.055 -13.212   2.828  1.00  0.00    -0.003 C 
ATOM     12  C   UNL     1     -30.519 -12.847   4.236  1.00  0.00     0.004 C 
ENDBRANCH  10  11
ENDBRANCH   9  10
ENDBRANCH   8   9
ENDBRANCH   7   8
ENDBRANCH   6   7
ENDBRANCH   5   6
ENDBRANCH   4   5
ENDBRANCH   3   4
ENDBRANCH   2   3
ENDBRANCH   1   2
BRANCH   1  13
ATOM     13  C   UNL     1     -22.965 -13.597   3.783  1.00  0.00     0.000 C 
BRANCH  13  14
ATOM     14  C   UNL     1     -23.432 -14.606   2.719  1.00  0.00     0.000 C 
BRANCH  14  15
ATOM     15  C   UNL     1     -24.640 -15.440   3.198  1.00  0.00     0.000 C 
BRANCH  15  16
ATOM     16  C   UNL     1     -24.991 -15.211   4.678  1.00  0.00     0.000 C 
BRANCH  16  17
ATOM     17  C   UNL     1     -26.108 -16.141   5.180  1.00  0.00     0.000 C 
BRANCH  17  18
ATOM     18  C   UNL     1     -27.493 -15.462   5.134  1.00  0.00     0.000 C 
BRANCH  18  19
ATOM     19  C   UNL     1     -28.531 -16.227   4.296  1.00  0.00     0.000 C 
BRANCH  19  20
ATOM     20  C   UNL     1     -27.930 -16.876   3.042  1.00  0.00     0.006 C 
BRANCH  20  21
ATOM     21  C   UNL     1     -28.978 -17.711   2.299  1.00  0.00     0.053 C 
BRANCH  21  22
ATOM     22  C   UNL     1     -30.061 -16.835   1.753  1.00  0.00     0.041 C 
ATOM     23  O   UNL     1     -29.813 -16.034   0.813  1.00  0.00    -0.550 OA
ATOM     24  O   UNL     1     -31.354 -16.930   2.255  1.00  0.00    -0.550 OA
ENDBRANCH  21  22
ENDBRANCH  20  21
ENDBRANCH  19  20
ENDBRANCH  18  19
ENDBRANCH  17  18
ENDBRANCH  16  17
ENDBRANCH  15  16
ENDBRANCH  14  15
ENDBRANCH  13  14
ENDBRANCH   1  13
TORSDOF 20
ENDMDL
MODEL 2
REMARK VINA RESULT:    -3.357      2.093      5.972
REMARK INTER + INTRA:         -10.535
REMARK INTER:                  -7.497
REMARK INTRA:                  -3.039
REMARK UNBOUND:                -3.254
REMARK SMILES CCCCCCCCCCCCCCCCCCCCCC(=O)[O-]
REMARK SMILES IDX 12 1 11 2 10 3 9 4 8 5 7 6 6 7 5 8 4 9 3 10 2 11 1 12 13 13
REMARK SMILES IDX 14 14 15 15 16 16 17 17 18 18 19 19 20 20 21 21 22 22 23 23
REMARK SMILES IDX 24 24
REMARK H PARENT
REMARK Flexibility Score: inf
ROOT
ATOM      1  C   UNL     1     -28.075 -16.373   3.937  1.00  0.00     0.000 C 
ENDROOT
BRANCH   1   2
ATOM      2  C   UNL     1     -26.650 -16.448   3.355  1.00  0.00     0.000 C 
BRANCH   2   3
ATOM      3  C   UNL     1     -25.595 -15.805   4.266  1.00  0.00     0.000 C 
BRANCH   3   4
ATOM      4  C   UNL     1     -24.445 -15.218   3.439  1.00  0.00    -0.000 C 
BRANCH   4   5
ATOM      5  C   UNL     1     -24.200 -13.746   3.800  1.00  0.00    -0.000 C 
BRANCH   5   6
ATOM      6  C   UNL     1     -24.346 -13.464   5.305  1.00  0.00    -0.000 C 
BRANCH   6   7
ATOM      7  C   UNL     1     -24.129 -11.996   5.720  1.00  0.00    -0.000 C 
BRANCH   7   8
ATOM      8  C   UNL     1     -24.323 -11.010   4.555  1.00  0.00    -0.000 C 
BRANCH   8   9
ATOM      9  C   UNL     1     -23.250  -9.910   4.531  1.00  0.00    -0.000 C 
BRANCH   9  10
ATOM     10  C   UNL     1     -21.939 -10.349   5.201  1.00  0.00    -0.000 C 
BRANCH  10  11
ATOM     11  C   UNL     1     -20.870 -10.673   4.151  1.00  0.00    -0.003 C 
ATOM     12  C   UNL     1     -20.800 -12.173   3.878  1.00  0.00     0.004 C 
ENDBRANCH  10  11
ENDBRANCH   9  10
ENDBRANCH   8   9
ENDBRANCH   7   8
ENDBRANCH   6   7
ENDBRANCH   5   6
ENDBRANCH   4   5
ENDBRANCH   3   4
ENDBRANCH   2   3
ENDBRANCH   1   2
BRANCH   1  13
ATOM     13  C   UNL     1     -28.587 -14.948   4.219  1.00  0.00     0.000 C 
BRANCH  13  14
ATOM     14  C   UNL     1     -28.564 -14.044   2.973  1.00  0.00     0.000 C 
BRANCH  14  15
ATOM     15  C   UNL     1     -27.664 -12.806   3.169  1.00  0.00     0.000 C 
BRANCH  15  16
ATOM     16  C   UNL     1     -27.888 -12.094   4.513  1.00  0.00     0.000 C 
BRANCH  16  17
ATOM     17  C   UNL     1     -28.596 -10.738   4.364  1.00  0.00     0.000 C 
BRANCH  17  18
ATOM     18  C   UNL     1     -30.131 -10.886   4.313  1.00  0.00     0.000 C 
BRANCH  18  19
ATOM     19  C   UNL     1     -30.778 -10.226   3.084  1.00  0.00     0.000 C 
BRANCH  19  20
ATOM     20  C   UNL     1     -29.813 -10.088   1.899  1.00  0.00     0.006 C 
BRANCH  20  21
ATOM     21  C   UNL     1     -29.990 -11.244   0.909  1.00  0.00     0.053 C 
BRANCH  21  22
ATOM     22  C   UNL     1     -31.418 -11.686   0.865  1.00  0.00     0.041 C 
ATOM     23  O   UNL     1     -31.779 -12.721   1.486  1.00  0.00    -0.550 OA
ATOM     24  O   UNL     1     -32.360 -10.934   0.173  1.00  0.00    -0.550 OA
ENDBRANCH  21  22
ENDBRANCH  20  21
ENDBRANCH  19  20
ENDBRANCH  18  19
ENDBRANCH  17  18
ENDBRANCH  16  17
ENDBRANCH  15  16
ENDBRANCH  14  15
ENDBRANCH  13  14
ENDBRANCH   1  13
TORSDOF 20
ENDMDL
MODEL 3
REMARK VINA RESULT:    -3.139     13.456     15.800
REMARK INTER + INTRA:         -10.064
REMARK INTER:                  -6.064
REMARK INTRA:                  -4.000
REMARK UNBOUND:                -3.254
REMARK SMILES CCCCCCCCCCCCCCCCCCCCCC(=O)[O-]
REMARK SMILES IDX 12 1 11 2 10 3 9 4 8 5 7 6 6 7 5 8 4 9 3 10 2 11 1 12 13 13
REMARK SMILES IDX 14 14 15 15 16 16 17 17 18 18 19 19 20 20 21 21 22 22 23 23
REMARK SMILES IDX 24 24
REMARK H PARENT
REMARK Flexibility Score: inf
ROOT
ATOM      1  C   UNL     1     -18.430 -28.351  -0.688  1.00  0.00     0.000 C 
ENDROOT
BRANCH   1   2
ATOM      2  C   UNL     1     -18.905 -27.154  -1.533  1.00  0.00     0.000 C 
BRANCH   2   3
ATOM      3  C   UNL     1     -17.894 -26.743  -2.613  1.00  0.00     0.000 C 
BRANCH   3   4
ATOM      4  C   UNL     1     -18.607 -26.099  -3.809  1.00  0.00    -0.000 C 
BRANCH   4   5
ATOM      5  C   UNL     1     -19.381 -27.148  -4.621  1.00  0.00    -0.000 C 
BRANCH   5   6
ATOM      6  C   UNL     1     -20.823 -26.716  -4.941  1.00  0.00    -0.000 C 
BRANCH   6   7
ATOM      7  C   UNL     1     -21.780 -26.691  -3.735  1.00  0.00    -0.000 C 
BRANCH   7   8
ATOM      8  C   UNL     1     -22.342 -25.289  -3.445  1.00  0.00    -0.000 C 
BRANCH   8   9
ATOM      9  C   UNL     1     -21.572 -24.567  -2.328  1.00  0.00    -0.000 C 
BRANCH   9  10
ATOM     10  C   UNL     1     -20.880 -23.287  -2.819  1.00  0.00    -0.000 C 
BRANCH  10  11
ATOM     11  C   UNL     1     -21.213 -23.014  -4.290  1.00  0.00    -0.003 C 
ATOM     12  C   UNL     1     -19.947 -22.941  -5.139  1.00  0.00     0.004 C 
ENDBRANCH  10  11
ENDBRANCH   9  10
ENDBRANCH   8   9
ENDBRANCH   7   8
ENDBRANCH   6   7
ENDBRANCH   5   6
ENDBRANCH   4   5
ENDBRANCH   3   4
ENDBRANCH   2   3
ENDBRANCH   1   2
BRANCH   1  13
ATOM     13  C   UNL     1     -19.363 -29.575  -0.714  1.00  0.00     0.000 C 
BRANCH  13  14
ATOM     14  C   UNL     1     -20.299 -29.592  -1.937  1.00  0.00     0.000 C 
BRANCH  14  15
ATOM     15  C   UNL     1     -21.778 -29.774  -1.537  1.00  0.00     0.000 C 
BRANCH  15  16
ATOM     16  C   UNL     1     -22.121 -29.154  -0.172  1.00  0.00     0.000 C 
BRANCH  16  17
ATOM     17  C   UNL     1     -22.670 -27.722  -0.284  1.00  0.00     0.000 C 
BRANCH  17  18
ATOM     18  C   UNL     1     -21.859 -26.721   0.566  1.00  0.00     0.000 C 
BRANCH  18  19
ATOM     19  C   UNL     1     -21.141 -27.364   1.764  1.00  0.00     0.000 C 
BRANCH  19  20
ATOM     20  C   UNL     1     -21.234 -26.521   3.042  1.00  0.00     0.006 C 
BRANCH  20  21
ATOM     21  C   UNL     1     -22.468 -26.907   3.866  1.00  0.00     0.053 C 
BRANCH  21  22
ATOM     22  C   UNL     1     -22.653 -28.391   3.874  1.00  0.00     0.041 C 
ATOM     23  O   UNL     1     -21.939 -29.114   4.618  1.00  0.00    -0.550 OA
ATOM     24  O   UNL     1     -23.641 -28.974   3.089  1.00  0.00    -0.550 OA
ENDBRANCH  21  22
ENDBRANCH  20  21
ENDBRANCH  19  20
ENDBRANCH  18  19
ENDBRANCH  17  18
ENDBRANCH  16  17
ENDBRANCH  15  16
ENDBRANCH  14  15
ENDBRANCH  13  14
ENDBRANCH   1  13
TORSDOF 20
ENDMDL
MODEL 4
REMARK VINA RESULT:    -3.134      2.246      4.126
REMARK INTER + INTRA:         -10.052
REMARK INTER:                  -6.462
REMARK INTRA:                  -3.590
REMARK UNBOUND:                -3.254
REMARK SMILES CCCCCCCCCCCCCCCCCCCCCC(=O)[O-]
REMARK SMILES IDX 12 1 11 2 10 3 9 4 8 5 7 6 6 7 5 8 4 9 3 10 2 11 1 12 13 13
REMARK SMILES IDX 14 14 15 15 16 16 17 17 18 18 19 19 20 20 21 21 22 22 23 23
REMARK SMILES IDX 24 24
REMARK H PARENT
REMARK Flexibility Score: inf
ROOT
ATOM      1  C   UNL     1     -26.316 -16.519   3.029  1.00  0.00     0.000 C 
ENDROOT
BRANCH   1   2
ATOM      2  C   UNL     1     -25.388 -15.854   4.064  1.00  0.00     0.000 C 
BRANCH   2   3
ATOM      3  C   UNL     1     -24.371 -14.894   3.430  1.00  0.00     0.000 C 
BRANCH   3   4
ATOM      4  C   UNL     1     -24.439 -13.513   4.093  1.00  0.00    -0.000 C 
BRANCH   4   5
ATOM      5  C   UNL     1     -25.683 -13.390   4.986  1.00  0.00    -0.000 C 
BRANCH   5   6
ATOM      6  C   UNL     1     -26.715 -12.386   4.443  1.00  0.00    -0.000 C 
BRANCH   6   7
ATOM      7  C   UNL     1     -27.525 -12.875   3.227  1.00  0.00    -0.000 C 
BRANCH   7   8
ATOM      8  C   UNL     1     -28.740 -11.983   2.919  1.00  0.00    -0.000 C 
BRANCH   8   9
ATOM      9  C   UNL     1     -29.211 -12.115   1.462  1.00  0.00    -0.000 C 
BRANCH   9  10
ATOM     10  C   UNL     1     -30.521 -12.906   1.334  1.00  0.00    -0.000 C 
BRANCH  10  11
ATOM     11  C   UNL     1     -31.732 -11.967   1.356  1.00  0.00    -0.003 C 
ATOM     12  C   UNL     1     -32.836 -12.509   2.261  1.00  0.00     0.004 C 
ENDBRANCH  10  11
ENDBRANCH   9  10
ENDBRANCH   8   9
ENDBRANCH   7   8
ENDBRANCH   6   7
ENDBRANCH   5   6
ENDBRANCH   4   5
ENDBRANCH   3   4
ENDBRANCH   2   3
ENDBRANCH   1   2
BRANCH   1  13
ATOM     13  C   UNL     1     -27.762 -16.747   3.506  1.00  0.00     0.000 C 
BRANCH  13  14
ATOM     14  C   UNL     1     -27.917 -16.628   5.032  1.00  0.00     0.000 C 
BRANCH  14  15
ATOM     15  C   UNL     1     -29.194 -15.857   5.429  1.00  0.00     0.000 C 
BRANCH  15  16
ATOM     16  C   UNL     1     -29.933 -15.242   4.229  1.00  0.00     0.000 C 
BRANCH  16  17
ATOM     17  C   UNL     1     -31.463 -15.280   4.383  1.00  0.00     0.000 C 
BRANCH  17  18
ATOM     18  C   UNL     1     -32.140 -16.082   3.252  1.00  0.00     0.000 C 
BRANCH  18  19
ATOM     19  C   UNL     1     -31.228 -16.338   2.041  1.00  0.00     0.000 C 
BRANCH  19  20
ATOM     20  C   UNL     1     -31.436 -17.724   1.414  1.00  0.00     0.006 C 
BRANCH  20  21
ATOM     21  C   UNL     1     -30.368 -18.711   1.897  1.00  0.00     0.053 C 
BRANCH  21  22
ATOM     22  C   UNL     1     -30.879 -19.520   3.047  1.00  0.00     0.041 C 
ATOM     23  O   UNL     1     -31.447 -20.625   2.840  1.00  0.00    -0.550 OA
ATOM     24  O   UNL     1     -30.692 -19.075   4.350  1.00  0.00    -0.550 OA
ENDBRANCH  21  22
ENDBRANCH  20  21
ENDBRANCH  19  20
ENDBRANCH  18  19
ENDBRANCH  17  18
ENDBRANCH  16  17
ENDBRANCH  15  16
ENDBRANCH  14  15
ENDBRANCH  13  14
ENDBRANCH   1  13
TORSDOF 20
ENDMDL
MODEL 5
REMARK VINA RESULT:    -3.118      2.955      6.774
REMARK INTER + INTRA:         -10.017
REMARK INTER:                  -6.303
REMARK INTRA:                  -3.714
REMARK UNBOUND:                -3.254
REMARK SMILES CCCCCCCCCCCCCCCCCCCCCC(=O)[O-]
REMARK SMILES IDX 12 1 11 2 10 3 9 4 8 5 7 6 6 7 5 8 4 9 3 10 2 11 1 12 13 13
REMARK SMILES IDX 14 14 15 15 16 16 17 17 18 18 19 19 20 20 21 21 22 22 23 23
REMARK SMILES IDX 24 24
REMARK H PARENT
REMARK Flexibility Score: inf
ROOT
ATOM      1  C   UNL     1     -30.170 -15.075   1.896  1.00  0.00     0.000 C 
ENDROOT
BRANCH   1   2
ATOM      2  C   UNL     1     -30.986 -14.870   3.186  1.00  0.00     0.000 C 
BRANCH   2   3
ATOM      3  C   UNL     1     -32.338 -14.186   2.939  1.00  0.00     0.000 C 
BRANCH   3   4
ATOM      4  C   UNL     1     -32.655 -13.185   4.056  1.00  0.00    -0.000 C 
BRANCH   4   5
ATOM      5  C   UNL     1     -32.913 -11.782   3.485  1.00  0.00    -0.000 C 
BRANCH   5   6
ATOM      6  C   UNL     1     -33.431 -11.810   2.036  1.00  0.00    -0.000 C 
BRANCH   6   7
ATOM      7  C   UNL     1     -33.014 -10.606   1.171  1.00  0.00    -0.000 C 
BRANCH   7   8
ATOM      8  C   UNL     1     -32.199 -11.012  -0.069  1.00  0.00    -0.000 C 
BRANCH   8   9
ATOM      9  C   UNL     1     -30.899 -11.746   0.299  1.00  0.00    -0.000 C 
BRANCH   9  10
ATOM     10  C   UNL     1     -29.951 -10.881   1.144  1.00  0.00    -0.000 C 
BRANCH  10  11
ATOM     11  C   UNL     1     -29.244 -11.726   2.210  1.00  0.00    -0.003 C 
ATOM     12  C   UNL     1     -29.227 -11.013   3.559  1.00  0.00     0.004 C 
ENDBRANCH  10  11
ENDBRANCH   9  10
ENDBRANCH   8   9
ENDBRANCH   7   8
ENDBRANCH   6   7
ENDBRANCH   5   6
ENDBRANCH   4   5
ENDBRANCH   3   4
ENDBRANCH   2   3
ENDBRANCH   1   2
BRANCH   1  13
ATOM     13  C   UNL     1     -30.220 -16.499   1.314  1.00  0.00     0.000 C 
BRANCH  13  14
ATOM     14  C   UNL     1     -30.501 -17.574   2.380  1.00  0.00     0.000 C 
BRANCH  14  15
ATOM     15  C   UNL     1     -29.202 -18.152   2.980  1.00  0.00     0.000 C 
BRANCH  15  16
ATOM     16  C   UNL     1     -27.931 -17.682   2.252  1.00  0.00     0.000 C 
BRANCH  16  17
ATOM     17  C   UNL     1     -26.979 -16.885   3.158  1.00  0.00     0.000 C 
BRANCH  17  18
ATOM     18  C   UNL     1     -27.656 -16.456   4.477  1.00  0.00     0.000 C 
BRANCH  18  19
ATOM     19  C   UNL     1     -27.520 -14.956   4.785  1.00  0.00     0.000 C 
BRANCH  19  20
ATOM     20  C   UNL     1     -26.990 -14.144   3.596  1.00  0.00     0.006 C 
BRANCH  20  21
ATOM     21  C   UNL     1     -25.983 -13.085   4.060  1.00  0.00     0.053 C 
BRANCH  21  22
ATOM     22  C   UNL     1     -24.604 -13.662   4.125  1.00  0.00     0.041 C 
ATOM     23  O   UNL     1     -23.950 -13.616   5.200  1.00  0.00    -0.550 OA
ATOM     24  O   UNL     1     -24.056 -14.285   3.010  1.00  0.00    -0.550 OA
ENDBRANCH  21  22
ENDBRANCH  20  21
ENDBRANCH  19  20
ENDBRANCH  18  19
ENDBRANCH  17  18
ENDBRANCH  16  17
ENDBRANCH  15  16
ENDBRANCH  14  15
ENDBRANCH  13  14
ENDBRANCH   1  13
TORSDOF 20
ENDMDL
MODEL 6
REMARK VINA RESULT:    -3.090     12.306     14.796
REMARK INTER + INTRA:          -9.957
REMARK INTER:                  -6.273
REMARK INTRA:                  -3.684
REMARK UNBOUND:                -3.254
REMARK SMILES CCCCCCCCCCCCCCCCCCCCCC(=O)[O-]
REMARK SMILES IDX 12 1 11 2 10 3 9 4 8 5 7 6 6 7 5 8 4 9 3 10 2 11 1 12 13 13
REMARK SMILES IDX 14 14 15 15 16 16 17 17 18 18 19 19 20 20 21 21 22 22 23 23
REMARK SMILES IDX 24 24
REMARK H PARENT
REMARK Flexibility Score: inf
ROOT
ATOM      1  C   UNL     1     -18.461 -27.530  -1.804  1.00  0.00     0.000 C 
ENDROOT
BRANCH   1   2
ATOM      2  C   UNL     1     -19.394 -26.370  -2.198  1.00  0.00     0.000 C 
BRANCH   2   3
ATOM      3  C   UNL     1     -20.611 -26.236  -1.271  1.00  0.00     0.000 C 
BRANCH   3   4
ATOM      4  C   UNL     1     -21.898 -26.052  -2.083  1.00  0.00    -0.000 C 
BRANCH   4   5
ATOM      5  C   UNL     1     -21.588 -25.868  -3.576  1.00  0.00    -0.000 C 
BRANCH   5   6
ATOM      6  C   UNL     1     -22.407 -24.739  -4.226  1.00  0.00    -0.000 C 
BRANCH   6   7
ATOM      7  C   UNL     1     -22.744 -23.559  -3.296  1.00  0.00    -0.000 C 
BRANCH   7   8
ATOM      8  C   UNL     1     -24.237 -23.187  -3.317  1.00  0.00    -0.000 C 
BRANCH   8   9
ATOM      9  C   UNL     1     -24.842 -23.106  -1.907  1.00  0.00    -0.000 C 
BRANCH   9  10
ATOM     10  C   UNL     1     -23.772 -23.065  -0.806  1.00  0.00    -0.000 C 
BRANCH  10  11
ATOM     11  C   UNL     1     -23.933 -24.246   0.159  1.00  0.00    -0.003 C 
ATOM     12  C   UNL     1     -24.424 -23.779   1.527  1.00  0.00     0.004 C 
ENDBRANCH  10  11
ENDBRANCH   9  10
ENDBRANCH   8   9
ENDBRANCH   7   8
ENDBRANCH   6   7
ENDBRANCH   5   6
ENDBRANCH   4   5
ENDBRANCH   3   4
ENDBRANCH   2   3
ENDBRANCH   1   2
BRANCH   1  13
ATOM     13  C   UNL     1     -18.783 -28.193  -0.453  1.00  0.00     0.000 C 
BRANCH  13  14
ATOM     14  C   UNL     1     -19.405 -29.593  -0.604  1.00  0.00     0.000 C 
BRANCH  14  15
ATOM     15  C   UNL     1     -20.129 -29.767  -1.956  1.00  0.00     0.000 C 
BRANCH  15  16
ATOM     16  C   UNL     1     -21.661 -29.807  -1.828  1.00  0.00     0.000 C 
BRANCH  16  17
ATOM     17  C   UNL     1     -22.140 -29.832  -0.367  1.00  0.00     0.000 C 
BRANCH  17  18
ATOM     18  C   UNL     1     -23.361 -28.916  -0.141  1.00  0.00     0.000 C 
BRANCH  18  19
ATOM     19  C   UNL     1     -23.153 -27.866   0.962  1.00  0.00     0.000 C 
BRANCH  19  20
ATOM     20  C   UNL     1     -21.917 -28.141   1.828  1.00  0.00     0.006 C 
BRANCH  20  21
ATOM     21  C   UNL     1     -21.284 -26.833   2.313  1.00  0.00     0.053 C 
BRANCH  21  22
ATOM     22  C   UNL     1     -21.672 -26.553   3.731  1.00  0.00     0.041 C 
ATOM     23  O   UNL     1     -22.710 -25.886   3.983  1.00  0.00    -0.550 OA
ATOM     24  O   UNL     1     -20.910 -27.062   4.776  1.00  0.00    -0.550 OA
ENDBRANCH  21  22
ENDBRANCH  20  21
ENDBRANCH  19  20
ENDBRANCH  18  19
ENDBRANCH  17  18
ENDBRANCH  16  17
ENDBRANCH  15  16
ENDBRANCH  14  15
ENDBRANCH  13  14
ENDBRANCH   1  13
TORSDOF 20
ENDMDL
MODEL 7
REMARK VINA RESULT:    -3.084     12.354     15.396
REMARK INTER + INTRA:          -9.945
REMARK INTER:                  -6.119
REMARK INTRA:                  -3.826
REMARK UNBOUND:                -3.254
REMARK SMILES CCCCCCCCCCCCCCCCCCCCCC(=O)[O-]
REMARK SMILES IDX 12 1 11 2 10 3 9 4 8 5 7 6 6 7 5 8 4 9 3 10 2 11 1 12 13 13
REMARK SMILES IDX 14 14 15 15 16 16 17 17 18 18 19 19 20 20 21 21 22 22 23 23
REMARK SMILES IDX 24 24
REMARK H PARENT
REMARK Flexibility Score: inf
ROOT
ATOM      1  C   UNL     1     -21.012 -27.020   2.025  1.00  0.00     0.000 C 
ENDROOT
BRANCH   1   2
ATOM      2  C   UNL     1     -21.585 -26.693   0.633  1.00  0.00     0.000 C 
BRANCH   2   3
ATOM      3  C   UNL     1     -21.627 -27.912  -0.301  1.00  0.00     0.000 C 
BRANCH   3   4
ATOM      4  C   UNL     1     -20.743 -29.042   0.239  1.00  0.00    -0.000 C 
BRANCH   4   5
ATOM      5  C   UNL     1     -19.522 -29.269  -0.665  1.00  0.00    -0.000 C 
BRANCH   5   6
ATOM      6  C   UNL     1     -18.358 -28.312  -0.354  1.00  0.00    -0.000 C 
BRANCH   6   7
ATOM      7  C   UNL     1     -17.845 -27.495  -1.555  1.00  0.00    -0.000 C 
BRANCH   7   8
ATOM      8  C   UNL     1     -18.949 -26.663  -2.229  1.00  0.00    -0.000 C 
BRANCH   8   9
ATOM      9  C   UNL     1     -19.204 -27.093  -3.682  1.00  0.00    -0.000 C 
BRANCH   9  10
ATOM     10  C   UNL     1     -20.589 -27.730  -3.876  1.00  0.00    -0.000 C 
BRANCH  10  11
ATOM     11  C   UNL     1     -20.465 -29.153  -4.431  1.00  0.00    -0.003 C 
ATOM     12  C   UNL     1     -21.360 -30.125  -3.667  1.00  0.00     0.004 C 
ENDBRANCH  10  11
ENDBRANCH   9  10
ENDBRANCH   8   9
ENDBRANCH   7   8
ENDBRANCH   6   7
ENDBRANCH   5   6
ENDBRANCH   4   5
ENDBRANCH   3   4
ENDBRANCH   2   3
ENDBRANCH   1   2
BRANCH   1  13
ATOM     13  C   UNL     1     -21.943 -26.689   3.205  1.00  0.00     0.000 C 
BRANCH  13  14
ATOM     14  C   UNL     1     -22.379 -27.936   3.995  1.00  0.00     0.000 C 
BRANCH  14  15
ATOM     15  C   UNL     1     -23.300 -28.858   3.167  1.00  0.00     0.000 C 
BRANCH  15  16
ATOM     16  C   UNL     1     -24.665 -28.226   2.847  1.00  0.00     0.000 C 
BRANCH  16  17
ATOM     17  C   UNL     1     -24.927 -28.096   1.337  1.00  0.00     0.000 C 
BRANCH  17  18
ATOM     18  C   UNL     1     -25.540 -26.729   0.970  1.00  0.00     0.000 C 
BRANCH  18  19
ATOM     19  C   UNL     1     -25.287 -25.633   2.018  1.00  0.00     0.000 C 
BRANCH  19  20
ATOM     20  C   UNL     1     -24.487 -24.446   1.465  1.00  0.00     0.006 C 
BRANCH  20  21
ATOM     21  C   UNL     1     -24.382 -24.519  -0.062  1.00  0.00     0.053 C 
BRANCH  21  22
ATOM     22  C   UNL     1     -23.895 -23.219  -0.619  1.00  0.00     0.041 C 
ATOM     23  O   UNL     1     -23.581 -22.277   0.155  1.00  0.00    -0.550 OA
ATOM     24  O   UNL     1     -23.749 -23.061  -1.992  1.00  0.00    -0.550 OA
ENDBRANCH  21  22
ENDBRANCH  20  21
ENDBRANCH  19  20
ENDBRANCH  18  19
ENDBRANCH  17  18
ENDBRANCH  16  17
ENDBRANCH  15  16
ENDBRANCH  14  15
ENDBRANCH  13  14
ENDBRANCH   1  13
TORSDOF 20
ENDMDL
MODEL 8
REMARK VINA RESULT:    -3.066     12.253     15.413
REMARK INTER + INTRA:          -9.905
REMARK INTER:                  -7.078
REMARK INTRA:                  -2.826
REMARK UNBOUND:                -3.254
REMARK SMILES CCCCCCCCCCCCCCCCCCCCCC(=O)[O-]
REMARK SMILES IDX 12 1 11 2 10 3 9 4 8 5 7 6 6 7 5 8 4 9 3 10 2 11 1 12 13 13
REMARK SMILES IDX 14 14 15 15 16 16 17 17 18 18 19 19 20 20 21 21 22 22 23 23
REMARK SMILES IDX 24 24
REMARK H PARENT
REMARK Flexibility Score: inf
ROOT
ATOM      1  C   UNL     1     -18.387 -28.329  -0.371  1.00  0.00     0.000 C 
ENDROOT
BRANCH   1   2
ATOM      2  C   UNL     1     -19.361 -29.460  -0.750  1.00  0.00     0.000 C 
BRANCH   2   3
ATOM      3  C   UNL     1     -20.703 -29.371  -0.009  1.00  0.00     0.000 C 
BRANCH   3   4
ATOM      4  C   UNL     1     -20.935 -27.954   0.529  1.00  0.00    -0.000 C 
BRANCH   4   5
ATOM      5  C   UNL     1     -22.355 -27.465   0.204  1.00  0.00    -0.000 C 
BRANCH   5   6
ATOM      6  C   UNL     1     -23.190 -28.509  -0.557  1.00  0.00    -0.000 C 
BRANCH   6   7
ATOM      7  C   UNL     1     -23.926 -27.977  -1.801  1.00  0.00    -0.000 C 
BRANCH   7   8
ATOM      8  C   UNL     1     -22.980 -27.694  -2.981  1.00  0.00    -0.000 C 
BRANCH   8   9
ATOM      9  C   UNL     1     -23.115 -26.258  -3.511  1.00  0.00    -0.000 C 
BRANCH   9  10
ATOM     10  C   UNL     1     -24.291 -25.501  -2.875  1.00  0.00    -0.000 C 
BRANCH  10  11
ATOM     11  C   UNL     1     -23.867 -24.094  -2.442  1.00  0.00    -0.003 C 
ATOM     12  C   UNL     1     -23.390 -24.081  -0.992  1.00  0.00     0.004 C 
ENDBRANCH  10  11
ENDBRANCH   9  10
ENDBRANCH   8   9
ENDBRANCH   7   8
ENDBRANCH   6   7
ENDBRANCH   5   6
ENDBRANCH   4   5
ENDBRANCH   3   4
ENDBRANCH   2   3
ENDBRANCH   1   2
BRANCH   1  13
ATOM     13  C   UNL     1     -17.844 -27.514  -1.559  1.00  0.00     0.000 C 
BRANCH  13  14
ATOM     14  C   UNL     1     -18.914 -27.220  -2.625  1.00  0.00     0.000 C 
BRANCH  14  15
ATOM     15  C   UNL     1     -19.721 -25.943  -2.305  1.00  0.00     0.000 C 
BRANCH  15  16
ATOM     16  C   UNL     1     -19.653 -24.884  -3.418  1.00  0.00     0.000 C 
BRANCH  16  17
ATOM     17  C   UNL     1     -20.282 -23.542  -3.009  1.00  0.00     0.000 C 
BRANCH  17  18
ATOM     18  C   UNL     1     -20.090 -22.457  -4.089  1.00  0.00     0.000 C 
BRANCH  18  19
ATOM     19  C   UNL     1     -19.729 -21.074  -3.521  1.00  0.00     0.000 C 
BRANCH  19  20
ATOM     20  C   UNL     1     -18.991 -20.185  -4.530  1.00  0.00     0.006 C 
BRANCH  20  21
ATOM     21  C   UNL     1     -19.100 -18.707  -4.142  1.00  0.00     0.053 C 
BRANCH  21  22
ATOM     22  C   UNL     1     -17.741 -18.099  -3.994  1.00  0.00     0.041 C 
ATOM     23  O   UNL     1     -16.862 -18.290  -4.876  1.00  0.00    -0.550 OA
ATOM     24  O   UNL     1     -17.456 -17.287  -2.902  1.00  0.00    -0.550 OA
ENDBRANCH  21  22
ENDBRANCH  20  21
ENDBRANCH  19  20
ENDBRANCH  18  19
ENDBRANCH  17  18
ENDBRANCH  16  17
ENDBRANCH  15  16
ENDBRANCH  14  15
ENDBRANCH  13  14
ENDBRANCH   1  13
TORSDOF 20
ENDMDL
MODEL 9
REMARK VINA RESULT:    -3.014     12.817     15.376
REMARK INTER + INTRA:          -9.791
REMARK INTER:                  -6.578
REMARK INTRA:                  -3.214
REMARK UNBOUND:                -3.254
REMARK SMILES CCCCCCCCCCCCCCCCCCCCCC(=O)[O-]
REMARK SMILES IDX 12 1 11 2 10 3 9 4 8 5 7 6 6 7 5 8 4 9 3 10 2 11 1 12 13 13
REMARK SMILES IDX 14 14 15 15 16 16 17 17 18 18 19 19 20 20 21 21 22 22 23 23
REMARK SMILES IDX 24 24
REMARK H PARENT
REMARK Flexibility Score: inf
ROOT
ATOM      1  C   UNL     1     -18.639 -28.291  -0.383  1.00  0.00     0.000 C 
ENDROOT
BRANCH   1   2
ATOM      2  C   UNL     1     -18.015 -27.532  -1.569  1.00  0.00     0.000 C 
BRANCH   2   3
ATOM      3  C   UNL     1     -18.985 -26.537  -2.223  1.00  0.00     0.000 C 
BRANCH   3   4
ATOM      4  C   UNL     1     -19.698 -27.178  -3.419  1.00  0.00    -0.000 C 
BRANCH   4   5
ATOM      5  C   UNL     1     -20.783 -26.246  -3.980  1.00  0.00    -0.000 C 
BRANCH   5   6
ATOM      6  C   UNL     1     -21.084 -25.051  -3.058  1.00  0.00    -0.000 C 
BRANCH   6   7
ATOM      7  C   UNL     1     -21.930 -23.932  -3.693  1.00  0.00    -0.000 C 
BRANCH   7   8
ATOM      8  C   UNL     1     -21.148 -23.105  -4.729  1.00  0.00    -0.000 C 
BRANCH   8   9
ATOM      9  C   UNL     1     -19.740 -22.731  -4.239  1.00  0.00    -0.000 C 
BRANCH   9  10
ATOM     10  C   UNL     1     -19.726 -21.435  -3.414  1.00  0.00    -0.000 C 
BRANCH  10  11
ATOM     11  C   UNL     1     -19.864 -20.207  -4.321  1.00  0.00    -0.003 C 
ATOM     12  C   UNL     1     -19.000 -19.052  -3.823  1.00  0.00     0.004 C 
ENDBRANCH  10  11
ENDBRANCH   9  10
ENDBRANCH   8   9
ENDBRANCH   7   8
ENDBRANCH   6   7
ENDBRANCH   5   6
ENDBRANCH   4   5
ENDBRANCH   3   4
ENDBRANCH   2   3
ENDBRANCH   1   2
BRANCH   1  13
ATOM     13  C   UNL     1     -19.186 -29.689  -0.722  1.00  0.00     0.000 C 
BRANCH  13  14
ATOM     14  C   UNL     1     -20.676 -29.853  -0.374  1.00  0.00     0.000 C 
BRANCH  14  15
ATOM     15  C   UNL     1     -21.590 -29.603  -1.593  1.00  0.00     0.000 C 
BRANCH  15  16
ATOM     16  C   UNL     1     -22.992 -29.099  -1.212  1.00  0.00     0.000 C 
BRANCH  16  17
ATOM     17  C   UNL     1     -23.145 -27.577  -1.371  1.00  0.00     0.000 C 
BRANCH  17  18
ATOM     18  C   UNL     1     -23.080 -26.842  -0.016  1.00  0.00     0.000 C 
BRANCH  18  19
ATOM     19  C   UNL     1     -21.668 -26.370   0.368  1.00  0.00     0.000 C 
BRANCH  19  20
ATOM     20  C   UNL     1     -21.261 -26.784   1.788  1.00  0.00     0.006 C 
BRANCH  20  21
ATOM     21  C   UNL     1     -22.287 -27.748   2.394  1.00  0.00     0.053 C 
BRANCH  21  22
ATOM     22  C   UNL     1     -22.017 -27.959   3.851  1.00  0.00     0.041 C 
ATOM     23  O   UNL     1     -22.083 -29.115   4.345  1.00  0.00    -0.550 OA
ATOM     24  O   UNL     1     -21.651 -26.886   4.654  1.00  0.00    -0.550 OA
ENDBRANCH  21  22
ENDBRANCH  20  21
ENDBRANCH  19  20
ENDBRANCH  18  19
ENDBRANCH  17  18
ENDBRANCH  16  17
ENDBRANCH  15  16
ENDBRANCH  14  15
ENDBRANCH  13  14
ENDBRANCH   1  13
TORSDOF 20
ENDMDL
