MODEL 1
REMARK VINA RESULT:    -6.504      0.000      0.000
REMARK INTER + INTRA:          -8.397
REMARK INTER:                  -8.025
REMARK INTRA:                  -0.372
REMARK UNBOUND:                -0.372
REMARK SMILES Oc1cc(O)c2cc(O)c(-c3cc(O)c(O)c(O)c3)[o+]c2c1.[Cl-]
REMARK SMILES IDX 10 1 20 2 21 3 22 4 2 5 3 6 4 7 6 8 7 9 8 10 11 11 12 12
REMARK SMILES IDX 13 13 19 14 15 15 17 16 14 17 16 19 18 21 9 23 1 25 5 27
REMARK H PARENT 14 18 16 20 18 22 9 24 1 26 5 28
REMARK Flexibility Score: inf
ROOT
ATOM      1  C   UNL     1      23.164 -19.896 -10.822  1.00  0.00     0.402 A 
ATOM      2  O   UNL     1      22.454 -18.945 -11.422  1.00  0.00    -0.202 OA
ATOM      3  C   UNL     1      22.502 -17.665 -11.067  1.00  0.00     0.368 A 
ATOM      4  C   UNL     1      21.715 -16.739 -11.758  1.00  0.00     0.162 A 
ATOM      5  C   UNL     1      21.743 -15.389 -11.405  1.00  0.00     0.128 A 
ATOM      6  C   UNL     1      22.562 -14.960 -10.354  1.00  0.00     0.093 A 
ATOM      7  C   UNL     1      23.359 -15.869  -9.647  1.00  0.00     0.136 A 
ATOM      8  C   UNL     1      23.335 -17.242 -10.005  1.00  0.00     0.125 A 
ATOM      9  C   UNL     1      24.110 -18.221  -9.362  1.00  0.00     0.078 A 
ATOM     10  C   UNL     1      24.037 -19.555  -9.773  1.00  0.00     0.223 A 
ENDROOT
BRANCH   1  11
ATOM     11  C   UNL     1      23.016 -21.289 -11.304  1.00  0.00     0.091 A 
ATOM     12  C   UNL     1      21.976 -22.116 -10.845  1.00  0.00     0.068 A 
ATOM     13  C   UNL     1      21.838 -23.424 -11.330  1.00  0.00     0.162 A 
ATOM     14  C   UNL     1      23.897 -21.779 -12.280  1.00  0.00     0.068 A 
ATOM     15  C   UNL     1      22.739 -23.912 -12.291  1.00  0.00     0.200 A 
ATOM     16  C   UNL     1      23.766 -23.086 -12.767  1.00  0.00     0.162 A 
BRANCH  13  17
ATOM     17  O   UNL     1      20.807 -24.238 -10.864  1.00  0.00    -0.504 OA
ATOM     18  H   UNL     1      20.382 -24.946 -11.451  1.00  0.00     0.293 HD
ENDBRANCH  13  17
BRANCH  15  19
ATOM     19  O   UNL     1      22.626 -25.212 -12.784  1.00  0.00    -0.502 OA
ATOM     20  H   UNL     1      21.751 -25.722 -12.766  1.00  0.00     0.293 HD
ENDBRANCH  15  19
BRANCH  16  21
ATOM     21  O   UNL     1      24.653 -23.572 -13.726  1.00  0.00    -0.504 OA
ATOM     22  H   UNL     1      24.367 -24.258 -14.415  1.00  0.00     0.293 HD
ENDBRANCH  16  21
ENDBRANCH   1  11
BRANCH  10  23
ATOM     23  O   UNL     1      24.843 -20.519  -9.168  1.00  0.00    -0.500 OA
ATOM     24  H   UNL     1      25.260 -20.368  -8.257  1.00  0.00     0.294 HD
ENDBRANCH  10  23
BRANCH   5  25
ATOM     25  O   UNL     1      20.952 -14.481 -12.105  1.00  0.00    -0.507 OA
ATOM     26  H   UNL     1      20.256 -14.789 -12.773  1.00  0.00     0.293 HD
ENDBRANCH   5  25
BRANCH   7  27
ATOM     27  O   UNL     1      24.146 -15.363  -8.609  1.00  0.00    -0.507 OA
ATOM     28  H   UNL     1      25.069 -14.975  -8.731  1.00  0.00     0.293 HD
ENDBRANCH   7  27
TORSDOF 7
ENDMDL
MODEL 2
REMARK VINA RESULT:    -6.371      1.446      7.198
REMARK INTER + INTRA:          -8.232
REMARK INTER:                  -7.857
REMARK INTRA:                  -0.376
REMARK UNBOUND:                -0.372
REMARK SMILES Oc1cc(O)c2cc(O)c(-c3cc(O)c(O)c(O)c3)[o+]c2c1.[Cl-]
REMARK SMILES IDX 10 1 20 2 21 3 22 4 2 5 3 6 4 7 6 8 7 9 8 10 11 11 12 12
REMARK SMILES IDX 13 13 19 14 15 15 17 16 14 17 16 19 18 21 9 23 1 25 5 27
REMARK H PARENT 14 18 16 20 18 22 9 24 1 26 5 28
REMARK Flexibility Score: inf
ROOT
ATOM      1  C   UNL     1      23.093 -20.533 -11.144  1.00  0.00     0.402 A 
ATOM      2  O   UNL     1      22.190 -21.451 -10.813  1.00  0.00    -0.202 OA
ATOM      3  C   UNL     1      22.195 -22.688 -11.300  1.00  0.00     0.368 A 
ATOM      4  C   UNL     1      21.200 -23.582 -10.894  1.00  0.00     0.162 A 
ATOM      5  C   UNL     1      21.178 -24.885 -11.391  1.00  0.00     0.128 A 
ATOM      6  C   UNL     1      22.157 -25.301 -12.302  1.00  0.00     0.093 A 
ATOM      7  C   UNL     1      23.164 -24.424 -12.724  1.00  0.00     0.136 A 
ATOM      8  C   UNL     1      23.190 -23.098 -12.218  1.00  0.00     0.125 A 
ATOM      9  C   UNL     1      24.168 -22.156 -12.574  1.00  0.00     0.078 A 
ATOM     10  C   UNL     1      24.133 -20.868 -12.031  1.00  0.00     0.223 A 
ENDROOT
BRANCH   1  11
ATOM     11  C   UNL     1      22.975 -19.186 -10.540  1.00  0.00     0.091 A 
ATOM     12  C   UNL     1      23.663 -18.850  -9.360  1.00  0.00     0.068 A 
ATOM     13  C   UNL     1      23.558 -17.562  -8.816  1.00  0.00     0.162 A 
ATOM     14  C   UNL     1      22.209 -18.204 -11.186  1.00  0.00     0.068 A 
ATOM     15  C   UNL     1      22.769 -16.593  -9.458  1.00  0.00     0.200 A 
ATOM     16  C   UNL     1      22.098 -16.916 -10.645  1.00  0.00     0.162 A 
BRANCH  13  17
ATOM     17  O   UNL     1      24.238 -17.241  -7.642  1.00  0.00    -0.504 OA
ATOM     18  H   UNL     1      25.008 -16.582  -7.638  1.00  0.00     0.293 HD
ENDBRANCH  13  17
BRANCH  15  19
ATOM     19  O   UNL     1      22.645 -15.307  -8.933  1.00  0.00    -0.502 OA
ATOM     20  H   UNL     1      21.890 -14.686  -9.199  1.00  0.00     0.293 HD
ENDBRANCH  15  19
BRANCH  16  21
ATOM     21  O   UNL     1      21.323 -15.949 -11.283  1.00  0.00    -0.504 OA
ATOM     22  H   UNL     1      20.375 -15.750 -10.989  1.00  0.00     0.293 HD
ENDBRANCH  16  21
ENDBRANCH   1  11
BRANCH  10  23
ATOM     23  O   UNL     1      25.132 -19.947 -12.346  1.00  0.00    -0.500 OA
ATOM     24  H   UNL     1      25.223 -19.560 -13.279  1.00  0.00     0.294 HD
ENDBRANCH  10  23
BRANCH   5  25
ATOM     25  O   UNL     1      20.179 -25.762 -10.975  1.00  0.00    -0.507 OA
ATOM     26  H   UNL     1      20.326 -26.408 -10.208  1.00  0.00     0.293 HD
ENDBRANCH   5  25
BRANCH   7  27
ATOM     27  O   UNL     1      24.102 -24.913 -13.637  1.00  0.00    -0.507 OA
ATOM     28  H   UNL     1      24.139 -25.867 -13.961  1.00  0.00     0.293 HD
ENDBRANCH   7  27
TORSDOF 7
ENDMDL
MODEL 3
REMARK VINA RESULT:    -6.338      1.550      2.984
REMARK INTER + INTRA:          -8.191
REMARK INTER:                  -7.817
REMARK INTRA:                  -0.375
REMARK UNBOUND:                -0.372
REMARK SMILES Oc1cc(O)c2cc(O)c(-c3cc(O)c(O)c(O)c3)[o+]c2c1.[Cl-]
REMARK SMILES IDX 10 1 20 2 21 3 22 4 2 5 3 6 4 7 6 8 7 9 8 10 11 11 12 12
REMARK SMILES IDX 13 13 19 14 15 15 17 16 14 17 16 19 18 21 9 23 1 25 5 27
REMARK H PARENT 14 18 16 20 18 22 9 24 1 26 5 28
REMARK Flexibility Score: inf
ROOT
ATOM      1  C   UNL     1      22.088 -21.188 -11.492  1.00  0.00     0.402 A 
ATOM      2  O   UNL     1      22.763 -20.674 -10.468  1.00  0.00    -0.202 OA
ATOM      3  C   UNL     1      22.760 -19.379 -10.168  1.00  0.00     0.368 A 
ATOM      4  C   UNL     1      23.505 -18.934  -9.072  1.00  0.00     0.162 A 
ATOM      5  C   UNL     1      23.522 -17.580  -8.735  1.00  0.00     0.128 A 
ATOM      6  C   UNL     1      22.790 -16.662  -9.498  1.00  0.00     0.093 A 
ATOM      7  C   UNL     1      22.035 -17.084 -10.599  1.00  0.00     0.136 A 
ATOM      8  C   UNL     1      22.014 -18.461 -10.944  1.00  0.00     0.125 A 
ATOM      9  C   UNL     1      21.276 -18.975 -12.021  1.00  0.00     0.078 A 
ATOM     10  C   UNL     1      21.299 -20.345 -12.298  1.00  0.00     0.223 A 
ENDROOT
BRANCH   1  11
ATOM     11  C   UNL     1      22.180 -22.646 -11.730  1.00  0.00     0.091 A 
ATOM     12  C   UNL     1      21.231 -23.537 -11.196  1.00  0.00     0.068 A 
ATOM     13  C   UNL     1      21.321 -24.912 -11.451  1.00  0.00     0.162 A 
ATOM     14  C   UNL     1      23.200 -23.150 -12.551  1.00  0.00     0.068 A 
ATOM     15  C   UNL     1      22.360 -25.408 -12.256  1.00  0.00     0.200 A 
ATOM     16  C   UNL     1      23.296 -24.524 -12.808  1.00  0.00     0.162 A 
BRANCH  13  17
ATOM     17  O   UNL     1      20.379 -25.787 -10.911  1.00  0.00    -0.504 OA
ATOM     18  H   UNL     1      20.544 -26.786 -10.869  1.00  0.00     0.293 HD
ENDBRANCH  13  17
BRANCH  15  19
ATOM     19  O   UNL     1      22.473 -26.773 -12.520  1.00  0.00    -0.502 OA
ATOM     20  H   UNL     1      22.902 -27.125 -13.367  1.00  0.00     0.293 HD
ENDBRANCH  15  19
BRANCH  16  21
ATOM     21  O   UNL     1      24.321 -25.019 -13.613  1.00  0.00    -0.504 OA
ATOM     22  H   UNL     1      25.284 -24.735 -13.480  1.00  0.00     0.293 HD
ENDBRANCH  16  21
ENDBRANCH   1  11
BRANCH  10  23
ATOM     23  O   UNL     1      20.528 -20.864 -13.337  1.00  0.00    -0.500 OA
ATOM     24  H   UNL     1      19.524 -20.977 -13.250  1.00  0.00     0.294 HD
ENDBRANCH  10  23
BRANCH   5  25
ATOM     25  O   UNL     1      24.272 -17.155  -7.640  1.00  0.00    -0.507 OA
ATOM     26  H   UNL     1      25.148 -16.660  -7.758  1.00  0.00     0.293 HD
ENDBRANCH   5  25
BRANCH   7  27
ATOM     27  O   UNL     1      21.334 -16.107 -11.311  1.00  0.00    -0.507 OA
ATOM     28  H   UNL     1      20.468 -16.270 -11.801  1.00  0.00     0.293 HD
ENDBRANCH   7  27
TORSDOF 7
ENDMDL
MODEL 4
REMARK VINA RESULT:    -6.278      1.511      3.452
REMARK INTER + INTRA:          -8.119
REMARK INTER:                  -7.736
REMARK INTRA:                  -0.382
REMARK UNBOUND:                -0.372
REMARK SMILES Oc1cc(O)c2cc(O)c(-c3cc(O)c(O)c(O)c3)[o+]c2c1.[Cl-]
REMARK SMILES IDX 10 1 20 2 21 3 22 4 2 5 3 6 4 7 6 8 7 9 8 10 11 11 12 12
REMARK SMILES IDX 13 13 19 14 15 15 17 16 14 17 16 19 18 21 9 23 1 25 5 27
REMARK H PARENT 14 18 16 20 18 22 9 24 1 26 5 28
REMARK Flexibility Score: inf
ROOT
ATOM      1  C   UNL     1      22.164 -21.092 -11.540  1.00  0.00     0.402 A 
ATOM      2  O   UNL     1      22.847 -20.622 -10.501  1.00  0.00    -0.202 OA
ATOM      3  C   UNL     1      22.843 -19.341 -10.144  1.00  0.00     0.368 A 
ATOM      4  C   UNL     1      23.596 -18.941  -9.037  1.00  0.00     0.162 A 
ATOM      5  C   UNL     1      23.612 -17.603  -8.642  1.00  0.00     0.128 A 
ATOM      6  C   UNL     1      22.871 -16.656  -9.357  1.00  0.00     0.093 A 
ATOM      7  C   UNL     1      22.108 -17.031 -10.470  1.00  0.00     0.136 A 
ATOM      8  C   UNL     1      22.088 -18.392 -10.874  1.00  0.00     0.125 A 
ATOM      9  C   UNL     1      21.342 -18.861 -11.966  1.00  0.00     0.078 A 
ATOM     10  C   UNL     1      21.367 -20.218 -12.302  1.00  0.00     0.223 A 
ENDROOT
BRANCH   1  11
ATOM     11  C   UNL     1      22.258 -22.539 -11.842  1.00  0.00     0.091 A 
ATOM     12  C   UNL     1      23.262 -23.048 -12.684  1.00  0.00     0.068 A 
ATOM     13  C   UNL     1      23.350 -24.423 -12.940  1.00  0.00     0.162 A 
ATOM     14  C   UNL     1      21.363 -23.432 -11.232  1.00  0.00     0.068 A 
ATOM     15  C   UNL     1      22.434 -25.306 -12.341  1.00  0.00     0.200 A 
ATOM     16  C   UNL     1      21.444 -24.807 -11.485  1.00  0.00     0.162 A 
BRANCH  13  17
ATOM     17  O   UNL     1      24.346 -24.917 -13.781  1.00  0.00    -0.504 OA
ATOM     18  H   UNL     1      25.123 -24.339 -14.079  1.00  0.00     0.293 HD
ENDBRANCH  13  17
BRANCH  15  19
ATOM     19  O   UNL     1      22.498 -26.678 -12.584  1.00  0.00    -0.502 OA
ATOM     20  H   UNL     1      22.244 -27.080 -13.479  1.00  0.00     0.293 HD
ENDBRANCH  15  19
BRANCH  16  21
ATOM     21  O   UNL     1      20.543 -25.687 -10.888  1.00  0.00    -0.504 OA
ATOM     22  H   UNL     1      19.580 -25.424 -10.715  1.00  0.00     0.293 HD
ENDBRANCH  16  21
ENDBRANCH   1  11
BRANCH  10  23
ATOM     23  O   UNL     1      20.588 -20.694 -13.357  1.00  0.00    -0.500 OA
ATOM     24  H   UNL     1      19.584 -20.802 -13.270  1.00  0.00     0.294 HD
ENDBRANCH  10  23
BRANCH   5  25
ATOM     25  O   UNL     1      24.370 -17.224  -7.535  1.00  0.00    -0.507 OA
ATOM     26  H   UNL     1      24.677 -16.267  -7.407  1.00  0.00     0.293 HD
ENDBRANCH   5  25
BRANCH   7  27
ATOM     27  O   UNL     1      21.399 -16.027 -11.133  1.00  0.00    -0.507 OA
ATOM     28  H   UNL     1      21.738 -15.529 -11.943  1.00  0.00     0.293 HD
ENDBRANCH   7  27
TORSDOF 7
ENDMDL
MODEL 5
REMARK VINA RESULT:    -6.273      1.618      7.313
REMARK INTER + INTRA:          -8.112
REMARK INTER:                  -7.862
REMARK INTRA:                  -0.250
REMARK UNBOUND:                -0.372
REMARK SMILES Oc1cc(O)c2cc(O)c(-c3cc(O)c(O)c(O)c3)[o+]c2c1.[Cl-]
REMARK SMILES IDX 10 1 20 2 21 3 22 4 2 5 3 6 4 7 6 8 7 9 8 10 11 11 12 12
REMARK SMILES IDX 13 13 19 14 15 15 17 16 14 17 16 19 18 21 9 23 1 25 5 27
REMARK H PARENT 14 18 16 20 18 22 9 24 1 26 5 28
REMARK Flexibility Score: inf
ROOT
ATOM      1  C   UNL     1      22.612 -19.694 -11.409  1.00  0.00     0.402 A 
ATOM      2  O   UNL     1      23.554 -20.576 -11.728  1.00  0.00    -0.202 OA
ATOM      3  C   UNL     1      23.296 -21.739 -12.318  1.00  0.00     0.368 A 
ATOM      4  C   UNL     1      24.354 -22.603 -12.611  1.00  0.00     0.162 A 
ATOM      5  C   UNL     1      24.112 -23.831 -13.228  1.00  0.00     0.128 A 
ATOM      6  C   UNL     1      22.802 -24.201 -13.554  1.00  0.00     0.093 A 
ATOM      7  C   UNL     1      21.724 -23.353 -13.270  1.00  0.00     0.136 A 
ATOM      8  C   UNL     1      21.967 -22.102 -12.645  1.00  0.00     0.125 A 
ATOM      9  C   UNL     1      20.952 -21.183 -12.336  1.00  0.00     0.078 A 
ATOM     10  C   UNL     1      21.268 -19.967 -11.724  1.00  0.00     0.223 A 
ENDROOT
BRANCH   1  11
ATOM     11  C   UNL     1      23.027 -18.437 -10.744  1.00  0.00     0.091 A 
ATOM     12  C   UNL     1      22.913 -17.194 -11.393  1.00  0.00     0.068 A 
ATOM     13  C   UNL     1      23.289 -16.012 -10.740  1.00  0.00     0.162 A 
ATOM     14  C   UNL     1      23.489 -18.475  -9.420  1.00  0.00     0.068 A 
ATOM     15  C   UNL     1      23.772 -16.065  -9.422  1.00  0.00     0.200 A 
ATOM     16  C   UNL     1      23.868 -17.297  -8.763  1.00  0.00     0.162 A 
BRANCH  13  17
ATOM     17  O   UNL     1      23.178 -14.786 -11.394  1.00  0.00    -0.504 OA
ATOM     18  H   UNL     1      23.305 -13.908 -10.903  1.00  0.00     0.293 HD
ENDBRANCH  13  17
BRANCH  15  19
ATOM     19  O   UNL     1      24.157 -14.902  -8.753  1.00  0.00    -0.502 OA
ATOM     20  H   UNL     1      24.272 -14.871  -7.747  1.00  0.00     0.293 HD
ENDBRANCH  15  19
BRANCH  16  21
ATOM     21  O   UNL     1      24.341 -17.343  -7.453  1.00  0.00    -0.504 OA
ATOM     22  H   UNL     1      25.145 -16.802  -7.159  1.00  0.00     0.293 HD
ENDBRANCH  16  21
ENDBRANCH   1  11
BRANCH  10  23
ATOM     23  O   UNL     1      20.266 -19.033 -11.461  1.00  0.00    -0.500 OA
ATOM     24  H   UNL     1      19.493 -19.243 -10.840  1.00  0.00     0.294 HD
ENDBRANCH  10  23
BRANCH   5  25
ATOM     25  O   UNL     1      25.181 -24.679 -13.512  1.00  0.00    -0.507 OA
ATOM     26  H   UNL     1      25.218 -25.624 -13.149  1.00  0.00     0.293 HD
ENDBRANCH   5  25
BRANCH   7  27
ATOM     27  O   UNL     1      20.447 -23.795 -13.623  1.00  0.00    -0.507 OA
ATOM     28  H   UNL     1      20.257 -24.655 -14.116  1.00  0.00     0.293 HD
ENDBRANCH   7  27
TORSDOF 7
ENDMDL
MODEL 6
REMARK VINA RESULT:    -6.271      1.368      7.199
REMARK INTER + INTRA:          -8.110
REMARK INTER:                  -7.725
REMARK INTRA:                  -0.384
REMARK UNBOUND:                -0.372
REMARK SMILES Oc1cc(O)c2cc(O)c(-c3cc(O)c(O)c(O)c3)[o+]c2c1.[Cl-]
REMARK SMILES IDX 10 1 20 2 21 3 22 4 2 5 3 6 4 7 6 8 7 9 8 10 11 11 12 12
REMARK SMILES IDX 13 13 19 14 15 15 17 16 14 17 16 19 18 21 9 23 1 25 5 27
REMARK H PARENT 14 18 16 20 18 22 9 24 1 26 5 28
REMARK Flexibility Score: inf
ROOT
ATOM      1  C   UNL     1      23.022 -20.308 -11.210  1.00  0.00     0.402 A 
ATOM      2  O   UNL     1      22.187 -21.231 -10.745  1.00  0.00    -0.202 OA
ATOM      3  C   UNL     1      22.140 -22.475 -11.211  1.00  0.00     0.368 A 
ATOM      4  C   UNL     1      21.224 -23.374 -10.658  1.00  0.00     0.162 A 
ATOM      5  C   UNL     1      21.151 -24.686 -11.130  1.00  0.00     0.128 A 
ATOM      6  C   UNL     1      22.000 -25.104 -12.161  1.00  0.00     0.093 A 
ATOM      7  C   UNL     1      22.927 -24.222 -12.731  1.00  0.00     0.136 A 
ATOM      8  C   UNL     1      23.005 -22.888 -12.252  1.00  0.00     0.125 A 
ATOM      9  C   UNL     1      23.911 -21.940 -12.753  1.00  0.00     0.078 A 
ATOM     10  C   UNL     1      23.934 -20.645 -12.229  1.00  0.00     0.223 A 
ENDROOT
BRANCH   1  11
ATOM     11  C   UNL     1      22.971 -18.953 -10.615  1.00  0.00     0.091 A 
ATOM     12  C   UNL     1      22.213 -17.924 -11.201  1.00  0.00     0.068 A 
ATOM     13  C   UNL     1      22.158 -16.654 -10.610  1.00  0.00     0.162 A 
ATOM     14  C   UNL     1      23.645 -18.702  -9.410  1.00  0.00     0.068 A 
ATOM     15  C   UNL     1      22.855 -16.407  -9.416  1.00  0.00     0.200 A 
ATOM     16  C   UNL     1      23.594 -17.435  -8.815  1.00  0.00     0.162 A 
BRANCH  13  17
ATOM     17  O   UNL     1      21.409 -15.639 -11.203  1.00  0.00    -0.504 OA
ATOM     18  H   UNL     1      21.669 -14.663 -11.112  1.00  0.00     0.293 HD
ENDBRANCH  13  17
BRANCH  15  19
ATOM     19  O   UNL     1      22.819 -15.150  -8.811  1.00  0.00    -0.502 OA
ATOM     20  H   UNL     1      23.637 -14.734  -8.384  1.00  0.00     0.293 HD
ENDBRANCH  15  19
BRANCH  16  21
ATOM     21  O   UNL     1      24.278 -17.187  -7.626  1.00  0.00    -0.504 OA
ATOM     22  H   UNL     1      24.261 -16.276  -7.184  1.00  0.00     0.293 HD
ENDBRANCH  16  21
ENDBRANCH   1  11
BRANCH  10  23
ATOM     23  O   UNL     1      24.867 -19.717 -12.692  1.00  0.00    -0.500 OA
ATOM     24  H   UNL     1      25.399 -19.876 -13.539  1.00  0.00     0.294 HD
ENDBRANCH  10  23
BRANCH   5  25
ATOM     25  O   UNL     1      20.231 -25.568 -10.567  1.00  0.00    -0.507 OA
ATOM     26  H   UNL     1      20.524 -26.440 -10.144  1.00  0.00     0.293 HD
ENDBRANCH   5  25
BRANCH   7  27
ATOM     27  O   UNL     1      23.736 -24.714 -13.758  1.00  0.00    -0.507 OA
ATOM     28  H   UNL     1      24.698 -24.995 -13.642  1.00  0.00     0.293 HD
ENDBRANCH   7  27
TORSDOF 7
ENDMDL
MODEL 7
REMARK VINA RESULT:    -6.269      2.030      7.704
REMARK INTER + INTRA:          -8.107
REMARK INTER:                  -7.819
REMARK INTRA:                  -0.288
REMARK UNBOUND:                -0.372
REMARK SMILES Oc1cc(O)c2cc(O)c(-c3cc(O)c(O)c(O)c3)[o+]c2c1.[Cl-]
REMARK SMILES IDX 10 1 20 2 21 3 22 4 2 5 3 6 4 7 6 8 7 9 8 10 11 11 12 12
REMARK SMILES IDX 13 13 19 14 15 15 17 16 14 17 16 19 18 21 9 23 1 25 5 27
REMARK H PARENT 14 18 16 20 18 22 9 24 1 26 5 28
REMARK Flexibility Score: inf
ROOT
ATOM      1  C   UNL     1      23.397 -22.229 -12.024  1.00  0.00     0.402 A 
ATOM      2  O   UNL     1      24.380 -22.721 -12.772  1.00  0.00    -0.202 OA
ATOM      3  C   UNL     1      24.364 -23.949 -13.282  1.00  0.00     0.368 A 
ATOM      4  C   UNL     1      25.447 -24.377 -14.054  1.00  0.00     0.162 A 
ATOM      5  C   UNL     1      25.459 -25.662 -14.600  1.00  0.00     0.128 A 
ATOM      6  C   UNL     1      24.382 -26.526 -14.372  1.00  0.00     0.093 A 
ATOM      7  C   UNL     1      23.285 -26.120 -13.601  1.00  0.00     0.136 A 
ATOM      8  C   UNL     1      23.269 -24.813 -13.047  1.00  0.00     0.125 A 
ATOM      9  C   UNL     1      22.207 -24.316 -12.275  1.00  0.00     0.078 A 
ATOM     10  C   UNL     1      22.259 -23.015 -11.765  1.00  0.00     0.223 A 
ENDROOT
BRANCH   1  11
ATOM     11  C   UNL     1      23.536 -20.849 -11.506  1.00  0.00     0.091 A 
ATOM     12  C   UNL     1      23.693 -20.595 -10.132  1.00  0.00     0.068 A 
ATOM     13  C   UNL     1      23.846 -19.283  -9.662  1.00  0.00     0.162 A 
ATOM     14  C   UNL     1      23.569 -19.773 -12.406  1.00  0.00     0.068 A 
ATOM     15  C   UNL     1      23.855 -18.211 -10.570  1.00  0.00     0.200 A 
ATOM     16  C   UNL     1      23.720 -18.459 -11.942  1.00  0.00     0.162 A 
BRANCH  13  17
ATOM     17  O   UNL     1      23.995 -19.042  -8.297  1.00  0.00    -0.504 OA
ATOM     18  H   UNL     1      24.910 -18.979  -7.865  1.00  0.00     0.293 HD
ENDBRANCH  13  17
BRANCH  15  19
ATOM     19  O   UNL     1      24.001 -16.897 -10.126  1.00  0.00    -0.502 OA
ATOM     20  H   UNL     1      23.397 -16.496  -9.418  1.00  0.00     0.293 HD
ENDBRANCH  15  19
BRANCH  16  21
ATOM     21  O   UNL     1      23.737 -17.393 -12.840  1.00  0.00    -0.504 OA
ATOM     22  H   UNL     1      24.544 -17.200 -13.420  1.00  0.00     0.293 HD
ENDBRANCH  16  21
ENDBRANCH   1  11
BRANCH  10  23
ATOM     23  O   UNL     1      21.184 -22.504 -11.039  1.00  0.00    -0.500 OA
ATOM     24  H   UNL     1      20.332 -23.036 -10.904  1.00  0.00     0.294 HD
ENDBRANCH  10  23
BRANCH   5  25
ATOM     25  O   UNL     1      26.548 -26.071 -15.367  1.00  0.00    -0.507 OA
ATOM     26  H   UNL     1      27.391 -26.436 -14.939  1.00  0.00     0.293 HD
ENDBRANCH   5  25
BRANCH   7  27
ATOM     27  O   UNL     1      22.252 -27.042 -13.417  1.00  0.00    -0.507 OA
ATOM     28  H   UNL     1      21.613 -27.033 -12.636  1.00  0.00     0.293 HD
ENDBRANCH   7  27
TORSDOF 7
ENDMDL
MODEL 8
REMARK VINA RESULT:    -6.167      8.760     10.553
REMARK INTER + INTRA:          -7.981
REMARK INTER:                  -7.616
REMARK INTRA:                  -0.365
REMARK UNBOUND:                -0.372
REMARK SMILES Oc1cc(O)c2cc(O)c(-c3cc(O)c(O)c(O)c3)[o+]c2c1.[Cl-]
REMARK SMILES IDX 10 1 20 2 21 3 22 4 2 5 3 6 4 7 6 8 7 9 8 10 11 11 12 12
REMARK SMILES IDX 13 13 19 14 15 15 17 16 14 17 16 19 18 21 9 23 1 25 5 27
REMARK H PARENT 14 18 16 20 18 22 9 24 1 26 5 28
REMARK Flexibility Score: inf
ROOT
ATOM      1  C   UNL     1      22.273 -28.735 -11.469  1.00  0.00     0.402 A 
ATOM      2  O   UNL     1      23.574 -29.011 -11.439  1.00  0.00    -0.202 OA
ATOM      3  C   UNL     1      24.445 -28.517 -12.313  1.00  0.00     0.368 A 
ATOM      4  C   UNL     1      25.793 -28.869 -12.201  1.00  0.00     0.162 A 
ATOM      5  C   UNL     1      26.730 -28.367 -13.105  1.00  0.00     0.128 A 
ATOM      6  C   UNL     1      26.318 -27.508 -14.131  1.00  0.00     0.093 A 
ATOM      7  C   UNL     1      24.973 -27.141 -14.264  1.00  0.00     0.136 A 
ATOM      8  C   UNL     1      24.018 -27.647 -13.344  1.00  0.00     0.125 A 
ATOM      9  C   UNL     1      22.653 -27.322 -13.392  1.00  0.00     0.078 A 
ATOM     10  C   UNL     1      21.771 -27.856 -12.448  1.00  0.00     0.223 A 
ENDROOT
BRANCH   1  11
ATOM     11  C   UNL     1      21.402 -29.355 -10.446  1.00  0.00     0.091 A 
ATOM     12  C   UNL     1      20.914 -30.666 -10.596  1.00  0.00     0.068 A 
ATOM     13  C   UNL     1      20.109 -31.245  -9.606  1.00  0.00     0.162 A 
ATOM     14  C   UNL     1      21.100 -28.646  -9.273  1.00  0.00     0.068 A 
ATOM     15  C   UNL     1      19.795 -30.518  -8.446  1.00  0.00     0.200 A 
ATOM     16  C   UNL     1      20.295 -29.220  -8.280  1.00  0.00     0.162 A 
BRANCH  13  17
ATOM     17  O   UNL     1      19.626 -32.543  -9.768  1.00  0.00    -0.504 OA
ATOM     18  H   UNL     1      19.909 -33.296  -9.152  1.00  0.00     0.293 HD
ENDBRANCH  13  17
BRANCH  15  19
ATOM     19  O   UNL     1      18.992 -31.072  -7.448  1.00  0.00    -0.502 OA
ATOM     20  H   UNL     1      18.049 -30.746  -7.272  1.00  0.00     0.293 HD
ENDBRANCH  15  19
BRANCH  16  21
ATOM     21  O   UNL     1      19.986 -28.505  -7.124  1.00  0.00    -0.504 OA
ATOM     22  H   UNL     1      20.493 -27.666  -6.868  1.00  0.00     0.293 HD
ENDBRANCH  16  21
ENDBRANCH   1  11
BRANCH  10  23
ATOM     23  O   UNL     1      20.424 -27.496 -12.465  1.00  0.00    -0.500 OA
ATOM     24  H   UNL     1      19.968 -27.105 -11.649  1.00  0.00     0.294 HD
ENDBRANCH  10  23
BRANCH   5  25
ATOM     25  O   UNL     1      28.069 -28.730 -12.978  1.00  0.00    -0.507 OA
ATOM     26  H   UNL     1      28.420 -29.173 -12.138  1.00  0.00     0.293 HD
ENDBRANCH   5  25
BRANCH   7  27
ATOM     27  O   UNL     1      24.642 -26.282 -15.315  1.00  0.00    -0.507 OA
ATOM     28  H   UNL     1      24.161 -26.568 -16.155  1.00  0.00     0.293 HD
ENDBRANCH   7  27
TORSDOF 7
ENDMDL
MODEL 9
REMARK VINA RESULT:    -6.095      2.241      3.616
REMARK INTER + INTRA:          -7.892
REMARK INTER:                  -8.119
REMARK INTRA:                   0.226
REMARK UNBOUND:                -0.372
REMARK SMILES Oc1cc(O)c2cc(O)c(-c3cc(O)c(O)c(O)c3)[o+]c2c1.[Cl-]
REMARK SMILES IDX 10 1 20 2 21 3 22 4 2 5 3 6 4 7 6 8 7 9 8 10 11 11 12 12
REMARK SMILES IDX 13 13 19 14 15 15 17 16 14 17 16 19 18 21 9 23 1 25 5 27
REMARK H PARENT 14 18 16 20 18 22 9 24 1 26 5 28
REMARK Flexibility Score: inf
ROOT
ATOM      1  C   UNL     1      21.205 -19.746 -12.058  1.00  0.00     0.402 A 
ATOM      2  O   UNL     1      22.020 -19.649 -11.011  1.00  0.00    -0.202 OA
ATOM      3  C   UNL     1      22.319 -18.495 -10.423  1.00  0.00     0.368 A 
ATOM      4  C   UNL     1      23.189 -18.494  -9.330  1.00  0.00     0.162 A 
ATOM      5  C   UNL     1      23.523 -17.297  -8.695  1.00  0.00     0.128 A 
ATOM      6  C   UNL     1      22.984 -16.090  -9.156  1.00  0.00     0.093 A 
ATOM      7  C   UNL     1      22.110 -16.064 -10.250  1.00  0.00     0.136 A 
ATOM      8  C   UNL     1      21.767 -17.280 -10.896  1.00  0.00     0.125 A 
ATOM      9  C   UNL     1      20.889 -17.352 -11.989  1.00  0.00     0.078 A 
ATOM     10  C   UNL     1      20.594 -18.588 -12.573  1.00  0.00     0.223 A 
ENDROOT
BRANCH   1  11
ATOM     11  C   UNL     1      20.958 -21.089 -12.630  1.00  0.00     0.091 A 
ATOM     12  C   UNL     1      20.564 -21.253 -13.970  1.00  0.00     0.068 A 
ATOM     13  C   UNL     1      20.356 -22.533 -14.501  1.00  0.00     0.162 A 
ATOM     14  C   UNL     1      21.176 -22.228 -11.840  1.00  0.00     0.068 A 
ATOM     15  C   UNL     1      20.556 -23.666 -13.694  1.00  0.00     0.200 A 
ATOM     16  C   UNL     1      20.969 -23.510 -12.365  1.00  0.00     0.162 A 
BRANCH  13  17
ATOM     17  O   UNL     1      19.959 -22.684 -15.829  1.00  0.00    -0.504 OA
ATOM     18  H   UNL     1      19.014 -22.956 -16.073  1.00  0.00     0.293 HD
ENDBRANCH  13  17
BRANCH  15  19
ATOM     19  O   UNL     1      20.351 -24.950 -14.199  1.00  0.00    -0.502 OA
ATOM     20  H   UNL     1      20.270 -25.760 -13.596  1.00  0.00     0.293 HD
ENDBRANCH  15  19
BRANCH  16  21
ATOM     21  O   UNL     1      21.173 -24.637 -11.570  1.00  0.00    -0.504 OA
ATOM     22  H   UNL     1      21.359 -25.546 -11.975  1.00  0.00     0.293 HD
ENDBRANCH  16  21
ENDBRANCH   1  11
BRANCH  10  23
ATOM     23  O   UNL     1      19.684 -18.666 -13.627  1.00  0.00    -0.500 OA
ATOM     24  H   UNL     1      19.288 -17.834 -14.050  1.00  0.00     0.294 HD
ENDBRANCH  10  23
BRANCH   5  25
ATOM     25  O   UNL     1      24.392 -17.317  -7.607  1.00  0.00    -0.507 OA
ATOM     26  H   UNL     1      24.086 -17.619  -6.690  1.00  0.00     0.293 HD
ENDBRANCH   5  25
BRANCH   7  27
ATOM     27  O   UNL     1      21.618 -14.820 -10.651  1.00  0.00    -0.507 OA
ATOM     28  H   UNL     1      21.988 -14.281 -11.420  1.00  0.00     0.293 HD
ENDBRANCH   7  27
TORSDOF 7
ENDMDL
