MODEL 1
REMARK VINA RESULT:    -5.096      0.000      0.000
REMARK INTER + INTRA:         -16.379
REMARK INTER:                 -12.843
REMARK INTRA:                  -3.537
REMARK UNBOUND:                -3.537
REMARK SMILES CCCCCCCCCCCCCCCCCCCCCCCCCCCC(=O)[O-]
REMARK SMILES IDX 15 1 16 2 17 3 18 4 19 5 20 6 21 7 22 8 23 9 24 10 25 11
REMARK SMILES IDX 26 12 27 13 28 14 29 15 30 16 14 17 13 18 12 19 11 20 10 21
REMARK SMILES IDX 9 22 8 23 7 24 6 25 5 26 4 27 3 28 2 29 1 30
REMARK H PARENT
REMARK Flexibility Score: inf
ROOT
ATOM      1  C   UNL     1     -10.419   7.620 -12.158  1.00  0.00     0.000 C 
ENDROOT
BRANCH   1   2
ATOM      2  C   UNL     1     -11.084   7.052 -10.885  1.00  0.00     0.000 C 
BRANCH   2   3
ATOM      3  C   UNL     1     -12.462   6.433 -11.179  1.00  0.00     0.000 C 
BRANCH   3   4
ATOM      4  C   UNL     1     -12.986   5.554 -10.029  1.00  0.00     0.000 C 
BRANCH   4   5
ATOM      5  C   UNL     1     -12.875   4.031 -10.262  1.00  0.00     0.000 C 
BRANCH   5   6
ATOM      6  C   UNL     1     -12.210   3.233  -9.125  1.00  0.00     0.000 C 
BRANCH   6   7
ATOM      7  C   UNL     1     -11.343   4.059  -8.153  1.00  0.00     0.000 C 
BRANCH   7   8
ATOM      8  C   UNL     1      -9.829   3.783  -8.260  1.00  0.00     0.000 C 
BRANCH   8   9
ATOM      9  C   UNL     1      -9.061   4.917  -8.958  1.00  0.00     0.000 C 
BRANCH   9  10
ATOM     10  C   UNL     1      -8.222   4.404 -10.141  1.00  0.00     0.000 C 
BRANCH  10  11
ATOM     11  C   UNL     1      -8.997   3.403 -11.018  1.00  0.00     0.000 C 
BRANCH  11  12
ATOM     12  C   UNL     1      -9.711   4.083 -12.195  1.00  0.00     0.006 C 
BRANCH  12  13
ATOM     13  C   UNL     1     -10.341   3.073 -13.159  1.00  0.00     0.053 C 
BRANCH  13  14
ATOM     14  C   UNL     1      -9.291   2.448 -14.025  1.00  0.00     0.041 C 
ATOM     15  O   UNL     1      -8.466   3.170 -14.642  1.00  0.00    -0.550 OA
ATOM     16  O   UNL     1      -9.261   1.070 -14.193  1.00  0.00    -0.550 OA
ENDBRANCH  13  14
ENDBRANCH  12  13
ENDBRANCH  11  12
ENDBRANCH  10  11
ENDBRANCH   9  10
ENDBRANCH   8   9
ENDBRANCH   7   8
ENDBRANCH   6   7
ENDBRANCH   5   6
ENDBRANCH   4   5
ENDBRANCH   3   4
ENDBRANCH   2   3
ENDBRANCH   1   2
BRANCH   1  17
ATOM     17  C   UNL     1      -9.066   8.305 -11.902  1.00  0.00     0.000 C 
BRANCH  17  18
ATOM     18  C   UNL     1      -8.984   8.971 -10.517  1.00  0.00     0.000 C 
BRANCH  18  19
ATOM     19  C   UNL     1      -7.971   8.287  -9.573  1.00  0.00     0.000 C 
BRANCH  19  20
ATOM     20  C   UNL     1      -6.502   8.402 -10.025  1.00  0.00     0.000 C 
BRANCH  20  21
ATOM     21  C   UNL     1      -5.935   7.170 -10.750  1.00  0.00     0.000 C 
BRANCH  21  22
ATOM     22  C   UNL     1      -4.398   7.134 -10.763  1.00  0.00    -0.000 C 
BRANCH  22  23
ATOM     23  C   UNL     1      -3.843   7.717 -12.072  1.00  0.00    -0.000 C 
BRANCH  23  24
ATOM     24  C   UNL     1      -2.304   7.693 -12.111  1.00  0.00    -0.000 C 
BRANCH  24  25
ATOM     25  C   UNL     1      -1.724   8.906 -12.859  1.00  0.00    -0.000 C 
BRANCH  25  26
ATOM     26  C   UNL     1      -2.747   9.553 -13.807  1.00  0.00    -0.000 C 
BRANCH  26  27
ATOM     27  C   UNL     1      -2.415   9.300 -15.288  1.00  0.00    -0.000 C 
BRANCH  27  28
ATOM     28  C   UNL     1      -3.479   8.441 -15.990  1.00  0.00    -0.000 C 
BRANCH  28  29
ATOM     29  C   UNL     1      -3.962   9.065 -17.307  1.00  0.00    -0.003 C 
ATOM     30  C   UNL     1      -2.803   9.256 -18.283  1.00  0.00     0.004 C 
ENDBRANCH  28  29
ENDBRANCH  27  28
ENDBRANCH  26  27
ENDBRANCH  25  26
ENDBRANCH  24  25
ENDBRANCH  23  24
ENDBRANCH  22  23
ENDBRANCH  21  22
ENDBRANCH  20  21
ENDBRANCH  19  20
ENDBRANCH  18  19
ENDBRANCH  17  18
ENDBRANCH   1  17
TORSDOF 26
ENDMDL
MODEL 2
REMARK VINA RESULT:    -4.962      1.828      2.344
REMARK INTER + INTRA:         -16.041
REMARK INTER:                 -11.888
REMARK INTRA:                  -4.153
REMARK UNBOUND:                -3.537
REMARK SMILES CCCCCCCCCCCCCCCCCCCCCCCCCCCC(=O)[O-]
REMARK SMILES IDX 15 1 16 2 17 3 18 4 19 5 20 6 21 7 22 8 23 9 24 10 25 11
REMARK SMILES IDX 26 12 27 13 28 14 29 15 30 16 14 17 13 18 12 19 11 20 10 21
REMARK SMILES IDX 9 22 8 23 7 24 6 25 5 26 4 27 3 28 2 29 1 30
REMARK H PARENT
REMARK Flexibility Score: inf
ROOT
ATOM      1  C   UNL     1     -10.953   6.863 -10.854  1.00  0.00     0.000 C 
ENDROOT
BRANCH   1   2
ATOM      2  C   UNL     1     -12.322   6.248 -11.220  1.00  0.00     0.000 C 
BRANCH   2   3
ATOM      3  C   UNL     1     -12.929   5.451 -10.052  1.00  0.00     0.000 C 
BRANCH   3   4
ATOM      4  C   UNL     1     -12.754   3.929 -10.204  1.00  0.00     0.000 C 
BRANCH   4   5
ATOM      5  C   UNL     1     -12.198   3.204  -8.959  1.00  0.00     0.000 C 
BRANCH   5   6
ATOM      6  C   UNL     1     -11.342   4.069  -8.014  1.00  0.00     0.000 C 
BRANCH   6   7
ATOM      7  C   UNL     1      -9.818   3.852  -8.114  1.00  0.00     0.000 C 
BRANCH   7   8
ATOM      8  C   UNL     1      -8.998   5.151  -8.245  1.00  0.00     0.000 C 
BRANCH   8   9
ATOM      9  C   UNL     1      -7.869   5.045  -9.283  1.00  0.00     0.000 C 
BRANCH   9  10
ATOM     10  C   UNL     1      -8.305   4.260 -10.532  1.00  0.00     0.000 C 
BRANCH  10  11
ATOM     11  C   UNL     1      -7.738   4.863 -11.830  1.00  0.00     0.000 C 
BRANCH  11  12
ATOM     12  C   UNL     1      -6.786   3.902 -12.557  1.00  0.00     0.006 C 
BRANCH  12  13
ATOM     13  C   UNL     1      -5.399   3.851 -11.907  1.00  0.00     0.053 C 
BRANCH  13  14
ATOM     14  C   UNL     1      -5.028   2.440 -11.572  1.00  0.00     0.041 C 
ATOM     15  O   UNL     1      -3.836   2.054 -11.682  1.00  0.00    -0.550 OA
ATOM     16  O   UNL     1      -6.012   1.535 -11.192  1.00  0.00    -0.550 OA
ENDBRANCH  13  14
ENDBRANCH  12  13
ENDBRANCH  11  12
ENDBRANCH  10  11
ENDBRANCH   9  10
ENDBRANCH   8   9
ENDBRANCH   7   8
ENDBRANCH   6   7
ENDBRANCH   5   6
ENDBRANCH   4   5
ENDBRANCH   3   4
ENDBRANCH   2   3
ENDBRANCH   1   2
BRANCH   1  17
ATOM     17  C   UNL     1     -10.225   7.515 -12.042  1.00  0.00     0.000 C 
BRANCH  17  18
ATOM     18  C   UNL     1      -9.362   8.720 -11.628  1.00  0.00     0.000 C 
BRANCH  18  19
ATOM     19  C   UNL     1      -9.008   8.725 -10.125  1.00  0.00     0.000 C 
BRANCH  19  20
ATOM     20  C   UNL     1      -7.517   8.490  -9.820  1.00  0.00     0.000 C 
BRANCH  20  21
ATOM     21  C   UNL     1      -6.639   8.148 -11.036  1.00  0.00     0.000 C 
BRANCH  21  22
ATOM     22  C   UNL     1      -5.241   7.641 -10.646  1.00  0.00    -0.000 C 
BRANCH  22  23
ATOM     23  C   UNL     1      -4.360   7.438 -11.889  1.00  0.00    -0.000 C 
BRANCH  23  24
ATOM     24  C   UNL     1      -2.932   6.997 -11.521  1.00  0.00    -0.000 C 
BRANCH  24  25
ATOM     25  C   UNL     1      -1.901   7.441 -12.574  1.00  0.00    -0.000 C 
BRANCH  25  26
ATOM     26  C   UNL     1      -1.816   8.970 -12.703  1.00  0.00    -0.000 C 
BRANCH  26  27
ATOM     27  C   UNL     1      -2.172   9.459 -14.117  1.00  0.00    -0.000 C 
BRANCH  27  28
ATOM     28  C   UNL     1      -2.596   8.311 -15.047  1.00  0.00    -0.000 C 
BRANCH  28  29
ATOM     29  C   UNL     1      -3.506   8.784 -16.189  1.00  0.00    -0.003 C 
ATOM     30  C   UNL     1      -4.446   7.670 -16.642  1.00  0.00     0.004 C 
ENDBRANCH  28  29
ENDBRANCH  27  28
ENDBRANCH  26  27
ENDBRANCH  25  26
ENDBRANCH  24  25
ENDBRANCH  23  24
ENDBRANCH  22  23
ENDBRANCH  21  22
ENDBRANCH  20  21
ENDBRANCH  19  20
ENDBRANCH  18  19
ENDBRANCH  17  18
ENDBRANCH   1  17
TORSDOF 26
ENDMDL
MODEL 3
REMARK VINA RESULT:    -4.949      1.079      1.768
REMARK INTER + INTRA:         -16.009
REMARK INTER:                 -11.673
REMARK INTRA:                  -4.336
REMARK UNBOUND:                -3.537
REMARK SMILES CCCCCCCCCCCCCCCCCCCCCCCCCCCC(=O)[O-]
REMARK SMILES IDX 15 1 16 2 17 3 18 4 19 5 20 6 21 7 22 8 23 9 24 10 25 11
REMARK SMILES IDX 26 12 27 13 28 14 29 15 30 16 14 17 13 18 12 19 11 20 10 21
REMARK SMILES IDX 9 22 8 23 7 24 6 25 5 26 4 27 3 28 2 29 1 30
REMARK H PARENT
REMARK Flexibility Score: inf
ROOT
ATOM      1  C   UNL     1     -10.084   6.851 -11.347  1.00  0.00     0.000 C 
ENDROOT
BRANCH   1   2
ATOM      2  C   UNL     1     -11.229   6.637 -12.362  1.00  0.00     0.000 C 
BRANCH   2   3
ATOM      3  C   UNL     1     -12.600   6.522 -11.671  1.00  0.00     0.000 C 
BRANCH   3   4
ATOM      4  C   UNL     1     -12.516   5.914 -10.260  1.00  0.00     0.000 C 
BRANCH   4   5
ATOM      5  C   UNL     1     -12.851   4.409 -10.171  1.00  0.00     0.000 C 
BRANCH   5   6
ATOM      6  C   UNL     1     -12.098   3.625  -9.079  1.00  0.00     0.000 C 
BRANCH   6   7
ATOM      7  C   UNL     1     -11.213   4.474  -8.144  1.00  0.00     0.000 C 
BRANCH   7   8
ATOM      8  C   UNL     1      -9.700   4.206  -8.285  1.00  0.00     0.000 C 
BRANCH   8   9
ATOM      9  C   UNL     1      -9.386   3.011  -9.201  1.00  0.00     0.000 C 
BRANCH   9  10
ATOM     10  C   UNL     1      -8.307   3.351 -10.243  1.00  0.00     0.000 C 
BRANCH  10  11
ATOM     11  C   UNL     1      -8.604   2.725 -11.618  1.00  0.00     0.000 C 
BRANCH  11  12
ATOM     12  C   UNL     1     -10.062   2.927 -12.053  1.00  0.00     0.006 C 
BRANCH  12  13
ATOM     13  C   UNL     1     -10.183   3.307 -13.533  1.00  0.00     0.053 C 
BRANCH  13  14
ATOM     14  C   UNL     1      -9.422   2.341 -14.387  1.00  0.00     0.041 C 
ATOM     15  O   UNL     1      -8.487   2.747 -15.124  1.00  0.00    -0.550 OA
ATOM     16  O   UNL     1      -9.785   1.000 -14.410  1.00  0.00    -0.550 OA
ENDBRANCH  13  14
ENDBRANCH  12  13
ENDBRANCH  11  12
ENDBRANCH  10  11
ENDBRANCH   9  10
ENDBRANCH   8   9
ENDBRANCH   7   8
ENDBRANCH   6   7
ENDBRANCH   5   6
ENDBRANCH   4   5
ENDBRANCH   3   4
ENDBRANCH   2   3
ENDBRANCH   1   2
BRANCH   1  17
ATOM     17  C   UNL     1      -9.373   8.208 -11.488  1.00  0.00     0.000 C 
BRANCH  17  18
ATOM     18  C   UNL     1      -8.917   8.788 -10.137  1.00  0.00     0.000 C 
BRANCH  18  19
ATOM     19  C   UNL     1      -8.758   7.714  -9.038  1.00  0.00     0.000 C 
BRANCH  19  20
ATOM     20  C   UNL     1      -7.338   7.611  -8.449  1.00  0.00     0.000 C 
BRANCH  20  21
ATOM     21  C   UNL     1      -6.664   6.236  -8.585  1.00  0.00     0.000 C 
BRANCH  21  22
ATOM     22  C   UNL     1      -5.380   6.276  -9.431  1.00  0.00    -0.000 C 
BRANCH  22  23
ATOM     23  C   UNL     1      -5.254   7.612 -10.180  1.00  0.00    -0.000 C 
BRANCH  23  24
ATOM     24  C   UNL     1      -5.491   7.453 -11.692  1.00  0.00    -0.000 C 
BRANCH  24  25
ATOM     25  C   UNL     1      -4.234   6.952 -12.425  1.00  0.00    -0.000 C 
BRANCH  25  26
ATOM     26  C   UNL     1      -2.942   7.559 -11.854  1.00  0.00    -0.000 C 
BRANCH  26  27
ATOM     27  C   UNL     1      -1.995   8.065 -12.956  1.00  0.00    -0.000 C 
BRANCH  27  28
ATOM     28  C   UNL     1      -2.460   9.398 -13.564  1.00  0.00    -0.000 C 
BRANCH  28  29
ATOM     29  C   UNL     1      -2.572   9.339 -15.094  1.00  0.00    -0.003 C 
ATOM     30  C   UNL     1      -2.656   7.895 -15.585  1.00  0.00     0.004 C 
ENDBRANCH  28  29
ENDBRANCH  27  28
ENDBRANCH  26  27
ENDBRANCH  25  26
ENDBRANCH  24  25
ENDBRANCH  23  24
ENDBRANCH  22  23
ENDBRANCH  21  22
ENDBRANCH  20  21
ENDBRANCH  19  20
ENDBRANCH  18  19
ENDBRANCH  17  18
ENDBRANCH   1  17
TORSDOF 26
ENDMDL
MODEL 4
REMARK VINA RESULT:    -4.930      2.099      3.239
REMARK INTER + INTRA:         -15.961
REMARK INTER:                 -13.315
REMARK INTRA:                  -2.645
REMARK UNBOUND:                -3.537
REMARK SMILES CCCCCCCCCCCCCCCCCCCCCCCCCCCC(=O)[O-]
REMARK SMILES IDX 15 1 16 2 17 3 18 4 19 5 20 6 21 7 22 8 23 9 24 10 25 11
REMARK SMILES IDX 26 12 27 13 28 14 29 15 30 16 14 17 13 18 12 19 11 20 10 21
REMARK SMILES IDX 9 22 8 23 7 24 6 25 5 26 4 27 3 28 2 29 1 30
REMARK H PARENT
REMARK Flexibility Score: inf
ROOT
ATOM      1  C   UNL     1      -9.627   5.480  -9.077  1.00  0.00     0.000 C 
ENDROOT
BRANCH   1   2
ATOM      2  C   UNL     1     -10.738   4.447  -8.785  1.00  0.00     0.000 C 
BRANCH   2   3
ATOM      3  C   UNL     1     -12.131   4.969  -9.180  1.00  0.00     0.000 C 
BRANCH   3   4
ATOM      4  C   UNL     1     -13.124   3.842  -9.518  1.00  0.00     0.000 C 
BRANCH   4   5
ATOM      5  C   UNL     1     -12.481   2.502  -9.936  1.00  0.00     0.000 C 
BRANCH   5   6
ATOM      6  C   UNL     1     -12.506   2.197 -11.446  1.00  0.00     0.000 C 
BRANCH   6   7
ATOM      7  C   UNL     1     -11.778   3.219 -12.342  1.00  0.00     0.000 C 
BRANCH   7   8
ATOM      8  C   UNL     1     -10.254   3.004 -12.443  1.00  0.00     0.000 C 
BRANCH   8   9
ATOM      9  C   UNL     1      -9.847   2.165 -13.665  1.00  0.00     0.000 C 
BRANCH   9  10
ATOM     10  C   UNL     1      -8.356   1.789 -13.638  1.00  0.00     0.000 C 
BRANCH  10  11
ATOM     11  C   UNL     1      -7.567   2.598 -12.591  1.00  0.00     0.000 C 
BRANCH  11  12
ATOM     12  C   UNL     1      -6.990   1.712 -11.478  1.00  0.00     0.006 C 
BRANCH  12  13
ATOM     13  C   UNL     1      -7.701   1.920 -10.137  1.00  0.00     0.053 C 
BRANCH  13  14
ATOM     14  C   UNL     1      -7.261   0.891  -9.144  1.00  0.00     0.041 C 
ATOM     15  O   UNL     1      -7.466  -0.331  -9.364  1.00  0.00    -0.550 OA
ATOM     16  O   UNL     1      -6.675   1.286  -7.948  1.00  0.00    -0.550 OA
ENDBRANCH  13  14
ENDBRANCH  12  13
ENDBRANCH  11  12
ENDBRANCH  10  11
ENDBRANCH   9  10
ENDBRANCH   8   9
ENDBRANCH   7   8
ENDBRANCH   6   7
ENDBRANCH   5   6
ENDBRANCH   4   5
ENDBRANCH   3   4
ENDBRANCH   2   3
ENDBRANCH   1   2
BRANCH   1  17
ATOM     17  C   UNL     1      -9.658   6.041 -10.509  1.00  0.00     0.000 C 
BRANCH  17  18
ATOM     18  C   UNL     1     -10.104   7.513 -10.566  1.00  0.00     0.000 C 
BRANCH  18  19
ATOM     19  C   UNL     1      -8.986   8.501 -10.164  1.00  0.00     0.000 C 
BRANCH  19  20
ATOM     20  C   UNL     1      -7.636   8.255 -10.864  1.00  0.00     0.000 C 
BRANCH  20  21
ATOM     21  C   UNL     1      -6.388   8.506 -10.001  1.00  0.00     0.000 C 
BRANCH  21  22
ATOM     22  C   UNL     1      -5.341   7.387 -10.116  1.00  0.00    -0.000 C 
BRANCH  22  23
ATOM     23  C   UNL     1      -4.669   7.399 -11.498  1.00  0.00    -0.000 C 
BRANCH  23  24
ATOM     24  C   UNL     1      -3.154   7.137 -11.408  1.00  0.00    -0.000 C 
BRANCH  24  25
ATOM     25  C   UNL     1      -2.446   7.373 -12.754  1.00  0.00    -0.000 C 
BRANCH  25  26
ATOM     26  C   UNL     1      -1.857   8.789 -12.866  1.00  0.00    -0.000 C 
BRANCH  26  27
ATOM     27  C   UNL     1      -2.409   9.558 -14.079  1.00  0.00    -0.000 C 
BRANCH  27  28
ATOM     28  C   UNL     1      -2.953   8.623 -15.170  1.00  0.00    -0.000 C 
BRANCH  28  29
ATOM     29  C   UNL     1      -3.474   9.388 -16.395  1.00  0.00    -0.003 C 
ATOM     30  C   UNL     1      -2.381   9.550 -17.449  1.00  0.00     0.004 C 
ENDBRANCH  28  29
ENDBRANCH  27  28
ENDBRANCH  26  27
ENDBRANCH  25  26
ENDBRANCH  24  25
ENDBRANCH  23  24
ENDBRANCH  22  23
ENDBRANCH  21  22
ENDBRANCH  20  21
ENDBRANCH  19  20
ENDBRANCH  18  19
ENDBRANCH  17  18
ENDBRANCH   1  17
TORSDOF 26
ENDMDL
MODEL 5
REMARK VINA RESULT:    -4.924      1.572      2.977
REMARK INTER + INTRA:         -15.945
REMARK INTER:                 -11.271
REMARK INTRA:                  -4.674
REMARK UNBOUND:                -3.537
REMARK SMILES CCCCCCCCCCCCCCCCCCCCCCCCCCCC(=O)[O-]
REMARK SMILES IDX 15 1 16 2 17 3 18 4 19 5 20 6 21 7 22 8 23 9 24 10 25 11
REMARK SMILES IDX 26 12 27 13 28 14 29 15 30 16 14 17 13 18 12 19 11 20 10 21
REMARK SMILES IDX 9 22 8 23 7 24 6 25 5 26 4 27 3 28 2 29 1 30
REMARK H PARENT
REMARK Flexibility Score: inf
ROOT
ATOM      1  C   UNL     1     -11.388   6.095 -14.316  1.00  0.00     0.000 C 
ENDROOT
BRANCH   1   2
ATOM      2  C   UNL     1     -12.771   6.740 -14.075  1.00  0.00     0.000 C 
BRANCH   2   3
ATOM      3  C   UNL     1     -13.118   6.822 -12.578  1.00  0.00     0.000 C 
BRANCH   3   4
ATOM      4  C   UNL     1     -12.583   5.627 -11.768  1.00  0.00     0.000 C 
BRANCH   4   5
ATOM      5  C   UNL     1     -12.684   5.776 -10.234  1.00  0.00     0.000 C 
BRANCH   5   6
ATOM      6  C   UNL     1     -13.021   4.485  -9.463  1.00  0.00     0.000 C 
BRANCH   6   7
ATOM      7  C   UNL     1     -11.844   3.510  -9.257  1.00  0.00     0.000 C 
BRANCH   7   8
ATOM      8  C   UNL     1     -10.943   3.847  -8.052  1.00  0.00     0.000 C 
BRANCH   8   9
ATOM      9  C   UNL     1      -9.762   4.759  -8.423  1.00  0.00     0.000 C 
BRANCH   9  10
ATOM     10  C   UNL     1      -8.667   4.001  -9.193  1.00  0.00     0.000 C 
BRANCH  10  11
ATOM     11  C   UNL     1      -8.284   4.701 -10.510  1.00  0.00     0.000 C 
BRANCH  11  12
ATOM     12  C   UNL     1      -9.147   4.239 -11.693  1.00  0.00     0.006 C 
BRANCH  12  13
ATOM     13  C   UNL     1      -9.254   2.713 -11.776  1.00  0.00     0.053 C 
BRANCH  13  14
ATOM     14  C   UNL     1      -7.999   2.128 -12.344  1.00  0.00     0.041 C 
ATOM     15  O   UNL     1      -7.830   2.075 -13.589  1.00  0.00    -0.550 OA
ATOM     16  O   UNL     1      -7.039   1.590 -11.495  1.00  0.00    -0.550 OA
ENDBRANCH  13  14
ENDBRANCH  12  13
ENDBRANCH  11  12
ENDBRANCH  10  11
ENDBRANCH   9  10
ENDBRANCH   8   9
ENDBRANCH   7   8
ENDBRANCH   6   7
ENDBRANCH   5   6
ENDBRANCH   4   5
ENDBRANCH   3   4
ENDBRANCH   2   3
ENDBRANCH   1   2
BRANCH   1  17
ATOM     17  C   UNL     1     -10.286   7.103 -14.682  1.00  0.00     0.000 C 
BRANCH  17  18
ATOM     18  C   UNL     1      -9.217   7.248 -13.583  1.00  0.00     0.000 C 
BRANCH  18  19
ATOM     19  C   UNL     1      -9.517   8.395 -12.593  1.00  0.00     0.000 C 
BRANCH  19  20
ATOM     20  C   UNL     1      -9.724   7.940 -11.135  1.00  0.00     0.000 C 
BRANCH  20  21
ATOM     21  C   UNL     1      -9.005   8.785 -10.070  1.00  0.00     0.000 C 
BRANCH  21  22
ATOM     22  C   UNL     1      -7.798   8.065  -9.445  1.00  0.00    -0.000 C 
BRANCH  22  23
ATOM     23  C   UNL     1      -6.477   8.710  -9.894  1.00  0.00    -0.000 C 
BRANCH  23  24
ATOM     24  C   UNL     1      -5.492   7.674 -10.465  1.00  0.00    -0.000 C 
BRANCH  24  25
ATOM     25  C   UNL     1      -5.924   7.167 -11.853  1.00  0.00    -0.000 C 
BRANCH  25  26
ATOM     26  C   UNL     1      -4.729   6.728 -12.714  1.00  0.00    -0.000 C 
BRANCH  26  27
ATOM     27  C   UNL     1      -3.389   6.866 -11.971  1.00  0.00    -0.000 C 
BRANCH  27  28
ATOM     28  C   UNL     1      -2.187   6.905 -12.929  1.00  0.00    -0.000 C 
BRANCH  28  29
ATOM     29  C   UNL     1      -2.358   7.947 -14.044  1.00  0.00    -0.003 C 
ATOM     30  C   UNL     1      -2.262   9.367 -13.490  1.00  0.00     0.004 C 
ENDBRANCH  28  29
ENDBRANCH  27  28
ENDBRANCH  26  27
ENDBRANCH  25  26
ENDBRANCH  24  25
ENDBRANCH  23  24
ENDBRANCH  22  23
ENDBRANCH  21  22
ENDBRANCH  20  21
ENDBRANCH  19  20
ENDBRANCH  18  19
ENDBRANCH  17  18
ENDBRANCH   1  17
TORSDOF 26
ENDMDL
MODEL 6
REMARK VINA RESULT:    -4.888      2.173      4.443
REMARK INTER + INTRA:         -15.854
REMARK INTER:                 -11.305
REMARK INTRA:                  -4.548
REMARK UNBOUND:                -3.537
REMARK SMILES CCCCCCCCCCCCCCCCCCCCCCCCCCCC(=O)[O-]
REMARK SMILES IDX 15 1 16 2 17 3 18 4 19 5 20 6 21 7 22 8 23 9 24 10 25 11
REMARK SMILES IDX 26 12 27 13 28 14 29 15 30 16 14 17 13 18 12 19 11 20 10 21
REMARK SMILES IDX 9 22 8 23 7 24 6 25 5 26 4 27 3 28 2 29 1 30
REMARK H PARENT
REMARK Flexibility Score: inf
ROOT
ATOM      1  C   UNL     1     -13.093   3.984  -9.793  1.00  0.00     0.000 C 
ENDROOT
BRANCH   1   2
ATOM      2  C   UNL     1     -12.610   2.630 -10.357  1.00  0.00     0.000 C 
BRANCH   2   3
ATOM      3  C   UNL     1     -12.389   2.682 -11.879  1.00  0.00     0.000 C 
BRANCH   3   4
ATOM      4  C   UNL     1     -11.222   3.600 -12.288  1.00  0.00     0.000 C 
BRANCH   4   5
ATOM      5  C   UNL     1     -11.620   4.833 -13.129  1.00  0.00     0.000 C 
BRANCH   5   6
ATOM      6  C   UNL     1     -11.472   6.194 -12.423  1.00  0.00     0.000 C 
BRANCH   6   7
ATOM      7  C   UNL     1     -10.023   6.687 -12.232  1.00  0.00     0.000 C 
BRANCH   7   8
ATOM      8  C   UNL     1      -9.168   6.661 -13.515  1.00  0.00     0.000 C 
BRANCH   8   9
ATOM      9  C   UNL     1      -7.825   5.935 -13.325  1.00  0.00     0.000 C 
BRANCH   9  10
ATOM     10  C   UNL     1      -7.861   4.956 -12.140  1.00  0.00     0.000 C 
BRANCH  10  11
ATOM     11  C   UNL     1      -7.471   3.524 -12.550  1.00  0.00     0.000 C 
BRANCH  11  12
ATOM     12  C   UNL     1      -7.939   2.473 -11.534  1.00  0.00     0.006 C 
BRANCH  12  13
ATOM     13  C   UNL     1      -6.798   1.974 -10.641  1.00  0.00     0.053 C 
BRANCH  13  14
ATOM     14  C   UNL     1      -7.309   0.988  -9.638  1.00  0.00     0.041 C 
ATOM     15  O   UNL     1      -8.451   1.134  -9.129  1.00  0.00    -0.550 OA
ATOM     16  O   UNL     1      -6.501  -0.063  -9.223  1.00  0.00    -0.550 OA
ENDBRANCH  13  14
ENDBRANCH  12  13
ENDBRANCH  11  12
ENDBRANCH  10  11
ENDBRANCH   9  10
ENDBRANCH   8   9
ENDBRANCH   7   8
ENDBRANCH   6   7
ENDBRANCH   5   6
ENDBRANCH   4   5
ENDBRANCH   3   4
ENDBRANCH   2   3
ENDBRANCH   1   2
BRANCH   1  17
ATOM     17  C   UNL     1     -12.016   4.753  -9.010  1.00  0.00     0.000 C 
BRANCH  17  18
ATOM     18  C   UNL     1     -11.065   3.826  -8.232  1.00  0.00     0.000 C 
BRANCH  18  19
ATOM     19  C   UNL     1      -9.602   4.323  -8.228  1.00  0.00     0.000 C 
BRANCH  19  20
ATOM     20  C   UNL     1      -9.343   5.548  -9.126  1.00  0.00     0.000 C 
BRANCH  20  21
ATOM     21  C   UNL     1      -8.117   6.396  -8.750  1.00  0.00     0.000 C 
BRANCH  21  22
ATOM     22  C   UNL     1      -8.324   7.899  -9.000  1.00  0.00    -0.000 C 
BRANCH  22  23
ATOM     23  C   UNL     1      -7.424   8.399 -10.141  1.00  0.00    -0.000 C 
BRANCH  23  24
ATOM     24  C   UNL     1      -5.985   7.864 -10.020  1.00  0.00    -0.000 C 
BRANCH  24  25
ATOM     25  C   UNL     1      -5.244   7.886 -11.368  1.00  0.00    -0.000 C 
BRANCH  25  26
ATOM     26  C   UNL     1      -4.358   6.646 -11.570  1.00  0.00    -0.000 C 
BRANCH  26  27
ATOM     27  C   UNL     1      -3.186   6.913 -12.529  1.00  0.00    -0.000 C 
BRANCH  27  28
ATOM     28  C   UNL     1      -2.133   7.854 -11.922  1.00  0.00    -0.000 C 
BRANCH  28  29
ATOM     29  C   UNL     1      -1.744   8.994 -12.874  1.00  0.00    -0.003 C 
ATOM     30  C   UNL     1      -2.869   9.296 -13.860  1.00  0.00     0.004 C 
ENDBRANCH  28  29
ENDBRANCH  27  28
ENDBRANCH  26  27
ENDBRANCH  25  26
ENDBRANCH  24  25
ENDBRANCH  23  24
ENDBRANCH  22  23
ENDBRANCH  21  22
ENDBRANCH  20  21
ENDBRANCH  19  20
ENDBRANCH  18  19
ENDBRANCH  17  18
ENDBRANCH   1  17
TORSDOF 26
ENDMDL
MODEL 7
REMARK VINA RESULT:    -4.853      1.794      2.675
REMARK INTER + INTRA:         -15.767
REMARK INTER:                 -11.814
REMARK INTRA:                  -3.953
REMARK UNBOUND:                -3.537
REMARK SMILES CCCCCCCCCCCCCCCCCCCCCCCCCCCC(=O)[O-]
REMARK SMILES IDX 15 1 16 2 17 3 18 4 19 5 20 6 21 7 22 8 23 9 24 10 25 11
REMARK SMILES IDX 26 12 27 13 28 14 29 15 30 16 14 17 13 18 12 19 11 20 10 21
REMARK SMILES IDX 9 22 8 23 7 24 6 25 5 26 4 27 3 28 2 29 1 30
REMARK H PARENT
REMARK Flexibility Score: inf
ROOT
ATOM      1  C   UNL     1      -9.440   8.027 -11.511  1.00  0.00     0.000 C 
ENDROOT
BRANCH   1   2
ATOM      2  C   UNL     1     -10.124   6.662 -11.278  1.00  0.00     0.000 C 
BRANCH   2   3
ATOM      3  C   UNL     1     -11.657   6.764 -11.346  1.00  0.00     0.000 C 
BRANCH   3   4
ATOM      4  C   UNL     1     -12.365   5.969 -10.234  1.00  0.00     0.000 C 
BRANCH   4   5
ATOM      5  C   UNL     1     -11.443   5.077  -9.374  1.00  0.00     0.000 C 
BRANCH   5   6
ATOM      6  C   UNL     1     -12.129   3.882  -8.686  1.00  0.00     0.000 C 
BRANCH   6   7
ATOM      7  C   UNL     1     -13.125   3.094  -9.563  1.00  0.00     0.000 C 
BRANCH   7   8
ATOM      8  C   UNL     1     -12.463   2.122 -10.560  1.00  0.00     0.000 C 
BRANCH   8   9
ATOM      9  C   UNL     1     -12.531   2.616 -12.014  1.00  0.00     0.000 C 
BRANCH   9  10
ATOM     10  C   UNL     1     -11.225   3.298 -12.454  1.00  0.00     0.000 C 
BRANCH  10  11
ATOM     11  C   UNL     1      -9.976   2.521 -11.999  1.00  0.00     0.000 C 
BRANCH  11  12
ATOM     12  C   UNL     1      -9.032   3.376 -11.141  1.00  0.00     0.006 C 
BRANCH  12  13
ATOM     13  C   UNL     1      -8.503   2.617  -9.920  1.00  0.00     0.053 C 
BRANCH  13  14
ATOM     14  C   UNL     1      -7.041   2.336 -10.069  1.00  0.00     0.041 C 
ATOM     15  O   UNL     1      -6.329   3.056 -10.816  1.00  0.00    -0.550 OA
ATOM     16  O   UNL     1      -6.475   1.242  -9.426  1.00  0.00    -0.550 OA
ENDBRANCH  13  14
ENDBRANCH  12  13
ENDBRANCH  11  12
ENDBRANCH  10  11
ENDBRANCH   9  10
ENDBRANCH   8   9
ENDBRANCH   7   8
ENDBRANCH   6   7
ENDBRANCH   5   6
ENDBRANCH   4   5
ENDBRANCH   3   4
ENDBRANCH   2   3
ENDBRANCH   1   2
BRANCH   1  17
ATOM     17  C   UNL     1      -8.898   8.679 -10.227  1.00  0.00     0.000 C 
BRANCH  17  18
ATOM     18  C   UNL     1      -8.941   7.736  -9.012  1.00  0.00     0.000 C 
BRANCH  18  19
ATOM     19  C   UNL     1      -7.546   7.458  -8.409  1.00  0.00     0.000 C 
BRANCH  19  20
ATOM     20  C   UNL     1      -7.045   6.014  -8.600  1.00  0.00     0.000 C 
BRANCH  20  21
ATOM     21  C   UNL     1      -5.553   5.871  -8.944  1.00  0.00     0.000 C 
BRANCH  21  22
ATOM     22  C   UNL     1      -5.003   7.063  -9.744  1.00  0.00    -0.000 C 
BRANCH  22  23
ATOM     23  C   UNL     1      -5.292   6.902 -11.245  1.00  0.00    -0.000 C 
BRANCH  23  24
ATOM     24  C   UNL     1      -4.334   7.738 -12.113  1.00  0.00    -0.000 C 
BRANCH  24  25
ATOM     25  C   UNL     1      -2.886   7.223 -12.038  1.00  0.00    -0.000 C 
BRANCH  25  26
ATOM     26  C   UNL     1      -1.890   8.172 -12.725  1.00  0.00    -0.000 C 
BRANCH  26  27
ATOM     27  C   UNL     1      -2.584   9.389 -13.360  1.00  0.00    -0.000 C 
BRANCH  27  28
ATOM     28  C   UNL     1      -2.262   9.535 -14.856  1.00  0.00    -0.000 C 
BRANCH  28  29
ATOM     29  C   UNL     1      -2.830   8.381 -15.695  1.00  0.00    -0.003 C 
ATOM     30  C   UNL     1      -2.850   8.738 -17.179  1.00  0.00     0.004 C 
ENDBRANCH  28  29
ENDBRANCH  27  28
ENDBRANCH  26  27
ENDBRANCH  25  26
ENDBRANCH  24  25
ENDBRANCH  23  24
ENDBRANCH  22  23
ENDBRANCH  21  22
ENDBRANCH  20  21
ENDBRANCH  19  20
ENDBRANCH  18  19
ENDBRANCH  17  18
ENDBRANCH   1  17
TORSDOF 26
ENDMDL
MODEL 8
REMARK VINA RESULT:    -4.819      1.985      3.027
REMARK INTER + INTRA:         -15.681
REMARK INTER:                 -11.099
REMARK INTRA:                  -4.582
REMARK UNBOUND:                -3.537
REMARK SMILES CCCCCCCCCCCCCCCCCCCCCCCCCCCC(=O)[O-]
REMARK SMILES IDX 15 1 16 2 17 3 18 4 19 5 20 6 21 7 22 8 23 9 24 10 25 11
REMARK SMILES IDX 26 12 27 13 28 14 29 15 30 16 14 17 13 18 12 19 11 20 10 21
REMARK SMILES IDX 9 22 8 23 7 24 6 25 5 26 4 27 3 28 2 29 1 30
REMARK H PARENT
REMARK Flexibility Score: inf
ROOT
ATOM      1  C   UNL     1      -8.953   6.931 -12.573  1.00  0.00     0.000 C 
ENDROOT
BRANCH   1   2
ATOM      2  C   UNL     1     -10.070   6.086 -13.224  1.00  0.00     0.000 C 
BRANCH   2   3
ATOM      3  C   UNL     1     -11.301   6.936 -13.587  1.00  0.00     0.000 C 
BRANCH   3   4
ATOM      4  C   UNL     1     -12.523   6.638 -12.700  1.00  0.00     0.000 C 
BRANCH   4   5
ATOM      5  C   UNL     1     -12.359   5.444 -11.734  1.00  0.00     0.000 C 
BRANCH   5   6
ATOM      6  C   UNL     1     -12.658   5.744 -10.252  1.00  0.00     0.000 C 
BRANCH   6   7
ATOM      7  C   UNL     1     -12.454   4.562  -9.283  1.00  0.00     0.000 C 
BRANCH   7   8
ATOM      8  C   UNL     1     -11.077   4.540  -8.588  1.00  0.00     0.000 C 
BRANCH   8   9
ATOM      9  C   UNL     1     -10.309   3.229  -8.822  1.00  0.00     0.000 C 
BRANCH   9  10
ATOM     10  C   UNL     1     -10.584   2.638 -10.215  1.00  0.00     0.000 C 
BRANCH  10  11
ATOM     11  C   UNL     1      -9.458   2.952 -11.218  1.00  0.00     0.000 C 
BRANCH  11  12
ATOM     12  C   UNL     1      -8.431   3.945 -10.656  1.00  0.00     0.006 C 
BRANCH  12  13
ATOM     13  C   UNL     1      -7.011   3.661 -11.156  1.00  0.00     0.053 C 
BRANCH  13  14
ATOM     14  C   UNL     1      -6.221   2.938 -10.110  1.00  0.00     0.041 C 
ATOM     15  O   UNL     1      -5.084   2.472 -10.382  1.00  0.00    -0.550 OA
ATOM     16  O   UNL     1      -6.765   2.730  -8.849  1.00  0.00    -0.550 OA
ENDBRANCH  13  14
ENDBRANCH  12  13
ENDBRANCH  11  12
ENDBRANCH  10  11
ENDBRANCH   9  10
ENDBRANCH   8   9
ENDBRANCH   7   8
ENDBRANCH   6   7
ENDBRANCH   5   6
ENDBRANCH   4   5
ENDBRANCH   3   4
ENDBRANCH   2   3
ENDBRANCH   1   2
BRANCH   1  17
ATOM     17  C   UNL     1      -9.353   8.391 -12.302  1.00  0.00     0.000 C 
BRANCH  17  18
ATOM     18  C   UNL     1      -9.241   8.777 -10.816  1.00  0.00     0.000 C 
BRANCH  18  19
ATOM     19  C   UNL     1      -9.239   7.555  -9.871  1.00  0.00     0.000 C 
BRANCH  19  20
ATOM     20  C   UNL     1      -8.293   7.686  -8.662  1.00  0.00     0.000 C 
BRANCH  20  21
ATOM     21  C   UNL     1      -7.511   6.415  -8.292  1.00  0.00     0.000 C 
BRANCH  21  22
ATOM     22  C   UNL     1      -6.016   6.505  -8.637  1.00  0.00    -0.000 C 
BRANCH  22  23
ATOM     23  C   UNL     1      -5.749   7.634  -9.645  1.00  0.00    -0.000 C 
BRANCH  23  24
ATOM     24  C   UNL     1      -5.486   7.096 -11.063  1.00  0.00    -0.000 C 
BRANCH  24  25
ATOM     25  C   UNL     1      -4.200   7.680 -11.675  1.00  0.00    -0.000 C 
BRANCH  25  26
ATOM     26  C   UNL     1      -3.393   6.630 -12.455  1.00  0.00    -0.000 C 
BRANCH  26  27
ATOM     27  C   UNL     1      -2.255   7.258 -13.277  1.00  0.00    -0.000 C 
BRANCH  27  28
ATOM     28  C   UNL     1      -2.076   8.756 -12.984  1.00  0.00    -0.000 C 
BRANCH  28  29
ATOM     29  C   UNL     1      -2.576   9.644 -14.132  1.00  0.00    -0.003 C 
ATOM     30  C   UNL     1      -2.663   8.858 -15.438  1.00  0.00     0.004 C 
ENDBRANCH  28  29
ENDBRANCH  27  28
ENDBRANCH  26  27
ENDBRANCH  25  26
ENDBRANCH  24  25
ENDBRANCH  23  24
ENDBRANCH  22  23
ENDBRANCH  21  22
ENDBRANCH  20  21
ENDBRANCH  19  20
ENDBRANCH  18  19
ENDBRANCH  17  18
ENDBRANCH   1  17
TORSDOF 26
ENDMDL
MODEL 9
REMARK VINA RESULT:    -4.781      2.947      6.510
REMARK INTER + INTRA:         -15.584
REMARK INTER:                 -10.040
REMARK INTRA:                  -5.544
REMARK UNBOUND:                -3.537
REMARK SMILES CCCCCCCCCCCCCCCCCCCCCCCCCCCC(=O)[O-]
REMARK SMILES IDX 15 1 16 2 17 3 18 4 19 5 20 6 21 7 22 8 23 9 24 10 25 11
REMARK SMILES IDX 26 12 27 13 28 14 29 15 30 16 14 17 13 18 12 19 11 20 10 21
REMARK SMILES IDX 9 22 8 23 7 24 6 25 5 26 4 27 3 28 2 29 1 30
REMARK H PARENT
REMARK Flexibility Score: inf
ROOT
ATOM      1  C   UNL     1     -11.182   5.168 -12.432  1.00  0.00     0.000 C 
ENDROOT
BRANCH   1   2
ATOM      2  C   UNL     1     -11.554   6.618 -12.052  1.00  0.00     0.000 C 
BRANCH   2   3
ATOM      3  C   UNL     1     -10.742   7.127 -10.848  1.00  0.00     0.000 C 
BRANCH   3   4
ATOM      4  C   UNL     1      -9.717   8.212 -11.227  1.00  0.00     0.000 C 
BRANCH   4   5
ATOM      5  C   UNL     1      -8.820   8.702 -10.069  1.00  0.00     0.000 C 
BRANCH   5   6
ATOM      6  C   UNL     1      -8.599   7.691  -8.928  1.00  0.00     0.000 C 
BRANCH   6   7
ATOM      7  C   UNL     1      -7.181   7.092  -8.839  1.00  0.00     0.000 C 
BRANCH   7   8
ATOM      8  C   UNL     1      -6.061   8.033  -9.327  1.00  0.00     0.000 C 
BRANCH   8   9
ATOM      9  C   UNL     1      -5.146   7.381 -10.377  1.00  0.00     0.000 C 
BRANCH   9  10
ATOM     10  C   UNL     1      -5.720   7.501 -11.799  1.00  0.00     0.000 C 
BRANCH  10  11
ATOM     11  C   UNL     1      -6.172   6.142 -12.365  1.00  0.00     0.000 C 
BRANCH  11  12
ATOM     12  C   UNL     1      -7.607   6.180 -12.909  1.00  0.00     0.006 C 
BRANCH  12  13
ATOM     13  C   UNL     1      -7.684   5.771 -14.383  1.00  0.00     0.053 C 
BRANCH  13  14
ATOM     14  C   UNL     1      -8.476   6.771 -15.166  1.00  0.00     0.041 C 
ATOM     15  O   UNL     1      -9.199   7.612 -14.571  1.00  0.00    -0.550 OA
ATOM     16  O   UNL     1      -8.458   6.738 -16.554  1.00  0.00    -0.550 OA
ENDBRANCH  13  14
ENDBRANCH  12  13
ENDBRANCH  11  12
ENDBRANCH  10  11
ENDBRANCH   9  10
ENDBRANCH   8   9
ENDBRANCH   7   8
ENDBRANCH   6   7
ENDBRANCH   5   6
ENDBRANCH   4   5
ENDBRANCH   3   4
ENDBRANCH   2   3
ENDBRANCH   1   2
BRANCH   1  17
ATOM     17  C   UNL     1     -12.361   4.183 -12.363  1.00  0.00     0.000 C 
BRANCH  17  18
ATOM     18  C   UNL     1     -11.943   2.781 -11.884  1.00  0.00     0.000 C 
BRANCH  18  19
ATOM     19  C   UNL     1     -12.630   2.362 -10.565  1.00  0.00     0.000 C 
BRANCH  19  20
ATOM     20  C   UNL     1     -12.746   3.489  -9.521  1.00  0.00     0.000 C 
BRANCH  20  21
ATOM     21  C   UNL     1     -11.703   3.454  -8.391  1.00  0.00     0.000 C 
BRANCH  21  22
ATOM     22  C   UNL     1     -10.562   4.465  -8.593  1.00  0.00    -0.000 C 
BRANCH  22  23
ATOM     23  C   UNL     1      -9.214   3.748  -8.766  1.00  0.00    -0.000 C 
BRANCH  23  24
ATOM     24  C   UNL     1      -8.619   3.961 -10.170  1.00  0.00    -0.000 C 
BRANCH  24  25
ATOM     25  C   UNL     1      -8.174   2.638 -10.817  1.00  0.00    -0.000 C 
BRANCH  25  26
ATOM     26  C   UNL     1      -8.602   2.533 -12.290  1.00  0.00    -0.000 C 
BRANCH  26  27
ATOM     27  C   UNL     1      -7.424   2.193 -13.219  1.00  0.00    -0.000 C 
BRANCH  27  28
ATOM     28  C   UNL     1      -7.843   2.123 -14.697  1.00  0.00    -0.000 C 
BRANCH  28  29
ATOM     29  C   UNL     1      -9.342   1.840 -14.870  1.00  0.00    -0.003 C 
ATOM     30  C   UNL     1      -9.579   0.418 -15.373  1.00  0.00     0.004 C 
ENDBRANCH  28  29
ENDBRANCH  27  28
ENDBRANCH  26  27
ENDBRANCH  25  26
ENDBRANCH  24  25
ENDBRANCH  23  24
ENDBRANCH  22  23
ENDBRANCH  21  22
ENDBRANCH  20  21
ENDBRANCH  19  20
ENDBRANCH  18  19
ENDBRANCH  17  18
ENDBRANCH   1  17
TORSDOF 26
ENDMDL
