MODEL 1
REMARK VINA RESULT:    11.869      0.000      0.000
REMARK INTER + INTRA:          13.512
REMARK INTER:                  12.910
REMARK INTRA:                   0.602
REMARK UNBOUND:                 0.602
REMARK SMILES C[C@H]1[C@H](C)CC[C@]2(C(=O)[O-])CC[C@]3(C)C(=CC[C@@H]4[C@]5(C)CC[C@@H](O)C(C)(C)[C@H]5CC[C@@]43C)[C@@H]12
REMARK SMILES IDX 7 1 6 2 11 3 33 4 5 5 12 6 15 7 2 8 3 9 13 10 16 11 1 12
REMARK SMILES IDX 4 13 14 14 31 15 17 16 18 17 30 18 32 19 19 20 29 21 28 22
REMARK SMILES IDX 21 23 20 24 25 25 22 26 23 27 26 28 27 29 8 30 9 31 10 32
REMARK SMILES IDX 24 33
REMARK H PARENT 24 34
REMARK Flexibility Score: inf
ROOT
ATOM      1  C   UNL     1     -10.869  23.079  -9.244  1.00  0.00     0.017 C 
ATOM      2  C   UNL     1     -12.047  23.837  -9.922  1.00  0.00     0.014 C 
ATOM      3  C   UNL     1      -9.811  24.125  -8.847  1.00  0.00     0.014 C 
ATOM      4  C   UNL     1     -10.229  22.106 -10.287  1.00  0.00     0.030 C 
ATOM      5  C   UNL     1     -13.114  22.886 -10.478  1.00  0.00     0.004 C 
ATOM      6  C   UNL     1      -8.570  23.485  -8.217  1.00  0.00     0.013 C 
ATOM      7  C   UNL     1      -8.884  21.499  -9.805  1.00  0.00    -0.063 C 
ATOM      8  C   UNL     1     -11.287  21.128 -10.928  1.00  0.00    -0.003 C 
ATOM      9  C   UNL     1     -12.530  21.881 -11.490  1.00  0.00    -0.011 C 
ATOM     10  C   UNL     1      -7.851  22.393  -9.096  1.00  0.00    -0.006 C 
ATOM     11  C   UNL     1      -8.442  20.351 -10.356  1.00  0.00    -0.027 C 
ATOM     12  C   UNL     1     -11.729  19.971 -10.006  1.00  0.00     0.008 C 
ATOM     13  C   UNL     1     -12.237  22.554 -12.845  1.00  0.00     0.008 C 
ATOM     14  C   UNL     1      -7.101  23.160 -10.231  1.00  0.00     0.017 C 
ATOM     15  C   UNL     1      -6.814  21.506  -8.217  1.00  0.00    -0.020 C 
ATOM     16  C   UNL     1      -7.140  19.680 -10.055  1.00  0.00     0.032 C 
ATOM     17  C   UNL     1      -6.108  20.411  -9.133  1.00  0.00     0.006 C 
ATOM     18  C   UNL     1      -7.535  20.748  -7.054  1.00  0.00     0.008 C 
ATOM     19  C   UNL     1      -5.764  22.480  -7.586  1.00  0.00     0.012 C 
ATOM     20  C   UNL     1      -5.171  19.357  -8.359  1.00  0.00    -0.025 C 
ATOM     21  C   UNL     1      -6.646  19.756  -6.273  1.00  0.00     0.005 C 
ATOM     22  C   UNL     1      -6.003  18.694  -7.194  1.00  0.00     0.003 C 
ATOM     23  C   UNL     1      -4.685  18.221  -9.330  1.00  0.00     0.010 C 
ATOM     24  C   UNL     1      -3.875  20.083  -7.856  1.00  0.00     0.012 C 
ATOM     25  C   UNL     1      -5.306  17.482  -6.448  1.00  0.00    -0.006 C 
ATOM     26  C   UNL     1      -3.966  17.060  -8.622  1.00  0.00     0.033 C 
ATOM     27  C   UNL     1      -4.832  16.440  -7.513  1.00  0.00     0.120 C 
ATOM     28  C   UNL     1      -4.128  17.907  -5.531  1.00  0.00     0.014 C 
ATOM     29  C   UNL     1      -6.344  16.763  -5.540  1.00  0.00     0.014 C 
ENDROOT
BRANCH   1  30
ATOM     30  C   UNL     1     -11.360  22.381  -7.975  1.00  0.00     0.048 C 
ATOM     31  O   UNL     1     -12.284  22.888  -7.284  1.00  0.00    -0.550 OA
ATOM     32  O   UNL     1     -10.728  21.240  -7.497  1.00  0.00    -0.550 OA
ENDBRANCH   1  30
BRANCH  27  33
ATOM     33  O   UNL     1      -4.115  15.397  -6.897  1.00  0.00    -0.393 OA
ATOM     34  H   UNL     1      -3.935  15.682  -5.963  1.00  0.00     0.210 HD
ENDBRANCH  27  33
TORSDOF 2
ENDMDL
MODEL 2
REMARK VINA RESULT:    13.385      2.347      7.609
REMARK INTER + INTRA:          15.161
REMARK INTER:                  13.292
REMARK INTRA:                   1.869
REMARK UNBOUND:                 0.602
REMARK SMILES C[C@H]1[C@H](C)CC[C@]2(C(=O)[O-])CC[C@]3(C)C(=CC[C@@H]4[C@]5(C)CC[C@@H](O)C(C)(C)[C@H]5CC[C@@]43C)[C@@H]12
REMARK SMILES IDX 7 1 6 2 11 3 33 4 5 5 12 6 15 7 2 8 3 9 13 10 16 11 1 12
REMARK SMILES IDX 4 13 14 14 31 15 17 16 18 17 30 18 32 19 19 20 29 21 28 22
REMARK SMILES IDX 21 23 20 24 25 25 22 26 23 27 26 28 27 29 8 30 9 31 10 32
REMARK SMILES IDX 24 33
REMARK H PARENT 24 34
REMARK Flexibility Score: inf
ROOT
ATOM      1  C   UNL     1      -4.540  20.959  -6.288  1.00  0.00     0.017 C 
ATOM      2  C   UNL     1      -3.181  21.024  -5.531  1.00  0.00     0.014 C 
ATOM      3  C   UNL     1      -4.606  19.598  -7.007  1.00  0.00     0.014 C 
ATOM      4  C   UNL     1      -4.567  22.086  -7.371  1.00  0.00     0.030 C 
ATOM      5  C   UNL     1      -2.940  22.388  -4.875  1.00  0.00     0.004 C 
ATOM      6  C   UNL     1      -5.884  19.443  -7.838  1.00  0.00     0.013 C 
ATOM      7  C   UNL     1      -5.754  21.948  -8.361  1.00  0.00    -0.063 C 
ATOM      8  C   UNL     1      -4.283  23.513  -6.762  1.00  0.00    -0.003 C 
ATOM      9  C   UNL     1      -2.989  23.543  -5.894  1.00  0.00    -0.011 C 
ATOM     10  C   UNL     1      -6.129  20.563  -8.919  1.00  0.00    -0.006 C 
ATOM     11  C   UNL     1      -6.173  23.030  -9.047  1.00  0.00    -0.027 C 
ATOM     12  C   UNL     1      -5.467  24.125  -5.985  1.00  0.00     0.008 C 
ATOM     13  C   UNL     1      -1.713  23.586  -6.757  1.00  0.00     0.008 C 
ATOM     14  C   UNL     1      -5.123  20.286 -10.082  1.00  0.00     0.017 C 
ATOM     15  C   UNL     1      -7.658  20.544  -9.463  1.00  0.00    -0.020 C 
ATOM     16  C   UNL     1      -7.249  23.047 -10.085  1.00  0.00     0.032 C 
ATOM     17  C   UNL     1      -7.873  21.689 -10.549  1.00  0.00     0.006 C 
ATOM     18  C   UNL     1      -8.689  20.792  -8.313  1.00  0.00     0.008 C 
ATOM     19  C   UNL     1      -7.934  19.128 -10.068  1.00  0.00     0.012 C 
ATOM     20  C   UNL     1      -9.386  21.888 -11.059  1.00  0.00    -0.025 C 
ATOM     21  C   UNL     1     -10.154  20.950  -8.775  1.00  0.00     0.005 C 
ATOM     22  C   UNL     1     -10.324  22.090  -9.806  1.00  0.00     0.003 C 
ATOM     23  C   UNL     1      -9.505  23.158 -11.976  1.00  0.00     0.010 C 
ATOM     24  C   UNL     1      -9.800  20.665 -11.950  1.00  0.00     0.012 C 
ATOM     25  C   UNL     1     -11.821  22.501 -10.121  1.00  0.00    -0.006 C 
ATOM     26  C   UNL     1     -10.953  23.540 -12.327  1.00  0.00     0.033 C 
ATOM     27  C   UNL     1     -11.813  23.745 -11.069  1.00  0.00     0.120 C 
ATOM     28  C   UNL     1     -12.671  21.352 -10.727  1.00  0.00     0.014 C 
ATOM     29  C   UNL     1     -12.529  22.937  -8.807  1.00  0.00     0.014 C 
ENDROOT
BRANCH   1  30
ATOM     30  C   UNL     1      -5.696  21.037  -5.292  1.00  0.00     0.048 C 
ATOM     31  O   UNL     1      -6.278  19.988  -4.905  1.00  0.00    -0.550 OA
ATOM     32  O   UNL     1      -6.203  22.263  -4.880  1.00  0.00    -0.550 OA
ENDBRANCH   1  30
BRANCH  27  33
ATOM     33  O   UNL     1     -13.125  24.077 -11.455  1.00  0.00    -0.393 OA
ATOM     34  H   UNL     1     -13.055  24.809 -12.122  1.00  0.00     0.210 HD
ENDBRANCH  27  33
TORSDOF 2
ENDMDL
