MODEL 1
REMARK VINA RESULT:    -3.041      0.000      0.000
REMARK INTER + INTRA:         -13.087
REMARK INTER:                  -7.663
REMARK INTRA:                  -5.424
REMARK UNBOUND:                -5.424
REMARK SMILES CCCCCCCCCCCCCCCCCCCCCCCCCCCC(=O)[O-]
REMARK SMILES IDX 15 1 16 2 17 3 18 4 19 5 20 6 21 7 22 8 23 9 24 10 25 11
REMARK SMILES IDX 26 12 27 13 28 14 29 15 30 16 14 17 13 18 12 19 11 20 10 21
REMARK SMILES IDX 9 22 8 23 7 24 6 25 5 26 4 27 3 28 2 29 1 30
REMARK H PARENT
REMARK Flexibility Score: inf
ROOT
ATOM      1  C   UNL     1      59.497  29.028  50.809  1.00  0.00     0.000 C 
ENDROOT
BRANCH   1   2
ATOM      2  C   UNL     1      59.305  28.078  49.614  1.00  0.00     0.000 C 
BRANCH   2   3
ATOM      3  C   UNL     1      60.414  27.014  49.531  1.00  0.00     0.000 C 
BRANCH   3   4
ATOM      4  C   UNL     1      59.925  25.615  49.944  1.00  0.00     0.000 C 
BRANCH   4   5
ATOM      5  C   UNL     1      60.776  24.925  51.027  1.00  0.00     0.000 C 
BRANCH   5   6
ATOM      6  C   UNL     1      60.167  24.932  52.443  1.00  0.00     0.000 C 
BRANCH   6   7
ATOM      7  C   UNL     1      61.010  25.652  53.509  1.00  0.00     0.000 C 
BRANCH   7   8
ATOM      8  C   UNL     1      61.675  26.934  52.975  1.00  0.00     0.000 C 
BRANCH   8   9
ATOM      9  C   UNL     1      63.186  26.971  53.248  1.00  0.00     0.000 C 
BRANCH   9  10
ATOM     10  C   UNL     1      64.007  27.301  51.988  1.00  0.00     0.000 C 
BRANCH  10  11
ATOM     11  C   UNL     1      64.335  26.056  51.145  1.00  0.00     0.000 C 
BRANCH  11  12
ATOM     12  C   UNL     1      64.086  26.209  49.631  1.00  0.00     0.006 C 
BRANCH  12  13
ATOM     13  C   UNL     1      63.959  27.664  49.150  1.00  0.00     0.053 C 
BRANCH  13  14
ATOM     14  C   UNL     1      65.045  28.031  48.187  1.00  0.00     0.041 C 
ATOM     15  O   UNL     1      65.368  29.239  48.029  1.00  0.00    -0.550 OA
ATOM     16  O   UNL     1      65.670  27.047  47.433  1.00  0.00    -0.550 OA
ENDBRANCH  13  14
ENDBRANCH  12  13
ENDBRANCH  11  12
ENDBRANCH  10  11
ENDBRANCH   9  10
ENDBRANCH   8   9
ENDBRANCH   7   8
ENDBRANCH   6   7
ENDBRANCH   5   6
ENDBRANCH   4   5
ENDBRANCH   3   4
ENDBRANCH   2   3
ENDBRANCH   1   2
BRANCH   1  17
ATOM     17  C   UNL     1      58.625  28.632  52.015  1.00  0.00     0.000 C 
BRANCH  17  18
ATOM     18  C   UNL     1      57.349  27.877  51.605  1.00  0.00     0.000 C 
BRANCH  18  19
ATOM     19  C   UNL     1      56.997  26.662  52.483  1.00  0.00     0.000 C 
BRANCH  19  20
ATOM     20  C   UNL     1      56.405  25.471  51.698  1.00  0.00     0.000 C 
BRANCH  20  21
ATOM     21  C   UNL     1      56.310  25.744  50.186  1.00  0.00     0.000 C 
BRANCH  21  22
ATOM     22  C   UNL     1      55.014  25.197  49.565  1.00  0.00    -0.000 C 
BRANCH  22  23
ATOM     23  C   UNL     1      53.738  25.930  50.040  1.00  0.00    -0.000 C 
BRANCH  23  24
ATOM     24  C   UNL     1      53.835  27.467  49.979  1.00  0.00    -0.000 C 
BRANCH  24  25
ATOM     25  C   UNL     1      53.672  28.183  51.334  1.00  0.00    -0.000 C 
BRANCH  25  26
ATOM     26  C   UNL     1      54.025  29.684  51.333  1.00  0.00    -0.000 C 
BRANCH  26  27
ATOM     27  C   UNL     1      54.434  30.232  52.714  1.00  0.00    -0.000 C 
BRANCH  27  28
ATOM     28  C   UNL     1      54.580  29.117  53.766  1.00  0.00    -0.000 C 
BRANCH  28  29
ATOM     29  C   UNL     1      55.708  29.398  54.772  1.00  0.00    -0.003 C 
ATOM     30  C   UNL     1      56.612  30.553  54.342  1.00  0.00     0.004 C 
ENDBRANCH  28  29
ENDBRANCH  27  28
ENDBRANCH  26  27
ENDBRANCH  25  26
ENDBRANCH  24  25
ENDBRANCH  23  24
ENDBRANCH  22  23
ENDBRANCH  21  22
ENDBRANCH  20  21
ENDBRANCH  19  20
ENDBRANCH  18  19
ENDBRANCH  17  18
ENDBRANCH   1  17
TORSDOF 26
ENDMDL
MODEL 2
REMARK VINA RESULT:    -2.958      8.887     11.714
REMARK INTER + INTRA:         -12.879
REMARK INTER:                  -8.309
REMARK INTRA:                  -4.570
REMARK UNBOUND:                -5.424
REMARK SMILES CCCCCCCCCCCCCCCCCCCCCCCCCCCC(=O)[O-]
REMARK SMILES IDX 15 1 16 2 17 3 18 4 19 5 20 6 21 7 22 8 23 9 24 10 25 11
REMARK SMILES IDX 26 12 27 13 28 14 29 15 30 16 14 17 13 18 12 19 11 20 10 21
REMARK SMILES IDX 9 22 8 23 7 24 6 25 5 26 4 27 3 28 2 29 1 30
REMARK H PARENT
REMARK Flexibility Score: inf
ROOT
ATOM      1  C   UNL     1      63.087  31.250  58.329  1.00  0.00     0.000 C 
ENDROOT
BRANCH   1   2
ATOM      2  C   UNL     1      61.566  31.066  58.463  1.00  0.00     0.000 C 
BRANCH   2   3
ATOM      3  C   UNL     1      60.959  31.985  59.538  1.00  0.00     0.000 C 
BRANCH   3   4
ATOM      4  C   UNL     1      61.534  31.716  60.940  1.00  0.00     0.000 C 
BRANCH   4   5
ATOM      5  C   UNL     1      61.362  30.270  61.443  1.00  0.00     0.000 C 
BRANCH   5   6
ATOM      6  C   UNL     1      62.675  29.521  61.744  1.00  0.00     0.000 C 
BRANCH   6   7
ATOM      7  C   UNL     1      62.669  28.027  61.376  1.00  0.00     0.000 C 
BRANCH   7   8
ATOM      8  C   UNL     1      64.047  27.525  60.909  1.00  0.00     0.000 C 
BRANCH   8   9
ATOM      9  C   UNL     1      64.771  28.541  60.011  1.00  0.00     0.000 C 
BRANCH   9  10
ATOM     10  C   UNL     1      66.020  29.139  60.684  1.00  0.00     0.000 C 
BRANCH  10  11
ATOM     11  C   UNL     1      67.001  28.065  61.186  1.00  0.00     0.000 C 
BRANCH  11  12
ATOM     12  C   UNL     1      68.094  27.658  60.178  1.00  0.00     0.006 C 
BRANCH  12  13
ATOM     13  C   UNL     1      68.866  28.837  59.564  1.00  0.00     0.053 C 
BRANCH  13  14
ATOM     14  C   UNL     1      70.218  29.005  60.185  1.00  0.00     0.041 C 
ATOM     15  O   UNL     1      71.249  29.019  59.461  1.00  0.00    -0.550 OA
ATOM     16  O   UNL     1      70.343  29.102  61.564  1.00  0.00    -0.550 OA
ENDBRANCH  13  14
ENDBRANCH  12  13
ENDBRANCH  11  12
ENDBRANCH  10  11
ENDBRANCH   9  10
ENDBRANCH   8   9
ENDBRANCH   7   8
ENDBRANCH   6   7
ENDBRANCH   5   6
ENDBRANCH   4   5
ENDBRANCH   3   4
ENDBRANCH   2   3
ENDBRANCH   1   2
BRANCH   1  17
ATOM     17  C   UNL     1      63.460  32.623  57.741  1.00  0.00     0.000 C 
BRANCH  17  18
ATOM     18  C   UNL     1      64.451  33.401  58.624  1.00  0.00     0.000 C 
BRANCH  18  19
ATOM     19  C   UNL     1      64.940  32.650  59.876  1.00  0.00     0.000 C 
BRANCH  19  20
ATOM     20  C   UNL     1      64.555  33.332  61.207  1.00  0.00     0.000 C 
BRANCH  20  21
ATOM     21  C   UNL     1      65.164  34.738  61.352  1.00  0.00     0.000 C 
BRANCH  21  22
ATOM     22  C   UNL     1      64.101  35.850  61.333  1.00  0.00    -0.000 C 
BRANCH  22  23
ATOM     23  C   UNL     1      62.653  35.324  61.204  1.00  0.00    -0.000 C 
BRANCH  23  24
ATOM     24  C   UNL     1      61.947  35.737  59.898  1.00  0.00    -0.000 C 
BRANCH  24  25
ATOM     25  C   UNL     1      60.407  35.711  59.955  1.00  0.00    -0.000 C 
BRANCH  25  26
ATOM     26  C   UNL     1      59.699  35.552  58.595  1.00  0.00    -0.000 C 
BRANCH  26  27
ATOM     27  C   UNL     1      60.588  34.936  57.496  1.00  0.00    -0.000 C 
BRANCH  27  28
ATOM     28  C   UNL     1      59.801  33.993  56.567  1.00  0.00    -0.000 C 
BRANCH  28  29
ATOM     29  C   UNL     1      58.328  33.849  56.981  1.00  0.00    -0.003 C 
ATOM     30  C   UNL     1      57.968  32.424  57.403  1.00  0.00     0.004 C 
ENDBRANCH  28  29
ENDBRANCH  27  28
ENDBRANCH  26  27
ENDBRANCH  25  26
ENDBRANCH  24  25
ENDBRANCH  23  24
ENDBRANCH  22  23
ENDBRANCH  21  22
ENDBRANCH  20  21
ENDBRANCH  19  20
ENDBRANCH  18  19
ENDBRANCH  17  18
ENDBRANCH   1  17
TORSDOF 26
ENDMDL
MODEL 3
REMARK VINA RESULT:    -2.910      8.048     11.158
REMARK INTER + INTRA:         -12.756
REMARK INTER:                  -7.312
REMARK INTRA:                  -5.444
REMARK UNBOUND:                -5.424
REMARK SMILES CCCCCCCCCCCCCCCCCCCCCCCCCCCC(=O)[O-]
REMARK SMILES IDX 15 1 16 2 17 3 18 4 19 5 20 6 21 7 22 8 23 9 24 10 25 11
REMARK SMILES IDX 26 12 27 13 28 14 29 15 30 16 14 17 13 18 12 19 11 20 10 21
REMARK SMILES IDX 9 22 8 23 7 24 6 25 5 26 4 27 3 28 2 29 1 30
REMARK H PARENT
REMARK Flexibility Score: inf
ROOT
ATOM      1  C   UNL     1      64.811  31.611  59.831  1.00  0.00     0.000 C 
ENDROOT
BRANCH   1   2
ATOM      2  C   UNL     1      64.466  31.028  61.211  1.00  0.00     0.000 C 
BRANCH   2   3
ATOM      3  C   UNL     1      63.712  29.689  61.108  1.00  0.00     0.000 C 
BRANCH   3   4
ATOM      4  C   UNL     1      62.297  29.758  61.710  1.00  0.00     0.000 C 
BRANCH   4   5
ATOM      5  C   UNL     1      61.479  30.997  61.298  1.00  0.00     0.000 C 
BRANCH   5   6
ATOM      6  C   UNL     1      60.672  30.846  59.994  1.00  0.00     0.000 C 
BRANCH   6   7
ATOM      7  C   UNL     1      61.236  31.617  58.788  1.00  0.00     0.000 C 
BRANCH   7   8
ATOM      8  C   UNL     1      61.927  30.698  57.765  1.00  0.00     0.000 C 
BRANCH   8   9
ATOM      9  C   UNL     1      61.511  29.227  57.919  1.00  0.00     0.000 C 
BRANCH   9  10
ATOM     10  C   UNL     1      62.696  28.257  57.764  1.00  0.00     0.000 C 
BRANCH  10  11
ATOM     11  C   UNL     1      62.647  27.088  58.764  1.00  0.00     0.000 C 
BRANCH  11  12
ATOM     12  C   UNL     1      61.360  27.008  59.609  1.00  0.00     0.006 C 
BRANCH  12  13
ATOM     13  C   UNL     1      61.108  25.638  60.259  1.00  0.00     0.053 C 
BRANCH  13  14
ATOM     14  C   UNL     1      61.082  25.725  61.754  1.00  0.00     0.041 C 
ATOM     15  O   UNL     1      62.110  26.089  62.384  1.00  0.00    -0.550 OA
ATOM     16  O   UNL     1      59.938  25.363  62.453  1.00  0.00    -0.550 OA
ENDBRANCH  13  14
ENDBRANCH  12  13
ENDBRANCH  11  12
ENDBRANCH  10  11
ENDBRANCH   9  10
ENDBRANCH   8   9
ENDBRANCH   7   8
ENDBRANCH   6   7
ENDBRANCH   5   6
ENDBRANCH   4   5
ENDBRANCH   3   4
ENDBRANCH   2   3
ENDBRANCH   1   2
BRANCH   1  17
ATOM     17  C   UNL     1      64.621  33.137  59.777  1.00  0.00     0.000 C 
BRANCH  17  18
ATOM     18  C   UNL     1      64.459  33.767  61.172  1.00  0.00     0.000 C 
BRANCH  18  19
ATOM     19  C   UNL     1      63.381  34.861  61.274  1.00  0.00     0.000 C 
BRANCH  19  20
ATOM     20  C   UNL     1      62.290  34.770  60.185  1.00  0.00     0.000 C 
BRANCH  20  21
ATOM     21  C   UNL     1      61.019  35.559  60.550  1.00  0.00     0.000 C 
BRANCH  21  22
ATOM     22  C   UNL     1      60.067  35.736  59.356  1.00  0.00    -0.000 C 
BRANCH  22  23
ATOM     23  C   UNL     1      60.763  35.612  57.981  1.00  0.00    -0.000 C 
BRANCH  23  24
ATOM     24  C   UNL     1      60.192  34.495  57.085  1.00  0.00    -0.000 C 
BRANCH  24  25
ATOM     25  C   UNL     1      58.738  34.089  57.399  1.00  0.00    -0.000 C 
BRANCH  25  26
ATOM     26  C   UNL     1      58.265  32.774  56.748  1.00  0.00    -0.000 C 
BRANCH  26  27
ATOM     27  C   UNL     1      57.701  31.748  57.749  1.00  0.00    -0.000 C 
BRANCH  27  28
ATOM     28  C   UNL     1      57.985  30.297  57.323  1.00  0.00    -0.000 C 
BRANCH  28  29
ATOM     29  C   UNL     1      57.189  29.272  58.147  1.00  0.00    -0.003 C 
ATOM     30  C   UNL     1      58.084  28.250  58.849  1.00  0.00     0.004 C 
ENDBRANCH  28  29
ENDBRANCH  27  28
ENDBRANCH  26  27
ENDBRANCH  25  26
ENDBRANCH  24  25
ENDBRANCH  23  24
ENDBRANCH  22  23
ENDBRANCH  21  22
ENDBRANCH  20  21
ENDBRANCH  19  20
ENDBRANCH  18  19
ENDBRANCH  17  18
ENDBRANCH   1  17
TORSDOF 26
ENDMDL
MODEL 4
REMARK VINA RESULT:    -2.857      2.842      5.076
REMARK INTER + INTRA:         -12.624
REMARK INTER:                  -7.578
REMARK INTRA:                  -5.046
REMARK UNBOUND:                -5.424
REMARK SMILES CCCCCCCCCCCCCCCCCCCCCCCCCCCC(=O)[O-]
REMARK SMILES IDX 15 1 16 2 17 3 18 4 19 5 20 6 21 7 22 8 23 9 24 10 25 11
REMARK SMILES IDX 26 12 27 13 28 14 29 15 30 16 14 17 13 18 12 19 11 20 10 21
REMARK SMILES IDX 9 22 8 23 7 24 6 25 5 26 4 27 3 28 2 29 1 30
REMARK H PARENT
REMARK Flexibility Score: inf
ROOT
ATOM      1  C   UNL     1      55.720  25.296  50.810  1.00  0.00     0.000 C 
ENDROOT
BRANCH   1   2
ATOM      2  C   UNL     1      57.149  25.696  50.406  1.00  0.00     0.000 C 
BRANCH   2   3
ATOM      3  C   UNL     1      57.677  26.885  51.230  1.00  0.00     0.000 C 
BRANCH   3   4
ATOM      4  C   UNL     1      57.948  28.130  50.366  1.00  0.00     0.000 C 
BRANCH   4   5
ATOM      5  C   UNL     1      59.428  28.357  50.004  1.00  0.00     0.000 C 
BRANCH   5   6
ATOM      6  C   UNL     1      60.174  27.112  49.486  1.00  0.00     0.000 C 
BRANCH   6   7
ATOM      7  C   UNL     1      61.430  26.727  50.288  1.00  0.00     0.000 C 
BRANCH   7   8
ATOM      8  C   UNL     1      62.625  27.653  49.999  1.00  0.00     0.000 C 
BRANCH   8   9
ATOM      9  C   UNL     1      63.284  28.181  51.283  1.00  0.00     0.000 C 
BRANCH   9  10
ATOM     10  C   UNL     1      63.602  29.686  51.209  1.00  0.00     0.000 C 
BRANCH  10  11
ATOM     11  C   UNL     1      62.980  30.368  49.977  1.00  0.00     0.000 C 
BRANCH  11  12
ATOM     12  C   UNL     1      62.621  31.855  50.168  1.00  0.00     0.006 C 
BRANCH  12  13
ATOM     13  C   UNL     1      62.527  32.306  51.634  1.00  0.00     0.053 C 
BRANCH  13  14
ATOM     14  C   UNL     1      62.122  33.742  51.752  1.00  0.00     0.041 C 
ATOM     15  O   UNL     1      62.947  34.656  51.488  1.00  0.00    -0.550 OA
ATOM     16  O   UNL     1      60.848  34.072  52.196  1.00  0.00    -0.550 OA
ENDBRANCH  13  14
ENDBRANCH  12  13
ENDBRANCH  11  12
ENDBRANCH  10  11
ENDBRANCH   9  10
ENDBRANCH   8   9
ENDBRANCH   7   8
ENDBRANCH   6   7
ENDBRANCH   5   6
ENDBRANCH   4   5
ENDBRANCH   3   4
ENDBRANCH   2   3
ENDBRANCH   1   2
BRANCH   1  17
ATOM     17  C   UNL     1      54.763  25.257  49.606  1.00  0.00     0.000 C 
BRANCH  17  18
ATOM     18  C   UNL     1      53.670  26.338  49.678  1.00  0.00     0.000 C 
BRANCH  18  19
ATOM     19  C   UNL     1      53.737  27.255  50.912  1.00  0.00     0.000 C 
BRANCH  19  20
ATOM     20  C   UNL     1      54.205  28.693  50.601  1.00  0.00     0.000 C 
BRANCH  20  21
ATOM     21  C   UNL     1      54.511  29.507  51.872  1.00  0.00     0.000 C 
BRANCH  21  22
ATOM     22  C   UNL     1      55.144  28.654  52.984  1.00  0.00    -0.000 C 
BRANCH  22  23
ATOM     23  C   UNL     1      55.977  29.472  53.997  1.00  0.00    -0.000 C 
BRANCH  23  24
ATOM     24  C   UNL     1      56.898  30.526  53.350  1.00  0.00    -0.000 C 
BRANCH  24  25
ATOM     25  C   UNL     1      57.843  31.251  54.327  1.00  0.00    -0.000 C 
BRANCH  25  26
ATOM     26  C   UNL     1      59.300  31.403  53.845  1.00  0.00    -0.000 C 
BRANCH  26  27
ATOM     27  C   UNL     1      59.780  30.256  52.934  1.00  0.00    -0.000 C 
BRANCH  27  28
ATOM     28  C   UNL     1      60.784  29.328  53.641  1.00  0.00    -0.000 C 
BRANCH  28  29
ATOM     29  C   UNL     1      60.334  27.858  53.638  1.00  0.00    -0.003 C 
ATOM     30  C   UNL     1      59.128  27.605  54.542  1.00  0.00     0.004 C 
ENDBRANCH  28  29
ENDBRANCH  27  28
ENDBRANCH  26  27
ENDBRANCH  25  26
ENDBRANCH  24  25
ENDBRANCH  23  24
ENDBRANCH  22  23
ENDBRANCH  21  22
ENDBRANCH  20  21
ENDBRANCH  19  20
ENDBRANCH  18  19
ENDBRANCH  17  18
ENDBRANCH   1  17
TORSDOF 26
ENDMDL
MODEL 5
REMARK VINA RESULT:    -2.838      3.764      6.372
REMARK INTER + INTRA:         -12.576
REMARK INTER:                  -6.667
REMARK INTRA:                  -5.909
REMARK UNBOUND:                -5.424
REMARK SMILES CCCCCCCCCCCCCCCCCCCCCCCCCCCC(=O)[O-]
REMARK SMILES IDX 15 1 16 2 17 3 18 4 19 5 20 6 21 7 22 8 23 9 24 10 25 11
REMARK SMILES IDX 26 12 27 13 28 14 29 15 30 16 14 17 13 18 12 19 11 20 10 21
REMARK SMILES IDX 9 22 8 23 7 24 6 25 5 26 4 27 3 28 2 29 1 30
REMARK H PARENT
REMARK Flexibility Score: inf
ROOT
ATOM      1  C   UNL     1      55.023  25.016  50.325  1.00  0.00     0.000 C 
ENDROOT
BRANCH   1   2
ATOM      2  C   UNL     1      56.379  25.740  50.258  1.00  0.00     0.000 C 
BRANCH   2   3
ATOM      3  C   UNL     1      56.470  26.902  51.264  1.00  0.00     0.000 C 
BRANCH   3   4
ATOM      4  C   UNL     1      57.101  28.166  50.653  1.00  0.00     0.000 C 
BRANCH   4   5
ATOM      5  C   UNL     1      58.347  28.689  51.394  1.00  0.00     0.000 C 
BRANCH   5   6
ATOM      6  C   UNL     1      59.624  28.794  50.537  1.00  0.00     0.000 C 
BRANCH   6   7
ATOM      7  C   UNL     1      59.762  27.719  49.445  1.00  0.00     0.000 C 
BRANCH   7   8
ATOM      8  C   UNL     1      60.772  26.619  49.818  1.00  0.00     0.000 C 
BRANCH   8   9
ATOM      9  C   UNL     1      60.088  25.330  50.300  1.00  0.00     0.000 C 
BRANCH   9  10
ATOM     10  C   UNL     1      59.940  25.276  51.831  1.00  0.00     0.000 C 
BRANCH  10  11
ATOM     11  C   UNL     1      59.014  24.140  52.302  1.00  0.00     0.000 C 
BRANCH  11  12
ATOM     12  C   UNL     1      58.087  24.501  53.479  1.00  0.00     0.006 C 
BRANCH  12  13
ATOM     13  C   UNL     1      56.744  23.753  53.487  1.00  0.00     0.053 C 
BRANCH  13  14
ATOM     14  C   UNL     1      56.561  22.948  54.736  1.00  0.00     0.041 C 
ATOM     15  O   UNL     1      55.411  22.802  55.230  1.00  0.00    -0.550 OA
ATOM     16  O   UNL     1      57.661  22.396  55.378  1.00  0.00    -0.550 OA
ENDBRANCH  13  14
ENDBRANCH  12  13
ENDBRANCH  11  12
ENDBRANCH  10  11
ENDBRANCH   9  10
ENDBRANCH   8   9
ENDBRANCH   7   8
ENDBRANCH   6   7
ENDBRANCH   5   6
ENDBRANCH   4   5
ENDBRANCH   3   4
ENDBRANCH   2   3
ENDBRANCH   1   2
BRANCH   1  17
ATOM     17  C   UNL     1      54.028  25.542  49.275  1.00  0.00     0.000 C 
BRANCH  17  18
ATOM     18  C   UNL     1      52.876  26.349  49.899  1.00  0.00     0.000 C 
BRANCH  18  19
ATOM     19  C   UNL     1      53.124  27.864  50.011  1.00  0.00     0.000 C 
BRANCH  19  20
ATOM     20  C   UNL     1      53.046  28.408  51.455  1.00  0.00     0.000 C 
BRANCH  20  21
ATOM     21  C   UNL     1      53.915  29.661  51.664  1.00  0.00     0.000 C 
BRANCH  21  22
ATOM     22  C   UNL     1      54.344  29.848  53.130  1.00  0.00    -0.000 C 
BRANCH  22  23
ATOM     23  C   UNL     1      55.685  30.598  53.295  1.00  0.00    -0.000 C 
BRANCH  23  24
ATOM     24  C   UNL     1      56.636  29.968  54.333  1.00  0.00    -0.000 C 
BRANCH  24  25
ATOM     25  C   UNL     1      55.982  28.929  55.265  1.00  0.00    -0.000 C 
BRANCH  25  26
ATOM     26  C   UNL     1      56.386  27.464  55.005  1.00  0.00    -0.000 C 
BRANCH  26  27
ATOM     27  C   UNL     1      55.407  26.431  55.596  1.00  0.00    -0.000 C 
BRANCH  27  28
ATOM     28  C   UNL     1      53.965  26.965  55.667  1.00  0.00    -0.000 C 
BRANCH  28  29
ATOM     29  C   UNL     1      52.970  26.083  54.894  1.00  0.00    -0.003 C 
ATOM     30  C   UNL     1      53.544  25.551  53.581  1.00  0.00     0.004 C 
ENDBRANCH  28  29
ENDBRANCH  27  28
ENDBRANCH  26  27
ENDBRANCH  25  26
ENDBRANCH  24  25
ENDBRANCH  23  24
ENDBRANCH  22  23
ENDBRANCH  21  22
ENDBRANCH  20  21
ENDBRANCH  19  20
ENDBRANCH  18  19
ENDBRANCH  17  18
ENDBRANCH   1  17
TORSDOF 26
ENDMDL
MODEL 6
REMARK VINA RESULT:    -2.823      2.629      6.898
REMARK INTER + INTRA:         -12.537
REMARK INTER:                  -7.763
REMARK INTRA:                  -4.774
REMARK UNBOUND:                -5.424
REMARK SMILES CCCCCCCCCCCCCCCCCCCCCCCCCCCC(=O)[O-]
REMARK SMILES IDX 15 1 16 2 17 3 18 4 19 5 20 6 21 7 22 8 23 9 24 10 25 11
REMARK SMILES IDX 26 12 27 13 28 14 29 15 30 16 14 17 13 18 12 19 11 20 10 21
REMARK SMILES IDX 9 22 8 23 7 24 6 25 5 26 4 27 3 28 2 29 1 30
REMARK H PARENT
REMARK Flexibility Score: inf
ROOT
ATOM      1  C   UNL     1      54.348  27.134  50.014  1.00  0.00     0.000 C 
ENDROOT
BRANCH   1   2
ATOM      2  C   UNL     1      54.769  25.696  49.662  1.00  0.00     0.000 C 
BRANCH   2   3
ATOM      3  C   UNL     1      53.672  24.669  49.998  1.00  0.00     0.000 C 
BRANCH   3   4
ATOM      4  C   UNL     1      53.953  23.909  51.307  1.00  0.00     0.000 C 
BRANCH   4   5
ATOM      5  C   UNL     1      53.504  24.639  52.587  1.00  0.00     0.000 C 
BRANCH   5   6
ATOM      6  C   UNL     1      54.634  25.325  53.381  1.00  0.00     0.000 C 
BRANCH   6   7
ATOM      7  C   UNL     1      55.983  24.587  53.359  1.00  0.00     0.000 C 
BRANCH   7   8
ATOM      8  C   UNL     1      57.121  25.446  52.777  1.00  0.00     0.000 C 
BRANCH   8   9
ATOM      9  C   UNL     1      57.788  24.791  51.557  1.00  0.00     0.000 C 
BRANCH   9  10
ATOM     10  C   UNL     1      58.329  25.825  50.553  1.00  0.00     0.000 C 
BRANCH  10  11
ATOM     11  C   UNL     1      59.692  25.425  49.960  1.00  0.00     0.000 C 
BRANCH  11  12
ATOM     12  C   UNL     1      60.717  24.894  50.982  1.00  0.00     0.006 C 
BRANCH  12  13
ATOM     13  C   UNL     1      61.581  23.729  50.474  1.00  0.00     0.053 C 
BRANCH  13  14
ATOM     14  C   UNL     1      60.906  22.407  50.667  1.00  0.00     0.041 C 
ATOM     15  O   UNL     1      60.376  22.123  51.774  1.00  0.00    -0.550 OA
ATOM     16  O   UNL     1      60.899  21.472  49.641  1.00  0.00    -0.550 OA
ENDBRANCH  13  14
ENDBRANCH  12  13
ENDBRANCH  11  12
ENDBRANCH  10  11
ENDBRANCH   9  10
ENDBRANCH   8   9
ENDBRANCH   7   8
ENDBRANCH   6   7
ENDBRANCH   5   6
ENDBRANCH   4   5
ENDBRANCH   3   4
ENDBRANCH   2   3
ENDBRANCH   1   2
BRANCH   1  17
ATOM     17  C   UNL     1      55.465  27.908  50.737  1.00  0.00     0.000 C 
BRANCH  17  18
ATOM     18  C   UNL     1      54.930  28.821  51.854  1.00  0.00     0.000 C 
BRANCH  18  19
ATOM     19  C   UNL     1      55.739  28.795  53.163  1.00  0.00     0.000 C 
BRANCH  19  20
ATOM     20  C   UNL     1      56.630  30.039  53.376  1.00  0.00     0.000 C 
BRANCH  20  21
ATOM     21  C   UNL     1      58.034  29.875  52.767  1.00  0.00     0.000 C 
BRANCH  21  22
ATOM     22  C   UNL     1      58.866  28.793  53.475  1.00  0.00    -0.000 C 
BRANCH  22  23
ATOM     23  C   UNL     1      60.023  28.235  52.615  1.00  0.00    -0.000 C 
BRANCH  23  24
ATOM     24  C   UNL     1      60.135  28.878  51.218  1.00  0.00    -0.000 C 
BRANCH  24  25
ATOM     25  C   UNL     1      61.555  29.331  50.824  1.00  0.00    -0.000 C 
BRANCH  25  26
ATOM     26  C   UNL     1      62.643  28.243  50.914  1.00  0.00    -0.000 C 
BRANCH  26  27
ATOM     27  C   UNL     1      62.819  27.425  49.619  1.00  0.00    -0.000 C 
BRANCH  27  28
ATOM     28  C   UNL     1      64.246  26.869  49.468  1.00  0.00    -0.000 C 
BRANCH  28  29
ATOM     29  C   UNL     1      64.950  27.384  48.202  1.00  0.00    -0.003 C 
ATOM     30  C   UNL     1      65.177  28.896  48.222  1.00  0.00     0.004 C 
ENDBRANCH  28  29
ENDBRANCH  27  28
ENDBRANCH  26  27
ENDBRANCH  25  26
ENDBRANCH  24  25
ENDBRANCH  23  24
ENDBRANCH  22  23
ENDBRANCH  21  22
ENDBRANCH  20  21
ENDBRANCH  19  20
ENDBRANCH  18  19
ENDBRANCH  17  18
ENDBRANCH   1  17
TORSDOF 26
ENDMDL
MODEL 7
REMARK VINA RESULT:    -2.812      2.845      5.971
REMARK INTER + INTRA:         -12.511
REMARK INTER:                  -7.017
REMARK INTRA:                  -5.494
REMARK UNBOUND:                -5.424
REMARK SMILES CCCCCCCCCCCCCCCCCCCCCCCCCCCC(=O)[O-]
REMARK SMILES IDX 15 1 16 2 17 3 18 4 19 5 20 6 21 7 22 8 23 9 24 10 25 11
REMARK SMILES IDX 26 12 27 13 28 14 29 15 30 16 14 17 13 18 12 19 11 20 10 21
REMARK SMILES IDX 9 22 8 23 7 24 6 25 5 26 4 27 3 28 2 29 1 30
REMARK H PARENT
REMARK Flexibility Score: inf
ROOT
ATOM      1  C   UNL     1      61.488  28.632  53.586  1.00  0.00     0.000 C 
ENDROOT
BRANCH   1   2
ATOM      2  C   UNL     1      61.076  29.716  52.575  1.00  0.00     0.000 C 
BRANCH   2   3
ATOM      3  C   UNL     1      62.216  30.069  51.602  1.00  0.00     0.000 C 
BRANCH   3   4
ATOM      4  C   UNL     1      63.585  29.551  52.080  1.00  0.00     0.000 C 
BRANCH   4   5
ATOM      5  C   UNL     1      64.245  28.516  51.149  1.00  0.00     0.000 C 
BRANCH   5   6
ATOM      6  C   UNL     1      63.491  28.242  49.833  1.00  0.00     0.000 C 
BRANCH   6   7
ATOM      7  C   UNL     1      64.226  27.324  48.842  1.00  0.00     0.000 C 
BRANCH   7   8
ATOM      8  C   UNL     1      64.960  28.107  47.738  1.00  0.00     0.000 C 
BRANCH   8   9
ATOM      9  C   UNL     1      66.371  28.541  48.163  1.00  0.00     0.000 C 
BRANCH   9  10
ATOM     10  C   UNL     1      66.616  30.046  47.954  1.00  0.00     0.000 C 
BRANCH  10  11
ATOM     11  C   UNL     1      66.567  30.848  49.267  1.00  0.00     0.000 C 
BRANCH  11  12
ATOM     12  C   UNL     1      65.647  32.085  49.241  1.00  0.00     0.006 C 
BRANCH  12  13
ATOM     13  C   UNL     1      64.144  31.764  49.244  1.00  0.00     0.053 C 
BRANCH  13  14
ATOM     14  C   UNL     1      63.312  32.988  49.466  1.00  0.00     0.041 C 
ATOM     15  O   UNL     1      63.585  33.775  50.412  1.00  0.00    -0.550 OA
ATOM     16  O   UNL     1      62.210  33.237  48.660  1.00  0.00    -0.550 OA
ENDBRANCH  13  14
ENDBRANCH  12  13
ENDBRANCH  11  12
ENDBRANCH  10  11
ENDBRANCH   9  10
ENDBRANCH   8   9
ENDBRANCH   7   8
ENDBRANCH   6   7
ENDBRANCH   5   6
ENDBRANCH   4   5
ENDBRANCH   3   4
ENDBRANCH   2   3
ENDBRANCH   1   2
BRANCH   1  17
ATOM     17  C   UNL     1      61.018  27.229  53.163  1.00  0.00     0.000 C 
BRANCH  17  18
ATOM     18  C   UNL     1      59.834  26.718  54.002  1.00  0.00     0.000 C 
BRANCH  18  19
ATOM     19  C   UNL     1      58.607  26.262  53.192  1.00  0.00     0.000 C 
BRANCH  19  20
ATOM     20  C   UNL     1      57.413  27.239  53.260  1.00  0.00     0.000 C 
BRANCH  20  21
ATOM     21  C   UNL     1      57.543  28.407  52.265  1.00  0.00     0.000 C 
BRANCH  21  22
ATOM     22  C   UNL     1      57.630  27.934  50.804  1.00  0.00    -0.000 C 
BRANCH  22  23
ATOM     23  C   UNL     1      58.704  28.675  49.974  1.00  0.00    -0.000 C 
BRANCH  23  24
ATOM     24  C   UNL     1      59.923  27.807  49.604  1.00  0.00    -0.000 C 
BRANCH  24  25
ATOM     25  C   UNL     1      59.706  26.287  49.744  1.00  0.00    -0.000 C 
BRANCH  25  26
ATOM     26  C   UNL     1      60.976  25.464  50.036  1.00  0.00    -0.000 C 
BRANCH  26  27
ATOM     27  C   UNL     1      60.725  24.210  50.896  1.00  0.00    -0.000 C 
BRANCH  27  28
ATOM     28  C   UNL     1      62.031  23.594  51.427  1.00  0.00    -0.000 C 
BRANCH  28  29
ATOM     29  C   UNL     1      63.277  24.380  50.989  1.00  0.00    -0.003 C 
ATOM     30  C   UNL     1      64.056  24.962  52.168  1.00  0.00     0.004 C 
ENDBRANCH  28  29
ENDBRANCH  27  28
ENDBRANCH  26  27
ENDBRANCH  25  26
ENDBRANCH  24  25
ENDBRANCH  23  24
ENDBRANCH  22  23
ENDBRANCH  21  22
ENDBRANCH  20  21
ENDBRANCH  19  20
ENDBRANCH  18  19
ENDBRANCH  17  18
ENDBRANCH   1  17
TORSDOF 26
ENDMDL
MODEL 8
REMARK VINA RESULT:    -2.777      3.045      8.033
REMARK INTER + INTRA:         -12.423
REMARK INTER:                  -7.445
REMARK INTRA:                  -4.978
REMARK UNBOUND:                -5.424
REMARK SMILES CCCCCCCCCCCCCCCCCCCCCCCCCCCC(=O)[O-]
REMARK SMILES IDX 15 1 16 2 17 3 18 4 19 5 20 6 21 7 22 8 23 9 24 10 25 11
REMARK SMILES IDX 26 12 27 13 28 14 29 15 30 16 14 17 13 18 12 19 11 20 10 21
REMARK SMILES IDX 9 22 8 23 7 24 6 25 5 26 4 27 3 28 2 29 1 30
REMARK H PARENT
REMARK Flexibility Score: inf
ROOT
ATOM      1  C   UNL     1      59.249  25.692  52.593  1.00  0.00     0.000 C 
ENDROOT
BRANCH   1   2
ATOM      2  C   UNL     1      58.425  25.541  53.883  1.00  0.00     0.000 C 
BRANCH   2   3
ATOM      3  C   UNL     1      57.070  24.856  53.633  1.00  0.00     0.000 C 
BRANCH   3   4
ATOM      4  C   UNL     1      55.878  25.810  53.833  1.00  0.00     0.000 C 
BRANCH   4   5
ATOM      5  C   UNL     1      54.599  25.414  53.071  1.00  0.00     0.000 C 
BRANCH   5   6
ATOM      6  C   UNL     1      54.799  24.378  51.947  1.00  0.00     0.000 C 
BRANCH   6   7
ATOM      7  C   UNL     1      54.074  24.701  50.629  1.00  0.00     0.000 C 
BRANCH   7   8
ATOM      8  C   UNL     1      54.627  25.962  49.941  1.00  0.00     0.000 C 
BRANCH   8   9
ATOM      9  C   UNL     1      53.604  27.108  49.901  1.00  0.00     0.000 C 
BRANCH   9  10
ATOM     10  C   UNL     1      54.120  28.386  50.586  1.00  0.00     0.000 C 
BRANCH  10  11
ATOM     11  C   UNL     1      55.601  28.288  50.996  1.00  0.00     0.000 C 
BRANCH  11  12
ATOM     12  C   UNL     1      55.982  29.088  52.257  1.00  0.00     0.006 C 
BRANCH  12  13
ATOM     13  C   UNL     1      57.467  29.004  52.642  1.00  0.00     0.053 C 
BRANCH  13  14
ATOM     14  C   UNL     1      57.881  30.138  53.527  1.00  0.00     0.041 C 
ATOM     15  O   UNL     1      58.759  30.954  53.139  1.00  0.00    -0.550 OA
ATOM     16  O   UNL     1      57.331  30.270  54.794  1.00  0.00    -0.550 OA
ENDBRANCH  13  14
ENDBRANCH  12  13
ENDBRANCH  11  12
ENDBRANCH  10  11
ENDBRANCH   9  10
ENDBRANCH   8   9
ENDBRANCH   7   8
ENDBRANCH   6   7
ENDBRANCH   5   6
ENDBRANCH   4   5
ENDBRANCH   3   4
ENDBRANCH   2   3
ENDBRANCH   1   2
BRANCH   1  17
ATOM     17  C   UNL     1      58.551  25.060  51.377  1.00  0.00     0.000 C 
BRANCH  17  18
ATOM     18  C   UNL     1      58.270  26.075  50.255  1.00  0.00     0.000 C 
BRANCH  18  19
ATOM     19  C   UNL     1      59.521  26.697  49.608  1.00  0.00     0.000 C 
BRANCH  19  20
ATOM     20  C   UNL     1      59.568  28.239  49.689  1.00  0.00     0.000 C 
BRANCH  20  21
ATOM     21  C   UNL     1      60.553  28.748  50.756  1.00  0.00     0.000 C 
BRANCH  21  22
ATOM     22  C   UNL     1      62.023  28.581  50.335  1.00  0.00    -0.000 C 
BRANCH  22  23
ATOM     23  C   UNL     1      62.741  27.405  51.036  1.00  0.00    -0.000 C 
BRANCH  23  24
ATOM     24  C   UNL     1      62.950  26.170  50.138  1.00  0.00    -0.000 C 
BRANCH  24  25
ATOM     25  C   UNL     1      63.945  25.128  50.687  1.00  0.00    -0.000 C 
BRANCH  25  26
ATOM     26  C   UNL     1      63.324  23.783  51.112  1.00  0.00    -0.000 C 
BRANCH  26  27
ATOM     27  C   UNL     1      61.906  23.546  50.557  1.00  0.00    -0.000 C 
BRANCH  27  28
ATOM     28  C   UNL     1      61.398  22.120  50.838  1.00  0.00    -0.000 C 
BRANCH  28  29
ATOM     29  C   UNL     1      60.319  22.082  51.932  1.00  0.00    -0.003 C 
ATOM     30  C   UNL     1      60.889  22.287  53.335  1.00  0.00     0.004 C 
ENDBRANCH  28  29
ENDBRANCH  27  28
ENDBRANCH  26  27
ENDBRANCH  25  26
ENDBRANCH  24  25
ENDBRANCH  23  24
ENDBRANCH  22  23
ENDBRANCH  21  22
ENDBRANCH  20  21
ENDBRANCH  19  20
ENDBRANCH  18  19
ENDBRANCH  17  18
ENDBRANCH   1  17
TORSDOF 26
ENDMDL
MODEL 9
REMARK VINA RESULT:    -2.759      2.436      6.083
REMARK INTER + INTRA:         -12.377
REMARK INTER:                  -7.253
REMARK INTRA:                  -5.125
REMARK UNBOUND:                -5.424
REMARK SMILES CCCCCCCCCCCCCCCCCCCCCCCCCCCC(=O)[O-]
REMARK SMILES IDX 15 1 16 2 17 3 18 4 19 5 20 6 21 7 22 8 23 9 24 10 25 11
REMARK SMILES IDX 26 12 27 13 28 14 29 15 30 16 14 17 13 18 12 19 11 20 10 21
REMARK SMILES IDX 9 22 8 23 7 24 6 25 5 26 4 27 3 28 2 29 1 30
REMARK H PARENT
REMARK Flexibility Score: inf
ROOT
ATOM      1  C   UNL     1      53.723  27.720  50.020  1.00  0.00     0.000 C 
ENDROOT
BRANCH   1   2
ATOM      2  C   UNL     1      53.351  28.565  51.250  1.00  0.00     0.000 C 
BRANCH   2   3
ATOM      3  C   UNL     1      54.450  29.579  51.615  1.00  0.00     0.000 C 
BRANCH   3   4
ATOM      4  C   UNL     1      54.471  29.916  53.117  1.00  0.00     0.000 C 
BRANCH   4   5
ATOM      5  C   UNL     1      55.575  29.207  53.924  1.00  0.00     0.000 C 
BRANCH   5   6
ATOM      6  C   UNL     1      56.623  30.140  54.561  1.00  0.00     0.000 C 
BRANCH   6   7
ATOM      7  C   UNL     1      57.077  31.310  53.672  1.00  0.00     0.000 C 
BRANCH   7   8
ATOM      8  C   UNL     1      58.591  31.294  53.396  1.00  0.00     0.000 C 
BRANCH   8   9
ATOM      9  C   UNL     1      59.285  30.058  53.989  1.00  0.00     0.000 C 
BRANCH   9  10
ATOM     10  C   UNL     1      60.805  30.059  53.746  1.00  0.00     0.000 C 
BRANCH  10  11
ATOM     11  C   UNL     1      61.236  31.065  52.664  1.00  0.00     0.000 C 
BRANCH  11  12
ATOM     12  C   UNL     1      62.437  30.622  51.805  1.00  0.00     0.006 C 
BRANCH  12  13
ATOM     13  C   UNL     1      62.669  31.473  50.546  1.00  0.00     0.053 C 
BRANCH  13  14
ATOM     14  C   UNL     1      62.877  32.918  50.879  1.00  0.00     0.041 C 
ATOM     15  O   UNL     1      63.861  33.269  51.584  1.00  0.00    -0.550 OA
ATOM     16  O   UNL     1      61.964  33.871  50.449  1.00  0.00    -0.550 OA
ENDBRANCH  13  14
ENDBRANCH  12  13
ENDBRANCH  11  12
ENDBRANCH  10  11
ENDBRANCH   9  10
ENDBRANCH   8   9
ENDBRANCH   7   8
ENDBRANCH   6   7
ENDBRANCH   5   6
ENDBRANCH   4   5
ENDBRANCH   3   4
ENDBRANCH   2   3
ENDBRANCH   1   2
BRANCH   1  17
ATOM     17  C   UNL     1      53.590  26.210  50.287  1.00  0.00     0.000 C 
BRANCH  17  18
ATOM     18  C   UNL     1      54.946  25.483  50.288  1.00  0.00     0.000 C 
BRANCH  18  19
ATOM     19  C   UNL     1      56.180  26.401  50.355  1.00  0.00     0.000 C 
BRANCH  19  20
ATOM     20  C   UNL     1      56.812  26.499  51.761  1.00  0.00     0.000 C 
BRANCH  20  21
ATOM     21  C   UNL     1      57.904  27.581  51.847  1.00  0.00     0.000 C 
BRANCH  21  22
ATOM     22  C   UNL     1      57.845  28.577  50.677  1.00  0.00    -0.000 C 
BRANCH  22  23
ATOM     23  C   UNL     1      59.102  28.555  49.777  1.00  0.00    -0.000 C 
BRANCH  23  24
ATOM     24  C   UNL     1      60.385  28.094  50.498  1.00  0.00    -0.000 C 
BRANCH  24  25
ATOM     25  C   UNL     1      61.005  26.792  49.953  1.00  0.00    -0.000 C 
BRANCH  25  26
ATOM     26  C   UNL     1      60.018  25.624  49.755  1.00  0.00    -0.000 C 
BRANCH  26  27
ATOM     27  C   UNL     1      60.371  24.363  50.568  1.00  0.00    -0.000 C 
BRANCH  27  28
ATOM     28  C   UNL     1      59.812  24.415  52.001  1.00  0.00    -0.000 C 
BRANCH  28  29
ATOM     29  C   UNL     1      60.902  24.681  53.051  1.00  0.00    -0.003 C 
ATOM     30  C   UNL     1      60.847  26.100  53.617  1.00  0.00     0.004 C 
ENDBRANCH  28  29
ENDBRANCH  27  28
ENDBRANCH  26  27
ENDBRANCH  25  26
ENDBRANCH  24  25
ENDBRANCH  23  24
ENDBRANCH  22  23
ENDBRANCH  21  22
ENDBRANCH  20  21
ENDBRANCH  19  20
ENDBRANCH  18  19
ENDBRANCH  17  18
ENDBRANCH   1  17
TORSDOF 26
ENDMDL
