MODEL 1
REMARK VINA RESULT:    -6.533      0.000      0.000
REMARK INTER + INTRA:         -16.126
REMARK INTER:                 -14.172
REMARK INTRA:                  -1.953
REMARK UNBOUND:                -1.953
REMARK SMILES CCCCCCCCCCCCCCCCCCCCCC(=O)[O-]
REMARK SMILES IDX 12 1 11 2 10 3 9 4 8 5 7 6 6 7 5 8 4 9 3 10 2 11 1 12 13 13
REMARK SMILES IDX 14 14 15 15 16 16 17 17 18 18 19 19 20 20 21 21 22 22 23 23
REMARK SMILES IDX 24 24
REMARK H PARENT
REMARK Flexibility Score: inf
ROOT
ATOM      1  C   UNL     1     -13.005 -11.180  -5.377  1.00  0.00     0.000 C 
ENDROOT
BRANCH   1   2
ATOM      2  C   UNL     1     -12.777 -10.129  -6.471  1.00  0.00     0.000 C 
BRANCH   2   3
ATOM      3  C   UNL     1     -13.717 -10.358  -7.663  1.00  0.00     0.000 C 
BRANCH   3   4
ATOM      4  C   UNL     1     -14.404 -11.739  -7.613  1.00  0.00    -0.000 C 
BRANCH   4   5
ATOM      5  C   UNL     1     -14.777 -12.298  -8.999  1.00  0.00    -0.000 C 
BRANCH   5   6
ATOM      6  C   UNL     1     -15.170 -11.237 -10.043  1.00  0.00    -0.000 C 
BRANCH   6   7
ATOM      7  C   UNL     1     -16.623 -11.324 -10.547  1.00  0.00    -0.000 C 
BRANCH   7   8
ATOM      8  C   UNL     1     -17.492 -10.107 -10.165  1.00  0.00    -0.000 C 
BRANCH   8   9
ATOM      9  C   UNL     1     -16.647  -8.874  -9.804  1.00  0.00    -0.000 C 
BRANCH   9  10
ATOM     10  C   UNL     1     -16.888  -8.446  -8.352  1.00  0.00    -0.000 C 
BRANCH  10  11
ATOM     11  C   UNL     1     -17.753  -9.474  -7.613  1.00  0.00    -0.003 C 
ATOM     12  C   UNL     1     -17.121  -9.876  -6.284  1.00  0.00     0.004 C 
ENDBRANCH  10  11
ENDBRANCH   9  10
ENDBRANCH   8   9
ENDBRANCH   7   8
ENDBRANCH   6   7
ENDBRANCH   5   6
ENDBRANCH   4   5
ENDBRANCH   3   4
ENDBRANCH   2   3
ENDBRANCH   1   2
BRANCH   1  13
ATOM     13  C   UNL     1     -11.734 -11.395  -4.546  1.00  0.00     0.000 C 
BRANCH  13  14
ATOM     14  C   UNL     1     -12.083 -11.764  -3.096  1.00  0.00     0.000 C 
BRANCH  14  15
ATOM     15  C   UNL     1     -10.965 -12.554  -2.396  1.00  0.00     0.000 C 
BRANCH  15  16
ATOM     16  C   UNL     1     -10.831 -12.196  -0.906  1.00  0.00     0.000 C 
BRANCH  16  17
ATOM     17  C   UNL     1      -9.480 -12.625  -0.305  1.00  0.00     0.000 C 
BRANCH  17  18
ATOM     18  C   UNL     1      -8.380 -12.965  -1.333  1.00  0.00     0.000 C 
BRANCH  18  19
ATOM     19  C   UNL     1      -7.053 -13.464  -0.734  1.00  0.00     0.000 C 
BRANCH  19  20
ATOM     20  C   UNL     1      -6.768 -14.940  -1.060  1.00  0.00     0.006 C 
BRANCH  20  21
ATOM     21  C   UNL     1      -7.974 -15.629  -1.714  1.00  0.00     0.053 C 
BRANCH  21  22
ATOM     22  C   UNL     1      -7.865 -17.122  -1.647  1.00  0.00     0.041 C 
ATOM     23  O   UNL     1      -7.438 -17.774  -2.637  1.00  0.00    -0.550 OA
ATOM     24  O   UNL     1      -8.215 -17.794  -0.481  1.00  0.00    -0.550 OA
ENDBRANCH  21  22
ENDBRANCH  20  21
ENDBRANCH  19  20
ENDBRANCH  18  19
ENDBRANCH  17  18
ENDBRANCH  16  17
ENDBRANCH  15  16
ENDBRANCH  14  15
ENDBRANCH  13  14
ENDBRANCH   1  13
TORSDOF 20
ENDMDL
MODEL 2
REMARK VINA RESULT:    -6.441      0.835      2.330
REMARK INTER + INTRA:         -15.924
REMARK INTER:                 -13.954
REMARK INTRA:                  -1.970
REMARK UNBOUND:                -1.953
REMARK SMILES CCCCCCCCCCCCCCCCCCCCCC(=O)[O-]
REMARK SMILES IDX 12 1 11 2 10 3 9 4 8 5 7 6 6 7 5 8 4 9 3 10 2 11 1 12 13 13
REMARK SMILES IDX 14 14 15 15 16 16 17 17 18 18 19 19 20 20 21 21 22 22 23 23
REMARK SMILES IDX 24 24
REMARK H PARENT
REMARK Flexibility Score: inf
ROOT
ATOM      1  C   UNL     1     -13.118 -10.848  -6.160  1.00  0.00     0.000 C 
ENDROOT
BRANCH   1   2
ATOM      2  C   UNL     1     -13.097  -9.707  -7.184  1.00  0.00     0.000 C 
BRANCH   2   3
ATOM      3  C   UNL     1     -14.467  -9.018  -7.272  1.00  0.00     0.000 C 
BRANCH   3   4
ATOM      4  C   UNL     1     -15.445  -9.514  -6.186  1.00  0.00    -0.000 C 
BRANCH   4   5
ATOM      5  C   UNL     1     -16.909  -9.596  -6.659  1.00  0.00    -0.000 C 
BRANCH   5   6
ATOM      6  C   UNL     1     -17.329  -8.507  -7.663  1.00  0.00    -0.000 C 
BRANCH   6   7
ATOM      7  C   UNL     1     -17.935  -9.032  -8.978  1.00  0.00    -0.000 C 
BRANCH   7   8
ATOM      8  C   UNL     1     -16.889  -9.559  -9.984  1.00  0.00    -0.000 C 
BRANCH   8   9
ATOM      9  C   UNL     1     -17.381 -10.800 -10.745  1.00  0.00    -0.000 C 
BRANCH   9  10
ATOM     10  C   UNL     1     -16.294 -11.880 -10.802  1.00  0.00    -0.000 C 
BRANCH  10  11
ATOM     11  C   UNL     1     -15.122 -11.527  -9.879  1.00  0.00    -0.003 C 
ATOM     12  C   UNL     1     -14.866 -12.635  -8.861  1.00  0.00     0.004 C 
ENDBRANCH  10  11
ENDBRANCH   9  10
ENDBRANCH   8   9
ENDBRANCH   7   8
ENDBRANCH   6   7
ENDBRANCH   5   6
ENDBRANCH   4   5
ENDBRANCH   3   4
ENDBRANCH   2   3
ENDBRANCH   1   2
BRANCH   1  13
ATOM     13  C   UNL     1     -12.143 -10.572  -5.008  1.00  0.00     0.000 C 
BRANCH  13  14
ATOM     14  C   UNL     1     -11.800 -11.868  -4.257  1.00  0.00     0.000 C 
BRANCH  14  15
ATOM     15  C   UNL     1     -12.011 -11.751  -2.738  1.00  0.00     0.000 C 
BRANCH  15  16
ATOM     16  C   UNL     1     -11.043 -12.638  -1.936  1.00  0.00     0.000 C 
BRANCH  16  17
ATOM     17  C   UNL     1     -10.515 -11.950  -0.664  1.00  0.00     0.000 C 
BRANCH  17  18
ATOM     18  C   UNL     1      -9.157 -12.471  -0.148  1.00  0.00     0.000 C 
BRANCH  18  19
ATOM     19  C   UNL     1      -8.190 -12.972  -1.235  1.00  0.00     0.000 C 
BRANCH  19  20
ATOM     20  C   UNL     1      -7.755 -14.432  -1.020  1.00  0.00     0.006 C 
BRANCH  20  21
ATOM     21  C   UNL     1      -8.412 -15.384  -2.029  1.00  0.00     0.053 C 
BRANCH  21  22
ATOM     22  C   UNL     1      -7.819 -16.759  -1.963  1.00  0.00     0.041 C 
ATOM     23  O   UNL     1      -6.966 -17.125  -2.814  1.00  0.00    -0.550 OA
ATOM     24  O   UNL     1      -8.195 -17.630  -0.947  1.00  0.00    -0.550 OA
ENDBRANCH  21  22
ENDBRANCH  20  21
ENDBRANCH  19  20
ENDBRANCH  18  19
ENDBRANCH  17  18
ENDBRANCH  16  17
ENDBRANCH  15  16
ENDBRANCH  14  15
ENDBRANCH  13  14
ENDBRANCH   1  13
TORSDOF 20
ENDMDL
MODEL 3
REMARK VINA RESULT:    -6.354      1.823      3.873
REMARK INTER + INTRA:         -15.736
REMARK INTER:                 -14.118
REMARK INTRA:                  -1.617
REMARK UNBOUND:                -1.953
REMARK SMILES CCCCCCCCCCCCCCCCCCCCCC(=O)[O-]
REMARK SMILES IDX 12 1 11 2 10 3 9 4 8 5 7 6 6 7 5 8 4 9 3 10 2 11 1 12 13 13
REMARK SMILES IDX 14 14 15 15 16 16 17 17 18 18 19 19 20 20 21 21 22 22 23 23
REMARK SMILES IDX 24 24
REMARK H PARENT
REMARK Flexibility Score: inf
ROOT
ATOM      1  C   UNL     1     -14.286 -10.830  -7.892  1.00  0.00     0.000 C 
ENDROOT
BRANCH   1   2
ATOM      2  C   UNL     1     -15.657 -11.089  -7.257  1.00  0.00     0.000 C 
BRANCH   2   3
ATOM      3  C   UNL     1     -16.136  -9.870  -6.457  1.00  0.00     0.000 C 
BRANCH   3   4
ATOM      4  C   UNL     1     -17.274  -9.108  -7.170  1.00  0.00    -0.000 C 
BRANCH   4   5
ATOM      5  C   UNL     1     -16.780  -8.069  -8.193  1.00  0.00    -0.000 C 
BRANCH   5   6
ATOM      6  C   UNL     1     -16.670  -8.583  -9.639  1.00  0.00    -0.000 C 
BRANCH   6   7
ATOM      7  C   UNL     1     -17.749  -9.601 -10.054  1.00  0.00    -0.000 C 
BRANCH   7   8
ATOM      8  C   UNL     1     -17.180 -10.929 -10.598  1.00  0.00    -0.000 C 
BRANCH   8   9
ATOM      9  C   UNL     1     -18.186 -11.675 -11.489  1.00  0.00    -0.000 C 
BRANCH   9  10
ATOM     10  C   UNL     1     -18.851 -10.723 -12.490  1.00  0.00    -0.000 C 
BRANCH  10  11
ATOM     11  C   UNL     1     -20.368 -10.939 -12.529  1.00  0.00    -0.003 C 
ATOM     12  C   UNL     1     -20.783 -11.719 -13.773  1.00  0.00     0.004 C 
ENDBRANCH  10  11
ENDBRANCH   9  10
ENDBRANCH   8   9
ENDBRANCH   7   8
ENDBRANCH   6   7
ENDBRANCH   5   6
ENDBRANCH   4   5
ENDBRANCH   3   4
ENDBRANCH   2   3
ENDBRANCH   1   2
BRANCH   1  13
ATOM     13  C   UNL     1     -13.604  -9.614  -7.252  1.00  0.00     0.000 C 
BRANCH  13  14
ATOM     14  C   UNL     1     -12.394 -10.043  -6.409  1.00  0.00     0.000 C 
BRANCH  14  15
ATOM     15  C   UNL     1     -12.789 -10.876  -5.178  1.00  0.00     0.000 C 
BRANCH  15  16
ATOM     16  C   UNL     1     -11.584 -11.570  -4.520  1.00  0.00     0.000 C 
BRANCH  16  17
ATOM     17  C   UNL     1     -11.842 -11.955  -3.052  1.00  0.00     0.000 C 
BRANCH  17  18
ATOM     18  C   UNL     1     -10.635 -12.564  -2.309  1.00  0.00     0.000 C 
BRANCH  18  19
ATOM     19  C   UNL     1     -10.783 -12.655  -0.780  1.00  0.00     0.000 C 
BRANCH  19  20
ATOM     20  C   UNL     1      -9.564 -13.301  -0.099  1.00  0.00     0.006 C 
BRANCH  20  21
ATOM     21  C   UNL     1      -8.289 -13.155  -0.941  1.00  0.00     0.053 C 
BRANCH  21  22
ATOM     22  C   UNL     1      -7.698 -14.487  -1.291  1.00  0.00     0.041 C 
ATOM     23  O   UNL     1      -6.546 -14.797  -0.890  1.00  0.00    -0.550 OA
ATOM     24  O   UNL     1      -8.432 -15.396  -2.045  1.00  0.00    -0.550 OA
ENDBRANCH  21  22
ENDBRANCH  20  21
ENDBRANCH  19  20
ENDBRANCH  18  19
ENDBRANCH  17  18
ENDBRANCH  16  17
ENDBRANCH  15  16
ENDBRANCH  14  15
ENDBRANCH  13  14
ENDBRANCH   1  13
TORSDOF 20
ENDMDL
MODEL 4
REMARK VINA RESULT:    -6.344      3.971     11.132
REMARK INTER + INTRA:         -15.715
REMARK INTER:                 -14.319
REMARK INTRA:                  -1.396
REMARK UNBOUND:                -1.953
REMARK SMILES CCCCCCCCCCCCCCCCCCCCCC(=O)[O-]
REMARK SMILES IDX 12 1 11 2 10 3 9 4 8 5 7 6 6 7 5 8 4 9 3 10 2 11 1 12 13 13
REMARK SMILES IDX 14 14 15 15 16 16 17 17 18 18 19 19 20 20 21 21 22 22 23 23
REMARK SMILES IDX 24 24
REMARK H PARENT
REMARK Flexibility Score: inf
ROOT
ATOM      1  C   UNL     1     -13.260 -11.102  -6.124  1.00  0.00     0.000 C 
ENDROOT
BRANCH   1   2
ATOM      2  C   UNL     1     -12.282 -10.626  -5.043  1.00  0.00     0.000 C 
BRANCH   2   3
ATOM      3  C   UNL     1     -11.750 -11.807  -4.219  1.00  0.00     0.000 C 
BRANCH   3   4
ATOM      4  C   UNL     1     -11.977 -11.617  -2.704  1.00  0.00    -0.000 C 
BRANCH   4   5
ATOM      5  C   UNL     1     -11.153 -12.578  -1.826  1.00  0.00    -0.000 C 
BRANCH   5   6
ATOM      6  C   UNL     1     -10.616 -11.966  -0.521  1.00  0.00    -0.000 C 
BRANCH   6   7
ATOM      7  C   UNL     1      -9.446 -12.731   0.126  1.00  0.00    -0.000 C 
BRANCH   7   8
ATOM      8  C   UNL     1      -8.093 -12.528  -0.590  1.00  0.00    -0.000 C 
BRANCH   8   9
ATOM      9  C   UNL     1      -7.412 -13.860  -0.943  1.00  0.00    -0.000 C 
BRANCH   9  10
ATOM     10  C   UNL     1      -8.429 -14.876  -1.476  1.00  0.00    -0.000 C 
BRANCH  10  11
ATOM     11  C   UNL     1      -7.723 -16.035  -2.190  1.00  0.00    -0.003 C 
ATOM     12  C   UNL     1      -8.082 -17.376  -1.555  1.00  0.00     0.004 C 
ENDBRANCH  10  11
ENDBRANCH   9  10
ENDBRANCH   8   9
ENDBRANCH   7   8
ENDBRANCH   6   7
ENDBRANCH   5   6
ENDBRANCH   4   5
ENDBRANCH   3   4
ENDBRANCH   2   3
ENDBRANCH   1   2
BRANCH   1  13
ATOM     13  C   UNL     1     -13.379 -10.071  -7.252  1.00  0.00     0.000 C 
BRANCH  13  14
ATOM     14  C   UNL     1     -14.352 -10.555  -8.338  1.00  0.00     0.000 C 
BRANCH  14  15
ATOM     15  C   UNL     1     -14.596 -12.072  -8.287  1.00  0.00     0.000 C 
BRANCH  15  16
ATOM     16  C   UNL     1     -15.274 -12.606  -9.561  1.00  0.00     0.000 C 
BRANCH  16  17
ATOM     17  C   UNL     1     -15.717 -11.485 -10.518  1.00  0.00     0.000 C 
BRANCH  17  18
ATOM     18  C   UNL     1     -17.203 -11.524 -10.935  1.00  0.00     0.000 C 
BRANCH  18  19
ATOM     19  C   UNL     1     -17.996 -10.234 -10.660  1.00  0.00     0.000 C 
BRANCH  19  20
ATOM     20  C   UNL     1     -17.162  -9.162  -9.936  1.00  0.00     0.006 C 
BRANCH  20  21
ATOM     21  C   UNL     1     -17.890  -8.598  -8.708  1.00  0.00     0.053 C 
BRANCH  21  22
ATOM     22  C   UNL     1     -17.301  -9.110  -7.429  1.00  0.00     0.041 C 
ATOM     23  O   UNL     1     -16.473  -8.412  -6.786  1.00  0.00    -0.550 OA
ATOM     24  O   UNL     1     -17.683 -10.352  -6.935  1.00  0.00    -0.550 OA
ENDBRANCH  21  22
ENDBRANCH  20  21
ENDBRANCH  19  20
ENDBRANCH  18  19
ENDBRANCH  17  18
ENDBRANCH  16  17
ENDBRANCH  15  16
ENDBRANCH  14  15
ENDBRANCH  13  14
ENDBRANCH   1  13
TORSDOF 20
ENDMDL
MODEL 5
REMARK VINA RESULT:    -6.222      5.526     12.029
REMARK INTER + INTRA:         -15.449
REMARK INTER:                 -14.313
REMARK INTRA:                  -1.136
REMARK UNBOUND:                -1.953
REMARK SMILES CCCCCCCCCCCCCCCCCCCCCC(=O)[O-]
REMARK SMILES IDX 12 1 11 2 10 3 9 4 8 5 7 6 6 7 5 8 4 9 3 10 2 11 1 12 13 13
REMARK SMILES IDX 14 14 15 15 16 16 17 17 18 18 19 19 20 20 21 21 22 22 23 23
REMARK SMILES IDX 24 24
REMARK H PARENT
REMARK Flexibility Score: inf
ROOT
ATOM      1  C   UNL     1     -13.473 -10.796  -6.417  1.00  0.00     0.000 C 
ENDROOT
BRANCH   1   2
ATOM      2  C   UNL     1     -12.410 -10.468  -5.361  1.00  0.00     0.000 C 
BRANCH   2   3
ATOM      3  C   UNL     1     -11.938 -11.738  -4.638  1.00  0.00     0.000 C 
BRANCH   3   4
ATOM      4  C   UNL     1     -12.069 -11.625  -3.104  1.00  0.00    -0.000 C 
BRANCH   4   5
ATOM      5  C   UNL     1     -11.157 -12.595  -2.330  1.00  0.00    -0.000 C 
BRANCH   5   6
ATOM      6  C   UNL     1     -11.037 -12.309  -0.822  1.00  0.00    -0.000 C 
BRANCH   6   7
ATOM      7  C   UNL     1      -9.894 -13.053  -0.106  1.00  0.00    -0.000 C 
BRANCH   7   8
ATOM      8  C   UNL     1      -8.499 -12.435  -0.343  1.00  0.00    -0.000 C 
BRANCH   8   9
ATOM      9  C   UNL     1      -7.518 -13.431  -0.981  1.00  0.00    -0.000 C 
BRANCH   9  10
ATOM     10  C   UNL     1      -8.241 -14.704  -1.437  1.00  0.00    -0.000 C 
BRANCH  10  11
ATOM     11  C   UNL     1      -7.282 -15.900  -1.461  1.00  0.00    -0.003 C 
ATOM     12  C   UNL     1      -8.041 -17.213  -1.630  1.00  0.00     0.004 C 
ENDBRANCH  10  11
ENDBRANCH   9  10
ENDBRANCH   8   9
ENDBRANCH   7   8
ENDBRANCH   6   7
ENDBRANCH   5   6
ENDBRANCH   4   5
ENDBRANCH   3   4
ENDBRANCH   2   3
ENDBRANCH   1   2
BRANCH   1  13
ATOM     13  C   UNL     1     -14.040  -9.516  -7.043  1.00  0.00     0.000 C 
BRANCH  13  14
ATOM     14  C   UNL     1     -15.420  -9.182  -6.455  1.00  0.00     0.000 C 
BRANCH  14  15
ATOM     15  C   UNL     1     -16.469 -10.269  -6.741  1.00  0.00     0.000 C 
BRANCH  15  16
ATOM     16  C   UNL     1     -17.756  -9.702  -7.364  1.00  0.00     0.000 C 
BRANCH  16  17
ATOM     17  C   UNL     1     -17.480  -8.702  -8.502  1.00  0.00     0.000 C 
BRANCH  17  18
ATOM     18  C   UNL     1     -16.708  -9.274  -9.709  1.00  0.00     0.000 C 
BRANCH  18  19
ATOM     19  C   UNL     1     -17.320 -10.535 -10.343  1.00  0.00     0.000 C 
BRANCH  19  20
ATOM     20  C   UNL     1     -18.692 -10.273 -10.988  1.00  0.00     0.006 C 
BRANCH  20  21
ATOM     21  C   UNL     1     -18.972 -11.230 -12.156  1.00  0.00     0.053 C 
BRANCH  21  22
ATOM     22  C   UNL     1     -20.317 -10.982 -12.768  1.00  0.00     0.041 C 
ATOM     23  O   UNL     1     -20.952  -9.927 -12.503  1.00  0.00    -0.550 OA
ATOM     24  O   UNL     1     -20.861 -11.908 -13.651  1.00  0.00    -0.550 OA
ENDBRANCH  21  22
ENDBRANCH  20  21
ENDBRANCH  19  20
ENDBRANCH  18  19
ENDBRANCH  17  18
ENDBRANCH  16  17
ENDBRANCH  15  16
ENDBRANCH  14  15
ENDBRANCH  13  14
ENDBRANCH   1  13
TORSDOF 20
ENDMDL
MODEL 6
REMARK VINA RESULT:    -6.204      1.245      2.923
REMARK INTER + INTRA:         -15.411
REMARK INTER:                 -13.125
REMARK INTRA:                  -2.287
REMARK UNBOUND:                -1.953
REMARK SMILES CCCCCCCCCCCCCCCCCCCCCC(=O)[O-]
REMARK SMILES IDX 12 1 11 2 10 3 9 4 8 5 7 6 6 7 5 8 4 9 3 10 2 11 1 12 13 13
REMARK SMILES IDX 14 14 15 15 16 16 17 17 18 18 19 19 20 20 21 21 22 22 23 23
REMARK SMILES IDX 24 24
REMARK H PARENT
REMARK Flexibility Score: inf
ROOT
ATOM      1  C   UNL     1     -14.355 -11.745  -7.300  1.00  0.00     0.000 C 
ENDROOT
BRANCH   1   2
ATOM      2  C   UNL     1     -15.091 -12.316  -8.518  1.00  0.00     0.000 C 
BRANCH   2   3
ATOM      3  C   UNL     1     -14.949 -11.390  -9.734  1.00  0.00     0.000 C 
BRANCH   3   4
ATOM      4  C   UNL     1     -15.784 -11.870 -10.940  1.00  0.00    -0.000 C 
BRANCH   4   5
ATOM      5  C   UNL     1     -17.287 -12.018 -10.636  1.00  0.00    -0.000 C 
BRANCH   5   6
ATOM      6  C   UNL     1     -18.224 -11.327 -11.643  1.00  0.00    -0.000 C 
BRANCH   6   7
ATOM      7  C   UNL     1     -18.681  -9.911 -11.243  1.00  0.00    -0.000 C 
BRANCH   7   8
ATOM      8  C   UNL     1     -18.446  -9.574  -9.755  1.00  0.00    -0.000 C 
BRANCH   8   9
ATOM      9  C   UNL     1     -17.249  -8.631  -9.550  1.00  0.00    -0.000 C 
BRANCH   9  10
ATOM     10  C   UNL     1     -16.898  -8.499  -8.064  1.00  0.00    -0.000 C 
BRANCH  10  11
ATOM     11  C   UNL     1     -17.457  -9.680  -7.262  1.00  0.00    -0.003 C 
ATOM     12  C   UNL     1     -16.846  -9.738  -5.864  1.00  0.00     0.004 C 
ENDBRANCH  10  11
ENDBRANCH   9  10
ENDBRANCH   8   9
ENDBRANCH   7   8
ENDBRANCH   6   7
ENDBRANCH   5   6
ENDBRANCH   4   5
ENDBRANCH   3   4
ENDBRANCH   2   3
ENDBRANCH   1   2
BRANCH   1  13
ATOM     13  C   UNL     1     -13.639 -10.436  -7.653  1.00  0.00     0.000 C 
BRANCH  13  14
ATOM     14  C   UNL     1     -12.647 -10.038  -6.549  1.00  0.00     0.000 C 
BRANCH  14  15
ATOM     15  C   UNL     1     -12.982 -10.672  -5.188  1.00  0.00     0.000 C 
BRANCH  15  16
ATOM     16  C   UNL     1     -11.819 -11.501  -4.618  1.00  0.00     0.000 C 
BRANCH  16  17
ATOM     17  C   UNL     1     -11.858 -11.611  -3.083  1.00  0.00     0.000 C 
BRANCH  17  18
ATOM     18  C   UNL     1     -10.965 -12.715  -2.478  1.00  0.00     0.000 C 
BRANCH  18  19
ATOM     19  C   UNL     1     -10.465 -12.446  -1.048  1.00  0.00     0.000 C 
BRANCH  19  20
ATOM     20  C   UNL     1      -9.035 -12.959  -0.808  1.00  0.00     0.006 C 
BRANCH  20  21
ATOM     21  C   UNL     1      -8.724 -14.209  -1.643  1.00  0.00     0.053 C 
BRANCH  21  22
ATOM     22  C   UNL     1      -7.419 -14.831  -1.249  1.00  0.00     0.041 C 
ATOM     23  O   UNL     1      -7.252 -16.075  -1.345  1.00  0.00    -0.550 OA
ATOM     24  O   UNL     1      -6.377 -14.031  -0.794  1.00  0.00    -0.550 OA
ENDBRANCH  21  22
ENDBRANCH  20  21
ENDBRANCH  19  20
ENDBRANCH  18  19
ENDBRANCH  17  18
ENDBRANCH  16  17
ENDBRANCH  15  16
ENDBRANCH  14  15
ENDBRANCH  13  14
ENDBRANCH   1  13
TORSDOF 20
ENDMDL
MODEL 7
REMARK VINA RESULT:    -6.175      1.521      3.529
REMARK INTER + INTRA:         -15.348
REMARK INTER:                 -13.058
REMARK INTRA:                  -2.289
REMARK UNBOUND:                -1.953
REMARK SMILES CCCCCCCCCCCCCCCCCCCCCC(=O)[O-]
REMARK SMILES IDX 12 1 11 2 10 3 9 4 8 5 7 6 6 7 5 8 4 9 3 10 2 11 1 12 13 13
REMARK SMILES IDX 14 14 15 15 16 16 17 17 18 18 19 19 20 20 21 21 22 22 23 23
REMARK SMILES IDX 24 24
REMARK H PARENT
REMARK Flexibility Score: inf
ROOT
ATOM      1  C   UNL     1     -14.148  -8.922  -7.244  1.00  0.00     0.000 C 
ENDROOT
BRANCH   1   2
ATOM      2  C   UNL     1     -15.337  -8.976  -6.277  1.00  0.00     0.000 C 
BRANCH   2   3
ATOM      3  C   UNL     1     -16.179 -10.240  -6.506  1.00  0.00     0.000 C 
BRANCH   3   4
ATOM      4  C   UNL     1     -17.693  -9.940  -6.534  1.00  0.00    -0.000 C 
BRANCH   4   5
ATOM      5  C   UNL     1     -18.263  -9.749  -7.952  1.00  0.00    -0.000 C 
BRANCH   5   6
ATOM      6  C   UNL     1     -17.560  -8.668  -8.794  1.00  0.00    -0.000 C 
BRANCH   6   7
ATOM      7  C   UNL     1     -16.983  -9.159 -10.135  1.00  0.00    -0.000 C 
BRANCH   7   8
ATOM      8  C   UNL     1     -17.639 -10.453 -10.663  1.00  0.00    -0.000 C 
BRANCH   8   9
ATOM      9  C   UNL     1     -16.697 -11.665 -10.576  1.00  0.00    -0.000 C 
BRANCH   9  10
ATOM     10  C   UNL     1     -15.252 -11.223 -10.312  1.00  0.00    -0.000 C 
BRANCH  10  11
ATOM     11  C   UNL     1     -14.465 -12.325  -9.593  1.00  0.00    -0.003 C 
ATOM     12  C   UNL     1     -15.354 -13.094  -8.619  1.00  0.00     0.004 C 
ENDBRANCH  10  11
ENDBRANCH   9  10
ENDBRANCH   8   9
ENDBRANCH   7   8
ENDBRANCH   6   7
ENDBRANCH   5   6
ENDBRANCH   4   5
ENDBRANCH   3   4
ENDBRANCH   2   3
ENDBRANCH   1   2
BRANCH   1  13
ATOM     13  C   UNL     1     -13.343 -10.226  -7.201  1.00  0.00     0.000 C 
BRANCH  13  14
ATOM     14  C   UNL     1     -12.318 -10.200  -6.056  1.00  0.00     0.000 C 
BRANCH  14  15
ATOM     15  C   UNL     1     -12.622 -11.236  -4.961  1.00  0.00     0.000 C 
BRANCH  15  16
ATOM     16  C   UNL     1     -11.351 -11.752  -4.265  1.00  0.00     0.000 C 
BRANCH  16  17
ATOM     17  C   UNL     1     -11.646 -12.483  -2.942  1.00  0.00     0.000 C 
BRANCH  17  18
ATOM     18  C   UNL     1     -12.015 -11.572  -1.753  1.00  0.00     0.000 C 
BRANCH  18  19
ATOM     19  C   UNL     1     -10.896 -11.357  -0.719  1.00  0.00     0.000 C 
BRANCH  19  20
ATOM     20  C   UNL     1     -10.183 -12.663  -0.329  1.00  0.00     0.006 C 
BRANCH  20  21
ATOM     21  C   UNL     1      -8.692 -12.638  -0.696  1.00  0.00     0.053 C 
BRANCH  21  22
ATOM     22  C   UNL     1      -8.246 -13.936  -1.297  1.00  0.00     0.041 C 
ATOM     23  O   UNL     1      -8.948 -14.507  -2.173  1.00  0.00    -0.550 OA
ATOM     24  O   UNL     1      -7.040 -14.506  -0.905  1.00  0.00    -0.550 OA
ENDBRANCH  21  22
ENDBRANCH  20  21
ENDBRANCH  19  20
ENDBRANCH  18  19
ENDBRANCH  17  18
ENDBRANCH  16  17
ENDBRANCH  15  16
ENDBRANCH  14  15
ENDBRANCH  13  14
ENDBRANCH   1  13
TORSDOF 20
ENDMDL
MODEL 8
REMARK VINA RESULT:    -6.152      1.727      3.228
REMARK INTER + INTRA:         -15.298
REMARK INTER:                 -14.320
REMARK INTRA:                  -0.978
REMARK UNBOUND:                -1.953
REMARK SMILES CCCCCCCCCCCCCCCCCCCCCC(=O)[O-]
REMARK SMILES IDX 12 1 11 2 10 3 9 4 8 5 7 6 6 7 5 8 4 9 3 10 2 11 1 12 13 13
REMARK SMILES IDX 14 14 15 15 16 16 17 17 18 18 19 19 20 20 21 21 22 22 23 23
REMARK SMILES IDX 24 24
REMARK H PARENT
REMARK Flexibility Score: inf
ROOT
ATOM      1  C   UNL     1     -12.613  -9.953  -6.533  1.00  0.00     0.000 C 
ENDROOT
BRANCH   1   2
ATOM      2  C   UNL     1     -13.778  -9.716  -7.502  1.00  0.00     0.000 C 
BRANCH   2   3
ATOM      3  C   UNL     1     -14.374  -8.313  -7.318  1.00  0.00     0.000 C 
BRANCH   3   4
ATOM      4  C   UNL     1     -15.679  -8.332  -6.494  1.00  0.00    -0.000 C 
BRANCH   4   5
ATOM      5  C   UNL     1     -16.786  -9.212  -7.103  1.00  0.00    -0.000 C 
BRANCH   5   6
ATOM      6  C   UNL     1     -17.564  -8.566  -8.264  1.00  0.00    -0.000 C 
BRANCH   6   7
ATOM      7  C   UNL     1     -17.271  -9.159  -9.655  1.00  0.00    -0.000 C 
BRANCH   7   8
ATOM      8  C   UNL     1     -18.520  -9.710 -10.376  1.00  0.00    -0.000 C 
BRANCH   8   9
ATOM      9  C   UNL     1     -18.231 -11.017 -11.132  1.00  0.00    -0.000 C 
BRANCH   9  10
ATOM     10  C   UNL     1     -19.519 -11.622 -11.701  1.00  0.00    -0.000 C 
BRANCH  10  11
ATOM     11  C   UNL     1     -19.768 -11.133 -13.133  1.00  0.00    -0.003 C 
ATOM     12  C   UNL     1     -20.892 -11.922 -13.799  1.00  0.00     0.004 C 
ENDBRANCH  10  11
ENDBRANCH   9  10
ENDBRANCH   8   9
ENDBRANCH   7   8
ENDBRANCH   6   7
ENDBRANCH   5   6
ENDBRANCH   4   5
ENDBRANCH   3   4
ENDBRANCH   2   3
ENDBRANCH   1   2
BRANCH   1  13
ATOM     13  C   UNL     1     -12.906 -11.134  -5.599  1.00  0.00     0.000 C 
BRANCH  13  14
ATOM     14  C   UNL     1     -11.723 -11.391  -4.652  1.00  0.00     0.000 C 
BRANCH  14  15
ATOM     15  C   UNL     1     -12.096 -11.216  -3.171  1.00  0.00     0.000 C 
BRANCH  15  16
ATOM     16  C   UNL     1     -11.690 -12.425  -2.311  1.00  0.00     0.000 C 
BRANCH  16  17
ATOM     17  C   UNL     1     -11.044 -12.019  -0.973  1.00  0.00     0.000 C 
BRANCH  17  18
ATOM     18  C   UNL     1      -9.705 -12.714  -0.651  1.00  0.00     0.000 C 
BRANCH  18  19
ATOM     19  C   UNL     1      -9.059 -13.472  -1.823  1.00  0.00     0.000 C 
BRANCH  19  20
ATOM     20  C   UNL     1      -8.296 -14.730  -1.374  1.00  0.00     0.006 C 
BRANCH  20  21
ATOM     21  C   UNL     1      -8.329 -15.836  -2.439  1.00  0.00     0.053 C 
BRANCH  21  22
ATOM     22  C   UNL     1      -7.894 -17.157  -1.883  1.00  0.00     0.041 C 
ATOM     23  O   UNL     1      -8.140 -17.456  -0.685  1.00  0.00    -0.550 OA
ATOM     24  O   UNL     1      -7.233 -18.071  -2.697  1.00  0.00    -0.550 OA
ENDBRANCH  21  22
ENDBRANCH  20  21
ENDBRANCH  19  20
ENDBRANCH  18  19
ENDBRANCH  17  18
ENDBRANCH  16  17
ENDBRANCH  15  16
ENDBRANCH  14  15
ENDBRANCH  13  14
ENDBRANCH   1  13
TORSDOF 20
ENDMDL
MODEL 9
REMARK VINA RESULT:    -6.127      4.678     11.280
REMARK INTER + INTRA:         -15.244
REMARK INTER:                 -13.704
REMARK INTRA:                  -1.540
REMARK UNBOUND:                -1.953
REMARK SMILES CCCCCCCCCCCCCCCCCCCCCC(=O)[O-]
REMARK SMILES IDX 12 1 11 2 10 3 9 4 8 5 7 6 6 7 5 8 4 9 3 10 2 11 1 12 13 13
REMARK SMILES IDX 14 14 15 15 16 16 17 17 18 18 19 19 20 20 21 21 22 22 23 23
REMARK SMILES IDX 24 24
REMARK H PARENT
REMARK Flexibility Score: inf
ROOT
ATOM      1  C   UNL     1     -12.489 -10.970  -4.301  1.00  0.00     0.000 C 
ENDROOT
BRANCH   1   2
ATOM      2  C   UNL     1     -11.488 -12.116  -4.114  1.00  0.00     0.000 C 
BRANCH   2   3
ATOM      3  C   UNL     1     -11.349 -12.493  -2.632  1.00  0.00     0.000 C 
BRANCH   3   4
ATOM      4  C   UNL     1     -11.737 -11.333  -1.692  1.00  0.00    -0.000 C 
BRANCH   4   5
ATOM      5  C   UNL     1     -10.928 -11.298  -0.381  1.00  0.00    -0.000 C 
BRANCH   5   6
ATOM      6  C   UNL     1      -9.987 -12.497  -0.167  1.00  0.00    -0.000 C 
BRANCH   6   7
ATOM      7  C   UNL     1      -8.484 -12.172  -0.265  1.00  0.00    -0.000 C 
BRANCH   7   8
ATOM      8  C   UNL     1      -7.636 -13.308  -0.875  1.00  0.00    -0.000 C 
BRANCH   8   9
ATOM      9  C   UNL     1      -8.498 -14.372  -1.574  1.00  0.00    -0.000 C 
BRANCH   9  10
ATOM     10  C   UNL     1      -7.942 -15.780  -1.333  1.00  0.00    -0.000 C 
BRANCH  10  11
ATOM     11  C   UNL     1      -8.200 -16.685  -2.543  1.00  0.00    -0.003 C 
ATOM     12  C   UNL     1      -6.946 -17.467  -2.926  1.00  0.00     0.004 C 
ENDBRANCH  10  11
ENDBRANCH   9  10
ENDBRANCH   8   9
ENDBRANCH   7   8
ENDBRANCH   6   7
ENDBRANCH   5   6
ENDBRANCH   4   5
ENDBRANCH   3   4
ENDBRANCH   2   3
ENDBRANCH   1   2
BRANCH   1  13
ATOM     13  C   UNL     1     -12.459 -10.441  -5.741  1.00  0.00     0.000 C 
BRANCH  13  14
ATOM     14  C   UNL     1     -13.522 -11.138  -6.604  1.00  0.00     0.000 C 
BRANCH  14  15
ATOM     15  C   UNL     1     -14.043 -10.247  -7.744  1.00  0.00     0.000 C 
BRANCH  15  16
ATOM     16  C   UNL     1     -14.629  -8.919  -7.236  1.00  0.00     0.000 C 
BRANCH  16  17
ATOM     17  C   UNL     1     -15.948  -9.103  -6.463  1.00  0.00     0.000 C 
BRANCH  17  18
ATOM     18  C   UNL     1     -17.208  -9.265  -7.338  1.00  0.00     0.000 C 
BRANCH  18  19
ATOM     19  C   UNL     1     -17.311  -8.294  -8.528  1.00  0.00     0.000 C 
BRANCH  19  20
ATOM     20  C   UNL     1     -16.844  -8.921  -9.853  1.00  0.00     0.006 C 
BRANCH  20  21
ATOM     21  C   UNL     1     -17.124 -10.430  -9.906  1.00  0.00     0.053 C 
BRANCH  21  22
ATOM     22  C   UNL     1     -18.162 -10.767 -10.933  1.00  0.00     0.041 C 
ATOM     23  O   UNL     1     -18.262 -11.942 -11.376  1.00  0.00    -0.550 OA
ATOM     24  O   UNL     1     -19.036  -9.786 -11.387  1.00  0.00    -0.550 OA
ENDBRANCH  21  22
ENDBRANCH  20  21
ENDBRANCH  19  20
ENDBRANCH  18  19
ENDBRANCH  17  18
ENDBRANCH  16  17
ENDBRANCH  15  16
ENDBRANCH  14  15
ENDBRANCH  13  14
ENDBRANCH   1  13
TORSDOF 20
ENDMDL
