MODEL 1
REMARK VINA RESULT:     7.866      0.000      0.000
REMARK INTER + INTRA:          10.971
REMARK INTER:                  10.396
REMARK INTRA:                   0.575
REMARK UNBOUND:                 0.575
REMARK SMILES CC[C@@H](C=C[C@@H](C)[C@@H]1CC[C@@H]2[C@@H]3CC=C4C[C@@H](O)CC[C@@]4(C)[C@@H]3CC[C@@]21C)C(C)C
REMARK SMILES IDX 6 1 7 2 5 3 4 4 3 5 2 6 1 7 28 8 29 9 30 10 8 11 9 12 26 13
REMARK SMILES IDX 10 14 11 15 25 16 27 17 12 18 24 19 23 20 13 21 21 22 14 23
REMARK SMILES IDX 15 24 20 25 22 26 16 27 19 28 17 29 18 30
REMARK H PARENT 18 31
REMARK Flexibility Score: inf
ROOT
ATOM      1  C   UNL     1      73.877  35.911  54.627  1.00  0.00     0.012 C 
ATOM      2  C   UNL     1      74.719  35.658  55.884  1.00  0.00     0.012 C 
ENDROOT
BRANCH   1   3
ATOM      3  C   UNL     1      72.404  35.984  55.003  1.00  0.00    -0.028 C 
ATOM      4  C   UNL     1      71.755  35.136  55.829  1.00  0.00    -0.027 C 
BRANCH   4   5
ATOM      5  C   UNL     1      72.362  33.913  56.500  1.00  0.00     0.014 C 
BRANCH   5   6
ATOM      6  C   UNL     1      72.379  32.729  55.496  1.00  0.00     0.004 C 
ATOM      7  C   UNL     1      71.513  32.952  54.251  1.00  0.00     0.004 C 
ENDBRANCH   5   6
BRANCH   5   8
ATOM      8  C   UNL     1      71.634  33.593  57.846  1.00  0.00    -0.011 C 
ATOM      9  C   UNL     1      70.307  32.846  57.618  1.00  0.00     0.008 C 
ATOM     10  C   UNL     1      72.529  32.746  58.770  1.00  0.00     0.008 C 
ENDBRANCH   5   8
ENDBRANCH   4   5
ENDBRANCH   1   3
BRANCH   1  11
ATOM     11  C   UNL     1      74.227  34.930  53.453  1.00  0.00     0.002 C 
ATOM     12  C   UNL     1      74.612  33.539  53.940  1.00  0.00     0.005 C 
ATOM     13  C   UNL     1      75.292  35.280  52.351  1.00  0.00    -0.026 C 
ATOM     14  C   UNL     1      75.052  32.809  52.689  1.00  0.00     0.005 C 
ATOM     15  C   UNL     1      75.719  33.870  51.796  1.00  0.00    -0.001 C 
ATOM     16  C   UNL     1      76.514  36.047  52.917  1.00  0.00     0.007 C 
ATOM     17  C   UNL     1      74.636  36.125  51.224  1.00  0.00     0.012 C 
ATOM     18  C   UNL     1      77.255  33.654  51.554  1.00  0.00     0.000 C 
ATOM     19  C   UNL     1      77.741  36.112  51.983  1.00  0.00     0.005 C 
ATOM     20  C   UNL     1      77.878  34.939  50.966  1.00  0.00     0.003 C 
ATOM     21  C   UNL     1      78.099  33.161  52.755  1.00  0.00     0.031 C 
ATOM     22  C   UNL     1      79.360  34.701  50.466  1.00  0.00    -0.008 C 
ATOM     23  C   UNL     1      79.572  33.124  52.438  1.00  0.00    -0.027 C 
ATOM     24  C   UNL     1      80.156  33.835  51.445  1.00  0.00    -0.065 C 
ATOM     25  C   UNL     1      79.349  33.950  49.094  1.00  0.00     0.014 C 
ATOM     26  C   UNL     1      80.073  36.071  50.258  1.00  0.00     0.016 C 
ATOM     27  C   UNL     1      81.562  33.463  51.031  1.00  0.00     0.063 C 
ATOM     28  C   UNL     1      80.747  33.481  48.623  1.00  0.00     0.033 C 
ATOM     29  C   UNL     1      81.506  32.685  49.704  1.00  0.00     0.118 C 
BRANCH  29  30
ATOM     30  O   UNL     1      80.877  31.445  49.894  1.00  0.00    -0.393 OA
ATOM     31  H   UNL     1      81.299  31.028  50.690  1.00  0.00     0.210 HD
ENDBRANCH  29  30
ENDBRANCH   1  11
TORSDOF 6
ENDMDL
