MODEL 1
REMARK VINA RESULT:    -4.265      0.000      0.000
REMARK INTER + INTRA:         -12.745
REMARK INTER:                  -9.252
REMARK INTRA:                  -3.493
REMARK UNBOUND:                -3.493
REMARK SMILES CCCCCCCCCCCCCCCCCCCCCC(=O)[O-]
REMARK SMILES IDX 12 1 11 2 10 3 9 4 8 5 7 6 6 7 5 8 4 9 3 10 2 11 1 12 13 13
REMARK SMILES IDX 14 14 15 15 16 16 17 17 18 18 19 19 20 20 21 21 22 22 23 23
REMARK SMILES IDX 24 24
REMARK H PARENT
REMARK Flexibility Score: inf
ROOT
ATOM      1  C   UNL     1       6.499  -9.198 -22.500  1.00  0.00     0.000 C 
ENDROOT
BRANCH   1   2
ATOM      2  C   UNL     1       5.872  -7.825 -22.793  1.00  0.00     0.000 C 
BRANCH   2   3
ATOM      3  C   UNL     1       5.195  -7.209 -21.559  1.00  0.00     0.000 C 
BRANCH   3   4
ATOM      4  C   UNL     1       5.454  -5.695 -21.492  1.00  0.00    -0.000 C 
BRANCH   4   5
ATOM      5  C   UNL     1       4.956  -5.064 -20.182  1.00  0.00    -0.000 C 
BRANCH   5   6
ATOM      6  C   UNL     1       4.259  -6.081 -19.262  1.00  0.00    -0.000 C 
BRANCH   6   7
ATOM      7  C   UNL     1       2.945  -5.532 -18.665  1.00  0.00    -0.000 C 
BRANCH   7   8
ATOM      8  C   UNL     1       1.769  -5.524 -19.659  1.00  0.00    -0.000 C 
BRANCH   8   9
ATOM      9  C   UNL     1       1.458  -6.888 -20.305  1.00  0.00    -0.000 C 
BRANCH   9  10
ATOM     10  C   UNL     1       1.619  -6.936 -21.839  1.00  0.00    -0.000 C 
BRANCH  10  11
ATOM     11  C   UNL     1       1.885  -5.576 -22.508  1.00  0.00    -0.003 C 
ATOM     12  C   UNL     1       2.561  -5.704 -23.873  1.00  0.00     0.004 C 
ENDBRANCH  10  11
ENDBRANCH   9  10
ENDBRANCH   8   9
ENDBRANCH   7   8
ENDBRANCH   6   7
ENDBRANCH   5   6
ENDBRANCH   4   5
ENDBRANCH   3   4
ENDBRANCH   2   3
ENDBRANCH   1   2
BRANCH   1  13
ATOM     13  C   UNL     1       6.996  -9.902 -23.773  1.00  0.00     0.000 C 
BRANCH  13  14
ATOM     14  C   UNL     1       6.317 -11.264 -24.007  1.00  0.00     0.000 C 
BRANCH  14  15
ATOM     15  C   UNL     1       5.194 -11.614 -23.010  1.00  0.00     0.000 C 
BRANCH  15  16
ATOM     16  C   UNL     1       3.766 -11.306 -23.501  1.00  0.00     0.000 C 
BRANCH  16  17
ATOM     17  C   UNL     1       2.926 -10.426 -22.555  1.00  0.00     0.000 C 
BRANCH  17  18
ATOM     18  C   UNL     1       3.396 -10.411 -21.089  1.00  0.00     0.000 C 
BRANCH  18  19
ATOM     19  C   UNL     1       2.233 -10.408 -20.087  1.00  0.00     0.000 C 
BRANCH  19  20
ATOM     20  C   UNL     1       0.943 -10.920 -20.746  1.00  0.00     0.006 C 
BRANCH  20  21
ATOM     21  C   UNL     1       0.501 -12.277 -20.180  1.00  0.00     0.053 C 
BRANCH  21  22
ATOM     22  C   UNL     1      -0.168 -12.137 -18.847  1.00  0.00     0.041 C 
ATOM     23  O   UNL     1      -0.923 -11.156 -18.615  1.00  0.00    -0.550 OA
ATOM     24  O   UNL     1       0.037 -13.095 -17.861  1.00  0.00    -0.550 OA
ENDBRANCH  21  22
ENDBRANCH  20  21
ENDBRANCH  19  20
ENDBRANCH  18  19
ENDBRANCH  17  18
ENDBRANCH  16  17
ENDBRANCH  15  16
ENDBRANCH  14  15
ENDBRANCH  13  14
ENDBRANCH   1  13
TORSDOF 20
ENDMDL
MODEL 2
REMARK VINA RESULT:    -4.231      1.605      3.288
REMARK INTER + INTRA:         -12.670
REMARK INTER:                  -9.356
REMARK INTRA:                  -3.315
REMARK UNBOUND:                -3.493
REMARK SMILES CCCCCCCCCCCCCCCCCCCCCC(=O)[O-]
REMARK SMILES IDX 12 1 11 2 10 3 9 4 8 5 7 6 6 7 5 8 4 9 3 10 2 11 1 12 13 13
REMARK SMILES IDX 14 14 15 15 16 16 17 17 18 18 19 19 20 20 21 21 22 22 23 23
REMARK SMILES IDX 24 24
REMARK H PARENT
REMARK Flexibility Score: inf
ROOT
ATOM      1  C   UNL     1       5.211  -5.620 -21.867  1.00  0.00     0.000 C 
ENDROOT
BRANCH   1   2
ATOM      2  C   UNL     1       4.894  -5.165 -20.433  1.00  0.00     0.000 C 
BRANCH   2   3
ATOM      3  C   UNL     1       4.213  -6.263 -19.601  1.00  0.00     0.000 C 
BRANCH   3   4
ATOM      4  C   UNL     1       3.476  -5.657 -18.396  1.00  0.00    -0.000 C 
BRANCH   4   5
ATOM      5  C   UNL     1       3.476  -4.120 -18.409  1.00  0.00    -0.000 C 
BRANCH   5   6
ATOM      6  C   UNL     1       2.077  -3.525 -18.170  1.00  0.00    -0.000 C 
BRANCH   6   7
ATOM      7  C   UNL     1       1.578  -2.693 -19.371  1.00  0.00    -0.000 C 
BRANCH   7   8
ATOM      8  C   UNL     1       1.810  -3.372 -20.734  1.00  0.00    -0.000 C 
BRANCH   8   9
ATOM      9  C   UNL     1       0.920  -4.599 -21.007  1.00  0.00    -0.000 C 
BRANCH   9  10
ATOM     10  C   UNL     1       1.319  -5.434 -22.241  1.00  0.00    -0.000 C 
BRANCH  10  11
ATOM     11  C   UNL     1       1.420  -6.950 -21.996  1.00  0.00    -0.003 C 
ATOM     12  C   UNL     1       0.802  -7.383 -20.668  1.00  0.00     0.004 C 
ENDBRANCH  10  11
ENDBRANCH   9  10
ENDBRANCH   8   9
ENDBRANCH   7   8
ENDBRANCH   6   7
ENDBRANCH   5   6
ENDBRANCH   4   5
ENDBRANCH   3   4
ENDBRANCH   2   3
ENDBRANCH   1   2
BRANCH   1  13
ATOM     13  C   UNL     1       5.014  -7.131 -22.061  1.00  0.00     0.000 C 
BRANCH  13  14
ATOM     14  C   UNL     1       6.264  -7.829 -22.627  1.00  0.00     0.000 C 
BRANCH  14  15
ATOM     15  C   UNL     1       6.259  -9.368 -22.521  1.00  0.00     0.000 C 
BRANCH  15  16
ATOM     16  C   UNL     1       6.895 -10.107 -23.715  1.00  0.00     0.000 C 
BRANCH  16  17
ATOM     17  C   UNL     1       6.224 -11.443 -24.089  1.00  0.00     0.000 C 
BRANCH  17  18
ATOM     18  C   UNL     1       5.139 -11.925 -23.108  1.00  0.00     0.000 C 
BRANCH  18  19
ATOM     19  C   UNL     1       3.723 -11.845 -23.696  1.00  0.00     0.000 C 
BRANCH  19  20
ATOM     20  C   UNL     1       2.949 -10.659 -23.100  1.00  0.00     0.006 C 
BRANCH  20  21
ATOM     21  C   UNL     1       1.965 -11.097 -22.007  1.00  0.00     0.053 C 
BRANCH  21  22
ATOM     22  C   UNL     1       2.400 -10.645 -20.647  1.00  0.00     0.041 C 
ATOM     23  O   UNL     1       3.491 -10.034 -20.500  1.00  0.00    -0.550 OA
ATOM     24  O   UNL     1       1.596 -10.892 -19.540  1.00  0.00    -0.550 OA
ENDBRANCH  21  22
ENDBRANCH  20  21
ENDBRANCH  19  20
ENDBRANCH  18  19
ENDBRANCH  17  18
ENDBRANCH  16  17
ENDBRANCH  15  16
ENDBRANCH  14  15
ENDBRANCH  13  14
ENDBRANCH   1  13
TORSDOF 20
ENDMDL
MODEL 3
REMARK VINA RESULT:    -4.190      3.548      6.388
REMARK INTER + INTRA:         -12.581
REMARK INTER:                  -9.773
REMARK INTRA:                  -2.808
REMARK UNBOUND:                -3.493
REMARK SMILES CCCCCCCCCCCCCCCCCCCCCC(=O)[O-]
REMARK SMILES IDX 12 1 11 2 10 3 9 4 8 5 7 6 6 7 5 8 4 9 3 10 2 11 1 12 13 13
REMARK SMILES IDX 14 14 15 15 16 16 17 17 18 18 19 19 20 20 21 21 22 22 23 23
REMARK SMILES IDX 24 24
REMARK H PARENT
REMARK Flexibility Score: inf
ROOT
ATOM      1  C   UNL     1       5.544 -11.504 -23.645  1.00  0.00     0.000 C 
ENDROOT
BRANCH   1   2
ATOM      2  C   UNL     1       5.680 -12.874 -22.959  1.00  0.00     0.000 C 
BRANCH   2   3
ATOM      3  C   UNL     1       4.747 -13.023 -21.747  1.00  0.00     0.000 C 
BRANCH   3   4
ATOM      4  C   UNL     1       3.944 -14.330 -21.832  1.00  0.00    -0.000 C 
BRANCH   4   5
ATOM      5  C   UNL     1       2.427 -14.093 -21.896  1.00  0.00    -0.000 C 
BRANCH   5   6
ATOM      6  C   UNL     1       2.066 -12.605 -22.056  1.00  0.00    -0.000 C 
BRANCH   6   7
ATOM      7  C   UNL     1       1.543 -12.274 -23.471  1.00  0.00    -0.000 C 
BRANCH   7   8
ATOM      8  C   UNL     1       2.147 -10.990 -24.068  1.00  0.00    -0.000 C 
BRANCH   8   9
ATOM      9  C   UNL     1       2.219  -9.795 -23.098  1.00  0.00    -0.000 C 
BRANCH   9  10
ATOM     10  C   UNL     1       0.938  -8.939 -23.020  1.00  0.00    -0.000 C 
BRANCH  10  11
ATOM     11  C   UNL     1       0.562  -8.459 -21.607  1.00  0.00    -0.003 C 
ATOM     12  C   UNL     1       0.381  -9.606 -20.614  1.00  0.00     0.004 C 
ENDBRANCH  10  11
ENDBRANCH   9  10
ENDBRANCH   8   9
ENDBRANCH   7   8
ENDBRANCH   6   7
ENDBRANCH   5   6
ENDBRANCH   4   5
ENDBRANCH   3   4
ENDBRANCH   2   3
ENDBRANCH   1   2
BRANCH   1  13
ATOM     13  C   UNL     1       6.905 -10.897 -24.021  1.00  0.00     0.000 C 
BRANCH  13  14
ATOM     14  C   UNL     1       7.030  -9.416 -23.623  1.00  0.00     0.000 C 
BRANCH  14  15
ATOM     15  C   UNL     1       6.177  -8.991 -22.410  1.00  0.00     0.000 C 
BRANCH  15  16
ATOM     16  C   UNL     1       5.856  -7.486 -22.333  1.00  0.00     0.000 C 
BRANCH  16  17
ATOM     17  C   UNL     1       4.449  -7.145 -21.800  1.00  0.00     0.000 C 
BRANCH  17  18
ATOM     18  C   UNL     1       4.065  -7.842 -20.482  1.00  0.00     0.000 C 
BRANCH  18  19
ATOM     19  C   UNL     1       3.186  -6.967 -19.577  1.00  0.00     0.000 C 
BRANCH  19  20
ATOM     20  C   UNL     1       4.018  -5.861 -18.910  1.00  0.00     0.006 C 
BRANCH  20  21
ATOM     21  C   UNL     1       3.472  -4.459 -19.214  1.00  0.00     0.053 C 
BRANCH  21  22
ATOM     22  C   UNL     1       4.552  -3.523 -19.665  1.00  0.00     0.041 C 
ATOM     23  O   UNL     1       4.582  -3.115 -20.856  1.00  0.00    -0.550 OA
ATOM     24  O   UNL     1       5.521  -3.095 -18.766  1.00  0.00    -0.550 OA
ENDBRANCH  21  22
ENDBRANCH  20  21
ENDBRANCH  19  20
ENDBRANCH  18  19
ENDBRANCH  17  18
ENDBRANCH  16  17
ENDBRANCH  15  16
ENDBRANCH  14  15
ENDBRANCH  13  14
ENDBRANCH   1  13
TORSDOF 20
ENDMDL
MODEL 4
REMARK VINA RESULT:    -4.186      3.121      7.301
REMARK INTER + INTRA:         -12.573
REMARK INTER:                  -9.935
REMARK INTRA:                  -2.639
REMARK UNBOUND:                -3.493
REMARK SMILES CCCCCCCCCCCCCCCCCCCCCC(=O)[O-]
REMARK SMILES IDX 12 1 11 2 10 3 9 4 8 5 7 6 6 7 5 8 4 9 3 10 2 11 1 12 13 13
REMARK SMILES IDX 14 14 15 15 16 16 17 17 18 18 19 19 20 20 21 21 22 22 23 23
REMARK SMILES IDX 24 24
REMARK H PARENT
REMARK Flexibility Score: inf
ROOT
ATOM      1  C   UNL     1       2.798  -8.835 -20.786  1.00  0.00     0.000 C 
ENDROOT
BRANCH   1   2
ATOM      2  C   UNL     1       2.324 -10.224 -20.331  1.00  0.00     0.000 C 
BRANCH   2   3
ATOM      3  C   UNL     1       1.559 -10.978 -21.431  1.00  0.00     0.000 C 
BRANCH   3   4
ATOM      4  C   UNL     1       1.631 -10.218 -22.765  1.00  0.00    -0.000 C 
BRANCH   4   5
ATOM      5  C   UNL     1       1.782 -11.153 -23.976  1.00  0.00    -0.000 C 
BRANCH   5   6
ATOM      6  C   UNL     1       2.881 -12.211 -23.774  1.00  0.00    -0.000 C 
BRANCH   6   7
ATOM      7  C   UNL     1       4.300 -11.603 -23.822  1.00  0.00    -0.000 C 
BRANCH   7   8
ATOM      8  C   UNL     1       5.124 -11.852 -22.545  1.00  0.00    -0.000 C 
BRANCH   8   9
ATOM      9  C   UNL     1       4.625 -13.018 -21.670  1.00  0.00    -0.000 C 
BRANCH   9  10
ATOM     10  C   UNL     1       5.503 -14.286 -21.709  1.00  0.00    -0.000 C 
BRANCH  10  11
ATOM     11  C   UNL     1       4.748 -15.592 -22.015  1.00  0.00    -0.003 C 
ATOM     12  C   UNL     1       3.235 -15.460 -21.848  1.00  0.00     0.004 C 
ENDBRANCH  10  11
ENDBRANCH   9  10
ENDBRANCH   8   9
ENDBRANCH   7   8
ENDBRANCH   6   7
ENDBRANCH   5   6
ENDBRANCH   4   5
ENDBRANCH   3   4
ENDBRANCH   2   3
ENDBRANCH   1   2
BRANCH   1  13
ATOM     13  C   UNL     1       4.323  -8.672 -20.688  1.00  0.00     0.000 C 
BRANCH  13  14
ATOM     14  C   UNL     1       4.977  -8.334 -22.040  1.00  0.00     0.000 C 
BRANCH  14  15
ATOM     15  C   UNL     1       4.853  -6.860 -22.475  1.00  0.00     0.000 C 
BRANCH  15  16
ATOM     16  C   UNL     1       5.631  -5.854 -21.603  1.00  0.00     0.000 C 
BRANCH  16  17
ATOM     17  C   UNL     1       4.756  -4.944 -20.718  1.00  0.00     0.000 C 
BRANCH  17  18
ATOM     18  C   UNL     1       4.609  -5.402 -19.256  1.00  0.00     0.000 C 
BRANCH  18  19
ATOM     19  C   UNL     1       4.364  -4.237 -18.286  1.00  0.00     0.000 C 
BRANCH  19  20
ATOM     20  C   UNL     1       3.163  -3.392 -18.738  1.00  0.00     0.006 C 
BRANCH  20  21
ATOM     21  C   UNL     1       1.833  -4.144 -18.589  1.00  0.00     0.053 C 
BRANCH  21  22
ATOM     22  C   UNL     1       0.690  -3.212 -18.327  1.00  0.00     0.041 C 
ATOM     23  O   UNL     1       0.819  -2.262 -17.511  1.00  0.00    -0.550 OA
ATOM     24  O   UNL     1      -0.518  -3.389 -18.992  1.00  0.00    -0.550 OA
ENDBRANCH  21  22
ENDBRANCH  20  21
ENDBRANCH  19  20
ENDBRANCH  18  19
ENDBRANCH  17  18
ENDBRANCH  16  17
ENDBRANCH  15  16
ENDBRANCH  14  15
ENDBRANCH  13  14
ENDBRANCH   1  13
TORSDOF 20
ENDMDL
MODEL 5
REMARK VINA RESULT:    -4.175      1.687      6.217
REMARK INTER + INTRA:         -12.550
REMARK INTER:                  -9.256
REMARK INTRA:                  -3.293
REMARK UNBOUND:                -3.493
REMARK SMILES CCCCCCCCCCCCCCCCCCCCCC(=O)[O-]
REMARK SMILES IDX 12 1 11 2 10 3 9 4 8 5 7 6 6 7 5 8 4 9 3 10 2 11 1 12 13 13
REMARK SMILES IDX 14 14 15 15 16 16 17 17 18 18 19 19 20 20 21 21 22 22 23 23
REMARK SMILES IDX 24 24
REMARK H PARENT
REMARK Flexibility Score: inf
ROOT
ATOM      1  C   UNL     1       4.394  -6.099 -19.264  1.00  0.00     0.000 C 
ENDROOT
BRANCH   1   2
ATOM      2  C   UNL     1       4.765  -4.965 -20.233  1.00  0.00     0.000 C 
BRANCH   2   3
ATOM      3  C   UNL     1       5.103  -5.477 -21.642  1.00  0.00     0.000 C 
BRANCH   3   4
ATOM      4  C   UNL     1       4.986  -7.008 -21.709  1.00  0.00    -0.000 C 
BRANCH   4   5
ATOM      5  C   UNL     1       6.150  -7.661 -22.472  1.00  0.00    -0.000 C 
BRANCH   5   6
ATOM      6  C   UNL     1       6.087  -9.198 -22.448  1.00  0.00    -0.000 C 
BRANCH   6   7
ATOM      7  C   UNL     1       4.690  -9.724 -22.052  1.00  0.00    -0.000 C 
BRANCH   7   8
ATOM      8  C   UNL     1       4.268 -10.994 -22.815  1.00  0.00    -0.000 C 
BRANCH   8   9
ATOM      9  C   UNL     1       5.416 -11.729 -23.534  1.00  0.00    -0.000 C 
BRANCH   9  10
ATOM     10  C   UNL     1       5.894 -13.024 -22.846  1.00  0.00    -0.000 C 
BRANCH  10  11
ATOM     11  C   UNL     1       4.993 -13.525 -21.704  1.00  0.00    -0.003 C 
ATOM     12  C   UNL     1       4.671 -15.015 -21.805  1.00  0.00     0.004 C 
ENDBRANCH  10  11
ENDBRANCH   9  10
ENDBRANCH   8   9
ENDBRANCH   7   8
ENDBRANCH   6   7
ENDBRANCH   5   6
ENDBRANCH   4   5
ENDBRANCH   3   4
ENDBRANCH   2   3
ENDBRANCH   1   2
BRANCH   1  13
ATOM     13  C   UNL     1       3.319  -5.678 -18.249  1.00  0.00     0.000 C 
BRANCH  13  14
ATOM     14  C   UNL     1       2.905  -4.202 -18.394  1.00  0.00     0.000 C 
BRANCH  14  15
ATOM     15  C   UNL     1       1.402  -3.967 -18.649  1.00  0.00     0.000 C 
BRANCH  15  16
ATOM     16  C   UNL     1       1.054  -3.434 -20.053  1.00  0.00     0.000 C 
BRANCH  16  17
ATOM     17  C   UNL     1       0.476  -4.483 -21.024  1.00  0.00     0.000 C 
BRANCH  17  18
ATOM     18  C   UNL     1       1.485  -5.065 -22.031  1.00  0.00     0.000 C 
BRANCH  18  19
ATOM     19  C   UNL     1       1.338  -6.582 -22.217  1.00  0.00     0.000 C 
BRANCH  19  20
ATOM     20  C   UNL     1       0.838  -7.245 -20.924  1.00  0.00     0.006 C 
BRANCH  20  21
ATOM     21  C   UNL     1       1.752  -8.391 -20.468  1.00  0.00     0.053 C 
BRANCH  21  22
ATOM     22  C   UNL     1       1.170  -9.733 -20.791  1.00  0.00     0.041 C 
ATOM     23  O   UNL     1       0.850 -10.018 -21.975  1.00  0.00    -0.550 OA
ATOM     24  O   UNL     1       0.989 -10.674 -19.784  1.00  0.00    -0.550 OA
ENDBRANCH  21  22
ENDBRANCH  20  21
ENDBRANCH  19  20
ENDBRANCH  18  19
ENDBRANCH  17  18
ENDBRANCH  16  17
ENDBRANCH  15  16
ENDBRANCH  14  15
ENDBRANCH  13  14
ENDBRANCH   1  13
TORSDOF 20
ENDMDL
MODEL 6
REMARK VINA RESULT:    -4.120      2.592      3.648
REMARK INTER + INTRA:         -12.429
REMARK INTER:                  -9.877
REMARK INTRA:                  -2.552
REMARK UNBOUND:                -3.493
REMARK SMILES CCCCCCCCCCCCCCCCCCCCCC(=O)[O-]
REMARK SMILES IDX 12 1 11 2 10 3 9 4 8 5 7 6 6 7 5 8 4 9 3 10 2 11 1 12 13 13
REMARK SMILES IDX 14 14 15 15 16 16 17 17 18 18 19 19 20 20 21 21 22 22 23 23
REMARK SMILES IDX 24 24
REMARK H PARENT
REMARK Flexibility Score: inf
ROOT
ATOM      1  C   UNL     1       6.007  -9.027 -22.475  1.00  0.00     0.000 C 
ENDROOT
BRANCH   1   2
ATOM      2  C   UNL     1       5.850  -7.497 -22.462  1.00  0.00     0.000 C 
BRANCH   2   3
ATOM      3  C   UNL     1       4.594  -7.039 -21.703  1.00  0.00     0.000 C 
BRANCH   3   4
ATOM      4  C   UNL     1       4.011  -8.188 -20.866  1.00  0.00    -0.000 C 
BRANCH   4   5
ATOM      5  C   UNL     1       2.704  -7.802 -20.155  1.00  0.00    -0.000 C 
BRANCH   5   6
ATOM      6  C   UNL     1       2.610  -6.294 -19.865  1.00  0.00    -0.000 C 
BRANCH   6   7
ATOM      7  C   UNL     1       3.178  -5.924 -18.478  1.00  0.00    -0.000 C 
BRANCH   7   8
ATOM      8  C   UNL     1       4.534  -5.196 -18.539  1.00  0.00    -0.000 C 
BRANCH   8   9
ATOM      9  C   UNL     1       4.466  -3.676 -18.297  1.00  0.00    -0.000 C 
BRANCH   9  10
ATOM     10  C   UNL     1       4.628  -2.806 -19.560  1.00  0.00    -0.000 C 
BRANCH  10  11
ATOM     11  C   UNL     1       3.342  -2.110 -20.041  1.00  0.00    -0.003 C 
ATOM     12  C   UNL     1       2.150  -2.353 -19.116  1.00  0.00     0.004 C 
ENDBRANCH  10  11
ENDBRANCH   9  10
ENDBRANCH   8   9
ENDBRANCH   7   8
ENDBRANCH   6   7
ENDBRANCH   5   6
ENDBRANCH   4   5
ENDBRANCH   3   4
ENDBRANCH   2   3
ENDBRANCH   1   2
BRANCH   1  13
ATOM     13  C   UNL     1       7.165  -9.491 -23.373  1.00  0.00     0.000 C 
BRANCH  13  14
ATOM     14  C   UNL     1       6.904 -10.862 -24.023  1.00  0.00     0.000 C 
BRANCH  14  15
ATOM     15  C   UNL     1       5.506 -11.456 -23.759  1.00  0.00     0.000 C 
BRANCH  15  16
ATOM     16  C   UNL     1       5.478 -12.660 -22.797  1.00  0.00     0.000 C 
BRANCH  16  17
ATOM     17  C   UNL     1       4.363 -12.620 -21.733  1.00  0.00     0.000 C 
BRANCH  17  18
ATOM     18  C   UNL     1       3.202 -11.657 -22.041  1.00  0.00     0.000 C 
BRANCH  18  19
ATOM     19  C   UNL     1       2.186 -12.243 -23.031  1.00  0.00     0.000 C 
BRANCH  19  20
ATOM     20  C   UNL     1       1.805 -11.208 -24.101  1.00  0.00     0.006 C 
BRANCH  20  21
ATOM     21  C   UNL     1       1.864  -9.770 -23.567  1.00  0.00     0.053 C 
BRANCH  21  22
ATOM     22  C   UNL     1       0.512  -9.126 -23.544  1.00  0.00     0.041 C 
ATOM     23  O   UNL     1       0.220  -8.293 -22.645  1.00  0.00    -0.550 OA
ATOM     24  O   UNL     1      -0.425  -9.439 -24.522  1.00  0.00    -0.550 OA
ENDBRANCH  21  22
ENDBRANCH  20  21
ENDBRANCH  19  20
ENDBRANCH  18  19
ENDBRANCH  17  18
ENDBRANCH  16  17
ENDBRANCH  15  16
ENDBRANCH  14  15
ENDBRANCH  13  14
ENDBRANCH   1  13
TORSDOF 20
ENDMDL
MODEL 7
REMARK VINA RESULT:    -4.058      1.903      4.145
REMARK INTER + INTRA:         -12.295
REMARK INTER:                  -8.515
REMARK INTRA:                  -3.780
REMARK UNBOUND:                -3.493
REMARK SMILES CCCCCCCCCCCCCCCCCCCCCC(=O)[O-]
REMARK SMILES IDX 12 1 11 2 10 3 9 4 8 5 7 6 6 7 5 8 4 9 3 10 2 11 1 12 13 13
REMARK SMILES IDX 14 14 15 15 16 16 17 17 18 18 19 19 20 20 21 21 22 22 23 23
REMARK SMILES IDX 24 24
REMARK H PARENT
REMARK Flexibility Score: inf
ROOT
ATOM      1  C   UNL     1       1.764  -7.013 -20.521  1.00  0.00     0.000 C 
ENDROOT
BRANCH   1   2
ATOM      2  C   UNL     1       2.231  -5.741 -19.794  1.00  0.00     0.000 C 
BRANCH   2   3
ATOM      3  C   UNL     1       3.260  -6.034 -18.690  1.00  0.00     0.000 C 
BRANCH   3   4
ATOM      4  C   UNL     1       4.590  -5.322 -18.980  1.00  0.00    -0.000 C 
BRANCH   4   5
ATOM      5  C   UNL     1       4.553  -4.495 -20.275  1.00  0.00    -0.000 C 
BRANCH   5   6
ATOM      6  C   UNL     1       5.494  -5.050 -21.359  1.00  0.00    -0.000 C 
BRANCH   6   7
ATOM      7  C   UNL     1       5.088  -4.598 -22.779  1.00  0.00    -0.000 C 
BRANCH   7   8
ATOM      8  C   UNL     1       3.861  -5.341 -23.338  1.00  0.00    -0.000 C 
BRANCH   8   9
ATOM      9  C   UNL     1       2.536  -4.559 -23.253  1.00  0.00    -0.000 C 
BRANCH   9  10
ATOM     10  C   UNL     1       1.398  -5.103 -24.141  1.00  0.00    -0.000 C 
BRANCH  10  11
ATOM     11  C   UNL     1       1.650  -6.498 -24.739  1.00  0.00    -0.003 C 
ATOM     12  C   UNL     1       0.846  -7.599 -24.048  1.00  0.00     0.004 C 
ENDBRANCH  10  11
ENDBRANCH   9  10
ENDBRANCH   8   9
ENDBRANCH   7   8
ENDBRANCH   6   7
ENDBRANCH   5   6
ENDBRANCH   4   5
ENDBRANCH   3   4
ENDBRANCH   2   3
ENDBRANCH   1   2
BRANCH   1  13
ATOM     13  C   UNL     1       2.751  -8.179 -20.356  1.00  0.00     0.000 C 
BRANCH  13  14
ATOM     14  C   UNL     1       3.588  -8.438 -21.623  1.00  0.00     0.000 C 
BRANCH  14  15
ATOM     15  C   UNL     1       5.101  -8.614 -21.382  1.00  0.00     0.000 C 
BRANCH  15  16
ATOM     16  C   UNL     1       5.998  -8.271 -22.588  1.00  0.00     0.000 C 
BRANCH  16  17
ATOM     17  C   UNL     1       7.082  -9.318 -22.914  1.00  0.00     0.000 C 
BRANCH  17  18
ATOM     18  C   UNL     1       6.724 -10.296 -24.047  1.00  0.00     0.000 C 
BRANCH  18  19
ATOM     19  C   UNL     1       6.170 -11.632 -23.531  1.00  0.00     0.000 C 
BRANCH  19  20
ATOM     20  C   UNL     1       4.633 -11.621 -23.523  1.00  0.00     0.006 C 
BRANCH  20  21
ATOM     21  C   UNL     1       4.055 -12.164 -22.209  1.00  0.00     0.053 C 
BRANCH  21  22
ATOM     22  C   UNL     1       2.565 -12.014 -22.149  1.00  0.00     0.041 C 
ATOM     23  O   UNL     1       1.864 -12.223 -23.173  1.00  0.00    -0.550 OA
ATOM     24  O   UNL     1       1.951 -11.650 -20.956  1.00  0.00    -0.550 OA
ENDBRANCH  21  22
ENDBRANCH  20  21
ENDBRANCH  19  20
ENDBRANCH  18  19
ENDBRANCH  17  18
ENDBRANCH  16  17
ENDBRANCH  15  16
ENDBRANCH  14  15
ENDBRANCH  13  14
ENDBRANCH   1  13
TORSDOF 20
ENDMDL
MODEL 8
REMARK VINA RESULT:    -4.010      2.665      4.008
REMARK INTER + INTRA:         -12.191
REMARK INTER:                  -8.978
REMARK INTRA:                  -3.213
REMARK UNBOUND:                -3.493
REMARK SMILES CCCCCCCCCCCCCCCCCCCCCC(=O)[O-]
REMARK SMILES IDX 12 1 11 2 10 3 9 4 8 5 7 6 6 7 5 8 4 9 3 10 2 11 1 12 13 13
REMARK SMILES IDX 14 14 15 15 16 16 17 17 18 18 19 19 20 20 21 21 22 22 23 23
REMARK SMILES IDX 24 24
REMARK H PARENT
REMARK Flexibility Score: inf
ROOT
ATOM      1  C   UNL     1       5.175  -8.352 -22.026  1.00  0.00     0.000 C 
ENDROOT
BRANCH   1   2
ATOM      2  C   UNL     1       5.631  -6.916 -22.334  1.00  0.00     0.000 C 
BRANCH   2   3
ATOM      3  C   UNL     1       4.492  -6.037 -22.875  1.00  0.00     0.000 C 
BRANCH   3   4
ATOM      4  C   UNL     1       5.051  -4.778 -23.557  1.00  0.00    -0.000 C 
BRANCH   4   5
ATOM      5  C   UNL     1       5.099  -3.563 -22.616  1.00  0.00    -0.000 C 
BRANCH   5   6
ATOM      6  C   UNL     1       4.055  -3.645 -21.488  1.00  0.00    -0.000 C 
BRANCH   6   7
ATOM      7  C   UNL     1       4.699  -3.625 -20.085  1.00  0.00    -0.000 C 
BRANCH   7   8
ATOM      8  C   UNL     1       4.666  -4.988 -19.370  1.00  0.00    -0.000 C 
BRANCH   8   9
ATOM      9  C   UNL     1       3.366  -5.284 -18.598  1.00  0.00    -0.000 C 
BRANCH   9  10
ATOM     10  C   UNL     1       2.232  -5.902 -19.443  1.00  0.00    -0.000 C 
BRANCH  10  11
ATOM     11  C   UNL     1       1.095  -4.933 -19.813  1.00  0.00    -0.003 C 
ATOM     12  C   UNL     1       1.081  -3.671 -18.951  1.00  0.00     0.004 C 
ENDBRANCH  10  11
ENDBRANCH   9  10
ENDBRANCH   8   9
ENDBRANCH   7   8
ENDBRANCH   6   7
ENDBRANCH   5   6
ENDBRANCH   4   5
ENDBRANCH   3   4
ENDBRANCH   2   3
ENDBRANCH   1   2
BRANCH   1  13
ATOM     13  C   UNL     1       4.487  -8.470 -20.657  1.00  0.00     0.000 C 
BRANCH  13  14
ATOM     14  C   UNL     1       3.138  -9.209 -20.727  1.00  0.00     0.000 C 
BRANCH  14  15
ATOM     15  C   UNL     1       2.217  -8.780 -21.887  1.00  0.00     0.000 C 
BRANCH  15  16
ATOM     16  C   UNL     1       1.305  -9.892 -22.441  1.00  0.00     0.000 C 
BRANCH  16  17
ATOM     17  C   UNL     1       1.763 -10.506 -23.780  1.00  0.00     0.000 C 
BRANCH  17  18
ATOM     18  C   UNL     1       2.376 -11.914 -23.675  1.00  0.00     0.000 C 
BRANCH  18  19
ATOM     19  C   UNL     1       3.856 -11.954 -24.082  1.00  0.00     0.000 C 
BRANCH  19  20
ATOM     20  C   UNL     1       4.765 -11.785 -22.855  1.00  0.00     0.006 C 
BRANCH  20  21
ATOM     21  C   UNL     1       4.304 -12.639 -21.667  1.00  0.00     0.053 C 
BRANCH  21  22
ATOM     22  C   UNL     1       4.796 -14.051 -21.767  1.00  0.00     0.041 C 
ATOM     23  O   UNL     1       6.021 -14.307 -21.630  1.00  0.00    -0.550 OA
ATOM     24  O   UNL     1       3.899 -15.085 -22.003  1.00  0.00    -0.550 OA
ENDBRANCH  21  22
ENDBRANCH  20  21
ENDBRANCH  19  20
ENDBRANCH  18  19
ENDBRANCH  17  18
ENDBRANCH  16  17
ENDBRANCH  15  16
ENDBRANCH  14  15
ENDBRANCH  13  14
ENDBRANCH   1  13
TORSDOF 20
ENDMDL
MODEL 9
REMARK VINA RESULT:    -3.986      1.430      2.591
REMARK INTER + INTRA:         -12.139
REMARK INTER:                  -8.044
REMARK INTRA:                  -4.094
REMARK UNBOUND:                -3.493
REMARK SMILES CCCCCCCCCCCCCCCCCCCCCC(=O)[O-]
REMARK SMILES IDX 12 1 11 2 10 3 9 4 8 5 7 6 6 7 5 8 4 9 3 10 2 11 1 12 13 13
REMARK SMILES IDX 14 14 15 15 16 16 17 17 18 18 19 19 20 20 21 21 22 22 23 23
REMARK SMILES IDX 24 24
REMARK H PARENT
REMARK Flexibility Score: inf
ROOT
ATOM      1  C   UNL     1       5.699  -8.627 -22.463  1.00  0.00     0.000 C 
ENDROOT
BRANCH   1   2
ATOM      2  C   UNL     1       5.005  -8.942 -21.128  1.00  0.00     0.000 C 
BRANCH   2   3
ATOM      3  C   UNL     1       3.472  -8.927 -21.239  1.00  0.00     0.000 C 
BRANCH   3   4
ATOM      4  C   UNL     1       3.014  -7.950 -22.333  1.00  0.00    -0.000 C 
BRANCH   4   5
ATOM      5  C   UNL     1       1.730  -7.194 -21.955  1.00  0.00    -0.000 C 
BRANCH   5   6
ATOM      6  C   UNL     1       1.468  -7.192 -20.439  1.00  0.00    -0.000 C 
BRANCH   6   7
ATOM      7  C   UNL     1       1.956  -5.894 -19.758  1.00  0.00    -0.000 C 
BRANCH   7   8
ATOM      8  C   UNL     1       3.234  -6.078 -18.921  1.00  0.00    -0.000 C 
BRANCH   8   9
ATOM      9  C   UNL     1       4.375  -5.098 -19.256  1.00  0.00    -0.000 C 
BRANCH   9  10
ATOM     10  C   UNL     1       5.112  -5.382 -20.581  1.00  0.00    -0.000 C 
BRANCH  10  11
ATOM     11  C   UNL     1       4.673  -4.507 -21.769  1.00  0.00    -0.003 C 
ATOM     12  C   UNL     1       5.119  -5.065 -23.120  1.00  0.00     0.004 C 
ENDBRANCH  10  11
ENDBRANCH   9  10
ENDBRANCH   8   9
ENDBRANCH   7   8
ENDBRANCH   6   7
ENDBRANCH   5   6
ENDBRANCH   4   5
ENDBRANCH   3   4
ENDBRANCH   2   3
ENDBRANCH   1   2
BRANCH   1  13
ATOM     13  C   UNL     1       6.652  -9.747 -22.910  1.00  0.00     0.000 C 
BRANCH  13  14
ATOM     14  C   UNL     1       5.946 -10.839 -23.735  1.00  0.00     0.000 C 
BRANCH  14  15
ATOM     15  C   UNL     1       5.481 -12.068 -22.930  1.00  0.00     0.000 C 
BRANCH  15  16
ATOM     16  C   UNL     1       3.954 -12.277 -22.881  1.00  0.00     0.000 C 
BRANCH  16  17
ATOM     17  C   UNL     1       3.158 -11.529 -23.970  1.00  0.00     0.000 C 
BRANCH  17  18
ATOM     18  C   UNL     1       1.642 -11.795 -23.966  1.00  0.00     0.000 C 
BRANCH  18  19
ATOM     19  C   UNL     1       0.824 -10.591 -23.477  1.00  0.00     0.000 C 
BRANCH  19  20
ATOM     20  C   UNL     1      -0.012 -10.963 -22.243  1.00  0.00     0.006 C 
BRANCH  20  21
ATOM     21  C   UNL     1       0.863 -11.337 -21.039  1.00  0.00     0.053 C 
BRANCH  21  22
ATOM     22  C   UNL     1       0.535 -12.700 -20.511  1.00  0.00     0.041 C 
ATOM     23  O   UNL     1      -0.228 -12.830 -19.518  1.00  0.00    -0.550 OA
ATOM     24  O   UNL     1       1.066 -13.830 -21.123  1.00  0.00    -0.550 OA
ENDBRANCH  21  22
ENDBRANCH  20  21
ENDBRANCH  19  20
ENDBRANCH  18  19
ENDBRANCH  17  18
ENDBRANCH  16  17
ENDBRANCH  15  16
ENDBRANCH  14  15
ENDBRANCH  13  14
ENDBRANCH   1  13
TORSDOF 20
ENDMDL
