MODEL 1
REMARK VINA RESULT:    -7.076      0.000      0.000
REMARK INTER + INTRA:         -11.888
REMARK INTER:                 -10.385
REMARK INTRA:                  -1.503
REMARK UNBOUND:                -1.503
REMARK SMILES O=c1c(O[C@@H]2O[C@H](CO)[C@@H](O)[C@@H](O)[C@H]2O)c(-c2ccc(O)c(O)c2)oc2cc(O)cc(O)c12
REMARK SMILES IDX 4 1 3 2 16 3 25 4 2 5 26 6 1 7 33 8 27 9 31 10 28 11 30 12
REMARK SMILES IDX 17 13 18 14 19 15 20 16 24 17 22 18 21 19 23 21 32 23 29 25
REMARK SMILES IDX 5 27 14 28 6 29 12 30 7 31 10 32 15 33 13 35 8 37 9 38 11 40
REMARK H PARENT 21 20 23 22 32 24 29 26 15 34 13 36 9 39 11 41
REMARK Flexibility Score: inf
ROOT
ATOM      1  O   UNL     1      55.095   5.344  79.916  1.00  0.00    -0.454 OA
ENDROOT
BRANCH   1   2
ATOM      2  C   UNL     1      54.753   6.298  78.949  1.00  0.00     0.214 A 
ATOM      3  C   UNL     1      53.602   6.133  78.165  1.00  0.00     0.180 A 
ATOM      4  O   UNL     1      53.312   7.015  77.216  1.00  0.00    -0.452 OA
ATOM      5  C   UNL     1      55.541   7.439  78.770  1.00  0.00     0.239 A 
ATOM      6  C   UNL     1      54.070   8.075  76.957  1.00  0.00     0.146 A 
ATOM      7  O   UNL     1      56.471   7.659  79.587  1.00  0.00    -0.285 OA
ATOM      8  C   UNL     1      55.250   8.331  77.709  1.00  0.00     0.111 A 
ATOM      9  C   UNL     1      53.670   8.953  75.945  1.00  0.00     0.094 A 
ATOM     10  C   UNL     1      56.037   9.471  77.374  1.00  0.00     0.134 A 
ATOM     11  C   UNL     1      54.427  10.088  75.657  1.00  0.00     0.123 A 
ATOM     12  C   UNL     1      55.602  10.339  76.367  1.00  0.00     0.093 A 
BRANCH   3  13
ATOM     13  C   UNL     1      52.682   5.011  78.399  1.00  0.00     0.025 A 
ATOM     14  C   UNL     1      52.782   3.844  77.629  1.00  0.00     0.016 A 
ATOM     15  C   UNL     1      51.892   2.789  77.846  1.00  0.00     0.051 A 
ATOM     16  C   UNL     1      50.894   2.889  78.825  1.00  0.00     0.157 A 
ATOM     17  C   UNL     1      51.696   5.110  79.387  1.00  0.00     0.062 A 
ATOM     18  C   UNL     1      50.792   4.059  79.598  1.00  0.00     0.158 A 
BRANCH  16  19
ATOM     19  O   UNL     1      50.017   1.823  79.014  1.00  0.00    -0.504 OA
ATOM     20  H   UNL     1      49.747   1.507  79.939  1.00  0.00     0.293 HD
ENDBRANCH  16  19
BRANCH  18  21
ATOM     21  O   UNL     1      49.790   4.179  80.562  1.00  0.00    -0.504 OA
ATOM     22  H   UNL     1      49.689   5.020  81.123  1.00  0.00     0.293 HD
ENDBRANCH  18  21
ENDBRANCH   3  13
BRANCH  10  23
ATOM     23  O   UNL     1      57.254   9.777  77.982  1.00  0.00    -0.507 OA
ATOM     24  H   UNL     1      57.701  10.682  77.942  1.00  0.00     0.293 HD
ENDBRANCH  10  23
BRANCH  11  25
ATOM     25  O   UNL     1      54.030  10.972  74.654  1.00  0.00    -0.508 OA
ATOM     26  H   UNL     1      54.442  10.942  73.727  1.00  0.00     0.293 HD
ENDBRANCH  11  25
ENDBRANCH   1   2
BRANCH   1  27
ATOM     27  C   UNL     1      54.699   5.492  81.285  1.00  0.00     0.339 C 
ATOM     28  C   UNL     1      53.865   4.285  81.758  1.00  0.00     0.214 C 
ATOM     29  O   UNL     1      55.822   5.734  82.121  1.00  0.00    -0.332 OA
ATOM     30  C   UNL     1      54.760   3.036  81.857  1.00  0.00     0.180 C 
ATOM     31  C   UNL     1      56.724   4.635  82.229  1.00  0.00     0.179 C 
ATOM     32  C   UNL     1      56.039   3.315  82.678  1.00  0.00     0.177 C 
BRANCH  28  33
ATOM     33  O   UNL     1      53.264   4.580  82.994  1.00  0.00    -0.384 OA
ATOM     34  H   UNL     1      52.325   4.840  82.807  1.00  0.00     0.211 HD
ENDBRANCH  28  33
BRANCH  30  35
ATOM     35  O   UNL     1      54.048   1.925  82.347  1.00  0.00    -0.387 OA
ATOM     36  H   UNL     1      53.405   2.241  83.035  1.00  0.00     0.211 HD
ENDBRANCH  30  35
BRANCH  31  37
ATOM     37  C   UNL     1      57.608   4.455  80.979  1.00  0.00     0.191 C 
BRANCH  37  38
ATOM     38  O   UNL     1      58.137   5.696  80.587  1.00  0.00    -0.394 OA
ATOM     39  H   UNL     1      59.058   5.761  80.949  1.00  0.00     0.210 HD
ENDBRANCH  37  38
ENDBRANCH  31  37
BRANCH  32  40
ATOM     40  O   UNL     1      55.777   3.329  84.063  1.00  0.00    -0.387 OA
ATOM     41  H   UNL     1      55.836   4.267  84.385  1.00  0.00     0.211 HD
ENDBRANCH  32  40
ENDBRANCH   1  27
TORSDOF 12
ENDMDL
MODEL 2
REMARK VINA RESULT:    -6.993      2.406      5.895
REMARK INTER + INTRA:         -11.767
REMARK INTER:                 -10.788
REMARK INTRA:                  -0.978
REMARK UNBOUND:                -1.503
REMARK SMILES O=c1c(O[C@@H]2O[C@H](CO)[C@@H](O)[C@@H](O)[C@H]2O)c(-c2ccc(O)c(O)c2)oc2cc(O)cc(O)c12
REMARK SMILES IDX 4 1 3 2 16 3 25 4 2 5 26 6 1 7 33 8 27 9 31 10 28 11 30 12
REMARK SMILES IDX 17 13 18 14 19 15 20 16 24 17 22 18 21 19 23 21 32 23 29 25
REMARK SMILES IDX 5 27 14 28 6 29 12 30 7 31 10 32 15 33 13 35 8 37 9 38 11 40
REMARK H PARENT 21 20 23 22 32 24 29 26 15 34 13 36 9 39 11 41
REMARK Flexibility Score: inf
ROOT
ATOM      1  O   UNL     1      54.991   5.878  81.859  1.00  0.00    -0.454 OA
ENDROOT
BRANCH   1   2
ATOM      2  C   UNL     1      54.242   5.323  80.814  1.00  0.00     0.214 A 
ATOM      3  C   UNL     1      54.729   5.350  79.499  1.00  0.00     0.180 A 
ATOM      4  O   UNL     1      53.989   4.868  78.506  1.00  0.00    -0.452 OA
ATOM      5  C   UNL     1      53.010   4.714  81.072  1.00  0.00     0.239 A 
ATOM      6  C   UNL     1      52.781   4.348  78.691  1.00  0.00     0.146 A 
ATOM      7  O   UNL     1      52.662   4.548  82.269  1.00  0.00    -0.285 OA
ATOM      8  C   UNL     1      52.210   4.268  79.991  1.00  0.00     0.111 A 
ATOM      9  C   UNL     1      52.089   3.854  77.581  1.00  0.00     0.094 A 
ATOM     10  C   UNL     1      50.901   3.720  80.128  1.00  0.00     0.134 A 
ATOM     11  C   UNL     1      50.827   3.281  77.735  1.00  0.00     0.123 A 
ATOM     12  C   UNL     1      50.241   3.220  79.001  1.00  0.00     0.093 A 
BRANCH   3  13
ATOM     13  C   UNL     1      56.069   5.873  79.199  1.00  0.00     0.025 A 
ATOM     14  C   UNL     1      57.084   5.008  78.765  1.00  0.00     0.016 A 
ATOM     15  C   UNL     1      58.359   5.512  78.498  1.00  0.00     0.051 A 
ATOM     16  C   UNL     1      58.636   6.875  78.667  1.00  0.00     0.157 A 
ATOM     17  C   UNL     1      56.336   7.238  79.355  1.00  0.00     0.062 A 
ATOM     18  C   UNL     1      57.619   7.744  79.102  1.00  0.00     0.158 A 
BRANCH  16  19
ATOM     19  O   UNL     1      59.920   7.347  78.400  1.00  0.00    -0.504 OA
ATOM     20  H   UNL     1      60.343   8.090  78.945  1.00  0.00     0.293 HD
ENDBRANCH  16  19
BRANCH  18  21
ATOM     21  O   UNL     1      57.887   9.101  79.292  1.00  0.00    -0.504 OA
ATOM     22  H   UNL     1      57.150   9.798  79.262  1.00  0.00     0.293 HD
ENDBRANCH  18  21
ENDBRANCH   3  13
BRANCH  10  23
ATOM     23  O   UNL     1      50.207   3.667  81.336  1.00  0.00    -0.507 OA
ATOM     24  H   UNL     1      50.130   4.436  81.985  1.00  0.00     0.293 HD
ENDBRANCH  10  23
BRANCH  11  25
ATOM     25  O   UNL     1      50.133   2.779  76.634  1.00  0.00    -0.508 OA
ATOM     26  H   UNL     1      50.034   3.318  75.780  1.00  0.00     0.293 HD
ENDBRANCH  11  25
ENDBRANCH   1   2
BRANCH   1  27
ATOM     27  C   UNL     1      55.512   5.066  82.919  1.00  0.00     0.339 C 
ATOM     28  C   UNL     1      56.575   4.080  82.395  1.00  0.00     0.214 C 
ATOM     29  O   UNL     1      55.996   5.866  83.988  1.00  0.00    -0.332 OA
ATOM     30  C   UNL     1      57.843   4.849  81.979  1.00  0.00     0.180 C 
ATOM     31  C   UNL     1      57.148   6.643  83.667  1.00  0.00     0.179 C 
ATOM     32  C   UNL     1      58.323   5.802  83.097  1.00  0.00     0.177 C 
BRANCH  28  33
ATOM     33  O   UNL     1      56.860   3.122  83.384  1.00  0.00    -0.384 OA
ATOM     34  H   UNL     1      56.463   2.265  83.082  1.00  0.00     0.211 HD
ENDBRANCH  28  33
BRANCH  30  35
ATOM     35  O   UNL     1      58.863   3.976  81.555  1.00  0.00    -0.387 OA
ATOM     36  H   UNL     1      59.691   4.188  82.061  1.00  0.00     0.211 HD
ENDBRANCH  30  35
BRANCH  31  37
ATOM     37  C   UNL     1      56.821   7.877  82.803  1.00  0.00     0.191 C 
BRANCH  37  38
ATOM     38  O   UNL     1      58.012   8.477  82.360  1.00  0.00    -0.394 OA
ATOM     39  H   UNL     1      58.092   9.359  82.806  1.00  0.00     0.210 HD
ENDBRANCH  37  38
ENDBRANCH  31  37
BRANCH  32  40
ATOM     40  O   UNL     1      58.991   5.107  84.125  1.00  0.00    -0.387 OA
ATOM     41  H   UNL     1      59.862   5.553  84.291  1.00  0.00     0.211 HD
ENDBRANCH  32  40
ENDBRANCH   1  27
TORSDOF 12
ENDMDL
MODEL 3
REMARK VINA RESULT:    -6.689      0.925      2.195
REMARK INTER + INTRA:         -11.320
REMARK INTER:                 -10.008
REMARK INTRA:                  -1.312
REMARK UNBOUND:                -1.503
REMARK SMILES O=c1c(O[C@@H]2O[C@H](CO)[C@@H](O)[C@@H](O)[C@H]2O)c(-c2ccc(O)c(O)c2)oc2cc(O)cc(O)c12
REMARK SMILES IDX 4 1 3 2 16 3 25 4 2 5 26 6 1 7 33 8 27 9 31 10 28 11 30 12
REMARK SMILES IDX 17 13 18 14 19 15 20 16 24 17 22 18 21 19 23 21 32 23 29 25
REMARK SMILES IDX 5 27 14 28 6 29 12 30 7 31 10 32 15 33 13 35 8 37 9 38 11 40
REMARK H PARENT 21 20 23 22 32 24 29 26 15 34 13 36 9 39 11 41
REMARK Flexibility Score: inf
ROOT
ATOM      1  O   UNL     1      54.625   5.915  80.574  1.00  0.00    -0.454 OA
ENDROOT
BRANCH   1   2
ATOM      2  C   UNL     1      54.426   6.741  79.460  1.00  0.00     0.214 A 
ATOM      3  C   UNL     1      53.468   6.408  78.492  1.00  0.00     0.180 A 
ATOM      4  O   UNL     1      53.321   7.168  77.413  1.00  0.00    -0.452 OA
ATOM      5  C   UNL     1      55.163   7.919  79.312  1.00  0.00     0.239 A 
ATOM      6  C   UNL     1      54.050   8.257  77.190  1.00  0.00     0.146 A 
ATOM      7  O   UNL     1      55.896   8.291  80.264  1.00  0.00    -0.285 OA
ATOM      8  C   UNL     1      55.038   8.678  78.122  1.00  0.00     0.111 A 
ATOM      9  C   UNL     1      53.808   8.998  76.030  1.00  0.00     0.094 A 
ATOM     10  C   UNL     1      55.806   9.841  77.822  1.00  0.00     0.134 A 
ATOM     11  C   UNL     1      54.537  10.157  75.769  1.00  0.00     0.123 A 
ATOM     12  C   UNL     1      55.529  10.570  76.661  1.00  0.00     0.093 A 
BRANCH   3  13
ATOM     13  C   UNL     1      52.589   5.243  78.666  1.00  0.00     0.025 A 
ATOM     14  C   UNL     1      52.696   4.143  77.802  1.00  0.00     0.016 A 
ATOM     15  C   UNL     1      51.846   3.047  77.965  1.00  0.00     0.051 A 
ATOM     16  C   UNL     1      50.880   3.039  78.980  1.00  0.00     0.157 A 
ATOM     17  C   UNL     1      51.636   5.233  79.690  1.00  0.00     0.062 A 
ATOM     18  C   UNL     1      50.772   4.141  79.847  1.00  0.00     0.158 A 
BRANCH  16  19
ATOM     19  O   UNL     1      50.041   1.934  79.113  1.00  0.00    -0.504 OA
ATOM     20  H   UNL     1      49.177   1.849  78.589  1.00  0.00     0.293 HD
ENDBRANCH  16  19
BRANCH  18  21
ATOM     21  O   UNL     1      49.801   4.153  80.850  1.00  0.00    -0.504 OA
ATOM     22  H   UNL     1      49.987   4.552  81.766  1.00  0.00     0.293 HD
ENDBRANCH  18  21
ENDBRANCH   3  13
BRANCH  10  23
ATOM     23  O   UNL     1      56.855  10.302  78.617  1.00  0.00    -0.507 OA
ATOM     24  H   UNL     1      56.738  10.871  79.443  1.00  0.00     0.293 HD
ENDBRANCH  10  23
BRANCH  11  25
ATOM     25  O   UNL     1      54.297  10.906  74.617  1.00  0.00    -0.508 OA
ATOM     26  H   UNL     1      54.987  10.976  73.877  1.00  0.00     0.293 HD
ENDBRANCH  11  25
ENDBRANCH   1   2
BRANCH   1  27
ATOM     27  C   UNL     1      55.602   4.867  80.564  1.00  0.00     0.339 C 
ATOM     28  C   UNL     1      56.845   5.257  81.387  1.00  0.00     0.214 C 
ATOM     29  O   UNL     1      55.038   3.634  80.986  1.00  0.00    -0.332 OA
ATOM     30  C   UNL     1      56.491   5.297  82.885  1.00  0.00     0.180 C 
ATOM     31  C   UNL     1      54.643   3.607  82.356  1.00  0.00     0.179 C 
ATOM     32  C   UNL     1      55.782   4.000  83.336  1.00  0.00     0.177 C 
BRANCH  28  33
ATOM     33  O   UNL     1      57.886   4.345  81.133  1.00  0.00    -0.384 OA
ATOM     34  H   UNL     1      57.631   3.487  81.560  1.00  0.00     0.211 HD
ENDBRANCH  28  33
BRANCH  30  35
ATOM     35  O   UNL     1      57.618   5.586  83.677  1.00  0.00    -0.387 OA
ATOM     36  H   UNL     1      58.305   6.016  83.103  1.00  0.00     0.211 HD
ENDBRANCH  30  35
BRANCH  31  37
ATOM     37  C   UNL     1      53.333   4.375  82.622  1.00  0.00     0.191 C 
BRANCH  37  38
ATOM     38  O   UNL     1      52.271   3.467  82.774  1.00  0.00    -0.394 OA
ATOM     39  H   UNL     1      52.657   2.555  82.830  1.00  0.00     0.210 HD
ENDBRANCH  37  38
ENDBRANCH  31  37
BRANCH  32  40
ATOM     40  O   UNL     1      56.693   2.938  83.504  1.00  0.00    -0.387 OA
ATOM     41  H   UNL     1      57.033   2.672  82.609  1.00  0.00     0.211 HD
ENDBRANCH  32  40
ENDBRANCH   1  27
TORSDOF 12
ENDMDL
MODEL 4
REMARK VINA RESULT:    -6.282      2.221      3.051
REMARK INTER + INTRA:         -10.723
REMARK INTER:                  -9.516
REMARK INTRA:                  -1.207
REMARK UNBOUND:                -1.503
REMARK SMILES O=c1c(O[C@@H]2O[C@H](CO)[C@@H](O)[C@@H](O)[C@H]2O)c(-c2ccc(O)c(O)c2)oc2cc(O)cc(O)c12
REMARK SMILES IDX 4 1 3 2 16 3 25 4 2 5 26 6 1 7 33 8 27 9 31 10 28 11 30 12
REMARK SMILES IDX 17 13 18 14 19 15 20 16 24 17 22 18 21 19 23 21 32 23 29 25
REMARK SMILES IDX 5 27 14 28 6 29 12 30 7 31 10 32 15 33 13 35 8 37 9 38 11 40
REMARK H PARENT 21 20 23 22 32 24 29 26 15 34 13 36 9 39 11 41
REMARK Flexibility Score: inf
ROOT
ATOM      1  O   UNL     1      55.934   5.354  81.308  1.00  0.00    -0.454 OA
ENDROOT
BRANCH   1   2
ATOM      2  C   UNL     1      56.351   6.289  80.352  1.00  0.00     0.214 A 
ATOM      3  C   UNL     1      55.851   6.237  79.043  1.00  0.00     0.180 A 
ATOM      4  O   UNL     1      56.291   7.095  78.129  1.00  0.00    -0.452 OA
ATOM      5  C   UNL     1      57.252   7.301  80.697  1.00  0.00     0.239 A 
ATOM      6  C   UNL     1      57.202   8.026  78.389  1.00  0.00     0.146 A 
ATOM      7  O   UNL     1      57.563   7.438  81.908  1.00  0.00    -0.285 OA
ATOM      8  C   UNL     1      57.757   8.162  79.692  1.00  0.00     0.111 A 
ATOM      9  C   UNL     1      57.587   8.891  77.362  1.00  0.00     0.094 A 
ATOM     10  C   UNL     1      58.747   9.164  79.910  1.00  0.00     0.134 A 
ATOM     11  C   UNL     1      58.525   9.895  77.599  1.00  0.00     0.123 A 
ATOM     12  C   UNL     1      59.099  10.024  78.865  1.00  0.00     0.093 A 
BRANCH   3  13
ATOM     13  C   UNL     1      54.815   5.265  78.667  1.00  0.00     0.025 A 
ATOM     14  C   UNL     1      53.487   5.680  78.497  1.00  0.00     0.016 A 
ATOM     15  C   UNL     1      52.506   4.746  78.155  1.00  0.00     0.051 A 
ATOM     16  C   UNL     1      52.836   3.394  77.988  1.00  0.00     0.157 A 
ATOM     17  C   UNL     1      55.153   3.919  78.486  1.00  0.00     0.062 A 
ATOM     18  C   UNL     1      54.168   2.977  78.157  1.00  0.00     0.158 A 
BRANCH  16  19
ATOM     19  O   UNL     1      51.834   2.485  77.654  1.00  0.00    -0.504 OA
ATOM     20  H   UNL     1      51.188   2.654  76.891  1.00  0.00     0.293 HD
ENDBRANCH  16  19
BRANCH  18  21
ATOM     21  O   UNL     1      54.507   1.630  78.012  1.00  0.00    -0.504 OA
ATOM     22  H   UNL     1      55.472   1.332  77.912  1.00  0.00     0.293 HD
ENDBRANCH  18  21
ENDBRANCH   3  13
BRANCH  10  23
ATOM     23  O   UNL     1      59.421   9.337  81.119  1.00  0.00    -0.507 OA
ATOM     24  H   UNL     1      59.825   8.586  81.659  1.00  0.00     0.293 HD
ENDBRANCH  10  23
BRANCH  11  25
ATOM     25  O   UNL     1      58.909  10.767  76.580  1.00  0.00    -0.508 OA
ATOM     26  H   UNL     1      58.225  11.212  75.978  1.00  0.00     0.293 HD
ENDBRANCH  11  25
ENDBRANCH   1   2
BRANCH   1  27
ATOM     27  C   UNL     1      54.845   5.629  82.198  1.00  0.00     0.339 C 
ATOM     28  C   UNL     1      53.533   5.006  81.681  1.00  0.00     0.214 C 
ATOM     29  O   UNL     1      55.150   5.224  83.524  1.00  0.00    -0.332 OA
ATOM     30  C   UNL     1      53.603   3.471  81.788  1.00  0.00     0.180 C 
ATOM     31  C   UNL     1      55.275   3.814  83.695  1.00  0.00     0.179 C 
ATOM     32  C   UNL     1      54.036   3.019  83.200  1.00  0.00     0.177 C 
BRANCH  28  33
ATOM     33  O   UNL     1      52.446   5.518  82.411  1.00  0.00    -0.384 OA
ATOM     34  H   UNL     1      52.813   6.175  83.057  1.00  0.00     0.211 HD
ENDBRANCH  28  33
BRANCH  30  35
ATOM     35  O   UNL     1      52.398   2.867  81.385  1.00  0.00    -0.387 OA
ATOM     36  H   UNL     1      52.405   2.775  80.396  1.00  0.00     0.211 HD
ENDBRANCH  30  35
BRANCH  31  37
ATOM     37  C   UNL     1      56.603   3.255  83.147  1.00  0.00     0.191 C 
BRANCH  37  38
ATOM     38  O   UNL     1      57.674   4.047  83.594  1.00  0.00    -0.394 OA
ATOM     39  H   UNL     1      57.778   4.803  82.960  1.00  0.00     0.210 HD
ENDBRANCH  37  38
ENDBRANCH  31  37
BRANCH  32  40
ATOM     40  O   UNL     1      52.977   3.109  84.125  1.00  0.00    -0.387 OA
ATOM     41  H   UNL     1      52.939   2.262  84.643  1.00  0.00     0.211 HD
ENDBRANCH  32  40
ENDBRANCH   1  27
TORSDOF 12
ENDMDL
MODEL 5
REMARK VINA RESULT:    -6.233      2.388      6.249
REMARK INTER + INTRA:         -10.652
REMARK INTER:                 -10.243
REMARK INTRA:                  -0.409
REMARK UNBOUND:                -1.503
REMARK SMILES O=c1c(O[C@@H]2O[C@H](CO)[C@@H](O)[C@@H](O)[C@H]2O)c(-c2ccc(O)c(O)c2)oc2cc(O)cc(O)c12
REMARK SMILES IDX 4 1 3 2 16 3 25 4 2 5 26 6 1 7 33 8 27 9 31 10 28 11 30 12
REMARK SMILES IDX 17 13 18 14 19 15 20 16 24 17 22 18 21 19 23 21 32 23 29 25
REMARK SMILES IDX 5 27 14 28 6 29 12 30 7 31 10 32 15 33 13 35 8 37 9 38 11 40
REMARK H PARENT 21 20 23 22 32 24 29 26 15 34 13 36 9 39 11 41
REMARK Flexibility Score: inf
ROOT
ATOM      1  O   UNL     1      54.633   6.120  81.491  1.00  0.00    -0.454 OA
ENDROOT
BRANCH   1   2
ATOM      2  C   UNL     1      53.924   5.441  80.491  1.00  0.00     0.214 A 
ATOM      3  C   UNL     1      54.481   5.274  79.215  1.00  0.00     0.180 A 
ATOM      4  O   UNL     1      53.782   4.675  78.258  1.00  0.00    -0.452 OA
ATOM      5  C   UNL     1      52.663   4.901  80.760  1.00  0.00     0.239 A 
ATOM      6  C   UNL     1      52.550   4.212  78.443  1.00  0.00     0.146 A 
ATOM      7  O   UNL     1      52.248   4.912  81.947  1.00  0.00    -0.285 OA
ATOM      8  C   UNL     1      51.909   4.327  79.707  1.00  0.00     0.111 A 
ATOM      9  C   UNL     1      51.904   3.584  77.375  1.00  0.00     0.094 A 
ATOM     10  C   UNL     1      50.579   3.832  79.844  1.00  0.00     0.134 A 
ATOM     11  C   UNL     1      50.620   3.066  77.534  1.00  0.00     0.123 A 
ATOM     12  C   UNL     1      49.966   3.194  78.761  1.00  0.00     0.093 A 
BRANCH   3  13
ATOM     13  C   UNL     1      55.850   5.721  78.922  1.00  0.00     0.025 A 
ATOM     14  C   UNL     1      56.947   4.939  79.312  1.00  0.00     0.016 A 
ATOM     15  C   UNL     1      58.245   5.380  79.045  1.00  0.00     0.051 A 
ATOM     16  C   UNL     1      58.462   6.603  78.395  1.00  0.00     0.157 A 
ATOM     17  C   UNL     1      56.062   6.936  78.260  1.00  0.00     0.062 A 
ATOM     18  C   UNL     1      57.364   7.388  78.003  1.00  0.00     0.158 A 
BRANCH  16  19
ATOM     19  O   UNL     1      59.769   7.019  78.148  1.00  0.00    -0.504 OA
ATOM     20  H   UNL     1      60.503   6.926  78.842  1.00  0.00     0.293 HD
ENDBRANCH  16  19
BRANCH  18  21
ATOM     21  O   UNL     1      57.567   8.617  77.372  1.00  0.00    -0.504 OA
ATOM     22  H   UNL     1      57.654   9.479  77.903  1.00  0.00     0.293 HD
ENDBRANCH  18  21
ENDBRANCH   3  13
BRANCH  10  23
ATOM     23  O   UNL     1      49.820   3.962  81.006  1.00  0.00    -0.507 OA
ATOM     24  H   UNL     1      50.003   4.638  81.734  1.00  0.00     0.293 HD
ENDBRANCH  10  23
BRANCH  11  25
ATOM     25  O   UNL     1      49.971   2.431  76.475  1.00  0.00    -0.508 OA
ATOM     26  H   UNL     1      48.993   2.608  76.270  1.00  0.00     0.293 HD
ENDBRANCH  11  25
ENDBRANCH   1   2
BRANCH   1  27
ATOM     27  C   UNL     1      55.346   7.331  81.211  1.00  0.00     0.339 C 
ATOM     28  C   UNL     1      54.419   8.558  81.308  1.00  0.00     0.214 C 
ATOM     29  O   UNL     1      56.495   7.453  82.038  1.00  0.00    -0.332 OA
ATOM     30  C   UNL     1      54.020   8.799  82.776  1.00  0.00     0.180 C 
ATOM     31  C   UNL     1      56.206   7.636  83.423  1.00  0.00     0.179 C 
ATOM     32  C   UNL     1      55.255   8.831  83.704  1.00  0.00     0.177 C 
BRANCH  28  33
ATOM     33  O   UNL     1      55.065   9.683  80.765  1.00  0.00    -0.384 OA
ATOM     34  H   UNL     1      54.681  10.482  81.209  1.00  0.00     0.211 HD
ENDBRANCH  28  33
BRANCH  30  35
ATOM     35  O   UNL     1      53.224   9.951  82.914  1.00  0.00    -0.387 OA
ATOM     36  H   UNL     1      53.011  10.299  82.009  1.00  0.00     0.211 HD
ENDBRANCH  30  35
BRANCH  31  37
ATOM     37  C   UNL     1      55.758   6.337  84.122  1.00  0.00     0.191 C 
BRANCH  37  38
ATOM     38  O   UNL     1      56.537   5.259  83.671  1.00  0.00    -0.394 OA
ATOM     39  H   UNL     1      55.969   4.446  83.686  1.00  0.00     0.210 HD
ENDBRANCH  37  38
ENDBRANCH  31  37
BRANCH  32  40
ATOM     40  O   UNL     1      55.944  10.057  83.613  1.00  0.00    -0.387 OA
ATOM     41  H   UNL     1      56.692   9.949  82.968  1.00  0.00     0.211 HD
ENDBRANCH  32  40
ENDBRANCH   1  27
TORSDOF 12
ENDMDL
MODEL 6
REMARK VINA RESULT:    -6.199      2.503      5.605
REMARK INTER + INTRA:         -10.601
REMARK INTER:                  -8.918
REMARK INTRA:                  -1.683
REMARK UNBOUND:                -1.503
REMARK SMILES O=c1c(O[C@@H]2O[C@H](CO)[C@@H](O)[C@@H](O)[C@H]2O)c(-c2ccc(O)c(O)c2)oc2cc(O)cc(O)c12
REMARK SMILES IDX 4 1 3 2 16 3 25 4 2 5 26 6 1 7 33 8 27 9 31 10 28 11 30 12
REMARK SMILES IDX 17 13 18 14 19 15 20 16 24 17 22 18 21 19 23 21 32 23 29 25
REMARK SMILES IDX 5 27 14 28 6 29 12 30 7 31 10 32 15 33 13 35 8 37 9 38 11 40
REMARK H PARENT 21 20 23 22 32 24 29 26 15 34 13 36 9 39 11 41
REMARK Flexibility Score: inf
ROOT
ATOM      1  O   UNL     1      54.682   5.716  80.179  1.00  0.00    -0.454 OA
ENDROOT
BRANCH   1   2
ATOM      2  C   UNL     1      55.769   6.073  80.987  1.00  0.00     0.214 A 
ATOM      3  C   UNL     1      55.904   5.533  82.274  1.00  0.00     0.180 A 
ATOM      4  O   UNL     1      56.909   5.915  83.054  1.00  0.00    -0.452 OA
ATOM      5  C   UNL     1      56.746   6.953  80.512  1.00  0.00     0.239 A 
ATOM      6  C   UNL     1      57.820   6.805  82.676  1.00  0.00     0.146 A 
ATOM      7  O   UNL     1      56.704   7.299  79.303  1.00  0.00    -0.285 OA
ATOM      8  C   UNL     1      57.770   7.398  81.383  1.00  0.00     0.111 A 
ATOM      9  C   UNL     1      58.847   7.130  83.565  1.00  0.00     0.094 A 
ATOM     10  C   UNL     1      58.761   8.363  81.038  1.00  0.00     0.134 A 
ATOM     11  C   UNL     1      59.835   8.044  83.199  1.00  0.00     0.123 A 
ATOM     12  C   UNL     1      59.786   8.654  81.944  1.00  0.00     0.093 A 
BRANCH   3  13
ATOM     13  C   UNL     1      54.966   4.516  82.770  1.00  0.00     0.025 A 
ATOM     14  C   UNL     1      55.353   3.170  82.834  1.00  0.00     0.016 A 
ATOM     15  C   UNL     1      54.449   2.208  83.291  1.00  0.00     0.051 A 
ATOM     16  C   UNL     1      53.154   2.575  83.680  1.00  0.00     0.157 A 
ATOM     17  C   UNL     1      53.678   4.889  83.171  1.00  0.00     0.062 A 
ATOM     18  C   UNL     1      52.764   3.924  83.617  1.00  0.00     0.158 A 
BRANCH  16  19
ATOM     19  O   UNL     1      52.273   1.591  84.125  1.00  0.00    -0.504 OA
ATOM     20  H   UNL     1      51.804   1.656  85.022  1.00  0.00     0.293 HD
ENDBRANCH  16  19
BRANCH  18  21
ATOM     21  O   UNL     1      51.471   4.300  83.983  1.00  0.00    -0.504 OA
ATOM     22  H   UNL     1      50.984   3.850  84.753  1.00  0.00     0.293 HD
ENDBRANCH  18  21
ENDBRANCH   3  13
BRANCH  10  23
ATOM     23  O   UNL     1      58.767   9.070  79.836  1.00  0.00    -0.507 OA
ATOM     24  H   UNL     1      58.507  10.041  79.743  1.00  0.00     0.293 HD
ENDBRANCH  10  23
BRANCH  11  25
ATOM     25  O   UNL     1      60.868   8.368  84.078  1.00  0.00    -0.508 OA
ATOM     26  H   UNL     1      61.207   7.702  84.765  1.00  0.00     0.293 HD
ENDBRANCH  11  25
ENDBRANCH   1   2
BRANCH   1  27
ATOM     27  C   UNL     1      54.769   4.634  79.244  1.00  0.00     0.339 C 
ATOM     28  C   UNL     1      53.824   3.481  79.636  1.00  0.00     0.214 C 
ATOM     29  O   UNL     1      54.549   5.084  77.915  1.00  0.00    -0.332 OA
ATOM     30  C   UNL     1      52.359   3.911  79.434  1.00  0.00     0.180 C 
ATOM     31  C   UNL     1      53.223   5.542  77.660  1.00  0.00     0.179 C 
ATOM     32  C   UNL     1      52.129   4.501  78.024  1.00  0.00     0.177 C 
BRANCH  28  33
ATOM     33  O   UNL     1      54.130   2.339  78.875  1.00  0.00    -0.384 OA
ATOM     34  H   UNL     1      54.869   1.868  79.340  1.00  0.00     0.211 HD
ENDBRANCH  28  33
BRANCH  30  35
ATOM     35  O   UNL     1      51.466   2.862  79.721  1.00  0.00    -0.387 OA
ATOM     36  H   UNL     1      51.274   2.868  80.695  1.00  0.00     0.211 HD
ENDBRANCH  30  35
BRANCH  31  37
ATOM     37  C   UNL     1      52.941   6.937  78.251  1.00  0.00     0.191 C 
BRANCH  37  38
ATOM     38  O   UNL     1      54.066   7.762  78.081  1.00  0.00    -0.394 OA
ATOM     39  H   UNL     1      54.364   7.679  77.139  1.00  0.00     0.210 HD
ENDBRANCH  37  38
ENDBRANCH  31  37
BRANCH  32  40
ATOM     40  O   UNL     1      52.047   3.492  77.043  1.00  0.00    -0.387 OA
ATOM     41  H   UNL     1      52.714   3.687  76.334  1.00  0.00     0.211 HD
ENDBRANCH  32  40
ENDBRANCH   1  27
TORSDOF 12
ENDMDL
MODEL 7
REMARK VINA RESULT:    -6.129      2.851      4.472
REMARK INTER + INTRA:         -10.499
REMARK INTER:                  -9.317
REMARK INTRA:                  -1.182
REMARK UNBOUND:                -1.503
REMARK SMILES O=c1c(O[C@@H]2O[C@H](CO)[C@@H](O)[C@@H](O)[C@H]2O)c(-c2ccc(O)c(O)c2)oc2cc(O)cc(O)c12
REMARK SMILES IDX 4 1 3 2 16 3 25 4 2 5 26 6 1 7 33 8 27 9 31 10 28 11 30 12
REMARK SMILES IDX 17 13 18 14 19 15 20 16 24 17 22 18 21 19 23 21 32 23 29 25
REMARK SMILES IDX 5 27 14 28 6 29 12 30 7 31 10 32 15 33 13 35 8 37 9 38 11 40
REMARK H PARENT 21 20 23 22 32 24 29 26 15 34 13 36 9 39 11 41
REMARK Flexibility Score: inf
ROOT
ATOM      1  O   UNL     1      54.849   4.323  82.179  1.00  0.00    -0.454 OA
ENDROOT
BRANCH   1   2
ATOM      2  C   UNL     1      55.712   5.248  81.577  1.00  0.00     0.214 A 
ATOM      3  C   UNL     1      55.674   5.456  80.190  1.00  0.00     0.180 A 
ATOM      4  O   UNL     1      56.529   6.297  79.621  1.00  0.00    -0.452 OA
ATOM      5  C   UNL     1      56.604   5.993  82.353  1.00  0.00     0.239 A 
ATOM      6  C   UNL     1      57.446   6.972  80.306  1.00  0.00     0.146 A 
ATOM      7  O   UNL     1      56.514   5.921  83.605  1.00  0.00    -0.285 OA
ATOM      8  C   UNL     1      57.551   6.833  81.717  1.00  0.00     0.111 A 
ATOM      9  C   UNL     1      58.291   7.844  79.614  1.00  0.00     0.094 A 
ATOM     10  C   UNL     1      58.568   7.565  82.399  1.00  0.00     0.134 A 
ATOM     11  C   UNL     1      59.252   8.586  80.299  1.00  0.00     0.123 A 
ATOM     12  C   UNL     1      59.386   8.442  81.681  1.00  0.00     0.093 A 
BRANCH   3  13
ATOM     13  C   UNL     1      54.673   4.782  79.352  1.00  0.00     0.025 A 
ATOM     14  C   UNL     1      53.495   5.448  78.985  1.00  0.00     0.016 A 
ATOM     15  C   UNL     1      52.542   4.794  78.201  1.00  0.00     0.051 A 
ATOM     16  C   UNL     1      52.749   3.472  77.783  1.00  0.00     0.157 A 
ATOM     17  C   UNL     1      54.891   3.467  78.925  1.00  0.00     0.062 A 
ATOM     18  C   UNL     1      53.930   2.803  78.150  1.00  0.00     0.158 A 
BRANCH  16  19
ATOM     19  O   UNL     1      51.776   2.843  77.008  1.00  0.00    -0.504 OA
ATOM     20  H   UNL     1      51.215   2.078  77.366  1.00  0.00     0.293 HD
ENDBRANCH  16  19
BRANCH  18  21
ATOM     21  O   UNL     1      54.139   1.480  77.756  1.00  0.00    -0.504 OA
ATOM     22  H   UNL     1      53.520   0.732  78.054  1.00  0.00     0.293 HD
ENDBRANCH  18  21
ENDBRANCH   3  13
BRANCH  10  23
ATOM     23  O   UNL     1      58.821   7.448  83.766  1.00  0.00    -0.507 OA
ATOM     24  H   UNL     1      58.236   6.940  84.413  1.00  0.00     0.293 HD
ENDBRANCH  10  23
BRANCH  11  25
ATOM     25  O   UNL     1      60.094   9.464  79.616  1.00  0.00    -0.508 OA
ATOM     26  H   UNL     1      60.569  10.222  80.095  1.00  0.00     0.293 HD
ENDBRANCH  11  25
ENDBRANCH   1   2
BRANCH   1  27
ATOM     27  C   UNL     1      53.707   4.746  82.933  1.00  0.00     0.339 C 
ATOM     28  C   UNL     1      52.430   4.725  82.070  1.00  0.00     0.214 C 
ATOM     29  O   UNL     1      53.568   3.986  84.125  1.00  0.00    -0.332 OA
ATOM     30  C   UNL     1      52.035   3.270  81.754  1.00  0.00     0.180 C 
ATOM     31  C   UNL     1      53.244   2.614  83.913  1.00  0.00     0.179 C 
ATOM     32  C   UNL     1      51.981   2.405  83.033  1.00  0.00     0.177 C 
BRANCH  28  33
ATOM     33  O   UNL     1      51.395   5.400  82.741  1.00  0.00    -0.384 OA
ATOM     34  H   UNL     1      51.819   5.978  83.425  1.00  0.00     0.211 HD
ENDBRANCH  28  33
BRANCH  30  35
ATOM     35  O   UNL     1      50.836   3.206  81.021  1.00  0.00    -0.387 OA
ATOM     36  H   UNL     1      50.107   3.594  81.572  1.00  0.00     0.211 HD
ENDBRANCH  30  35
BRANCH  31  37
ATOM     37  C   UNL     1      54.448   1.776  83.439  1.00  0.00     0.191 C 
BRANCH  37  38
ATOM     38  O   UNL     1      54.012   0.505  83.027  1.00  0.00    -0.394 OA
ATOM     39  H   UNL     1      53.195   0.283  83.543  1.00  0.00     0.210 HD
ENDBRANCH  37  38
ENDBRANCH  31  37
BRANCH  32  40
ATOM     40  O   UNL     1      50.806   2.641  83.774  1.00  0.00    -0.387 OA
ATOM     41  H   UNL     1      50.978   2.400  84.722  1.00  0.00     0.211 HD
ENDBRANCH  32  40
ENDBRANCH   1  27
TORSDOF 12
ENDMDL
MODEL 8
REMARK VINA RESULT:    -5.873      2.193      7.843
REMARK INTER + INTRA:         -10.123
REMARK INTER:                  -8.682
REMARK INTRA:                  -1.441
REMARK UNBOUND:                -1.503
REMARK SMILES O=c1c(O[C@@H]2O[C@H](CO)[C@@H](O)[C@@H](O)[C@H]2O)c(-c2ccc(O)c(O)c2)oc2cc(O)cc(O)c12
REMARK SMILES IDX 4 1 3 2 16 3 25 4 2 5 26 6 1 7 33 8 27 9 31 10 28 11 30 12
REMARK SMILES IDX 17 13 18 14 19 15 20 16 24 17 22 18 21 19 23 21 32 23 29 25
REMARK SMILES IDX 5 27 14 28 6 29 12 30 7 31 10 32 15 33 13 35 8 37 9 38 11 40
REMARK H PARENT 21 20 23 22 32 24 29 26 15 34 13 36 9 39 11 41
REMARK Flexibility Score: inf
ROOT
ATOM      1  O   UNL     1      54.542   8.056  79.056  1.00  0.00    -0.454 OA
ENDROOT
BRANCH   1   2
ATOM      2  C   UNL     1      54.382   6.931  79.876  1.00  0.00     0.214 A 
ATOM      3  C   UNL     1      55.486   6.371  80.534  1.00  0.00     0.180 A 
ATOM      4  O   UNL     1      55.336   5.274  81.268  1.00  0.00    -0.452 OA
ATOM      5  C   UNL     1      53.117   6.367  80.067  1.00  0.00     0.239 A 
ATOM      6  C   UNL     1      54.168   4.658  81.419  1.00  0.00     0.146 A 
ATOM      7  O   UNL     1      52.116   6.974  79.608  1.00  0.00    -0.285 OA
ATOM      8  C   UNL     1      52.991   5.161  80.798  1.00  0.00     0.111 A 
ATOM      9  C   UNL     1      54.112   3.518  82.225  1.00  0.00     0.094 A 
ATOM     10  C   UNL     1      51.770   4.448  80.976  1.00  0.00     0.134 A 
ATOM     11  C   UNL     1      52.902   2.855  82.426  1.00  0.00     0.123 A 
ATOM     12  C   UNL     1      51.743   3.320  81.802  1.00  0.00     0.093 A 
BRANCH   3  13
ATOM     13  C   UNL     1      56.812   6.999  80.457  1.00  0.00     0.025 A 
ATOM     14  C   UNL     1      57.251   7.851  81.480  1.00  0.00     0.016 A 
ATOM     15  C   UNL     1      58.506   8.457  81.390  1.00  0.00     0.051 A 
ATOM     16  C   UNL     1      59.331   8.226  80.280  1.00  0.00     0.157 A 
ATOM     17  C   UNL     1      57.638   6.753  79.354  1.00  0.00     0.062 A 
ATOM     18  C   UNL     1      58.893   7.370  79.253  1.00  0.00     0.158 A 
BRANCH  16  19
ATOM     19  O   UNL     1      60.575   8.850  80.215  1.00  0.00    -0.504 OA
ATOM     20  H   UNL     1      61.118   8.878  79.359  1.00  0.00     0.293 HD
ENDBRANCH  16  19
BRANCH  18  21
ATOM     21  O   UNL     1      59.696   7.147  78.134  1.00  0.00    -0.504 OA
ATOM     22  H   UNL     1      59.979   7.907  77.522  1.00  0.00     0.293 HD
ENDBRANCH  18  21
ENDBRANCH   3  13
BRANCH  10  23
ATOM     23  O   UNL     1      50.572   4.796  80.351  1.00  0.00    -0.507 OA
ATOM     24  H   UNL     1      49.865   5.388  80.762  1.00  0.00     0.293 HD
ENDBRANCH  10  23
BRANCH  11  25
ATOM     25  O   UNL     1      52.837   1.721  83.235  1.00  0.00    -0.508 OA
ATOM     26  H   UNL     1      52.406   0.862  82.909  1.00  0.00     0.293 HD
ENDBRANCH  11  25
ENDBRANCH   1   2
BRANCH   1  27
ATOM     27  C   UNL     1      54.818   7.928  77.656  1.00  0.00     0.339 C 
ATOM     28  C   UNL     1      53.522   7.997  76.824  1.00  0.00     0.214 C 
ATOM     29  O   UNL     1      55.783   8.880  77.233  1.00  0.00    -0.332 OA
ATOM     30  C   UNL     1      52.946   9.424  76.868  1.00  0.00     0.180 C 
ATOM     31  C   UNL     1      55.338  10.233  77.287  1.00  0.00     0.179 C 
ATOM     32  C   UNL     1      54.015  10.481  76.511  1.00  0.00     0.177 C 
BRANCH  28  33
ATOM     33  O   UNL     1      53.786   7.594  75.503  1.00  0.00    -0.384 OA
ATOM     34  H   UNL     1      54.554   6.968  75.537  1.00  0.00     0.211 HD
ENDBRANCH  28  33
BRANCH  30  35
ATOM     35  O   UNL     1      51.795   9.545  76.067  1.00  0.00    -0.387 OA
ATOM     36  H   UNL     1      52.050   9.377  75.121  1.00  0.00     0.211 HD
ENDBRANCH  30  35
BRANCH  31  37
ATOM     37  C   UNL     1      55.305  10.802  78.720  1.00  0.00     0.191 C 
BRANCH  37  38
ATOM     38  O   UNL     1      56.496  10.474  79.389  1.00  0.00    -0.394 OA
ATOM     39  H   UNL     1      57.209  10.370  78.707  1.00  0.00     0.210 HD
ENDBRANCH  37  38
ENDBRANCH  31  37
BRANCH  32  40
ATOM     40  O   UNL     1      54.249  10.538  75.122  1.00  0.00    -0.387 OA
ATOM     41  H   UNL     1      53.733  11.300  74.748  1.00  0.00     0.211 HD
ENDBRANCH  32  40
ENDBRANCH   1  27
TORSDOF 12
ENDMDL
MODEL 9
REMARK VINA RESULT:    -5.871      2.273      6.670
REMARK INTER + INTRA:         -10.120
REMARK INTER:                  -8.764
REMARK INTRA:                  -1.356
REMARK UNBOUND:                -1.503
REMARK SMILES O=c1c(O[C@@H]2O[C@H](CO)[C@@H](O)[C@@H](O)[C@H]2O)c(-c2ccc(O)c(O)c2)oc2cc(O)cc(O)c12
REMARK SMILES IDX 4 1 3 2 16 3 25 4 2 5 26 6 1 7 33 8 27 9 31 10 28 11 30 12
REMARK SMILES IDX 17 13 18 14 19 15 20 16 24 17 22 18 21 19 23 21 32 23 29 25
REMARK SMILES IDX 5 27 14 28 6 29 12 30 7 31 10 32 15 33 13 35 8 37 9 38 11 40
REMARK H PARENT 21 20 23 22 32 24 29 26 15 34 13 36 9 39 11 41
REMARK Flexibility Score: inf
ROOT
ATOM      1  O   UNL     1      55.936   6.298  80.414  1.00  0.00    -0.454 OA
ENDROOT
BRANCH   1   2
ATOM      2  C   UNL     1      54.859   5.550  80.907  1.00  0.00     0.214 A 
ATOM      3  C   UNL     1      53.546   5.860  80.526  1.00  0.00     0.180 A 
ATOM      4  O   UNL     1      52.527   5.179  81.038  1.00  0.00    -0.452 OA
ATOM      5  C   UNL     1      55.082   4.469  81.766  1.00  0.00     0.239 A 
ATOM      6  C   UNL     1      52.683   4.193  81.916  1.00  0.00     0.146 A 
ATOM      7  O   UNL     1      56.267   4.099  81.967  1.00  0.00    -0.285 OA
ATOM      8  C   UNL     1      53.979   3.801  82.351  1.00  0.00     0.111 A 
ATOM      9  C   UNL     1      51.546   3.529  82.384  1.00  0.00     0.094 A 
ATOM     10  C   UNL     1      54.087   2.752  83.310  1.00  0.00     0.134 A 
ATOM     11  C   UNL     1      51.669   2.476  83.290  1.00  0.00     0.123 A 
ATOM     12  C   UNL     1      52.932   2.096  83.748  1.00  0.00     0.093 A 
BRANCH   3  13
ATOM     13  C   UNL     1      53.274   6.910  79.535  1.00  0.00     0.025 A 
ATOM     14  C   UNL     1      52.770   8.153  79.944  1.00  0.00     0.016 A 
ATOM     15  C   UNL     1      52.498   9.140  78.993  1.00  0.00     0.051 A 
ATOM     16  C   UNL     1      52.718   8.896  77.631  1.00  0.00     0.157 A 
ATOM     17  C   UNL     1      53.508   6.667  78.177  1.00  0.00     0.062 A 
ATOM     18  C   UNL     1      53.223   7.650  77.219  1.00  0.00     0.158 A 
BRANCH  16  19
ATOM     19  O   UNL     1      52.431   9.898  76.706  1.00  0.00    -0.504 OA
ATOM     20  H   UNL     1      53.043  10.097  75.922  1.00  0.00     0.293 HD
ENDBRANCH  16  19
BRANCH  18  21
ATOM     21  O   UNL     1      53.428   7.388  75.863  1.00  0.00    -0.504 OA
ATOM     22  H   UNL     1      54.058   6.655  75.552  1.00  0.00     0.293 HD
ENDBRANCH  18  21
ENDBRANCH   3  13
BRANCH  10  23
ATOM     23  O   UNL     1      55.294   2.338  83.873  1.00  0.00    -0.507 OA
ATOM     24  H   UNL     1      55.843   2.890  84.516  1.00  0.00     0.293 HD
ENDBRANCH  10  23
BRANCH  11  25
ATOM     25  O   UNL     1      50.540   1.802  83.756  1.00  0.00    -0.508 OA
ATOM     26  H   UNL     1      50.288   0.884  83.404  1.00  0.00     0.293 HD
ENDBRANCH  11  25
ENDBRANCH   1   2
BRANCH   1  27
ATOM     27  C   UNL     1      56.750   5.817  79.337  1.00  0.00     0.339 C 
ATOM     28  C   UNL     1      56.768   6.815  78.163  1.00  0.00     0.214 C 
ATOM     29  O   UNL     1      58.057   5.489  79.788  1.00  0.00    -0.332 OA
ATOM     30  C   UNL     1      57.549   8.081  78.562  1.00  0.00     0.180 C 
ATOM     31  C   UNL     1      58.829   6.608  80.218  1.00  0.00     0.179 C 
ATOM     32  C   UNL     1      58.934   7.733  79.152  1.00  0.00     0.177 C 
BRANCH  28  33
ATOM     33  O   UNL     1      57.334   6.203  77.030  1.00  0.00    -0.384 OA
ATOM     34  H   UNL     1      58.235   5.881  77.293  1.00  0.00     0.211 HD
ENDBRANCH  28  33
BRANCH  30  35
ATOM     35  O   UNL     1      57.642   8.991  77.493  1.00  0.00    -0.387 OA
ATOM     36  H   UNL     1      58.602   9.125  77.276  1.00  0.00     0.211 HD
ENDBRANCH  30  35
BRANCH  31  37
ATOM     37  C   UNL     1      58.410   7.134  81.604  1.00  0.00     0.191 C 
BRANCH  37  38
ATOM     38  O   UNL     1      58.236   6.058  82.490  1.00  0.00    -0.394 OA
ATOM     39  H   UNL     1      57.792   6.405  83.306  1.00  0.00     0.210 HD
ENDBRANCH  37  38
ENDBRANCH  31  37
BRANCH  32  40
ATOM     40  O   UNL     1      59.858   7.390  78.145  1.00  0.00    -0.387 OA
ATOM     41  H   UNL     1      60.775   7.468  78.520  1.00  0.00     0.211 HD
ENDBRANCH  32  40
ENDBRANCH   1  27
TORSDOF 12
ENDMDL
