MODEL 1
REMARK VINA RESULT:    33.588      0.000      0.000
REMARK INTER + INTRA:          39.197
REMARK INTER:                  39.479
REMARK INTRA:                  -0.283
REMARK UNBOUND:                -0.283
REMARK SMILES O=c1cc(-c2ccc(O)c(O)c2)oc2cc(O)cc(O)c12
REMARK SMILES IDX 4 1 3 2 2 3 1 4 21 5 19 6 18 7 16 8 15 9 14 10 13 11 5 12
REMARK SMILES IDX 6 13 7 14 8 15 12 16 10 17 9 18 11 20 20 22 17 24
REMARK H PARENT 9 19 11 21 20 23 17 25
REMARK Flexibility Score: inf
ROOT
ATOM      1  C   UNL     1      96.514  72.940  55.388  1.00  0.00     0.138 A 
ATOM      2  C   UNL     1      97.435  73.943  55.719  1.00  0.00     0.100 A 
ATOM      3  C   UNL     1      97.151  74.825  56.763  1.00  0.00     0.197 A 
ATOM      4  O   UNL     1      97.968  75.753  56.996  1.00  0.00    -0.289 OA
ATOM      5  C   UNL     1      95.951  74.678  57.500  1.00  0.00     0.107 A 
ATOM      6  C   UNL     1      95.576  75.492  58.611  1.00  0.00     0.134 A 
ATOM      7  C   UNL     1      94.310  75.329  59.188  1.00  0.00     0.093 A 
ATOM      8  C   UNL     1      93.432  74.342  58.734  1.00  0.00     0.123 A 
ATOM      9  C   UNL     1      93.812  73.507  57.685  1.00  0.00     0.094 A 
ATOM     10  C   UNL     1      95.053  73.667  57.066  1.00  0.00     0.146 A 
ATOM     11  O   UNL     1      95.370  72.859  56.059  1.00  0.00    -0.456 OA
ENDROOT
BRANCH   1  12
ATOM     12  C   UNL     1      96.767  71.977  54.287  1.00  0.00     0.021 A 
ATOM     13  C   UNL     1      96.362  70.638  54.433  1.00  0.00     0.016 A 
ATOM     14  C   UNL     1      96.594  69.710  53.415  1.00  0.00     0.051 A 
ATOM     15  C   UNL     1      97.244  70.097  52.240  1.00  0.00     0.157 A 
ATOM     16  C   UNL     1      97.434  72.358  53.106  1.00  0.00     0.062 A 
ATOM     17  C   UNL     1      97.669  71.427  52.085  1.00  0.00     0.158 A 
BRANCH  15  18
ATOM     18  O   UNL     1      97.462  69.148  51.241  1.00  0.00    -0.504 OA
ATOM     19  H   UNL     1      97.342  69.364  50.259  1.00  0.00     0.293 HD
ENDBRANCH  15  18
BRANCH  17  20
ATOM     20  O   UNL     1      98.328  71.817  50.920  1.00  0.00    -0.504 OA
ATOM     21  H   UNL     1      97.870  71.789  50.016  1.00  0.00     0.293 HD
ENDBRANCH  17  20
ENDBRANCH   1  12
BRANCH   6  22
ATOM     22  O   UNL     1      96.410  76.449  59.195  1.00  0.00    -0.507 OA
ATOM     23  H   UNL     1      96.167  77.419  59.332  1.00  0.00     0.293 HD
ENDBRANCH   6  22
BRANCH   8  24
ATOM     24  O   UNL     1      92.181  74.177  59.325  1.00  0.00    -0.508 OA
ATOM     25  H   UNL     1      92.082  73.796  60.258  1.00  0.00     0.293 HD
ENDBRANCH   8  24
TORSDOF 5
ENDMDL
MODEL 2
REMARK VINA RESULT:    34.305      3.083      6.794
REMARK INTER + INTRA:          40.039
REMARK INTER:                  40.305
REMARK INTRA:                  -0.266
REMARK UNBOUND:                -0.283
REMARK SMILES O=c1cc(-c2ccc(O)c(O)c2)oc2cc(O)cc(O)c12
REMARK SMILES IDX 4 1 3 2 2 3 1 4 21 5 19 6 18 7 16 8 15 9 14 10 13 11 5 12
REMARK SMILES IDX 6 13 7 14 8 15 12 16 10 17 9 18 11 20 20 22 17 24
REMARK H PARENT 9 19 11 21 20 23 17 25
REMARK Flexibility Score: inf
ROOT
ATOM      1  C   UNL     1      96.275  74.213  54.374  1.00  0.00     0.138 A 
ATOM      2  C   UNL     1      95.942  73.570  55.575  1.00  0.00     0.100 A 
ATOM      3  C   UNL     1      96.115  72.191  55.692  1.00  0.00     0.197 A 
ATOM      4  O   UNL     1      95.749  71.634  56.759  1.00  0.00    -0.289 OA
ATOM      5  C   UNL     1      96.656  71.456  54.609  1.00  0.00     0.107 A 
ATOM      6  C   UNL     1      96.915  70.052  54.629  1.00  0.00     0.134 A 
ATOM      7  C   UNL     1      97.342  69.414  53.458  1.00  0.00     0.093 A 
ATOM      8  C   UNL     1      97.577  70.138  52.285  1.00  0.00     0.123 A 
ATOM      9  C   UNL     1      97.378  71.516  52.273  1.00  0.00     0.094 A 
ATOM     10  C   UNL     1      96.919  72.178  53.414  1.00  0.00     0.146 A 
ATOM     11  O   UNL     1      96.729  73.492  53.354  1.00  0.00    -0.456 OA
ENDROOT
BRANCH   1  12
ATOM     12  C   UNL     1      96.110  75.677  54.197  1.00  0.00     0.021 A 
ATOM     13  C   UNL     1      97.093  76.549  54.698  1.00  0.00     0.016 A 
ATOM     14  C   UNL     1      96.959  77.932  54.551  1.00  0.00     0.051 A 
ATOM     15  C   UNL     1      95.838  78.469  53.913  1.00  0.00     0.157 A 
ATOM     16  C   UNL     1      94.976  76.225  53.567  1.00  0.00     0.062 A 
ATOM     17  C   UNL     1      94.839  77.613  53.421  1.00  0.00     0.158 A 
BRANCH  15  18
ATOM     18  O   UNL     1      95.731  79.854  53.780  1.00  0.00    -0.504 OA
ATOM     19  H   UNL     1      94.989  80.381  54.223  1.00  0.00     0.293 HD
ENDBRANCH  15  18
BRANCH  17  20
ATOM     20  O   UNL     1      93.713  78.143  52.793  1.00  0.00    -0.504 OA
ATOM     21  H   UNL     1      93.670  78.259  51.787  1.00  0.00     0.293 HD
ENDBRANCH  17  20
ENDBRANCH   1  12
BRANCH   6  22
ATOM     22  O   UNL     1      96.795  69.252  55.768  1.00  0.00    -0.507 OA
ATOM     23  H   UNL     1      96.178  69.442  56.544  1.00  0.00     0.293 HD
ENDBRANCH   6  22
BRANCH   8  24
ATOM     24  O   UNL     1      98.016  69.496  51.130  1.00  0.00    -0.508 OA
ATOM     25  H   UNL     1      98.638  69.953  50.474  1.00  0.00     0.293 HD
ENDBRANCH   8  24
TORSDOF 5
ENDMDL
MODEL 3
REMARK VINA RESULT:    34.373      1.105      2.637
REMARK INTER + INTRA:          40.119
REMARK INTER:                  40.411
REMARK INTRA:                  -0.292
REMARK UNBOUND:                -0.283
REMARK SMILES O=c1cc(-c2ccc(O)c(O)c2)oc2cc(O)cc(O)c12
REMARK SMILES IDX 4 1 3 2 2 3 1 4 21 5 19 6 18 7 16 8 15 9 14 10 13 11 5 12
REMARK SMILES IDX 6 13 7 14 8 15 12 16 10 17 9 18 11 20 20 22 17 24
REMARK H PARENT 9 19 11 21 20 23 17 25
REMARK Flexibility Score: inf
ROOT
ATOM      1  C   UNL     1      96.078  72.606  55.582  1.00  0.00     0.138 A 
ATOM      2  C   UNL     1      94.836  72.337  56.174  1.00  0.00     0.100 A 
ATOM      3  C   UNL     1      94.408  73.102  57.260  1.00  0.00     0.197 A 
ATOM      4  O   UNL     1      93.318  72.797  57.809  1.00  0.00    -0.289 OA
ATOM      5  C   UNL     1      95.216  74.164  57.734  1.00  0.00     0.107 A 
ATOM      6  C   UNL     1      94.863  75.036  58.807  1.00  0.00     0.134 A 
ATOM      7  C   UNL     1      95.794  75.977  59.264  1.00  0.00     0.093 A 
ATOM      8  C   UNL     1      97.041  76.117  58.648  1.00  0.00     0.123 A 
ATOM      9  C   UNL     1      97.372  75.306  57.565  1.00  0.00     0.094 A 
ATOM     10  C   UNL     1      96.480  74.335  57.107  1.00  0.00     0.146 A 
ATOM     11  O   UNL     1      96.842  73.572  56.081  1.00  0.00    -0.456 OA
ENDROOT
BRANCH   1  12
ATOM     12  C   UNL     1      96.580  71.822  54.425  1.00  0.00     0.021 A 
ATOM     13  C   UNL     1      96.484  70.420  54.446  1.00  0.00     0.016 A 
ATOM     14  C   UNL     1      96.956  69.659  53.373  1.00  0.00     0.051 A 
ATOM     15  C   UNL     1      97.542  70.282  52.268  1.00  0.00     0.157 A 
ATOM     16  C   UNL     1      97.184  72.445  53.315  1.00  0.00     0.062 A 
ATOM     17  C   UNL     1      97.660  71.682  52.239  1.00  0.00     0.158 A 
BRANCH  15  18
ATOM     18  O   UNL     1      98.003  69.497  51.212  1.00  0.00    -0.504 OA
ATOM     19  H   UNL     1      98.823  69.747  50.674  1.00  0.00     0.293 HD
ENDBRANCH  15  18
BRANCH  17  20
ATOM     20  O   UNL     1      98.253  72.308  51.145  1.00  0.00    -0.504 OA
ATOM     21  H   UNL     1      99.166  72.744  51.211  1.00  0.00     0.293 HD
ENDBRANCH  17  20
ENDBRANCH   1  12
BRANCH   6  22
ATOM     22  O   UNL     1      93.615  75.037  59.435  1.00  0.00    -0.507 OA
ATOM     23  H   UNL     1      92.936  75.781  59.367  1.00  0.00     0.293 HD
ENDBRANCH   6  22
BRANCH   8  24
ATOM     24  O   UNL     1      97.954  77.067  59.101  1.00  0.00    -0.508 OA
ATOM     25  H   UNL     1      97.692  77.773  59.779  1.00  0.00     0.293 HD
ENDBRANCH   8  24
TORSDOF 5
ENDMDL
MODEL 4
REMARK VINA RESULT:    35.499      1.390      7.421
REMARK INTER + INTRA:          41.442
REMARK INTER:                  41.720
REMARK INTRA:                  -0.278
REMARK UNBOUND:                -0.283
REMARK SMILES O=c1cc(-c2ccc(O)c(O)c2)oc2cc(O)cc(O)c12
REMARK SMILES IDX 4 1 3 2 2 3 1 4 21 5 19 6 18 7 16 8 15 9 14 10 13 11 5 12
REMARK SMILES IDX 6 13 7 14 8 15 12 16 10 17 9 18 11 20 20 22 17 24
REMARK H PARENT 9 19 11 21 20 23 17 25
REMARK Flexibility Score: inf
ROOT
ATOM      1  C   UNL     1      96.340  72.336  55.454  1.00  0.00     0.138 A 
ATOM      2  C   UNL     1      96.215  70.951  55.630  1.00  0.00     0.100 A 
ATOM      3  C   UNL     1      96.628  70.085  54.616  1.00  0.00     0.197 A 
ATOM      4  O   UNL     1      96.446  68.851  54.778  1.00  0.00    -0.289 OA
ATOM      5  C   UNL     1      97.199  70.611  53.432  1.00  0.00     0.107 A 
ATOM      6  C   UNL     1      97.693  69.823  52.349  1.00  0.00     0.134 A 
ATOM      7  C   UNL     1      98.129  70.457  51.180  1.00  0.00     0.093 A 
ATOM      8  C   UNL     1      98.146  71.850  51.076  1.00  0.00     0.123 A 
ATOM      9  C   UNL     1      97.716  72.628  52.149  1.00  0.00     0.094 A 
ATOM     10  C   UNL     1      97.243  72.026  53.317  1.00  0.00     0.146 A 
ATOM     11  O   UNL     1      96.828  72.805  54.311  1.00  0.00    -0.456 OA
ENDROOT
BRANCH   1  12
ATOM     12  C   UNL     1      95.917  73.300  56.500  1.00  0.00     0.021 A 
ATOM     13  C   UNL     1      96.753  74.384  56.820  1.00  0.00     0.016 A 
ATOM     14  C   UNL     1      96.382  75.301  57.806  1.00  0.00     0.051 A 
ATOM     15  C   UNL     1      95.177  75.148  58.498  1.00  0.00     0.157 A 
ATOM     16  C   UNL     1      94.710  73.142  57.209  1.00  0.00     0.062 A 
ATOM     17  C   UNL     1      94.337  74.061  58.200  1.00  0.00     0.158 A 
BRANCH  15  18
ATOM     18  O   UNL     1      94.832  76.080  59.476  1.00  0.00    -0.504 OA
ATOM     19  H   UNL     1      94.551  77.024  59.243  1.00  0.00     0.293 HD
ENDBRANCH  15  18
BRANCH  17  20
ATOM     20  O   UNL     1      93.139  73.897  58.893  1.00  0.00    -0.504 OA
ATOM     21  H   UNL     1      92.616  74.689  59.247  1.00  0.00     0.293 HD
ENDBRANCH  17  20
ENDBRANCH   1  12
BRANCH   6  22
ATOM     22  O   UNL     1      97.798  68.430  52.382  1.00  0.00    -0.507 OA
ATOM     23  H   UNL     1      97.451  67.809  51.666  1.00  0.00     0.293 HD
ENDBRANCH   6  22
BRANCH   8  24
ATOM     24  O   UNL     1      98.596  72.471  49.914  1.00  0.00    -0.508 OA
ATOM     25  H   UNL     1      98.572  71.999  49.017  1.00  0.00     0.293 HD
ENDBRANCH   8  24
TORSDOF 5
ENDMDL
