MODEL 1
REMARK VINA RESULT:    51.338      0.000      0.000
REMARK INTER + INTRA:          61.522
REMARK INTER:                  61.843
REMARK INTRA:                  -0.320
REMARK UNBOUND:                -0.320
REMARK SMILES O=c1c(O)c(-c2ccc(O)c(O)c2)oc2cc(O)cc(O)c12
REMARK SMILES IDX 5 1 3 2 2 3 1 4 22 5 20 6 19 7 17 8 16 9 15 10 14 11 6 12
REMARK SMILES IDX 7 13 8 14 9 15 13 16 11 17 10 18 12 20 4 22 21 24 18 26
REMARK H PARENT 10 19 12 21 4 23 21 25 18 27
REMARK Flexibility Score: inf
ROOT
ATOM      1  C   UNL     1     -41.017  29.534 -21.796  1.00  0.00     0.180 A 
ATOM      2  C   UNL     1     -39.815  29.905 -21.169  1.00  0.00     0.208 A 
ATOM      3  C   UNL     1     -38.754  28.986 -21.135  1.00  0.00     0.238 A 
ATOM      4  O   UNL     1     -37.662  29.344 -20.621  1.00  0.00    -0.285 OA
ATOM      5  C   UNL     1     -38.913  27.704 -21.711  1.00  0.00     0.111 A 
ATOM      6  C   UNL     1     -37.918  26.680 -21.698  1.00  0.00     0.134 A 
ATOM      7  C   UNL     1     -38.136  25.496 -22.414  1.00  0.00     0.093 A 
ATOM      8  C   UNL     1     -39.336  25.271 -23.086  1.00  0.00     0.123 A 
ATOM      9  C   UNL     1     -40.341  26.241 -23.055  1.00  0.00     0.094 A 
ATOM     10  C   UNL     1     -40.137  27.447 -22.381  1.00  0.00     0.146 A 
ATOM     11  O   UNL     1     -41.114  28.348 -22.385  1.00  0.00    -0.452 OA
ENDROOT
BRANCH   1  12
ATOM     12  C   UNL     1     -42.189  30.437 -21.850  1.00  0.00     0.025 A 
ATOM     13  C   UNL     1     -42.451  31.159 -23.025  1.00  0.00     0.016 A 
ATOM     14  C   UNL     1     -43.563  32.002 -23.105  1.00  0.00     0.051 A 
ATOM     15  C   UNL     1     -44.437  32.124 -22.018  1.00  0.00     0.157 A 
ATOM     16  C   UNL     1     -43.080  30.548 -20.767  1.00  0.00     0.062 A 
ATOM     17  C   UNL     1     -44.196  31.389 -20.845  1.00  0.00     0.158 A 
BRANCH  15  18
ATOM     18  O   UNL     1     -45.545  32.967 -22.100  1.00  0.00    -0.504 OA
ATOM     19  H   UNL     1     -45.443  33.962 -22.264  1.00  0.00     0.293 HD
ENDBRANCH  15  18
BRANCH  17  20
ATOM     20  O   UNL     1     -45.056  31.477 -19.750  1.00  0.00    -0.504 OA
ATOM     21  H   UNL     1     -45.363  32.368 -19.378  1.00  0.00     0.293 HD
ENDBRANCH  17  20
ENDBRANCH   1  12
BRANCH   2  22
ATOM     22  O   UNL     1     -39.671  31.184 -20.625  1.00  0.00    -0.502 OA
ATOM     23  H   UNL     1     -39.317  31.342 -19.689  1.00  0.00     0.293 HD
ENDBRANCH   2  22
BRANCH   6  24
ATOM     24  O   UNL     1     -36.721  26.765 -20.983  1.00  0.00    -0.507 OA
ATOM     25  H   UNL     1     -36.645  27.060 -20.021  1.00  0.00     0.293 HD
ENDBRANCH   6  24
BRANCH   8  26
ATOM     26  O   UNL     1     -39.525  24.075 -23.775  1.00  0.00    -0.508 OA
ATOM     27  H   UNL     1     -38.745  23.560 -24.167  1.00  0.00     0.293 HD
ENDBRANCH   8  26
TORSDOF 6
ENDMDL
MODEL 2
REMARK VINA RESULT:    53.336      1.465      3.271
REMARK INTER + INTRA:          63.929
REMARK INTER:                  64.011
REMARK INTRA:                  -0.082
REMARK UNBOUND:                -0.320
REMARK SMILES O=c1c(O)c(-c2ccc(O)c(O)c2)oc2cc(O)cc(O)c12
REMARK SMILES IDX 5 1 3 2 2 3 1 4 22 5 20 6 19 7 17 8 16 9 15 10 14 11 6 12
REMARK SMILES IDX 7 13 8 14 9 15 13 16 11 17 10 18 12 20 4 22 21 24 18 26
REMARK H PARENT 10 19 12 21 4 23 21 25 18 27
REMARK Flexibility Score: inf
ROOT
ATOM      1  C   UNL     1     -40.727  29.573 -21.686  1.00  0.00     0.180 A 
ATOM      2  C   UNL     1     -40.499  28.315 -22.268  1.00  0.00     0.208 A 
ATOM      3  C   UNL     1     -39.280  27.663 -22.022  1.00  0.00     0.238 A 
ATOM      4  O   UNL     1     -39.102  26.512 -22.501  1.00  0.00    -0.285 OA
ATOM      5  C   UNL     1     -38.299  28.285 -21.213  1.00  0.00     0.111 A 
ATOM      6  C   UNL     1     -37.012  27.733 -20.931  1.00  0.00     0.134 A 
ATOM      7  C   UNL     1     -36.172  28.375 -20.012  1.00  0.00     0.093 A 
ATOM      8  C   UNL     1     -36.544  29.578 -19.416  1.00  0.00     0.123 A 
ATOM      9  C   UNL     1     -37.775  30.158 -19.730  1.00  0.00     0.094 A 
ATOM     10  C   UNL     1     -38.649  29.522 -20.615  1.00  0.00     0.146 A 
ATOM     11  O   UNL     1     -39.814  30.101 -20.879  1.00  0.00    -0.452 OA
ENDROOT
BRANCH   1  12
ATOM     12  C   UNL     1     -41.977  30.334 -21.919  1.00  0.00     0.025 A 
ATOM     13  C   UNL     1     -42.357  30.652 -23.232  1.00  0.00     0.016 A 
ATOM     14  C   UNL     1     -43.542  31.351 -23.476  1.00  0.00     0.051 A 
ATOM     15  C   UNL     1     -44.372  31.729 -22.413  1.00  0.00     0.157 A 
ATOM     16  C   UNL     1     -42.822  30.698 -20.855  1.00  0.00     0.062 A 
ATOM     17  C   UNL     1     -44.011  31.396 -21.096  1.00  0.00     0.158 A 
BRANCH  15  18
ATOM     18  O   UNL     1     -45.553  32.427 -22.659  1.00  0.00    -0.504 OA
ATOM     19  H   UNL     1     -45.974  32.449 -23.581  1.00  0.00     0.293 HD
ENDBRANCH  15  18
BRANCH  17  20
ATOM     20  O   UNL     1     -44.822  31.745 -20.017  1.00  0.00    -0.504 OA
ATOM     21  H   UNL     1     -44.691  31.348 -19.095  1.00  0.00     0.293 HD
ENDBRANCH  17  20
ENDBRANCH   1  12
BRANCH   2  22
ATOM     22  O   UNL     1     -41.490  27.709 -23.045  1.00  0.00    -0.502 OA
ATOM     23  H   UNL     1     -41.292  27.277 -23.940  1.00  0.00     0.293 HD
ENDBRANCH   2  22
BRANCH   6  24
ATOM     24  O   UNL     1     -36.506  26.583 -21.542  1.00  0.00    -0.507 OA
ATOM     25  H   UNL     1     -36.567  26.381 -22.529  1.00  0.00     0.293 HD
ENDBRANCH   6  24
BRANCH   8  26
ATOM     26  O   UNL     1     -35.676  30.197 -18.518  1.00  0.00    -0.508 OA
ATOM     27  H   UNL     1     -35.142  31.019 -18.777  1.00  0.00     0.293 HD
ENDBRANCH   8  26
TORSDOF 6
ENDMDL
MODEL 3
REMARK VINA RESULT:    54.073      3.250      6.736
REMARK INTER + INTRA:          64.817
REMARK INTER:                  64.315
REMARK INTRA:                   0.502
REMARK UNBOUND:                -0.320
REMARK SMILES O=c1c(O)c(-c2ccc(O)c(O)c2)oc2cc(O)cc(O)c12
REMARK SMILES IDX 5 1 3 2 2 3 1 4 22 5 20 6 19 7 17 8 16 9 15 10 14 11 6 12
REMARK SMILES IDX 7 13 8 14 9 15 13 16 11 17 10 18 12 20 4 22 21 24 18 26
REMARK H PARENT 10 19 12 21 4 23 21 25 18 27
REMARK Flexibility Score: inf
ROOT
ATOM      1  C   UNL     1     -39.831  30.727 -23.086  1.00  0.00     0.180 A 
ATOM      2  C   UNL     1     -39.896  29.683 -22.148  1.00  0.00     0.208 A 
ATOM      3  C   UNL     1     -41.085  29.490 -21.426  1.00  0.00     0.238 A 
ATOM      4  O   UNL     1     -41.156  28.520 -20.627  1.00  0.00    -0.285 OA
ATOM      5  C   UNL     1     -42.186  30.354 -21.639  1.00  0.00     0.111 A 
ATOM      6  C   UNL     1     -43.425  30.275 -20.934  1.00  0.00     0.134 A 
ATOM      7  C   UNL     1     -44.492  31.098 -21.319  1.00  0.00     0.093 A 
ATOM      8  C   UNL     1     -44.345  32.038 -22.337  1.00  0.00     0.123 A 
ATOM      9  C   UNL     1     -43.118  32.165 -22.992  1.00  0.00     0.094 A 
ATOM     10  C   UNL     1     -42.048  31.334 -22.655  1.00  0.00     0.146 A 
ATOM     11  O   UNL     1     -40.902  31.479 -23.310  1.00  0.00    -0.452 OA
ENDROOT
BRANCH   1  12
ATOM     12  C   UNL     1     -38.604  31.009 -23.867  1.00  0.00     0.025 A 
ATOM     13  C   UNL     1     -37.573  30.057 -23.901  1.00  0.00     0.016 A 
ATOM     14  C   UNL     1     -36.416  30.294 -24.647  1.00  0.00     0.051 A 
ATOM     15  C   UNL     1     -36.278  31.478 -25.382  1.00  0.00     0.157 A 
ATOM     16  C   UNL     1     -38.471  32.188 -24.622  1.00  0.00     0.062 A 
ATOM     17  C   UNL     1     -37.314  32.428 -25.372  1.00  0.00     0.158 A 
BRANCH  15  18
ATOM     18  O   UNL     1     -35.122  31.712 -26.125  1.00  0.00    -0.504 OA
ATOM     19  H   UNL     1     -34.218  31.820 -25.679  1.00  0.00     0.293 HD
ENDBRANCH  15  18
BRANCH  17  20
ATOM     20  O   UNL     1     -37.214  33.610 -26.105  1.00  0.00    -0.504 OA
ATOM     21  H   UNL     1     -36.793  33.638 -27.026  1.00  0.00     0.293 HD
ENDBRANCH  17  20
ENDBRANCH   1  12
BRANCH   2  22
ATOM     22  O   UNL     1     -38.805  28.829 -21.969  1.00  0.00    -0.502 OA
ATOM     23  H   UNL     1     -38.177  28.581 -22.725  1.00  0.00     0.293 HD
ENDBRANCH   2  22
BRANCH   6  24
ATOM     24  O   UNL     1     -43.650  29.433 -19.842  1.00  0.00    -0.507 OA
ATOM     25  H   UNL     1     -44.325  28.684 -19.822  1.00  0.00     0.293 HD
ENDBRANCH   6  24
BRANCH   8  26
ATOM     26  O   UNL     1     -45.422  32.851 -22.683  1.00  0.00    -0.508 OA
ATOM     27  H   UNL     1     -46.254  32.903 -22.105  1.00  0.00     0.293 HD
ENDBRANCH   8  26
TORSDOF 6
ENDMDL
MODEL 4
REMARK VINA RESULT:    54.241     11.228     11.950
REMARK INTER + INTRA:          65.019
REMARK INTER:                  64.652
REMARK INTRA:                   0.367
REMARK UNBOUND:                -0.320
REMARK SMILES O=c1c(O)c(-c2ccc(O)c(O)c2)oc2cc(O)cc(O)c12
REMARK SMILES IDX 5 1 3 2 2 3 1 4 22 5 20 6 19 7 17 8 16 9 15 10 14 11 6 12
REMARK SMILES IDX 7 13 8 14 9 15 13 16 11 17 10 18 12 20 4 22 21 24 18 26
REMARK H PARENT 10 19 12 21 4 23 21 25 18 27
REMARK Flexibility Score: inf
ROOT
ATOM      1  C   UNL     1     -42.659  24.930 -10.870  1.00  0.00     0.180 A 
ATOM      2  C   UNL     1     -41.291  25.002 -10.558  1.00  0.00     0.208 A 
ATOM      3  C   UNL     1     -40.348  24.754 -11.568  1.00  0.00     0.238 A 
ATOM      4  O   UNL     1     -39.125  24.874 -11.296  1.00  0.00    -0.285 OA
ATOM      5  C   UNL     1     -40.784  24.420 -12.872  1.00  0.00     0.111 A 
ATOM      6  C   UNL     1     -39.917  24.109 -13.962  1.00  0.00     0.134 A 
ATOM      7  C   UNL     1     -40.455  23.921 -15.242  1.00  0.00     0.093 A 
ATOM      8  C   UNL     1     -41.831  23.968 -15.458  1.00  0.00     0.123 A 
ATOM      9  C   UNL     1     -42.694  24.211 -14.387  1.00  0.00     0.094 A 
ATOM     10  C   UNL     1     -42.183  24.439 -13.107  1.00  0.00     0.146 A 
ATOM     11  O   UNL     1     -43.037  24.678 -12.118  1.00  0.00    -0.452 OA
ENDROOT
BRANCH   1  12
ATOM     12  C   UNL     1     -43.712  25.153  -9.853  1.00  0.00     0.025 A 
ATOM     13  C   UNL     1     -45.027  25.416 -10.267  1.00  0.00     0.016 A 
ATOM     14  C   UNL     1     -46.041  25.610  -9.325  1.00  0.00     0.051 A 
ATOM     15  C   UNL     1     -45.758  25.528  -7.955  1.00  0.00     0.157 A 
ATOM     16  C   UNL     1     -43.436  25.053  -8.478  1.00  0.00     0.062 A 
ATOM     17  C   UNL     1     -44.449  25.244  -7.531  1.00  0.00     0.158 A 
BRANCH  15  18
ATOM     18  O   UNL     1     -46.771  25.723  -7.018  1.00  0.00    -0.504 OA
ATOM     19  H   UNL     1     -46.563  25.950  -6.052  1.00  0.00     0.293 HD
ENDBRANCH  15  18
BRANCH  17  20
ATOM     20  O   UNL     1     -44.138  25.141  -6.175  1.00  0.00    -0.504 OA
ATOM     21  H   UNL     1     -43.589  24.374  -5.806  1.00  0.00     0.293 HD
ENDBRANCH  17  20
ENDBRANCH   1  12
BRANCH   2  22
ATOM     22  O   UNL     1     -40.881  25.356  -9.269  1.00  0.00    -0.502 OA
ATOM     23  H   UNL     1     -40.192  26.078  -9.095  1.00  0.00     0.293 HD
ENDBRANCH   2  22
BRANCH   6  24
ATOM     24  O   UNL     1     -38.534  23.948 -13.838  1.00  0.00    -0.507 OA
ATOM     25  H   UNL     1     -37.846  24.435 -14.393  1.00  0.00     0.293 HD
ENDBRANCH   6  24
BRANCH   8  26
ATOM     26  O   UNL     1     -42.333  23.761 -16.741  1.00  0.00    -0.508 OA
ATOM     27  H   UNL     1     -43.144  23.174 -16.904  1.00  0.00     0.293 HD
ENDBRANCH   8  26
TORSDOF 6
ENDMDL
