MODEL 1
REMARK VINA RESULT:    -6.000      0.000      0.000
REMARK INTER + INTRA:          -7.179
REMARK INTER:                  -7.053
REMARK INTRA:                  -0.126
REMARK UNBOUND:                -0.126
REMARK SMILES O=C([O-])C=Cc1ccc(O)c(O)c1
REMARK SMILES IDX 6 1 13 2 7 3 11 4 8 5 9 6 5 7 4 8 2 9 1 10 3 11 12 12 10 14
REMARK H PARENT 12 13 10 15
REMARK Flexibility Score: inf
ROOT
ATOM      1  C   UNL     1     -32.648  -3.479 -17.968  1.00  0.00    -0.022 A 
ATOM      2  C   UNL     1     -33.218  -2.955 -19.146  1.00  0.00     0.058 A 
ATOM      3  C   UNL     1     -31.262  -3.360 -17.775  1.00  0.00     0.012 A 
ATOM      4  C   UNL     1     -32.418  -2.302 -20.097  1.00  0.00     0.157 A 
ATOM      5  C   UNL     1     -30.465  -2.710 -18.721  1.00  0.00     0.051 A 
ATOM      6  C   UNL     1     -31.036  -2.177 -19.879  1.00  0.00     0.157 A 
ENDROOT
BRANCH   1   7
ATOM      7  C   UNL     1     -33.450  -4.187 -16.940  1.00  0.00     0.010 C 
ATOM      8  C   UNL     1     -34.399  -5.087 -17.226  1.00  0.00     0.025 C 
BRANCH   8   9
ATOM      9  C   UNL     1     -35.180  -5.756 -16.174  1.00  0.00     0.064 C 
ATOM     10  O   UNL     1     -35.985  -6.673 -16.484  1.00  0.00    -0.545 OA
ATOM     11  O   UNL     1     -35.040  -5.396 -14.838  1.00  0.00    -0.545 OA
ENDBRANCH   8   9
ENDBRANCH   1   7
BRANCH   4  12
ATOM     12  O   UNL     1     -32.991  -1.784 -21.257  1.00  0.00    -0.504 OA
ATOM     13  H   UNL     1     -32.423  -1.410 -22.009  1.00  0.00     0.293 HD
ENDBRANCH   4  12
BRANCH   6  14
ATOM     14  O   UNL     1     -30.215  -1.531 -20.804  1.00  0.00    -0.504 OA
ATOM     15  H   UNL     1     -29.250  -1.300 -20.598  1.00  0.00     0.293 HD
ENDBRANCH   6  14
TORSDOF 4
ENDMDL
MODEL 2
REMARK VINA RESULT:    -5.578      3.315      7.905
REMARK INTER + INTRA:          -6.682
REMARK INTER:                  -6.534
REMARK INTRA:                  -0.147
REMARK UNBOUND:                -0.126
REMARK SMILES O=C([O-])C=Cc1ccc(O)c(O)c1
REMARK SMILES IDX 6 1 13 2 7 3 11 4 8 5 9 6 5 7 4 8 2 9 1 10 3 11 12 12 10 14
REMARK H PARENT 12 13 10 15
REMARK Flexibility Score: inf
ROOT
ATOM      1  C   UNL     1     -36.631  -6.764 -15.691  1.00  0.00    -0.022 A 
ATOM      2  C   UNL     1     -37.868  -7.359 -16.009  1.00  0.00     0.058 A 
ATOM      3  C   UNL     1     -36.099  -6.953 -14.405  1.00  0.00     0.012 A 
ATOM      4  C   UNL     1     -38.544  -8.149 -15.066  1.00  0.00     0.157 A 
ATOM      5  C   UNL     1     -36.770  -7.740 -13.467  1.00  0.00     0.051 A 
ATOM      6  C   UNL     1     -37.988  -8.342 -13.791  1.00  0.00     0.157 A 
ENDROOT
BRANCH   1   7
ATOM      7  C   UNL     1     -35.885  -5.911 -16.649  1.00  0.00     0.010 C 
ATOM      8  C   UNL     1     -34.555  -5.754 -16.627  1.00  0.00     0.025 C 
BRANCH   8   9
ATOM      9  C   UNL     1     -33.858  -4.888 -17.590  1.00  0.00     0.064 C 
ATOM     10  O   UNL     1     -32.878  -4.197 -17.208  1.00  0.00    -0.545 OA
ATOM     11  O   UNL     1     -34.262  -4.822 -18.920  1.00  0.00    -0.545 OA
ENDBRANCH   8   9
ENDBRANCH   1   7
BRANCH   4  12
ATOM     12  O   UNL     1     -39.765  -8.737 -15.391  1.00  0.00    -0.504 OA
ATOM     13  H   UNL     1     -39.832  -9.478 -16.080  1.00  0.00     0.293 HD
ENDBRANCH   4  12
BRANCH   6  14
ATOM     14  O   UNL     1     -38.634  -9.125 -12.833  1.00  0.00    -0.504 OA
ATOM     15  H   UNL     1     -38.671 -10.135 -12.900  1.00  0.00     0.293 HD
ENDBRANCH   6  14
TORSDOF 4
ENDMDL
MODEL 3
REMARK VINA RESULT:    -5.483      2.755      4.002
REMARK INTER + INTRA:          -6.571
REMARK INTER:                  -6.448
REMARK INTRA:                  -0.123
REMARK UNBOUND:                -0.126
REMARK SMILES O=C([O-])C=Cc1ccc(O)c(O)c1
REMARK SMILES IDX 6 1 13 2 7 3 11 4 8 5 9 6 5 7 4 8 2 9 1 10 3 11 12 12 10 14
REMARK H PARENT 12 13 10 15
REMARK Flexibility Score: inf
ROOT
ATOM      1  C   UNL     1     -35.510  -5.736 -17.060  1.00  0.00    -0.022 A 
ATOM      2  C   UNL     1     -34.146  -5.432 -16.879  1.00  0.00     0.058 A 
ATOM      3  C   UNL     1     -36.130  -5.373 -18.265  1.00  0.00     0.012 A 
ATOM      4  C   UNL     1     -33.414  -4.801 -17.897  1.00  0.00     0.157 A 
ATOM      5  C   UNL     1     -35.403  -4.746 -19.280  1.00  0.00     0.051 A 
ATOM      6  C   UNL     1     -34.047  -4.461 -19.103  1.00  0.00     0.157 A 
ENDROOT
BRANCH   1   7
ATOM      7  C   UNL     1     -36.328  -6.391 -16.009  1.00  0.00     0.010 C 
ATOM      8  C   UNL     1     -35.958  -6.480 -14.725  1.00  0.00     0.025 C 
BRANCH   8   9
ATOM      9  C   UNL     1     -36.796  -7.150 -13.718  1.00  0.00     0.064 C 
ATOM     10  O   UNL     1     -36.354  -8.164 -13.117  1.00  0.00    -0.545 OA
ATOM     11  O   UNL     1     -38.070  -6.680 -13.417  1.00  0.00    -0.545 OA
ENDBRANCH   8   9
ENDBRANCH   1   7
BRANCH   4  12
ATOM     12  O   UNL     1     -32.064  -4.508 -17.710  1.00  0.00    -0.504 OA
ATOM     13  H   UNL     1     -31.764  -3.693 -17.188  1.00  0.00     0.293 HD
ENDBRANCH   4  12
BRANCH   6  14
ATOM     14  O   UNL     1     -33.345  -3.837 -20.135  1.00  0.00    -0.504 OA
ATOM     15  H   UNL     1     -33.213  -4.276 -21.038  1.00  0.00     0.293 HD
ENDBRANCH   6  14
TORSDOF 4
ENDMDL
MODEL 4
REMARK VINA RESULT:    -5.406      2.803      3.810
REMARK INTER + INTRA:          -6.480
REMARK INTER:                  -6.355
REMARK INTRA:                  -0.125
REMARK UNBOUND:                -0.126
REMARK SMILES O=C([O-])C=Cc1ccc(O)c(O)c1
REMARK SMILES IDX 6 1 13 2 7 3 11 4 8 5 9 6 5 7 4 8 2 9 1 10 3 11 12 12 10 14
REMARK H PARENT 12 13 10 15
REMARK Flexibility Score: inf
ROOT
ATOM      1  C   UNL     1     -35.367  -5.669 -16.751  1.00  0.00    -0.022 A 
ATOM      2  C   UNL     1     -36.120  -5.380 -17.907  1.00  0.00     0.058 A 
ATOM      3  C   UNL     1     -33.987  -5.411 -16.760  1.00  0.00     0.012 A 
ATOM      4  C   UNL     1     -35.505  -4.820 -19.038  1.00  0.00     0.157 A 
ATOM      5  C   UNL     1     -33.374  -4.853 -17.884  1.00  0.00     0.051 A 
ATOM      6  C   UNL     1     -34.127  -4.552 -19.022  1.00  0.00     0.157 A 
ENDROOT
BRANCH   1   7
ATOM      7  C   UNL     1     -35.969  -6.272 -15.536  1.00  0.00     0.010 C 
ATOM      8  C   UNL     1     -36.398  -7.539 -15.469  1.00  0.00     0.025 C 
BRANCH   8   9
ATOM      9  C   UNL     1     -37.001  -8.092 -14.246  1.00  0.00     0.064 C 
ATOM     10  O   UNL     1     -38.107  -8.688 -14.313  1.00  0.00    -0.545 OA
ATOM     11  O   UNL     1     -36.366  -7.970 -13.014  1.00  0.00    -0.545 OA
ENDBRANCH   8   9
ENDBRANCH   1   7
BRANCH   4  12
ATOM     12  O   UNL     1     -36.259  -4.533 -20.175  1.00  0.00    -0.504 OA
ATOM     13  H   UNL     1     -37.074  -3.932 -20.135  1.00  0.00     0.293 HD
ENDBRANCH   4  12
BRANCH   6  14
ATOM     14  O   UNL     1     -33.488  -3.993 -20.129  1.00  0.00    -0.504 OA
ATOM     15  H   UNL     1     -32.480  -4.006 -20.232  1.00  0.00     0.293 HD
ENDBRANCH   6  14
TORSDOF 4
ENDMDL
MODEL 5
REMARK VINA RESULT:    -5.354      2.042      2.732
REMARK INTER + INTRA:          -6.419
REMARK INTER:                  -6.269
REMARK INTRA:                  -0.151
REMARK UNBOUND:                -0.126
REMARK SMILES O=C([O-])C=Cc1ccc(O)c(O)c1
REMARK SMILES IDX 6 1 13 2 7 3 11 4 8 5 9 6 5 7 4 8 2 9 1 10 3 11 12 12 10 14
REMARK H PARENT 12 13 10 15
REMARK Flexibility Score: inf
ROOT
ATOM      1  C   UNL     1     -34.687  -5.059 -17.375  1.00  0.00    -0.022 A 
ATOM      2  C   UNL     1     -34.754  -4.199 -18.490  1.00  0.00     0.058 A 
ATOM      3  C   UNL     1     -33.554  -5.009 -16.548  1.00  0.00     0.012 A 
ATOM      4  C   UNL     1     -33.717  -3.291 -18.754  1.00  0.00     0.157 A 
ATOM      5  C   UNL     1     -32.522  -4.105 -16.809  1.00  0.00     0.051 A 
ATOM      6  C   UNL     1     -32.599  -3.242 -17.905  1.00  0.00     0.157 A 
ENDROOT
BRANCH   1   7
ATOM      7  C   UNL     1     -35.752  -6.044 -17.062  1.00  0.00     0.010 C 
ATOM      8  C   UNL     1     -35.902  -6.621 -15.863  1.00  0.00     0.025 C 
BRANCH   8   9
ATOM      9  C   UNL     1     -36.966  -7.604 -15.600  1.00  0.00     0.064 C 
ATOM     10  O   UNL     1     -38.139  -7.370 -15.993  1.00  0.00    -0.545 OA
ATOM     11  O   UNL     1     -36.697  -8.790 -14.927  1.00  0.00    -0.545 OA
ENDBRANCH   8   9
ENDBRANCH   1   7
BRANCH   4  12
ATOM     12  O   UNL     1     -33.793  -2.442 -19.856  1.00  0.00    -0.504 OA
ATOM     13  H   UNL     1     -33.301  -2.645 -20.719  1.00  0.00     0.293 HD
ENDBRANCH   4  12
BRANCH   6  14
ATOM     14  O   UNL     1     -31.553  -2.348 -18.139  1.00  0.00    -0.504 OA
ATOM     15  H   UNL     1     -31.476  -1.826 -19.004  1.00  0.00     0.293 HD
ENDBRANCH   6  14
TORSDOF 4
ENDMDL
MODEL 6
REMARK VINA RESULT:    -5.111      1.880      6.600
REMARK INTER + INTRA:          -6.134
REMARK INTER:                  -6.008
REMARK INTRA:                  -0.126
REMARK UNBOUND:                -0.126
REMARK SMILES O=C([O-])C=Cc1ccc(O)c(O)c1
REMARK SMILES IDX 6 1 13 2 7 3 11 4 8 5 9 6 5 7 4 8 2 9 1 10 3 11 12 12 10 14
REMARK H PARENT 12 13 10 15
REMARK Flexibility Score: inf
ROOT
ATOM      1  C   UNL     1     -34.542  -4.745 -16.212  1.00  0.00    -0.022 A 
ATOM      2  C   UNL     1     -34.612  -4.526 -14.822  1.00  0.00     0.058 A 
ATOM      3  C   UNL     1     -35.233  -5.836 -16.762  1.00  0.00     0.012 A 
ATOM      4  C   UNL     1     -35.380  -5.370 -14.005  1.00  0.00     0.157 A 
ATOM      5  C   UNL     1     -35.999  -6.676 -15.950  1.00  0.00     0.051 A 
ATOM      6  C   UNL     1     -36.079  -6.447 -14.574  1.00  0.00     0.157 A 
ENDROOT
BRANCH   1   7
ATOM      7  C   UNL     1     -33.734  -3.888 -17.116  1.00  0.00     0.010 C 
ATOM      8  C   UNL     1     -32.396  -3.903 -17.156  1.00  0.00     0.025 C 
BRANCH   8   9
ATOM      9  C   UNL     1     -31.634  -3.026 -18.059  1.00  0.00     0.064 C 
ATOM     10  O   UNL     1     -30.442  -2.734 -17.783  1.00  0.00    -0.545 OA
ATOM     11  O   UNL     1     -32.210  -2.516 -19.218  1.00  0.00    -0.545 OA
ENDBRANCH   8   9
ENDBRANCH   1   7
BRANCH   4  12
ATOM     12  O   UNL     1     -35.447  -5.144 -12.631  1.00  0.00    -0.504 OA
ATOM     13  H   UNL     1     -36.111  -5.635 -12.043  1.00  0.00     0.293 HD
ENDBRANCH   4  12
BRANCH   6  14
ATOM     14  O   UNL     1     -36.854  -7.301 -13.789  1.00  0.00    -0.504 OA
ATOM     15  H   UNL     1     -36.570  -8.252 -13.588  1.00  0.00     0.293 HD
ENDBRANCH   6  14
TORSDOF 4
ENDMDL
MODEL 7
REMARK VINA RESULT:    -5.061      8.133      9.627
REMARK INTER + INTRA:          -6.075
REMARK INTER:                  -5.925
REMARK INTRA:                  -0.150
REMARK UNBOUND:                -0.126
REMARK SMILES O=C([O-])C=Cc1ccc(O)c(O)c1
REMARK SMILES IDX 6 1 13 2 7 3 11 4 8 5 9 6 5 7 4 8 2 9 1 10 3 11 12 12 10 14
REMARK H PARENT 12 13 10 15
REMARK Flexibility Score: inf
ROOT
ATOM      1  C   UNL     1     -39.116  -5.208 -12.800  1.00  0.00    -0.022 A 
ATOM      2  C   UNL     1     -40.440  -5.681 -12.905  1.00  0.00     0.058 A 
ATOM      3  C   UNL     1     -38.073  -5.991 -13.320  1.00  0.00     0.012 A 
ATOM      4  C   UNL     1     -40.712  -6.903 -13.541  1.00  0.00     0.157 A 
ATOM      5  C   UNL     1     -38.343  -7.205 -13.954  1.00  0.00     0.051 A 
ATOM      6  C   UNL     1     -39.658  -7.665 -14.071  1.00  0.00     0.157 A 
ENDROOT
BRANCH   1   7
ATOM      7  C   UNL     1     -38.777  -3.929 -12.127  1.00  0.00     0.010 C 
ATOM      8  C   UNL     1     -37.537  -3.592 -11.752  1.00  0.00     0.025 C 
BRANCH   8   9
ATOM      9  C   UNL     1     -37.248  -2.318 -11.075  1.00  0.00     0.064 C 
ATOM     10  O   UNL     1     -36.745  -1.367 -11.729  1.00  0.00    -0.545 OA
ATOM     11  O   UNL     1     -37.524  -2.145  -9.723  1.00  0.00    -0.545 OA
ENDBRANCH   8   9
ENDBRANCH   1   7
BRANCH   4  12
ATOM     12  O   UNL     1     -42.024  -7.362 -13.643  1.00  0.00    -0.504 OA
ATOM     13  H   UNL     1     -42.640  -7.049 -14.385  1.00  0.00     0.293 HD
ENDBRANCH   4  12
BRANCH   6  14
ATOM     14  O   UNL     1     -39.897  -8.881 -14.711  1.00  0.00    -0.504 OA
ATOM     15  H   UNL     1     -39.271  -9.249 -15.417  1.00  0.00     0.293 HD
ENDBRANCH   6  14
TORSDOF 4
ENDMDL
MODEL 8
REMARK VINA RESULT:    -5.055      1.824      6.249
REMARK INTER + INTRA:          -6.068
REMARK INTER:                  -5.914
REMARK INTRA:                  -0.154
REMARK UNBOUND:                -0.126
REMARK SMILES O=C([O-])C=Cc1ccc(O)c(O)c1
REMARK SMILES IDX 6 1 13 2 7 3 11 4 8 5 9 6 5 7 4 8 2 9 1 10 3 11 12 12 10 14
REMARK H PARENT 12 13 10 15
REMARK Flexibility Score: inf
ROOT
ATOM      1  C   UNL     1     -34.668  -4.617 -17.262  1.00  0.00    -0.022 A 
ATOM      2  C   UNL     1     -34.889  -5.793 -16.517  1.00  0.00     0.058 A 
ATOM      3  C   UNL     1     -35.766  -3.974 -17.856  1.00  0.00     0.012 A 
ATOM      4  C   UNL     1     -36.187  -6.299 -16.351  1.00  0.00     0.157 A 
ATOM      5  C   UNL     1     -37.059  -4.477 -17.690  1.00  0.00     0.051 A 
ATOM      6  C   UNL     1     -37.276  -5.634 -16.938  1.00  0.00     0.157 A 
ENDROOT
BRANCH   1   7
ATOM      7  C   UNL     1     -33.313  -4.050 -17.475  1.00  0.00     0.010 C 
ATOM      8  C   UNL     1     -33.051  -3.047 -18.323  1.00  0.00     0.025 C 
BRANCH   8   9
ATOM      9  C   UNL     1     -31.689  -2.524 -18.513  1.00  0.00     0.064 C 
ATOM     10  O   UNL     1     -30.837  -2.662 -17.597  1.00  0.00    -0.545 OA
ATOM     11  O   UNL     1     -31.325  -1.881 -19.691  1.00  0.00    -0.545 OA
ENDBRANCH   8   9
ENDBRANCH   1   7
BRANCH   4  12
ATOM     12  O   UNL     1     -36.397  -7.461 -15.610  1.00  0.00    -0.504 OA
ATOM     13  H   UNL     1     -36.956  -8.227 -15.969  1.00  0.00     0.293 HD
ENDBRANCH   4  12
BRANCH   6  14
ATOM     14  O   UNL     1     -38.579  -6.110 -16.788  1.00  0.00    -0.504 OA
ATOM     15  H   UNL     1     -39.271  -6.023 -17.522  1.00  0.00     0.293 HD
ENDBRANCH   6  14
TORSDOF 4
ENDMDL
MODEL 9
REMARK VINA RESULT:    -4.892      7.620      9.415
REMARK INTER + INTRA:          -5.877
REMARK INTER:                  -5.732
REMARK INTRA:                  -0.145
REMARK UNBOUND:                -0.126
REMARK SMILES O=C([O-])C=Cc1ccc(O)c(O)c1
REMARK SMILES IDX 6 1 13 2 7 3 11 4 8 5 9 6 5 7 4 8 2 9 1 10 3 11 12 12 10 14
REMARK H PARENT 12 13 10 15
REMARK Flexibility Score: inf
ROOT
ATOM      1  C   UNL     1     -38.428  -5.408 -13.161  1.00  0.00    -0.022 A 
ATOM      2  C   UNL     1     -37.717  -6.487 -13.726  1.00  0.00     0.058 A 
ATOM      3  C   UNL     1     -39.776  -5.591 -12.817  1.00  0.00     0.012 A 
ATOM      4  C   UNL     1     -38.340  -7.730 -13.916  1.00  0.00     0.157 A 
ATOM      5  C   UNL     1     -40.397  -6.828 -13.005  1.00  0.00     0.051 A 
ATOM      6  C   UNL     1     -39.685  -7.900 -13.549  1.00  0.00     0.157 A 
ENDROOT
BRANCH   1   7
ATOM      7  C   UNL     1     -37.816  -4.072 -12.952  1.00  0.00     0.010 C 
ATOM      8  C   UNL     1     -38.029  -3.319 -11.865  1.00  0.00     0.025 C 
BRANCH   8   9
ATOM      9  C   UNL     1     -37.411  -1.993 -11.705  1.00  0.00     0.064 C 
ATOM     10  O   UNL     1     -37.132  -1.310 -12.724  1.00  0.00    -0.545 OA
ATOM     11  O   UNL     1     -37.133  -1.479 -10.443  1.00  0.00    -0.545 OA
ENDBRANCH   8   9
ENDBRANCH   1   7
BRANCH   4  12
ATOM     12  O   UNL     1     -37.629  -8.792 -14.471  1.00  0.00    -0.504 OA
ATOM     13  H   UNL     1     -36.878  -8.640 -15.135  1.00  0.00     0.293 HD
ENDBRANCH   4  12
BRANCH   6  14
ATOM     14  O   UNL     1     -40.331  -9.125 -13.722  1.00  0.00    -0.504 OA
ATOM     15  H   UNL     1     -40.864  -9.562 -12.980  1.00  0.00     0.293 HD
ENDBRANCH   6  14
TORSDOF 4
ENDMDL
