MODEL 1
REMARK VINA RESULT:    -4.270      0.000      0.000
REMARK INTER + INTRA:         -17.076
REMARK INTER:                 -11.260
REMARK INTRA:                  -5.816
REMARK UNBOUND:                -5.816
REMARK SMILES CCCCCCCCCCCCCCCCCCCCCCCCCCCCCC(=O)[O-]
REMARK SMILES IDX 16 1 17 2 18 3 19 4 20 5 21 6 22 7 23 8 24 9 25 10 26 11
REMARK SMILES IDX 27 12 28 13 29 14 30 15 31 16 32 17 15 18 14 19 13 20 12 21
REMARK SMILES IDX 11 22 10 23 9 24 8 25 7 26 6 27 5 28 4 29 3 30 2 31 1 32
REMARK H PARENT
REMARK Flexibility Score: inf
ROOT
ATOM      1  C   UNL     1     101.442  92.675  88.991  1.00  0.00     0.000 C 
ENDROOT
BRANCH   1   2
ATOM      2  C   UNL     1     100.846  94.007  88.500  1.00  0.00     0.000 C 
BRANCH   2   3
ATOM      3  C   UNL     1      99.308  94.060  88.459  1.00  0.00     0.000 C 
BRANCH   3   4
ATOM      4  C   UNL     1      98.722  95.148  89.373  1.00  0.00     0.000 C 
BRANCH   4   5
ATOM      5  C   UNL     1      99.181  94.970  90.829  1.00  0.00     0.000 C 
BRANCH   5   6
ATOM      6  C   UNL     1      99.678  96.289  91.460  1.00  0.00     0.000 C 
BRANCH   6   7
ATOM      7  C   UNL     1     101.210  96.392  91.600  1.00  0.00     0.000 C 
BRANCH   7   8
ATOM      8  C   UNL     1     101.874  97.561  90.851  1.00  0.00     0.000 C 
BRANCH   8   9
ATOM      9  C   UNL     1     101.547  97.576  89.347  1.00  0.00     0.000 C 
BRANCH   9  10
ATOM     10  C   UNL     1     100.771  98.835  88.921  1.00  0.00     0.000 C 
BRANCH  10  11
ATOM     11  C   UNL     1      99.354  98.572  88.380  1.00  0.00     0.000 C 
BRANCH  11  12
ATOM     12  C   UNL     1      98.254  98.927  89.392  1.00  0.00     0.000 C 
BRANCH  12  13
ATOM     13  C   UNL     1      98.815  99.761  90.550  1.00  0.00     0.006 C 
BRANCH  13  14
ATOM     14  C   UNL     1      97.973  99.580  91.819  1.00  0.00     0.053 C 
BRANCH  14  15
ATOM     15  C   UNL     1      96.735 100.425  91.778  1.00  0.00     0.041 C 
ATOM     16  O   UNL     1      95.596  99.886  91.741  1.00  0.00    -0.550 OA
ATOM     17  O   UNL     1      96.839 101.810  91.823  1.00  0.00    -0.550 OA
ENDBRANCH  14  15
ENDBRANCH  13  14
ENDBRANCH  12  13
ENDBRANCH  11  12
ENDBRANCH  10  11
ENDBRANCH   9  10
ENDBRANCH   8   9
ENDBRANCH   7   8
ENDBRANCH   6   7
ENDBRANCH   5   6
ENDBRANCH   4   5
ENDBRANCH   3   4
ENDBRANCH   2   3
ENDBRANCH   1   2
BRANCH   1  18
ATOM     18  C   UNL     1     102.777  92.853  89.734  1.00  0.00     0.000 C 
BRANCH  18  19
ATOM     19  C   UNL     1     103.326  94.285  89.624  1.00  0.00     0.000 C 
BRANCH  19  20
ATOM     20  C   UNL     1     104.493  94.553  90.592  1.00  0.00     0.000 C 
BRANCH  20  21
ATOM     21  C   UNL     1     105.588  95.438  89.978  1.00  0.00     0.000 C 
BRANCH  21  22
ATOM     22  C   UNL     1     105.065  96.315  88.830  1.00  0.00     0.000 C 
BRANCH  22  23
ATOM     23  C   UNL     1     105.832  97.641  88.694  1.00  0.00     0.000 C 
BRANCH  23  24
ATOM     24  C   UNL     1     105.044  98.867  89.208  1.00  0.00    -0.000 C 
BRANCH  24  25
ATOM     25  C   UNL     1     105.941 100.104  89.386  1.00  0.00    -0.000 C 
BRANCH  25  26
ATOM     26  C   UNL     1     107.440  99.782  89.242  1.00  0.00    -0.000 C 
BRANCH  26  27
ATOM     27  C   UNL     1     108.274  99.957  90.530  1.00  0.00    -0.000 C 
BRANCH  27  28
ATOM     28  C   UNL     1     108.773  98.648  91.172  1.00  0.00    -0.000 C 
BRANCH  28  29
ATOM     29  C   UNL     1     107.671  97.757  91.772  1.00  0.00    -0.000 C 
BRANCH  29  30
ATOM     30  C   UNL     1     107.188  98.250  93.144  1.00  0.00    -0.000 C 
BRANCH  30  31
ATOM     31  C   UNL     1     105.786  98.861  93.044  1.00  0.00    -0.003 C 
ATOM     32  C   UNL     1     104.742  97.795  92.730  1.00  0.00     0.004 C 
ENDBRANCH  30  31
ENDBRANCH  29  30
ENDBRANCH  28  29
ENDBRANCH  27  28
ENDBRANCH  26  27
ENDBRANCH  25  26
ENDBRANCH  24  25
ENDBRANCH  23  24
ENDBRANCH  22  23
ENDBRANCH  21  22
ENDBRANCH  20  21
ENDBRANCH  19  20
ENDBRANCH  18  19
ENDBRANCH   1  18
TORSDOF 28
ENDMDL
MODEL 2
REMARK VINA RESULT:    -4.126      4.725     10.679
REMARK INTER + INTRA:         -16.697
REMARK INTER:                 -12.042
REMARK INTRA:                  -4.654
REMARK UNBOUND:                -5.816
REMARK SMILES CCCCCCCCCCCCCCCCCCCCCCCCCCCCCC(=O)[O-]
REMARK SMILES IDX 16 1 17 2 18 3 19 4 20 5 21 6 22 7 23 8 24 9 25 10 26 11
REMARK SMILES IDX 27 12 28 13 29 14 30 15 31 16 32 17 15 18 14 19 13 20 12 21
REMARK SMILES IDX 11 22 10 23 9 24 8 25 7 26 6 27 5 28 4 29 3 30 2 31 1 32
REMARK H PARENT
REMARK Flexibility Score: inf
ROOT
ATOM      1  C   UNL     1      91.453 100.957  92.303  1.00  0.00     0.000 C 
ENDROOT
BRANCH   1   2
ATOM      2  C   UNL     1      92.670 100.033  92.484  1.00  0.00     0.000 C 
BRANCH   2   3
ATOM      3  C   UNL     1      94.021 100.637  92.059  1.00  0.00     0.000 C 
BRANCH   3   4
ATOM      4  C   UNL     1      94.787  99.752  91.064  1.00  0.00     0.000 C 
BRANCH   4   5
ATOM      5  C   UNL     1      96.104 100.409  90.620  1.00  0.00     0.000 C 
BRANCH   5   6
ATOM      6  C   UNL     1      96.679 101.365  91.686  1.00  0.00     0.000 C 
BRANCH   6   7
ATOM      7  C   UNL     1      98.166 101.130  92.021  1.00  0.00     0.000 C 
BRANCH   7   8
ATOM      8  C   UNL     1      98.841  99.958  91.286  1.00  0.00     0.000 C 
BRANCH   8   9
ATOM      9  C   UNL     1      99.187  98.782  92.216  1.00  0.00     0.000 C 
BRANCH   9  10
ATOM     10  C   UNL     1      99.505  97.489  91.445  1.00  0.00     0.000 C 
BRANCH  10  11
ATOM     11  C   UNL     1     100.922  96.931  91.669  1.00  0.00     0.000 C 
BRANCH  11  12
ATOM     12  C   UNL     1     101.977  98.035  91.842  1.00  0.00     0.000 C 
BRANCH  12  13
ATOM     13  C   UNL     1     103.396  97.468  91.719  1.00  0.00     0.006 C 
BRANCH  13  14
ATOM     14  C   UNL     1     104.354  98.161  92.696  1.00  0.00     0.053 C 
BRANCH  14  15
ATOM     15  C   UNL     1     105.473  98.846  91.972  1.00  0.00     0.041 C 
ATOM     16  O   UNL     1     105.243  99.519  90.931  1.00  0.00    -0.550 OA
ATOM     17  O   UNL     1     106.769  98.775  92.471  1.00  0.00    -0.550 OA
ENDBRANCH  14  15
ENDBRANCH  13  14
ENDBRANCH  12  13
ENDBRANCH  11  12
ENDBRANCH  10  11
ENDBRANCH   9  10
ENDBRANCH   8   9
ENDBRANCH   7   8
ENDBRANCH   6   7
ENDBRANCH   5   6
ENDBRANCH   4   5
ENDBRANCH   3   4
ENDBRANCH   2   3
ENDBRANCH   1   2
BRANCH   1  18
ATOM     18  C   UNL     1      90.215 100.220  91.764  1.00  0.00     0.000 C 
BRANCH  18  19
ATOM     19  C   UNL     1      90.407  98.696  91.725  1.00  0.00     0.000 C 
BRANCH  19  20
ATOM     20  C   UNL     1      90.102  98.091  90.343  1.00  0.00     0.000 C 
BRANCH  20  21
ATOM     21  C   UNL     1      90.566  98.985  89.183  1.00  0.00     0.000 C 
BRANCH  21  22
ATOM     22  C   UNL     1      92.021  98.712  88.770  1.00  0.00     0.000 C 
BRANCH  22  23
ATOM     23  C   UNL     1      92.689  99.924  88.099  1.00  0.00     0.000 C 
BRANCH  23  24
ATOM     24  C   UNL     1      92.326 101.273  88.758  1.00  0.00    -0.000 C 
BRANCH  24  25
ATOM     25  C   UNL     1      93.482 102.286  88.687  1.00  0.00    -0.000 C 
BRANCH  25  26
ATOM     26  C   UNL     1      93.345 103.424  89.715  1.00  0.00    -0.000 C 
BRANCH  26  27
ATOM     27  C   UNL     1      94.672 103.914  90.332  1.00  0.00    -0.000 C 
BRANCH  27  28
ATOM     28  C   UNL     1      95.261 105.188  89.696  1.00  0.00    -0.000 C 
BRANCH  28  29
ATOM     29  C   UNL     1      96.574 104.981  88.921  1.00  0.00    -0.000 C 
BRANCH  29  30
ATOM     30  C   UNL     1      96.963 103.501  88.794  1.00  0.00    -0.000 C 
BRANCH  30  31
ATOM     31  C   UNL     1      98.483 103.343  88.667  1.00  0.00    -0.003 C 
ATOM     32  C   UNL     1      99.203 103.982  89.849  1.00  0.00     0.004 C 
ENDBRANCH  30  31
ENDBRANCH  29  30
ENDBRANCH  28  29
ENDBRANCH  27  28
ENDBRANCH  26  27
ENDBRANCH  25  26
ENDBRANCH  24  25
ENDBRANCH  23  24
ENDBRANCH  22  23
ENDBRANCH  21  22
ENDBRANCH  20  21
ENDBRANCH  19  20
ENDBRANCH  18  19
ENDBRANCH   1  18
TORSDOF 28
ENDMDL
MODEL 3
REMARK VINA RESULT:    -4.085      2.545      5.950
REMARK INTER + INTRA:         -16.588
REMARK INTER:                 -12.043
REMARK INTRA:                  -4.546
REMARK UNBOUND:                -5.816
REMARK SMILES CCCCCCCCCCCCCCCCCCCCCCCCCCCCCC(=O)[O-]
REMARK SMILES IDX 16 1 17 2 18 3 19 4 20 5 21 6 22 7 23 8 24 9 25 10 26 11
REMARK SMILES IDX 27 12 28 13 29 14 30 15 31 16 32 17 15 18 14 19 13 20 12 21
REMARK SMILES IDX 11 22 10 23 9 24 8 25 7 26 6 27 5 28 4 29 3 30 2 31 1 32
REMARK H PARENT
REMARK Flexibility Score: inf
ROOT
ATOM      1  C   UNL     1      99.759  99.037  92.376  1.00  0.00     0.000 C 
ENDROOT
BRANCH   1   2
ATOM      2  C   UNL     1      98.267  98.764  92.114  1.00  0.00     0.000 C 
BRANCH   2   3
ATOM      3  C   UNL     1      97.402 100.018  91.889  1.00  0.00     0.000 C 
BRANCH   3   4
ATOM      4  C   UNL     1      98.198 101.326  92.019  1.00  0.00     0.000 C 
BRANCH   4   5
ATOM      5  C   UNL     1      98.330 102.045  90.667  1.00  0.00     0.000 C 
BRANCH   5   6
ATOM      6  C   UNL     1      97.419 101.436  89.580  1.00  0.00     0.000 C 
BRANCH   6   7
ATOM      7  C   UNL     1      96.493 102.452  88.880  1.00  0.00     0.000 C 
BRANCH   7   8
ATOM      8  C   UNL     1      96.306 103.798  89.604  1.00  0.00     0.000 C 
BRANCH   8   9
ATOM      9  C   UNL     1      94.888 104.375  89.445  1.00  0.00     0.000 C 
BRANCH   9  10
ATOM     10  C   UNL     1      93.884 103.765  90.439  1.00  0.00     0.000 C 
BRANCH  10  11
ATOM     11  C   UNL     1      94.462 103.435  91.827  1.00  0.00     0.000 C 
BRANCH  11  12
ATOM     12  C   UNL     1      94.257 101.966  92.224  1.00  0.00     0.000 C 
BRANCH  12  13
ATOM     13  C   UNL     1      93.790 101.128  91.028  1.00  0.00     0.006 C 
BRANCH  13  14
ATOM     14  C   UNL     1      93.572  99.664  91.431  1.00  0.00     0.053 C 
BRANCH  14  15
ATOM     15  C   UNL     1      92.460  99.531  92.426  1.00  0.00     0.041 C 
ATOM     16  O   UNL     1      91.381 100.164  92.267  1.00  0.00    -0.550 OA
ATOM     17  O   UNL     1      92.598  98.673  93.511  1.00  0.00    -0.550 OA
ENDBRANCH  14  15
ENDBRANCH  13  14
ENDBRANCH  12  13
ENDBRANCH  11  12
ENDBRANCH  10  11
ENDBRANCH   9  10
ENDBRANCH   8   9
ENDBRANCH   7   8
ENDBRANCH   6   7
ENDBRANCH   5   6
ENDBRANCH   4   5
ENDBRANCH   3   4
ENDBRANCH   2   3
ENDBRANCH   1   2
BRANCH   1  18
ATOM     18  C   UNL     1     100.687  98.257  91.429  1.00  0.00     0.000 C 
BRANCH  18  19
ATOM     19  C   UNL     1     100.650  96.742  91.683  1.00  0.00     0.000 C 
BRANCH  19  20
ATOM     20  C   UNL     1     100.135  95.946  90.470  1.00  0.00     0.000 C 
BRANCH  20  21
ATOM     21  C   UNL     1     100.974  96.177  89.203  1.00  0.00     0.000 C 
BRANCH  21  22
ATOM     22  C   UNL     1     101.270  94.874  88.444  1.00  0.00     0.000 C 
BRANCH  22  23
ATOM     23  C   UNL     1     101.496  93.675  89.382  1.00  0.00     0.000 C 
BRANCH  23  24
ATOM     24  C   UNL     1     102.985  93.407  89.694  1.00  0.00    -0.000 C 
BRANCH  24  25
ATOM     25  C   UNL     1     103.457  94.142  90.960  1.00  0.00    -0.000 C 
BRANCH  25  26
ATOM     26  C   UNL     1     104.773  94.914  90.748  1.00  0.00    -0.000 C 
BRANCH  26  27
ATOM     27  C   UNL     1     104.951  95.530  89.344  1.00  0.00    -0.000 C 
BRANCH  27  28
ATOM     28  C   UNL     1     105.175  97.054  89.320  1.00  0.00    -0.000 C 
BRANCH  28  29
ATOM     29  C   UNL     1     104.078  97.884  90.011  1.00  0.00    -0.000 C 
BRANCH  29  30
ATOM     30  C   UNL     1     104.626  98.777  91.133  1.00  0.00    -0.000 C 
BRANCH  30  31
ATOM     31  C   UNL     1     104.304  98.185  92.511  1.00  0.00    -0.003 C 
ATOM     32  C   UNL     1     105.252  98.724  93.576  1.00  0.00     0.004 C 
ENDBRANCH  30  31
ENDBRANCH  29  30
ENDBRANCH  28  29
ENDBRANCH  27  28
ENDBRANCH  26  27
ENDBRANCH  25  26
ENDBRANCH  24  25
ENDBRANCH  23  24
ENDBRANCH  22  23
ENDBRANCH  21  22
ENDBRANCH  20  21
ENDBRANCH  19  20
ENDBRANCH  18  19
ENDBRANCH   1  18
TORSDOF 28
ENDMDL
MODEL 4
REMARK VINA RESULT:    -4.049      3.728      9.990
REMARK INTER + INTRA:         -16.491
REMARK INTER:                 -12.827
REMARK INTRA:                  -3.664
REMARK UNBOUND:                -5.816
REMARK SMILES CCCCCCCCCCCCCCCCCCCCCCCCCCCCCC(=O)[O-]
REMARK SMILES IDX 16 1 17 2 18 3 19 4 20 5 21 6 22 7 23 8 24 9 25 10 26 11
REMARK SMILES IDX 27 12 28 13 29 14 30 15 31 16 32 17 15 18 14 19 13 20 12 21
REMARK SMILES IDX 11 22 10 23 9 24 8 25 7 26 6 27 5 28 4 29 3 30 2 31 1 32
REMARK H PARENT
REMARK Flexibility Score: inf
ROOT
ATOM      1  C   UNL     1      99.338  98.640  92.231  1.00  0.00     0.000 C 
ENDROOT
BRANCH   1   2
ATOM      2  C   UNL     1     100.721  98.164  91.750  1.00  0.00     0.000 C 
BRANCH   2   3
ATOM      3  C   UNL     1     100.815  96.665  91.407  1.00  0.00     0.000 C 
BRANCH   3   4
ATOM      4  C   UNL     1      99.458  95.948  91.479  1.00  0.00     0.000 C 
BRANCH   4   5
ATOM      5  C   UNL     1      99.054  95.364  90.115  1.00  0.00     0.000 C 
BRANCH   5   6
ATOM      6  C   UNL     1     100.273  95.035  89.227  1.00  0.00     0.000 C 
BRANCH   6   7
ATOM      7  C   UNL     1     100.583  93.529  89.100  1.00  0.00     0.000 C 
BRANCH   7   8
ATOM      8  C   UNL     1     102.040  93.119  89.380  1.00  0.00     0.000 C 
BRANCH   8   9
ATOM      9  C   UNL     1     103.007  94.316  89.411  1.00  0.00     0.000 C 
BRANCH   9  10
ATOM     10  C   UNL     1     104.102  94.166  90.482  1.00  0.00     0.000 C 
BRANCH  10  11
ATOM     11  C   UNL     1     105.441  94.846  90.142  1.00  0.00     0.000 C 
BRANCH  11  12
ATOM     12  C   UNL     1     105.500  96.310  90.605  1.00  0.00     0.000 C 
BRANCH  12  13
ATOM     13  C   UNL     1     104.826  96.487  91.971  1.00  0.00     0.006 C 
BRANCH  13  14
ATOM     14  C   UNL     1     104.543  97.967  92.260  1.00  0.00     0.053 C 
BRANCH  14  15
ATOM     15  C   UNL     1     105.576  98.552  93.174  1.00  0.00     0.041 C 
ATOM     16  O   UNL     1     105.264  98.916  94.340  1.00  0.00    -0.550 OA
ATOM     17  O   UNL     1     106.897  98.658  92.753  1.00  0.00    -0.550 OA
ENDBRANCH  14  15
ENDBRANCH  13  14
ENDBRANCH  12  13
ENDBRANCH  11  12
ENDBRANCH  10  11
ENDBRANCH   9  10
ENDBRANCH   8   9
ENDBRANCH   7   8
ENDBRANCH   6   7
ENDBRANCH   5   6
ENDBRANCH   4   5
ENDBRANCH   3   4
ENDBRANCH   2   3
ENDBRANCH   1   2
BRANCH   1  18
ATOM     18  C   UNL     1      98.680  99.641  91.266  1.00  0.00     0.000 C 
BRANCH  18  19
ATOM     19  C   UNL     1      98.231 100.931  91.971  1.00  0.00     0.000 C 
BRANCH  19  20
ATOM     20  C   UNL     1      96.844 101.412  91.510  1.00  0.00     0.000 C 
BRANCH  20  21
ATOM     21  C   UNL     1      95.773 100.313  91.592  1.00  0.00     0.000 C 
BRANCH  21  22
ATOM     22  C   UNL     1      95.190  99.952  90.217  1.00  0.00     0.000 C 
BRANCH  22  23
ATOM     23  C   UNL     1      95.599 100.945  89.115  1.00  0.00     0.000 C 
BRANCH  23  24
ATOM     24  C   UNL     1      94.428 101.812  88.600  1.00  0.00    -0.000 C 
BRANCH  24  25
ATOM     25  C   UNL     1      94.333 103.160  89.336  1.00  0.00    -0.000 C 
BRANCH  25  26
ATOM     26  C   UNL     1      92.987 103.352  90.059  1.00  0.00    -0.000 C 
BRANCH  26  27
ATOM     27  C   UNL     1      92.851 102.601  91.401  1.00  0.00    -0.000 C 
BRANCH  27  28
ATOM     28  C   UNL     1      91.608 101.699  91.525  1.00  0.00    -0.000 C 
BRANCH  28  29
ATOM     29  C   UNL     1      91.634 100.432  90.652  1.00  0.00    -0.000 C 
BRANCH  29  30
ATOM     30  C   UNL     1      91.679  99.140  91.480  1.00  0.00    -0.000 C 
BRANCH  30  31
ATOM     31  C   UNL     1      91.555  99.444  92.978  1.00  0.00    -0.003 C 
ATOM     32  C   UNL     1      92.863  99.159  93.707  1.00  0.00     0.004 C 
ENDBRANCH  30  31
ENDBRANCH  29  30
ENDBRANCH  28  29
ENDBRANCH  27  28
ENDBRANCH  26  27
ENDBRANCH  25  26
ENDBRANCH  24  25
ENDBRANCH  23  24
ENDBRANCH  22  23
ENDBRANCH  21  22
ENDBRANCH  20  21
ENDBRANCH  19  20
ENDBRANCH  18  19
ENDBRANCH   1  18
TORSDOF 28
ENDMDL
MODEL 5
REMARK VINA RESULT:    -4.048      3.690      9.848
REMARK INTER + INTRA:         -16.490
REMARK INTER:                 -12.183
REMARK INTRA:                  -4.307
REMARK UNBOUND:                -5.816
REMARK SMILES CCCCCCCCCCCCCCCCCCCCCCCCCCCCCC(=O)[O-]
REMARK SMILES IDX 16 1 17 2 18 3 19 4 20 5 21 6 22 7 23 8 24 9 25 10 26 11
REMARK SMILES IDX 27 12 28 13 29 14 30 15 31 16 32 17 15 18 14 19 13 20 12 21
REMARK SMILES IDX 11 22 10 23 9 24 8 25 7 26 6 27 5 28 4 29 3 30 2 31 1 32
REMARK H PARENT
REMARK Flexibility Score: inf
ROOT
ATOM      1  C   UNL     1      99.873  98.059  91.629  1.00  0.00     0.000 C 
ENDROOT
BRANCH   1   2
ATOM      2  C   UNL     1      99.585  96.593  92.001  1.00  0.00     0.000 C 
BRANCH   2   3
ATOM      3  C   UNL     1      99.449  95.629  90.809  1.00  0.00     0.000 C 
BRANCH   3   4
ATOM      4  C   UNL     1      99.779  96.290  89.462  1.00  0.00     0.000 C 
BRANCH   4   5
ATOM      5  C   UNL     1     100.130  95.246  88.390  1.00  0.00     0.000 C 
BRANCH   5   6
ATOM      6  C   UNL     1     100.019  93.798  88.913  1.00  0.00     0.000 C 
BRANCH   6   7
ATOM      7  C   UNL     1     101.201  92.887  88.527  1.00  0.00     0.000 C 
BRANCH   7   8
ATOM      8  C   UNL     1     102.275  92.687  89.612  1.00  0.00     0.000 C 
BRANCH   8   9
ATOM      9  C   UNL     1     103.334  93.803  89.625  1.00  0.00     0.000 C 
BRANCH   9  10
ATOM     10  C   UNL     1     103.628  94.327  91.042  1.00  0.00     0.000 C 
BRANCH  10  11
ATOM     11  C   UNL     1     103.052  95.720  91.351  1.00  0.00     0.000 C 
BRANCH  11  12
ATOM     12  C   UNL     1     103.286  96.728  90.216  1.00  0.00     0.000 C 
BRANCH  12  13
ATOM     13  C   UNL     1     103.899  98.029  90.748  1.00  0.00     0.006 C 
BRANCH  13  14
ATOM     14  C   UNL     1     103.847  98.077  92.280  1.00  0.00     0.053 C 
BRANCH  14  15
ATOM     15  C   UNL     1     105.216  98.246  92.868  1.00  0.00     0.041 C 
ATOM     16  O   UNL     1     105.360  98.748  94.016  1.00  0.00    -0.550 OA
ATOM     17  O   UNL     1     106.332  97.810  92.164  1.00  0.00    -0.550 OA
ENDBRANCH  14  15
ENDBRANCH  13  14
ENDBRANCH  12  13
ENDBRANCH  11  12
ENDBRANCH  10  11
ENDBRANCH   9  10
ENDBRANCH   8   9
ENDBRANCH   7   8
ENDBRANCH   6   7
ENDBRANCH   5   6
ENDBRANCH   4   5
ENDBRANCH   3   4
ENDBRANCH   2   3
ENDBRANCH   1   2
BRANCH   1  18
ATOM     18  C   UNL     1      98.856  99.042  92.233  1.00  0.00     0.000 C 
BRANCH  18  19
ATOM     19  C   UNL     1      98.459 100.156  91.252  1.00  0.00     0.000 C 
BRANCH  19  20
ATOM     20  C   UNL     1      97.160 100.875  91.658  1.00  0.00     0.000 C 
BRANCH  20  21
ATOM     21  C   UNL     1      95.896 100.105  91.244  1.00  0.00     0.000 C 
BRANCH  21  22
ATOM     22  C   UNL     1      95.754  99.978  89.720  1.00  0.00     0.000 C 
BRANCH  22  23
ATOM     23  C   UNL     1      94.292  99.821  89.268  1.00  0.00     0.000 C 
BRANCH  23  24
ATOM     24  C   UNL     1      93.647  98.489  89.711  1.00  0.00    -0.000 C 
BRANCH  24  25
ATOM     25  C   UNL     1      92.337  98.705  90.487  1.00  0.00    -0.000 C 
BRANCH  25  26
ATOM     26  C   UNL     1      92.568  99.000  91.981  1.00  0.00    -0.000 C 
BRANCH  26  27
ATOM     27  C   UNL     1      91.808 100.226  92.531  1.00  0.00    -0.000 C 
BRANCH  27  28
ATOM     28  C   UNL     1      91.192 101.150  91.464  1.00  0.00    -0.000 C 
BRANCH  28  29
ATOM     29  C   UNL     1      92.141 102.228  90.910  1.00  0.00    -0.000 C 
BRANCH  29  30
ATOM     30  C   UNL     1      93.191 102.680  91.937  1.00  0.00    -0.000 C 
BRANCH  30  31
ATOM     31  C   UNL     1      94.301 103.495  91.262  1.00  0.00    -0.003 C 
ATOM     32  C   UNL     1      94.047 103.636  89.765  1.00  0.00     0.004 C 
ENDBRANCH  30  31
ENDBRANCH  29  30
ENDBRANCH  28  29
ENDBRANCH  27  28
ENDBRANCH  26  27
ENDBRANCH  25  26
ENDBRANCH  24  25
ENDBRANCH  23  24
ENDBRANCH  22  23
ENDBRANCH  21  22
ENDBRANCH  20  21
ENDBRANCH  19  20
ENDBRANCH  18  19
ENDBRANCH   1  18
TORSDOF 28
ENDMDL
MODEL 6
REMARK VINA RESULT:    -4.030      3.287      7.023
REMARK INTER + INTRA:         -16.443
REMARK INTER:                 -12.610
REMARK INTRA:                  -3.834
REMARK UNBOUND:                -5.816
REMARK SMILES CCCCCCCCCCCCCCCCCCCCCCCCCCCCCC(=O)[O-]
REMARK SMILES IDX 16 1 17 2 18 3 19 4 20 5 21 6 22 7 23 8 24 9 25 10 26 11
REMARK SMILES IDX 27 12 28 13 29 14 30 15 31 16 32 17 15 18 14 19 13 20 12 21
REMARK SMILES IDX 11 22 10 23 9 24 8 25 7 26 6 27 5 28 4 29 3 30 2 31 1 32
REMARK H PARENT
REMARK Flexibility Score: inf
ROOT
ATOM      1  C   UNL     1      98.243 101.728  91.826  1.00  0.00     0.000 C 
ENDROOT
BRANCH   1   2
ATOM      2  C   UNL     1      98.215 102.302  90.399  1.00  0.00     0.000 C 
BRANCH   2   3
ATOM      3  C   UNL     1      99.254 103.404  90.115  1.00  0.00     0.000 C 
BRANCH   3   4
ATOM      4  C   UNL     1      98.688 104.557  89.271  1.00  0.00     0.000 C 
BRANCH   4   5
ATOM      5  C   UNL     1      97.229 104.296  88.863  1.00  0.00     0.000 C 
BRANCH   5   6
ATOM      6  C   UNL     1      96.307 105.498  89.159  1.00  0.00     0.000 C 
BRANCH   6   7
ATOM      7  C   UNL     1      94.910 105.116  89.689  1.00  0.00     0.000 C 
BRANCH   7   8
ATOM      8  C   UNL     1      94.725 103.641  90.088  1.00  0.00     0.000 C 
BRANCH   8   9
ATOM      9  C   UNL     1      93.335 103.089  89.727  1.00  0.00     0.000 C 
BRANCH   9  10
ATOM     10  C   UNL     1      93.328 101.559  89.564  1.00  0.00     0.000 C 
BRANCH  10  11
ATOM     11  C   UNL     1      94.593 100.845  90.075  1.00  0.00     0.000 C 
BRANCH  11  12
ATOM     12  C   UNL     1      94.290  99.790  91.149  1.00  0.00     0.000 C 
BRANCH  12  13
ATOM     13  C   UNL     1      93.542 100.408  92.337  1.00  0.00     0.006 C 
BRANCH  13  14
ATOM     14  C   UNL     1      92.539  99.414  92.936  1.00  0.00     0.053 C 
BRANCH  14  15
ATOM     15  C   UNL     1      91.128  99.803  92.617  1.00  0.00     0.041 C 
ATOM     16  O   UNL     1      90.284  99.961  93.541  1.00  0.00    -0.550 OA
ATOM     17  O   UNL     1      90.753 100.034  91.298  1.00  0.00    -0.550 OA
ENDBRANCH  14  15
ENDBRANCH  13  14
ENDBRANCH  12  13
ENDBRANCH  11  12
ENDBRANCH  10  11
ENDBRANCH   9  10
ENDBRANCH   8   9
ENDBRANCH   7   8
ENDBRANCH   6   7
ENDBRANCH   5   6
ENDBRANCH   4   5
ENDBRANCH   3   4
ENDBRANCH   2   3
ENDBRANCH   1   2
BRANCH   1  18
ATOM     18  C   UNL     1      98.012 100.208  91.866  1.00  0.00     0.000 C 
BRANCH  18  19
ATOM     19  C   UNL     1      98.008  99.576  90.465  1.00  0.00     0.000 C 
BRANCH  19  20
ATOM     20  C   UNL     1      99.009  98.413  90.333  1.00  0.00     0.000 C 
BRANCH  20  21
ATOM     21  C   UNL     1      99.797  98.153  91.625  1.00  0.00     0.000 C 
BRANCH  21  22
ATOM     22  C   UNL     1     100.179  96.675  91.797  1.00  0.00     0.000 C 
BRANCH  22  23
ATOM     23  C   UNL     1     101.682  96.418  91.590  1.00  0.00     0.000 C 
BRANCH  23  24
ATOM     24  C   UNL     1     102.510  97.709  91.407  1.00  0.00    -0.000 C 
BRANCH  24  25
ATOM     25  C   UNL     1     102.950  97.918  89.947  1.00  0.00    -0.000 C 
BRANCH  25  26
ATOM     26  C   UNL     1     102.696  96.683  89.064  1.00  0.00    -0.000 C 
BRANCH  26  27
ATOM     27  C   UNL     1     103.961  96.039  88.458  1.00  0.00    -0.000 C 
BRANCH  27  28
ATOM     28  C   UNL     1     105.254  96.241  89.272  1.00  0.00    -0.000 C 
BRANCH  28  29
ATOM     29  C   UNL     1     105.518  95.175  90.349  1.00  0.00    -0.000 C 
BRANCH  29  30
ATOM     30  C   UNL     1     105.711  95.778  91.748  1.00  0.00    -0.000 C 
BRANCH  30  31
ATOM     31  C   UNL     1     106.703  96.946  91.709  1.00  0.00    -0.003 C 
ATOM     32  C   UNL     1     106.071  98.224  92.250  1.00  0.00     0.004 C 
ENDBRANCH  30  31
ENDBRANCH  29  30
ENDBRANCH  28  29
ENDBRANCH  27  28
ENDBRANCH  26  27
ENDBRANCH  25  26
ENDBRANCH  24  25
ENDBRANCH  23  24
ENDBRANCH  22  23
ENDBRANCH  21  22
ENDBRANCH  20  21
ENDBRANCH  19  20
ENDBRANCH  18  19
ENDBRANCH   1  18
TORSDOF 28
ENDMDL
MODEL 7
REMARK VINA RESULT:    -4.023      3.733      8.573
REMARK INTER + INTRA:         -16.424
REMARK INTER:                 -12.206
REMARK INTRA:                  -4.218
REMARK UNBOUND:                -5.816
REMARK SMILES CCCCCCCCCCCCCCCCCCCCCCCCCCCCCC(=O)[O-]
REMARK SMILES IDX 16 1 17 2 18 3 19 4 20 5 21 6 22 7 23 8 24 9 25 10 26 11
REMARK SMILES IDX 27 12 28 13 29 14 30 15 31 16 32 17 15 18 14 19 13 20 12 21
REMARK SMILES IDX 11 22 10 23 9 24 8 25 7 26 6 27 5 28 4 29 3 30 2 31 1 32
REMARK H PARENT
REMARK Flexibility Score: inf
ROOT
ATOM      1  C   UNL     1     100.922  96.680  91.030  1.00  0.00     0.000 C 
ENDROOT
BRANCH   1   2
ATOM      2  C   UNL     1     100.761  96.893  89.514  1.00  0.00     0.000 C 
BRANCH   2   3
ATOM      3  C   UNL     1      99.801  95.915  88.813  1.00  0.00     0.000 C 
BRANCH   3   4
ATOM      4  C   UNL     1      99.313  94.789  89.738  1.00  0.00     0.000 C 
BRANCH   4   5
ATOM      5  C   UNL     1      99.660  93.402  89.172  1.00  0.00     0.000 C 
BRANCH   5   6
ATOM      6  C   UNL     1     101.089  93.339  88.593  1.00  0.00     0.000 C 
BRANCH   6   7
ATOM      7  C   UNL     1     102.123  92.662  89.517  1.00  0.00     0.000 C 
BRANCH   7   8
ATOM      8  C   UNL     1     103.111  93.608  90.222  1.00  0.00     0.000 C 
BRANCH   8   9
ATOM      9  C   UNL     1     103.710  94.667  89.279  1.00  0.00     0.000 C 
BRANCH   9  10
ATOM     10  C   UNL     1     105.024  95.263  89.813  1.00  0.00     0.000 C 
BRANCH  10  11
ATOM     11  C   UNL     1     105.252  96.746  89.469  1.00  0.00     0.000 C 
BRANCH  11  12
ATOM     12  C   UNL     1     104.487  97.698  90.400  1.00  0.00     0.000 C 
BRANCH  12  13
ATOM     13  C   UNL     1     104.507  97.193  91.847  1.00  0.00     0.006 C 
BRANCH  13  14
ATOM     14  C   UNL     1     105.235  98.182  92.768  1.00  0.00     0.053 C 
BRANCH  14  15
ATOM     15  C   UNL     1     106.711  98.186  92.506  1.00  0.00     0.041 C 
ATOM     16  O   UNL     1     107.310  99.266  92.250  1.00  0.00    -0.550 OA
ATOM     17  O   UNL     1     107.433  97.002  92.585  1.00  0.00    -0.550 OA
ENDBRANCH  14  15
ENDBRANCH  13  14
ENDBRANCH  12  13
ENDBRANCH  11  12
ENDBRANCH  10  11
ENDBRANCH   9  10
ENDBRANCH   8   9
ENDBRANCH   7   8
ENDBRANCH   6   7
ENDBRANCH   5   6
ENDBRANCH   4   5
ENDBRANCH   3   4
ENDBRANCH   2   3
ENDBRANCH   1   2
BRANCH   1  18
ATOM     18  C   UNL     1     100.653  97.955  91.847  1.00  0.00     0.000 C 
BRANCH  18  19
ATOM     19  C   UNL     1      99.159  98.312  91.906  1.00  0.00     0.000 C 
BRANCH  19  20
ATOM     20  C   UNL     1      98.814  99.574  91.094  1.00  0.00     0.000 C 
BRANCH  20  21
ATOM     21  C   UNL     1      98.419 100.765  91.980  1.00  0.00     0.000 C 
BRANCH  21  22
ATOM     22  C   UNL     1      98.293 102.076  91.188  1.00  0.00     0.000 C 
BRANCH  22  23
ATOM     23  C   UNL     1      98.296 101.855  89.665  1.00  0.00     0.000 C 
BRANCH  23  24
ATOM     24  C   UNL     1      99.124 102.904  88.890  1.00  0.00    -0.000 C 
BRANCH  24  25
ATOM     25  C   UNL     1      98.657 104.342  89.176  1.00  0.00    -0.000 C 
BRANCH  25  26
ATOM     26  C   UNL     1      97.310 104.677  88.509  1.00  0.00    -0.000 C 
BRANCH  26  27
ATOM     27  C   UNL     1      96.326 105.479  89.387  1.00  0.00    -0.000 C 
BRANCH  27  28
ATOM     28  C   UNL     1      94.940 104.832  89.577  1.00  0.00    -0.000 C 
BRANCH  28  29
ATOM     29  C   UNL     1      94.895 103.677  90.593  1.00  0.00    -0.000 C 
BRANCH  29  30
ATOM     30  C   UNL     1      94.694 102.307  89.928  1.00  0.00    -0.000 C 
BRANCH  30  31
ATOM     31  C   UNL     1      94.413 101.225  90.977  1.00  0.00    -0.003 C 
ATOM     32  C   UNL     1      95.074  99.905  90.597  1.00  0.00     0.004 C 
ENDBRANCH  30  31
ENDBRANCH  29  30
ENDBRANCH  28  29
ENDBRANCH  27  28
ENDBRANCH  26  27
ENDBRANCH  25  26
ENDBRANCH  24  25
ENDBRANCH  23  24
ENDBRANCH  22  23
ENDBRANCH  21  22
ENDBRANCH  20  21
ENDBRANCH  19  20
ENDBRANCH  18  19
ENDBRANCH   1  18
TORSDOF 28
ENDMDL
MODEL 8
REMARK VINA RESULT:    -3.993      4.200     10.158
REMARK INTER + INTRA:         -16.344
REMARK INTER:                 -12.317
REMARK INTRA:                  -4.028
REMARK UNBOUND:                -5.816
REMARK SMILES CCCCCCCCCCCCCCCCCCCCCCCCCCCCCC(=O)[O-]
REMARK SMILES IDX 16 1 17 2 18 3 19 4 20 5 21 6 22 7 23 8 24 9 25 10 26 11
REMARK SMILES IDX 27 12 28 13 29 14 30 15 31 16 32 17 15 18 14 19 13 20 12 21
REMARK SMILES IDX 11 22 10 23 9 24 8 25 7 26 6 27 5 28 4 29 3 30 2 31 1 32
REMARK H PARENT
REMARK Flexibility Score: inf
ROOT
ATOM      1  C   UNL     1      98.767  99.145  92.051  1.00  0.00     0.000 C 
ENDROOT
BRANCH   1   2
ATOM      2  C   UNL     1      99.159  98.381  90.774  1.00  0.00     0.000 C 
BRANCH   2   3
ATOM      3  C   UNL     1     100.673  98.254  90.525  1.00  0.00     0.000 C 
BRANCH   3   4
ATOM      4  C   UNL     1     101.402  97.491  91.641  1.00  0.00     0.000 C 
BRANCH   4   5
ATOM      5  C   UNL     1     101.686  96.035  91.238  1.00  0.00     0.000 C 
BRANCH   5   6
ATOM      6  C   UNL     1     102.874  95.426  92.013  1.00  0.00     0.000 C 
BRANCH   6   7
ATOM      7  C   UNL     1     103.698  94.396  91.213  1.00  0.00     0.000 C 
BRANCH   7   8
ATOM      8  C   UNL     1     104.249  94.884  89.861  1.00  0.00     0.000 C 
BRANCH   8   9
ATOM      9  C   UNL     1     105.629  95.553  89.978  1.00  0.00     0.000 C 
BRANCH   9  10
ATOM     10  C   UNL     1     105.680  96.932  89.296  1.00  0.00     0.000 C 
BRANCH  10  11
ATOM     11  C   UNL     1     104.483  97.851  89.598  1.00  0.00     0.000 C 
BRANCH  11  12
ATOM     12  C   UNL     1     104.821  98.958  90.608  1.00  0.00     0.000 C 
BRANCH  12  13
ATOM     13  C   UNL     1     104.986  98.386  92.022  1.00  0.00     0.006 C 
BRANCH  13  14
ATOM     14  C   UNL     1     106.244  98.945  92.700  1.00  0.00     0.053 C 
BRANCH  14  15
ATOM     15  C   UNL     1     107.471  98.195  92.277  1.00  0.00     0.041 C 
ATOM     16  O   UNL     1     107.706  97.044  92.736  1.00  0.00    -0.550 OA
ATOM     17  O   UNL     1     108.335  98.750  91.340  1.00  0.00    -0.550 OA
ENDBRANCH  14  15
ENDBRANCH  13  14
ENDBRANCH  12  13
ENDBRANCH  11  12
ENDBRANCH  10  11
ENDBRANCH   9  10
ENDBRANCH   8   9
ENDBRANCH   7   8
ENDBRANCH   6   7
ENDBRANCH   5   6
ENDBRANCH   4   5
ENDBRANCH   3   4
ENDBRANCH   2   3
ENDBRANCH   1   2
BRANCH   1  18
ATOM     18  C   UNL     1      97.487  99.982  91.881  1.00  0.00     0.000 C 
BRANCH  18  19
ATOM     19  C   UNL     1      97.764 101.493  91.902  1.00  0.00     0.000 C 
BRANCH  19  20
ATOM     20  C   UNL     1      98.038 102.070  90.502  1.00  0.00     0.000 C 
BRANCH  20  21
ATOM     21  C   UNL     1      97.069 101.537  89.436  1.00  0.00     0.000 C 
BRANCH  21  22
ATOM     22  C   UNL     1      96.307 102.659  88.713  1.00  0.00     0.000 C 
BRANCH  22  23
ATOM     23  C   UNL     1      96.419 104.015  89.432  1.00  0.00     0.000 C 
BRANCH  23  24
ATOM     24  C   UNL     1      95.058 104.709  89.656  1.00  0.00    -0.000 C 
BRANCH  24  25
ATOM     25  C   UNL     1      94.030 103.777  90.320  1.00  0.00    -0.000 C 
BRANCH  25  26
ATOM     26  C   UNL     1      94.424 103.377  91.754  1.00  0.00    -0.000 C 
BRANCH  26  27
ATOM     27  C   UNL     1      94.008 101.951  92.174  1.00  0.00    -0.000 C 
BRANCH  27  28
ATOM     28  C   UNL     1      93.786 100.963  91.012  1.00  0.00    -0.000 C 
BRANCH  28  29
ATOM     29  C   UNL     1      92.431 100.234  91.028  1.00  0.00    -0.000 C 
BRANCH  29  30
ATOM     30  C   UNL     1      91.947  99.910  92.450  1.00  0.00    -0.000 C 
BRANCH  30  31
ATOM     31  C   UNL     1      90.415  99.906  92.519  1.00  0.00    -0.003 C 
ATOM     32  C   UNL     1      89.852  98.529  92.184  1.00  0.00     0.004 C 
ENDBRANCH  30  31
ENDBRANCH  29  30
ENDBRANCH  28  29
ENDBRANCH  27  28
ENDBRANCH  26  27
ENDBRANCH  25  26
ENDBRANCH  24  25
ENDBRANCH  23  24
ENDBRANCH  22  23
ENDBRANCH  21  22
ENDBRANCH  20  21
ENDBRANCH  19  20
ENDBRANCH  18  19
ENDBRANCH   1  18
TORSDOF 28
ENDMDL
MODEL 9
REMARK VINA RESULT:    -3.933      3.647      9.484
REMARK INTER + INTRA:         -16.187
REMARK INTER:                 -11.738
REMARK INTRA:                  -4.449
REMARK UNBOUND:                -5.816
REMARK SMILES CCCCCCCCCCCCCCCCCCCCCCCCCCCCCC(=O)[O-]
REMARK SMILES IDX 16 1 17 2 18 3 19 4 20 5 21 6 22 7 23 8 24 9 25 10 26 11
REMARK SMILES IDX 27 12 28 13 29 14 30 15 31 16 32 17 15 18 14 19 13 20 12 21
REMARK SMILES IDX 11 22 10 23 9 24 8 25 7 26 6 27 5 28 4 29 3 30 2 31 1 32
REMARK H PARENT
REMARK Flexibility Score: inf
ROOT
ATOM      1  C   UNL     1      99.351  99.221  92.359  1.00  0.00     0.000 C 
ENDROOT
BRANCH   1   2
ATOM      2  C   UNL     1     100.111  98.239  91.450  1.00  0.00     0.000 C 
BRANCH   2   3
ATOM      3  C   UNL     1      99.919  96.749  91.789  1.00  0.00     0.000 C 
BRANCH   3   4
ATOM      4  C   UNL     1     100.034  95.835  90.559  1.00  0.00     0.000 C 
BRANCH   4   5
ATOM      5  C   UNL     1     100.968  96.434  89.495  1.00  0.00     0.000 C 
BRANCH   5   6
ATOM      6  C   UNL     1     101.750  95.355  88.717  1.00  0.00     0.000 C 
BRANCH   6   7
ATOM      7  C   UNL     1     101.561  93.920  89.251  1.00  0.00     0.000 C 
BRANCH   7   8
ATOM      8  C   UNL     1     102.835  93.221  89.759  1.00  0.00     0.000 C 
BRANCH   8   9
ATOM      9  C   UNL     1     103.949  94.208  90.149  1.00  0.00     0.000 C 
BRANCH   9  10
ATOM     10  C   UNL     1     103.793  94.742  91.585  1.00  0.00     0.000 C 
BRANCH  10  11
ATOM     11  C   UNL     1     104.570  96.036  91.884  1.00  0.00     0.000 C 
BRANCH  11  12
ATOM     12  C   UNL     1     103.657  97.266  92.000  1.00  0.00     0.000 C 
BRANCH  12  13
ATOM     13  C   UNL     1     103.836  98.204  90.800  1.00  0.00     0.006 C 
BRANCH  13  14
ATOM     14  C   UNL     1     105.167  97.938  90.085  1.00  0.00     0.053 C 
BRANCH  14  15
ATOM     15  C   UNL     1     104.951  97.560  88.651  1.00  0.00     0.041 C 
ATOM     16  O   UNL     1     105.649  96.656  88.116  1.00  0.00    -0.550 OA
ATOM     17  O   UNL     1     103.947  98.178  87.914  1.00  0.00    -0.550 OA
ENDBRANCH  14  15
ENDBRANCH  13  14
ENDBRANCH  12  13
ENDBRANCH  11  12
ENDBRANCH  10  11
ENDBRANCH   9  10
ENDBRANCH   8   9
ENDBRANCH   7   8
ENDBRANCH   6   7
ENDBRANCH   5   6
ENDBRANCH   4   5
ENDBRANCH   3   4
ENDBRANCH   2   3
ENDBRANCH   1   2
BRANCH   1  18
ATOM     18  C   UNL     1      98.000  99.662  91.769  1.00  0.00     0.000 C 
BRANCH  18  19
ATOM     19  C   UNL     1      97.740 101.166  91.951  1.00  0.00     0.000 C 
BRANCH  19  20
ATOM     20  C   UNL     1      98.172 101.998  90.730  1.00  0.00     0.000 C 
BRANCH  20  21
ATOM     21  C   UNL     1      97.606 101.458  89.408  1.00  0.00     0.000 C 
BRANCH  21  22
ATOM     22  C   UNL     1      96.839 102.525  88.613  1.00  0.00     0.000 C 
BRANCH  22  23
ATOM     23  C   UNL     1      96.995 103.938  89.204  1.00  0.00     0.000 C 
BRANCH  23  24
ATOM     24  C   UNL     1      95.650 104.650  89.467  1.00  0.00    -0.000 C 
BRANCH  24  25
ATOM     25  C   UNL     1      94.787 103.903  90.498  1.00  0.00    -0.000 C 
BRANCH  25  26
ATOM     26  C   UNL     1      93.378 103.574  89.972  1.00  0.00    -0.000 C 
BRANCH  26  27
ATOM     27  C   UNL     1      92.883 102.144  90.276  1.00  0.00    -0.000 C 
BRANCH  27  28
ATOM     28  C   UNL     1      93.625 101.019  89.529  1.00  0.00    -0.000 C 
BRANCH  28  29
ATOM     29  C   UNL     1      94.355 100.010  90.433  1.00  0.00    -0.000 C 
BRANCH  29  30
ATOM     30  C   UNL     1      94.036 100.206  91.922  1.00  0.00    -0.000 C 
BRANCH  30  31
ATOM     31  C   UNL     1      93.008  99.175  92.402  1.00  0.00    -0.003 C 
ATOM     32  C   UNL     1      92.622  99.418  93.857  1.00  0.00     0.004 C 
ENDBRANCH  30  31
ENDBRANCH  29  30
ENDBRANCH  28  29
ENDBRANCH  27  28
ENDBRANCH  26  27
ENDBRANCH  25  26
ENDBRANCH  24  25
ENDBRANCH  23  24
ENDBRANCH  22  23
ENDBRANCH  21  22
ENDBRANCH  20  21
ENDBRANCH  19  20
ENDBRANCH  18  19
ENDBRANCH   1  18
TORSDOF 28
ENDMDL
