MODEL 1
REMARK VINA RESULT:    -4.192      0.000      0.000
REMARK INTER + INTRA:          -8.146
REMARK INTER:                  -6.642
REMARK INTRA:                  -1.504
REMARK UNBOUND:                -1.504
REMARK SMILES CCCCCCCCCCCC(=O)[O-]
REMARK SMILES IDX 7 1 8 2 9 3 10 4 11 5 12 6 13 7 14 8 6 9 5 10 4 11 3 12 2 13
REMARK SMILES IDX 1 14
REMARK H PARENT
REMARK Flexibility Score: inf
ROOT
ATOM      1  C   UNL     1      44.005  19.020  12.085  1.00  0.00     0.000 C 
ENDROOT
BRANCH   1   2
ATOM      2  C   UNL     1      43.114  17.770  11.937  1.00  0.00     0.000 C 
BRANCH   2   3
ATOM      3  C   UNL     1      41.719  17.890  12.576  1.00  0.00     0.000 C 
BRANCH   3   4
ATOM      4  C   UNL     1      40.584  17.878  11.538  1.00  0.00     0.006 C 
BRANCH   4   5
ATOM      5  C   UNL     1      39.570  19.004  11.776  1.00  0.00     0.053 C 
BRANCH   5   6
ATOM      6  C   UNL     1      38.284  18.756  11.050  1.00  0.00     0.041 C 
ATOM      7  O   UNL     1      38.288  18.547   9.808  1.00  0.00    -0.550 OA
ATOM      8  O   UNL     1      37.085  18.717  11.751  1.00  0.00    -0.550 OA
ENDBRANCH   5   6
ENDBRANCH   4   5
ENDBRANCH   3   4
ENDBRANCH   2   3
ENDBRANCH   1   2
BRANCH   1   9
ATOM      9  C   UNL     1      43.415  20.147  12.955  1.00  0.00     0.000 C 
BRANCH   9  10
ATOM     10  C   UNL     1      43.008  21.416  12.185  1.00  0.00    -0.000 C 
BRANCH  10  11
ATOM     11  C   UNL     1      42.856  21.175  10.677  1.00  0.00    -0.000 C 
BRANCH  11  12
ATOM     12  C   UNL     1      41.636  21.919  10.121  1.00  0.00    -0.000 C 
BRANCH  12  13
ATOM     13  C   UNL     1      41.029  21.170   8.929  1.00  0.00    -0.003 C 
ATOM     14  C   UNL     1      41.682  19.803   8.748  1.00  0.00     0.004 C 
ENDBRANCH  12  13
ENDBRANCH  11  12
ENDBRANCH  10  11
ENDBRANCH   9  10
ENDBRANCH   1   9
TORSDOF 10
ENDMDL
MODEL 2
REMARK VINA RESULT:    -4.148      1.970      4.140
REMARK INTER + INTRA:          -8.077
REMARK INTER:                  -6.968
REMARK INTRA:                  -1.109
REMARK UNBOUND:                -1.504
REMARK SMILES CCCCCCCCCCCC(=O)[O-]
REMARK SMILES IDX 7 1 8 2 9 3 10 4 11 5 12 6 13 7 14 8 6 9 5 10 4 11 3 12 2 13
REMARK SMILES IDX 1 14
REMARK H PARENT
REMARK Flexibility Score: inf
ROOT
ATOM      1  C   UNL     1      43.166  20.614  12.441  1.00  0.00     0.000 C 
ENDROOT
BRANCH   1   2
ATOM      2  C   UNL     1      43.009  21.813  11.484  1.00  0.00     0.000 C 
BRANCH   2   3
ATOM      3  C   UNL     1      42.891  21.443   9.995  1.00  0.00     0.000 C 
BRANCH   3   4
ATOM      4  C   UNL     1      41.605  21.983   9.347  1.00  0.00     0.006 C 
BRANCH   4   5
ATOM      5  C   UNL     1      40.769  20.867   8.705  1.00  0.00     0.053 C 
BRANCH   5   6
ATOM      6  C   UNL     1      41.634  19.824   8.066  1.00  0.00     0.041 C 
ATOM      7  O   UNL     1      41.629  18.643   8.502  1.00  0.00    -0.550 OA
ATOM      8  O   UNL     1      42.417  20.149   6.965  1.00  0.00    -0.550 OA
ENDBRANCH   5   6
ENDBRANCH   4   5
ENDBRANCH   3   4
ENDBRANCH   2   3
ENDBRANCH   1   2
BRANCH   1   9
ATOM      9  C   UNL     1      42.110  20.526  13.561  1.00  0.00     0.000 C 
BRANCH   9  10
ATOM     10  C   UNL     1      41.086  19.388  13.400  1.00  0.00    -0.000 C 
BRANCH  10  11
ATOM     11  C   UNL     1      41.546  18.308  12.410  1.00  0.00    -0.000 C 
BRANCH  11  12
ATOM     12  C   UNL     1      40.394  17.872  11.497  1.00  0.00    -0.000 C 
BRANCH  12  13
ATOM     13  C   UNL     1      39.265  18.908  11.501  1.00  0.00    -0.003 C 
ATOM     14  C   UNL     1      38.267  18.640  10.379  1.00  0.00     0.004 C 
ENDBRANCH  12  13
ENDBRANCH  11  12
ENDBRANCH  10  11
ENDBRANCH   9  10
ENDBRANCH   1   9
TORSDOF 10
ENDMDL
MODEL 3
REMARK VINA RESULT:    -4.121      2.844      4.547
REMARK INTER + INTRA:          -8.035
REMARK INTER:                  -6.931
REMARK INTRA:                  -1.103
REMARK UNBOUND:                -1.504
REMARK SMILES CCCCCCCCCCCC(=O)[O-]
REMARK SMILES IDX 7 1 8 2 9 3 10 4 11 5 12 6 13 7 14 8 6 9 5 10 4 11 3 12 2 13
REMARK SMILES IDX 1 14
REMARK H PARENT
REMARK Flexibility Score: inf
ROOT
ATOM      1  C   UNL     1      39.239  19.770  10.318  1.00  0.00     0.000 C 
ENDROOT
BRANCH   1   2
ATOM      2  C   UNL     1      39.512  18.889  11.554  1.00  0.00     0.000 C 
BRANCH   2   3
ATOM      3  C   UNL     1      40.657  17.874  11.386  1.00  0.00     0.000 C 
BRANCH   3   4
ATOM      4  C   UNL     1      41.800  18.093  12.392  1.00  0.00     0.006 C 
BRANCH   4   5
ATOM      5  C   UNL     1      42.644  16.827  12.592  1.00  0.00     0.053 C 
BRANCH   5   6
ATOM      6  C   UNL     1      44.092  17.074  12.295  1.00  0.00     0.041 C 
ATOM      7  O   UNL     1      44.521  18.250  12.168  1.00  0.00    -0.550 OA
ATOM      8  O   UNL     1      44.973  16.005  12.195  1.00  0.00    -0.550 OA
ENDBRANCH   5   6
ENDBRANCH   4   5
ENDBRANCH   3   4
ENDBRANCH   2   3
ENDBRANCH   1   2
BRANCH   1   9
ATOM      9  C   UNL     1      40.462  20.032   9.416  1.00  0.00     0.000 C 
BRANCH   9  10
ATOM     10  C   UNL     1      40.813  21.517   9.215  1.00  0.00    -0.000 C 
BRANCH  10  11
ATOM     11  C   UNL     1      42.312  21.803   9.385  1.00  0.00    -0.000 C 
BRANCH  11  12
ATOM     12  C   UNL     1      42.855  21.153  10.663  1.00  0.00    -0.000 C 
BRANCH  12  13
ATOM     13  C   UNL     1      42.806  22.131  11.842  1.00  0.00    -0.003 C 
ATOM     14  C   UNL     1      43.261  21.458  13.134  1.00  0.00     0.004 C 
ENDBRANCH  12  13
ENDBRANCH  11  12
ENDBRANCH  10  11
ENDBRANCH   9  10
ENDBRANCH   1   9
TORSDOF 10
ENDMDL
MODEL 4
REMARK VINA RESULT:    -4.050      1.859      4.164
REMARK INTER + INTRA:          -7.921
REMARK INTER:                  -6.720
REMARK INTRA:                  -1.201
REMARK UNBOUND:                -1.504
REMARK SMILES CCCCCCCCCCCC(=O)[O-]
REMARK SMILES IDX 7 1 8 2 9 3 10 4 11 5 12 6 13 7 14 8 6 9 5 10 4 11 3 12 2 13
REMARK SMILES IDX 1 14
REMARK H PARENT
REMARK Flexibility Score: inf
ROOT
ATOM      1  C   UNL     1      43.078  19.771  13.087  1.00  0.00     0.000 C 
ENDROOT
BRANCH   1   2
ATOM      2  C   UNL     1      42.792  21.124  12.402  1.00  0.00     0.000 C 
BRANCH   2   3
ATOM      3  C   UNL     1      43.163  21.185  10.910  1.00  0.00     0.000 C 
BRANCH   3   4
ATOM      4  C   UNL     1      41.981  21.602  10.018  1.00  0.00     0.006 C 
BRANCH   4   5
ATOM      5  C   UNL     1      42.382  21.715   8.542  1.00  0.00     0.053 C 
BRANCH   5   6
ATOM      6  C   UNL     1      42.062  20.463   7.783  1.00  0.00     0.041 C 
ATOM      7  O   UNL     1      42.819  20.074   6.855  1.00  0.00    -0.550 OA
ATOM      8  O   UNL     1      40.949  19.706   8.127  1.00  0.00    -0.550 OA
ENDBRANCH   5   6
ENDBRANCH   4   5
ENDBRANCH   3   4
ENDBRANCH   2   3
ENDBRANCH   1   2
BRANCH   1   9
ATOM      9  C   UNL     1      43.866  18.758  12.234  1.00  0.00     0.000 C 
BRANCH   9  10
ATOM     10  C   UNL     1      43.068  17.516  11.799  1.00  0.00    -0.000 C 
BRANCH  10  11
ATOM     11  C   UNL     1      41.599  17.566  12.243  1.00  0.00    -0.000 C 
BRANCH  11  12
ATOM     12  C   UNL     1      40.685  17.959  11.076  1.00  0.00    -0.000 C 
BRANCH  12  13
ATOM     13  C   UNL     1      39.726  19.085  11.482  1.00  0.00    -0.003 C 
ATOM     14  C   UNL     1      38.389  18.957  10.757  1.00  0.00     0.004 C 
ENDBRANCH  12  13
ENDBRANCH  11  12
ENDBRANCH  10  11
ENDBRANCH   9  10
ENDBRANCH   1   9
TORSDOF 10
ENDMDL
MODEL 5
REMARK VINA RESULT:    -4.026      3.045      3.707
REMARK INTER + INTRA:          -7.883
REMARK INTER:                  -6.611
REMARK INTRA:                  -1.272
REMARK UNBOUND:                -1.504
REMARK SMILES CCCCCCCCCCCC(=O)[O-]
REMARK SMILES IDX 7 1 8 2 9 3 10 4 11 5 12 6 13 7 14 8 6 9 5 10 4 11 3 12 2 13
REMARK SMILES IDX 1 14
REMARK H PARENT
REMARK Flexibility Score: inf
ROOT
ATOM      1  C   UNL     1      42.904  20.887  12.918  1.00  0.00     0.000 C 
ENDROOT
BRANCH   1   2
ATOM      2  C   UNL     1      41.644  20.209  13.493  1.00  0.00     0.000 C 
BRANCH   2   3
ATOM      3  C   UNL     1      40.925  19.250  12.527  1.00  0.00     0.000 C 
BRANCH   3   4
ATOM      4  C   UNL     1      41.900  18.436  11.660  1.00  0.00     0.006 C 
BRANCH   4   5
ATOM      5  C   UNL     1      42.337  17.135  12.346  1.00  0.00     0.053 C 
BRANCH   5   6
ATOM      6  C   UNL     1      43.817  16.923  12.241  1.00  0.00     0.041 C 
ATOM      7  O   UNL     1      44.597  17.910  12.196  1.00  0.00    -0.550 OA
ATOM      8  O   UNL     1      44.335  15.634  12.231  1.00  0.00    -0.550 OA
ENDBRANCH   5   6
ENDBRANCH   4   5
ENDBRANCH   3   4
ENDBRANCH   2   3
ENDBRANCH   1   2
BRANCH   1   9
ATOM      9  C   UNL     1      42.797  22.412  12.721  1.00  0.00     0.000 C 
BRANCH   9  10
ATOM     10  C   UNL     1      42.966  22.892  11.269  1.00  0.00    -0.000 C 
BRANCH  10  11
ATOM     11  C   UNL     1      43.153  21.736  10.276  1.00  0.00    -0.000 C 
BRANCH  11  12
ATOM     12  C   UNL     1      42.455  22.036   8.944  1.00  0.00    -0.000 C 
BRANCH  12  13
ATOM     13  C   UNL     1      41.347  21.015   8.661  1.00  0.00    -0.003 C 
ATOM     14  C   UNL     1      40.080  21.346   9.445  1.00  0.00     0.004 C 
ENDBRANCH  12  13
ENDBRANCH  11  12
ENDBRANCH  10  11
ENDBRANCH   9  10
ENDBRANCH   1   9
TORSDOF 10
ENDMDL
MODEL 6
REMARK VINA RESULT:    -4.017      2.081      4.327
REMARK INTER + INTRA:          -7.870
REMARK INTER:                  -6.421
REMARK INTRA:                  -1.449
REMARK UNBOUND:                -1.504
REMARK SMILES CCCCCCCCCCCC(=O)[O-]
REMARK SMILES IDX 7 1 8 2 9 3 10 4 11 5 12 6 13 7 14 8 6 9 5 10 4 11 3 12 2 13
REMARK SMILES IDX 1 14
REMARK H PARENT
REMARK Flexibility Score: inf
ROOT
ATOM      1  C   UNL     1      42.300  20.864  13.739  1.00  0.00     0.000 C 
ENDROOT
BRANCH   1   2
ATOM      2  C   UNL     1      43.052  21.220  12.440  1.00  0.00     0.000 C 
BRANCH   2   3
ATOM      3  C   UNL     1      42.836  22.659  11.939  1.00  0.00     0.000 C 
BRANCH   3   4
ATOM      4  C   UNL     1      42.638  22.737  10.416  1.00  0.00     0.006 C 
BRANCH   4   5
ATOM      5  C   UNL     1      42.795  21.368   9.741  1.00  0.00     0.053 C 
BRANCH   5   6
ATOM      6  C   UNL     1      41.628  21.048   8.857  1.00  0.00     0.041 C 
ATOM      7  O   UNL     1      41.754  20.221   7.917  1.00  0.00    -0.550 OA
ATOM      8  O   UNL     1      40.393  21.637   9.096  1.00  0.00    -0.550 OA
ENDBRANCH   5   6
ENDBRANCH   4   5
ENDBRANCH   3   4
ENDBRANCH   2   3
ENDBRANCH   1   2
BRANCH   1   9
ATOM      9  C   UNL     1      41.237  19.756  13.599  1.00  0.00     0.000 C 
BRANCH   9  10
ATOM     10  C   UNL     1      40.731  19.520  12.165  1.00  0.00    -0.000 C 
BRANCH  10  11
ATOM     11  C   UNL     1      40.888  18.063  11.708  1.00  0.00    -0.000 C 
BRANCH  11  12
ATOM     12  C   UNL     1      42.235  17.848  11.008  1.00  0.00    -0.000 C 
BRANCH  12  13
ATOM     13  C   UNL     1      43.177  17.001  11.871  1.00  0.00    -0.003 C 
ATOM     14  C   UNL     1      44.399  17.805  12.304  1.00  0.00     0.004 C 
ENDBRANCH  12  13
ENDBRANCH  11  12
ENDBRANCH  10  11
ENDBRANCH   9  10
ENDBRANCH   1   9
TORSDOF 10
ENDMDL
MODEL 7
REMARK VINA RESULT:    -4.017      1.115      3.359
REMARK INTER + INTRA:          -7.869
REMARK INTER:                  -6.645
REMARK INTRA:                  -1.224
REMARK UNBOUND:                -1.504
REMARK SMILES CCCCCCCCCCCC(=O)[O-]
REMARK SMILES IDX 7 1 8 2 9 3 10 4 11 5 12 6 13 7 14 8 6 9 5 10 4 11 3 12 2 13
REMARK SMILES IDX 1 14
REMARK H PARENT
REMARK Flexibility Score: inf
ROOT
ATOM      1  C   UNL     1      43.057  21.431  10.103  1.00  0.00     0.000 C 
ENDROOT
BRANCH   1   2
ATOM      2  C   UNL     1      41.911  21.602   9.086  1.00  0.00     0.000 C 
BRANCH   2   3
ATOM      3  C   UNL     1      41.449  20.301   8.405  1.00  0.00     0.000 C 
BRANCH   3   4
ATOM      4  C   UNL     1      40.866  19.282   9.399  1.00  0.00     0.006 C 
BRANCH   4   5
ATOM      5  C   UNL     1      39.680  19.855  10.186  1.00  0.00     0.053 C 
BRANCH   5   6
ATOM      6  C   UNL     1      38.903  18.778  10.880  1.00  0.00     0.041 C 
ATOM      7  O   UNL     1      39.479  17.723  11.254  1.00  0.00    -0.550 OA
ATOM      8  O   UNL     1      37.552  18.958  11.148  1.00  0.00    -0.550 OA
ENDBRANCH   5   6
ENDBRANCH   4   5
ENDBRANCH   3   4
ENDBRANCH   2   3
ENDBRANCH   1   2
BRANCH   1   9
ATOM      9  C   UNL     1      42.849  22.149  11.451  1.00  0.00     0.000 C 
BRANCH   9  10
ATOM     10  C   UNL     1      42.783  21.221  12.678  1.00  0.00    -0.000 C 
BRANCH  10  11
ATOM     11  C   UNL     1      43.529  19.897  12.465  1.00  0.00    -0.000 C 
BRANCH  11  12
ATOM     12  C   UNL     1      42.599  18.699  12.687  1.00  0.00    -0.000 C 
BRANCH  12  13
ATOM     13  C   UNL     1      43.022  17.504  11.824  1.00  0.00    -0.003 C 
ATOM     14  C   UNL     1      44.270  16.832  12.390  1.00  0.00     0.004 C 
ENDBRANCH  12  13
ENDBRANCH  11  12
ENDBRANCH  10  11
ENDBRANCH   9  10
ENDBRANCH   1   9
TORSDOF 10
ENDMDL
MODEL 8
REMARK VINA RESULT:    -4.011      2.832      5.214
REMARK INTER + INTRA:          -7.860
REMARK INTER:                  -6.791
REMARK INTRA:                  -1.069
REMARK UNBOUND:                -1.504
REMARK SMILES CCCCCCCCCCCC(=O)[O-]
REMARK SMILES IDX 7 1 8 2 9 3 10 4 11 5 12 6 13 7 14 8 6 9 5 10 4 11 3 12 2 13
REMARK SMILES IDX 1 14
REMARK H PARENT
REMARK Flexibility Score: inf
ROOT
ATOM      1  C   UNL     1      41.380  20.231   8.337  1.00  0.00     0.000 C 
ENDROOT
BRANCH   1   2
ATOM      2  C   UNL     1      41.172  21.595   9.027  1.00  0.00     0.000 C 
BRANCH   2   3
ATOM      3  C   UNL     1      42.445  22.217   9.629  1.00  0.00     0.000 C 
BRANCH   3   4
ATOM      4  C   UNL     1      42.835  21.588  10.978  1.00  0.00     0.006 C 
BRANCH   4   5
ATOM      5  C   UNL     1      42.910  22.630  12.102  1.00  0.00     0.053 C 
BRANCH   5   6
ATOM      6  C   UNL     1      43.026  21.985  13.449  1.00  0.00     0.041 C 
ATOM      7  O   UNL     1      43.954  21.165  13.680  1.00  0.00    -0.550 OA
ATOM      8  O   UNL     1      42.133  22.317  14.459  1.00  0.00    -0.550 OA
ENDBRANCH   5   6
ENDBRANCH   4   5
ENDBRANCH   3   4
ENDBRANCH   2   3
ENDBRANCH   1   2
BRANCH   1   9
ATOM      9  C   UNL     1      40.941  19.006   9.163  1.00  0.00     0.000 C 
BRANCH   9  10
ATOM     10  C   UNL     1      39.721  19.239  10.072  1.00  0.00    -0.000 C 
BRANCH  10  11
ATOM     11  C   UNL     1      40.040  19.039  11.561  1.00  0.00    -0.000 C 
BRANCH  11  12
ATOM     12  C   UNL     1      40.968  17.836  11.768  1.00  0.00    -0.000 C 
BRANCH  12  13
ATOM     13  C   UNL     1      42.208  18.228  12.579  1.00  0.00    -0.003 C 
ATOM     14  C   UNL     1      43.310  17.183  12.440  1.00  0.00     0.004 C 
ENDBRANCH  12  13
ENDBRANCH  11  12
ENDBRANCH  10  11
ENDBRANCH   9  10
ENDBRANCH   1   9
TORSDOF 10
ENDMDL
MODEL 9
REMARK VINA RESULT:    -4.005      2.632      4.066
REMARK INTER + INTRA:          -7.851
REMARK INTER:                  -6.663
REMARK INTRA:                  -1.187
REMARK UNBOUND:                -1.504
REMARK SMILES CCCCCCCCCCCC(=O)[O-]
REMARK SMILES IDX 7 1 8 2 9 3 10 4 11 5 12 6 13 7 14 8 6 9 5 10 4 11 3 12 2 13
REMARK SMILES IDX 1 14
REMARK H PARENT
REMARK Flexibility Score: inf
ROOT
ATOM      1  C   UNL     1      40.823  18.568  12.213  1.00  0.00     0.000 C 
ENDROOT
BRANCH   1   2
ATOM      2  C   UNL     1      42.023  17.602  12.298  1.00  0.00     0.000 C 
BRANCH   2   3
ATOM      3  C   UNL     1      43.403  18.282  12.310  1.00  0.00     0.000 C 
BRANCH   3   4
ATOM      4  C   UNL     1      43.327  19.790  12.015  1.00  0.00     0.006 C 
BRANCH   4   5
ATOM      5  C   UNL     1      43.773  20.637  13.214  1.00  0.00     0.053 C 
BRANCH   5   6
ATOM      6  C   UNL     1      42.710  21.607  13.633  1.00  0.00     0.041 C 
ATOM      7  O   UNL     1      42.707  22.779  13.175  1.00  0.00    -0.550 OA
ATOM      8  O   UNL     1      41.704  21.203  14.501  1.00  0.00    -0.550 OA
ENDBRANCH   5   6
ENDBRANCH   4   5
ENDBRANCH   3   4
ENDBRANCH   2   3
ENDBRANCH   1   2
BRANCH   1   9
ATOM      9  C   UNL     1      39.745  18.185  11.180  1.00  0.00     0.000 C 
BRANCH   9  10
ATOM     10  C   UNL     1      39.147  19.368  10.398  1.00  0.00    -0.000 C 
BRANCH  10  11
ATOM     11  C   UNL     1      40.203  20.399   9.975  1.00  0.00    -0.000 C 
BRANCH  11  12
ATOM     12  C   UNL     1      40.934  19.949   8.705  1.00  0.00    -0.000 C 
BRANCH  12  13
ATOM     13  C   UNL     1      42.173  20.813   8.446  1.00  0.00    -0.003 C 
ATOM     14  C   UNL     1      42.163  22.065   9.318  1.00  0.00     0.004 C 
ENDBRANCH  12  13
ENDBRANCH  11  12
ENDBRANCH  10  11
ENDBRANCH   9  10
ENDBRANCH   1   9
TORSDOF 10
ENDMDL
