MODEL 1
REMARK VINA RESULT:    -6.449      0.000      0.000
REMARK INTER + INTRA:          -7.843
REMARK INTER:                  -7.768
REMARK INTRA:                  -0.075
REMARK UNBOUND:                -0.075
REMARK SMILES O=c1c(O)c(-c2ccc(O)c(O)c2)oc2cc(O)cc(O)c12
REMARK SMILES IDX 5 1 3 2 2 3 1 4 22 5 20 6 19 7 17 8 16 9 15 10 14 11 6 12
REMARK SMILES IDX 7 13 8 14 9 15 13 16 11 17 10 18 12 20 4 22 21 24 18 26
REMARK H PARENT 10 19 12 21 4 23 21 25 18 27
REMARK Flexibility Score: inf
ROOT
ATOM      1  C   UNL     1     -23.244  29.373 -20.881  1.00  0.00     0.180 A 
ATOM      2  C   UNL     1     -23.215  30.759 -20.641  1.00  0.00     0.208 A 
ATOM      3  C   UNL     1     -21.978  31.422 -20.638  1.00  0.00     0.238 A 
ATOM      4  O   UNL     1     -21.962  32.671 -20.477  1.00  0.00    -0.285 OA
ATOM      5  C   UNL     1     -20.785  30.692 -20.860  1.00  0.00     0.111 A 
ATOM      6  C   UNL     1     -19.474  31.256 -20.839  1.00  0.00     0.134 A 
ATOM      7  C   UNL     1     -18.376  30.465 -21.201  1.00  0.00     0.093 A 
ATOM      8  C   UNL     1     -18.537  29.113 -21.518  1.00  0.00     0.123 A 
ATOM      9  C   UNL     1     -19.805  28.540 -21.483  1.00  0.00     0.094 A 
ATOM     10  C   UNL     1     -20.924  29.312 -21.161  1.00  0.00     0.146 A 
ATOM     11  O   UNL     1     -22.116  28.729 -21.150  1.00  0.00    -0.452 OA
ENDROOT
BRANCH   1  12
ATOM     12  C   UNL     1     -24.507  28.600 -20.875  1.00  0.00     0.025 A 
ATOM     13  C   UNL     1     -25.382  28.635 -19.774  1.00  0.00     0.016 A 
ATOM     14  C   UNL     1     -26.555  27.878 -19.781  1.00  0.00     0.051 A 
ATOM     15  C   UNL     1     -26.867  27.065 -20.878  1.00  0.00     0.157 A 
ATOM     16  C   UNL     1     -24.813  27.767 -21.963  1.00  0.00     0.062 A 
ATOM     17  C   UNL     1     -25.989  27.007 -21.973  1.00  0.00     0.158 A 
BRANCH  15  18
ATOM     18  O   UNL     1     -28.040  26.311 -20.882  1.00  0.00    -0.504 OA
ATOM     19  H   UNL     1     -28.871  26.624 -21.370  1.00  0.00     0.293 HD
ENDBRANCH  15  18
BRANCH  17  20
ATOM     20  O   UNL     1     -26.266  26.203 -23.078  1.00  0.00    -0.504 OA
ATOM     21  H   UNL     1     -25.568  25.597 -23.491  1.00  0.00     0.293 HD
ENDBRANCH  17  20
ENDBRANCH   1  12
BRANCH   2  22
ATOM     22  O   UNL     1     -24.406  31.464 -20.446  1.00  0.00    -0.502 OA
ATOM     23  H   UNL     1     -24.426  32.399 -20.058  1.00  0.00     0.293 HD
ENDBRANCH   2  22
BRANCH   6  24
ATOM     24  O   UNL     1     -19.195  32.568 -20.448  1.00  0.00    -0.507 OA
ATOM     25  H   UNL     1     -19.886  33.234 -20.136  1.00  0.00     0.293 HD
ENDBRANCH   6  24
BRANCH   8  26
ATOM     26  O   UNL     1     -17.437  28.329 -21.861  1.00  0.00    -0.508 OA
ATOM     27  H   UNL     1     -17.323  27.954 -22.795  1.00  0.00     0.293 HD
ENDBRANCH   8  26
TORSDOF 6
ENDMDL
MODEL 2
REMARK VINA RESULT:    -6.448      4.387      5.547
REMARK INTER + INTRA:          -7.841
REMARK INTER:                  -7.603
REMARK INTRA:                  -0.239
REMARK UNBOUND:                -0.075
REMARK SMILES O=c1c(O)c(-c2ccc(O)c(O)c2)oc2cc(O)cc(O)c12
REMARK SMILES IDX 5 1 3 2 2 3 1 4 22 5 20 6 19 7 17 8 16 9 15 10 14 11 6 12
REMARK SMILES IDX 7 13 8 14 9 15 13 16 11 17 10 18 12 20 4 22 21 24 18 26
REMARK H PARENT 10 19 12 21 4 23 21 25 18 27
REMARK Flexibility Score: inf
ROOT
ATOM      1  C   UNL     1     -25.794  29.342 -18.704  1.00  0.00     0.180 A 
ATOM      2  C   UNL     1     -26.379  30.619 -18.644  1.00  0.00     0.208 A 
ATOM      3  C   UNL     1     -26.167  31.412 -17.505  1.00  0.00     0.238 A 
ATOM      4  O   UNL     1     -26.648  32.575 -17.480  1.00  0.00    -0.285 OA
ATOM      5  C   UNL     1     -25.387  30.913 -16.434  1.00  0.00     0.111 A 
ATOM      6  C   UNL     1     -25.140  31.614 -15.216  1.00  0.00     0.134 A 
ATOM      7  C   UNL     1     -24.247  31.079 -14.279  1.00  0.00     0.093 A 
ATOM      8  C   UNL     1     -23.642  29.836 -14.490  1.00  0.00     0.123 A 
ATOM      9  C   UNL     1     -23.923  29.118 -15.648  1.00  0.00     0.094 A 
ATOM     10  C   UNL     1     -24.782  29.642 -16.617  1.00  0.00     0.146 A 
ATOM     11  O   UNL     1     -25.014  28.929 -17.712  1.00  0.00    -0.452 OA
ENDROOT
BRANCH   1  12
ATOM     12  C   UNL     1     -25.992  28.438 -19.860  1.00  0.00     0.025 A 
ATOM     13  C   UNL     1     -24.970  28.217 -20.800  1.00  0.00     0.016 A 
ATOM     14  C   UNL     1     -25.187  27.379 -21.896  1.00  0.00     0.051 A 
ATOM     15  C   UNL     1     -26.431  26.761 -22.079  1.00  0.00     0.157 A 
ATOM     16  C   UNL     1     -27.244  27.833 -20.058  1.00  0.00     0.062 A 
ATOM     17  C   UNL     1     -27.465  26.993 -21.156  1.00  0.00     0.158 A 
BRANCH  15  18
ATOM     18  O   UNL     1     -26.645  25.924 -23.173  1.00  0.00    -0.504 OA
ATOM     19  H   UNL     1     -26.461  26.233 -24.121  1.00  0.00     0.293 HD
ENDBRANCH  15  18
BRANCH  17  20
ATOM     20  O   UNL     1     -28.717  26.398 -21.312  1.00  0.00    -0.504 OA
ATOM     21  H   UNL     1     -29.478  26.863 -21.792  1.00  0.00     0.293 HD
ENDBRANCH  17  20
ENDBRANCH   1  12
BRANCH   2  22
ATOM     22  O   UNL     1     -27.128  31.100 -19.722  1.00  0.00    -0.502 OA
ATOM     23  H   UNL     1     -28.139  31.151 -19.701  1.00  0.00     0.293 HD
ENDBRANCH   2  22
BRANCH   6  24
ATOM     24  O   UNL     1     -25.764  32.816 -14.867  1.00  0.00    -0.507 OA
ATOM     25  H   UNL     1     -26.640  33.140 -15.247  1.00  0.00     0.293 HD
ENDBRANCH   6  24
BRANCH   8  26
ATOM     26  O   UNL     1     -22.767  29.304 -13.545  1.00  0.00    -0.508 OA
ATOM     27  H   UNL     1     -21.836  29.681 -13.413  1.00  0.00     0.293 HD
ENDBRANCH   8  26
TORSDOF 6
ENDMDL
MODEL 3
REMARK VINA RESULT:    -6.447      4.052      7.215
REMARK INTER + INTRA:          -7.841
REMARK INTER:                  -7.521
REMARK INTRA:                  -0.319
REMARK UNBOUND:                -0.075
REMARK SMILES O=c1c(O)c(-c2ccc(O)c(O)c2)oc2cc(O)cc(O)c12
REMARK SMILES IDX 5 1 3 2 2 3 1 4 22 5 20 6 19 7 17 8 16 9 15 10 14 11 6 12
REMARK SMILES IDX 7 13 8 14 9 15 13 16 11 17 10 18 12 20 4 22 21 24 18 26
REMARK H PARENT 10 19 12 21 4 23 21 25 18 27
REMARK Flexibility Score: inf
ROOT
ATOM      1  C   UNL     1     -25.021  29.929 -17.603  1.00  0.00     0.180 A 
ATOM      2  C   UNL     1     -23.983  30.057 -18.542  1.00  0.00     0.208 A 
ATOM      3  C   UNL     1     -24.064  29.341 -19.747  1.00  0.00     0.238 A 
ATOM      4  O   UNL     1     -23.159  29.501 -20.608  1.00  0.00    -0.285 OA
ATOM      5  C   UNL     1     -25.173  28.495 -19.991  1.00  0.00     0.111 A 
ATOM      6  C   UNL     1     -25.337  27.692 -21.160  1.00  0.00     0.134 A 
ATOM      7  C   UNL     1     -26.535  26.993 -21.355  1.00  0.00     0.093 A 
ATOM      8  C   UNL     1     -27.547  27.017 -20.391  1.00  0.00     0.123 A 
ATOM      9  C   UNL     1     -27.370  27.749 -19.220  1.00  0.00     0.094 A 
ATOM     10  C   UNL     1     -26.201  28.486 -19.014  1.00  0.00     0.146 A 
ATOM     11  O   UNL     1     -26.078  29.179 -17.889  1.00  0.00    -0.452 OA
ENDROOT
BRANCH   1  12
ATOM     12  C   UNL     1     -24.995  30.633 -16.300  1.00  0.00     0.025 A 
ATOM     13  C   UNL     1     -25.471  31.950 -16.169  1.00  0.00     0.016 A 
ATOM     14  C   UNL     1     -25.414  32.602 -14.935  1.00  0.00     0.051 A 
ATOM     15  C   UNL     1     -24.870  31.956 -13.818  1.00  0.00     0.157 A 
ATOM     16  C   UNL     1     -24.432  29.996 -15.182  1.00  0.00     0.062 A 
ATOM     17  C   UNL     1     -24.374  30.648 -13.944  1.00  0.00     0.158 A 
BRANCH  15  18
ATOM     18  O   UNL     1     -24.816  32.609 -12.587  1.00  0.00    -0.504 OA
ATOM     19  H   UNL     1     -24.373  32.185 -11.780  1.00  0.00     0.293 HD
ENDBRANCH  15  18
BRANCH  17  20
ATOM     20  O   UNL     1     -23.819  29.979 -12.852  1.00  0.00    -0.504 OA
ATOM     21  H   UNL     1     -22.850  30.097 -12.584  1.00  0.00     0.293 HD
ENDBRANCH  17  20
ENDBRANCH   1  12
BRANCH   2  22
ATOM     22  O   UNL     1     -22.909  30.915 -18.290  1.00  0.00    -0.502 OA
ATOM     23  H   UNL     1     -22.617  31.627 -18.948  1.00  0.00     0.293 HD
ENDBRANCH   2  22
BRANCH   6  24
ATOM     24  O   UNL     1     -24.353  27.526 -22.138  1.00  0.00    -0.507 OA
ATOM     25  H   UNL     1     -23.829  26.677 -22.289  1.00  0.00     0.293 HD
ENDBRANCH   6  24
BRANCH   8  26
ATOM     26  O   UNL     1     -28.730  26.305 -20.585  1.00  0.00    -0.508 OA
ATOM     27  H   UNL     1     -29.228  25.884 -19.810  1.00  0.00     0.293 HD
ENDBRANCH   8  26
TORSDOF 6
ENDMDL
MODEL 4
REMARK VINA RESULT:    -6.388      8.512      9.086
REMARK INTER + INTRA:          -7.770
REMARK INTER:                  -7.876
REMARK INTRA:                   0.106
REMARK UNBOUND:                -0.075
REMARK SMILES O=c1c(O)c(-c2ccc(O)c(O)c2)oc2cc(O)cc(O)c12
REMARK SMILES IDX 5 1 3 2 2 3 1 4 22 5 20 6 19 7 17 8 16 9 15 10 14 11 6 12
REMARK SMILES IDX 7 13 8 14 9 15 13 16 11 17 10 18 12 20 4 22 21 24 18 26
REMARK H PARENT 10 19 12 21 4 23 21 25 18 27
REMARK Flexibility Score: inf
ROOT
ATOM      1  C   UNL     1     -21.960  33.983 -13.617  1.00  0.00     0.180 A 
ATOM      2  C   UNL     1     -21.258  34.830 -14.494  1.00  0.00     0.208 A 
ATOM      3  C   UNL     1     -19.875  34.648 -14.654  1.00  0.00     0.238 A 
ATOM      4  O   UNL     1     -19.262  35.373 -15.481  1.00  0.00    -0.285 OA
ATOM      5  C   UNL     1     -19.208  33.634 -13.924  1.00  0.00     0.111 A 
ATOM      6  C   UNL     1     -17.804  33.387 -13.979  1.00  0.00     0.134 A 
ATOM      7  C   UNL     1     -17.271  32.275 -13.315  1.00  0.00     0.093 A 
ATOM      8  C   UNL     1     -18.085  31.438 -12.545  1.00  0.00     0.123 A 
ATOM      9  C   UNL     1     -19.447  31.706 -12.438  1.00  0.00     0.094 A 
ATOM     10  C   UNL     1     -20.013  32.788 -13.118  1.00  0.00     0.146 A 
ATOM     11  O   UNL     1     -21.318  33.001 -12.998  1.00  0.00    -0.452 OA
ENDROOT
BRANCH   1  12
ATOM     12  C   UNL     1     -23.414  34.129 -13.377  1.00  0.00     0.025 A 
ATOM     13  C   UNL     1     -23.952  34.060 -12.080  1.00  0.00     0.016 A 
ATOM     14  C   UNL     1     -25.329  34.176 -11.880  1.00  0.00     0.051 A 
ATOM     15  C   UNL     1     -26.191  34.349 -12.971  1.00  0.00     0.157 A 
ATOM     16  C   UNL     1     -24.283  34.281 -14.470  1.00  0.00     0.062 A 
ATOM     17  C   UNL     1     -25.664  34.398 -14.272  1.00  0.00     0.158 A 
BRANCH  15  18
ATOM     18  O   UNL     1     -27.565  34.465 -12.768  1.00  0.00    -0.504 OA
ATOM     19  H   UNL     1     -28.135  33.665 -12.518  1.00  0.00     0.293 HD
ENDBRANCH  15  18
BRANCH  17  20
ATOM     20  O   UNL     1     -26.495  34.562 -15.380  1.00  0.00    -0.504 OA
ATOM     21  H   UNL     1     -26.990  35.428 -15.558  1.00  0.00     0.293 HD
ENDBRANCH  17  20
ENDBRANCH   1  12
BRANCH   2  22
ATOM     22  O   UNL     1     -21.940  35.810 -15.221  1.00  0.00    -0.502 OA
ATOM     23  H   UNL     1     -22.892  35.684 -15.541  1.00  0.00     0.293 HD
ENDBRANCH   2  22
BRANCH   6  24
ATOM     24  O   UNL     1     -16.891  34.213 -14.642  1.00  0.00    -0.507 OA
ATOM     25  H   UNL     1     -16.563  35.102 -14.296  1.00  0.00     0.293 HD
ENDBRANCH   6  24
BRANCH   8  26
ATOM     26  O   UNL     1     -17.545  30.343 -11.875  1.00  0.00    -0.508 OA
ATOM     27  H   UNL     1     -17.219  29.524 -12.374  1.00  0.00     0.293 HD
ENDBRANCH   8  26
TORSDOF 6
ENDMDL
MODEL 5
REMARK VINA RESULT:    -6.320      4.261      5.911
REMARK INTER + INTRA:          -7.688
REMARK INTER:                  -7.385
REMARK INTRA:                  -0.303
REMARK UNBOUND:                -0.075
REMARK SMILES O=c1c(O)c(-c2ccc(O)c(O)c2)oc2cc(O)cc(O)c12
REMARK SMILES IDX 5 1 3 2 2 3 1 4 22 5 20 6 19 7 17 8 16 9 15 10 14 11 6 12
REMARK SMILES IDX 7 13 8 14 9 15 13 16 11 17 10 18 12 20 4 22 21 24 18 26
REMARK H PARENT 10 19 12 21 4 23 21 25 18 27
REMARK Flexibility Score: inf
ROOT
ATOM      1  C   UNL     1     -25.692  30.114 -18.053  1.00  0.00     0.180 A 
ATOM      2  C   UNL     1     -25.630  31.494 -18.318  1.00  0.00     0.208 A 
ATOM      3  C   UNL     1     -25.314  32.374 -17.270  1.00  0.00     0.238 A 
ATOM      4  O   UNL     1     -25.206  33.602 -17.524  1.00  0.00    -0.285 OA
ATOM      5  C   UNL     1     -25.081  31.866 -15.969  1.00  0.00     0.111 A 
ATOM      6  C   UNL     1     -24.793  32.670 -14.825  1.00  0.00     0.134 A 
ATOM      7  C   UNL     1     -24.451  32.053 -13.616  1.00  0.00     0.093 A 
ATOM      8  C   UNL     1     -24.451  30.660 -13.493  1.00  0.00     0.123 A 
ATOM      9  C   UNL     1     -24.788  29.869 -14.588  1.00  0.00     0.094 A 
ATOM     10  C   UNL     1     -25.099  30.455 -15.817  1.00  0.00     0.146 A 
ATOM     11  O   UNL     1     -25.405  29.664 -16.838  1.00  0.00    -0.452 OA
ENDROOT
BRANCH   1  12
ATOM     12  C   UNL     1     -26.043  29.127 -19.100  1.00  0.00     0.025 A 
ATOM     13  C   UNL     1     -27.377  28.925 -19.498  1.00  0.00     0.016 A 
ATOM     14  C   UNL     1     -27.686  27.971 -20.469  1.00  0.00     0.051 A 
ATOM     15  C   UNL     1     -26.673  27.196 -21.049  1.00  0.00     0.157 A 
ATOM     16  C   UNL     1     -25.033  28.333 -19.667  1.00  0.00     0.062 A 
ATOM     17  C   UNL     1     -25.341  27.376 -20.642  1.00  0.00     0.158 A 
BRANCH  15  18
ATOM     18  O   UNL     1     -26.986  26.245 -22.019  1.00  0.00    -0.504 OA
ATOM     19  H   UNL     1     -26.682  25.282 -21.936  1.00  0.00     0.293 HD
ENDBRANCH  15  18
BRANCH  17  20
ATOM     20  O   UNL     1     -24.310  26.616 -21.194  1.00  0.00    -0.504 OA
ATOM     21  H   UNL     1     -23.832  26.892 -22.043  1.00  0.00     0.293 HD
ENDBRANCH  17  20
ENDBRANCH   1  12
BRANCH   2  22
ATOM     22  O   UNL     1     -25.842  31.971 -19.614  1.00  0.00    -0.502 OA
ATOM     23  H   UNL     1     -26.769  32.081 -20.007  1.00  0.00     0.293 HD
ENDBRANCH   2  22
BRANCH   6  24
ATOM     24  O   UNL     1     -24.856  34.066 -14.817  1.00  0.00    -0.507 OA
ATOM     25  H   UNL     1     -25.681  34.606 -15.031  1.00  0.00     0.293 HD
ENDBRANCH   6  24
BRANCH   8  26
ATOM     26  O   UNL     1     -24.125  30.055 -12.281  1.00  0.00    -0.508 OA
ATOM     27  H   UNL     1     -23.201  29.676 -12.109  1.00  0.00     0.293 HD
ENDBRANCH   8  26
TORSDOF 6
ENDMDL
MODEL 6
REMARK VINA RESULT:    -6.316      4.506      7.814
REMARK INTER + INTRA:          -7.683
REMARK INTER:                  -7.368
REMARK INTRA:                  -0.315
REMARK UNBOUND:                -0.075
REMARK SMILES O=c1c(O)c(-c2ccc(O)c(O)c2)oc2cc(O)cc(O)c12
REMARK SMILES IDX 5 1 3 2 2 3 1 4 22 5 20 6 19 7 17 8 16 9 15 10 14 11 6 12
REMARK SMILES IDX 7 13 8 14 9 15 13 16 11 17 10 18 12 20 4 22 21 24 18 26
REMARK H PARENT 10 19 12 21 4 23 21 25 18 27
REMARK Flexibility Score: inf
ROOT
ATOM      1  C   UNL     1     -26.526  29.643 -17.100  1.00  0.00     0.180 A 
ATOM      2  C   UNL     1     -27.889  29.296 -17.110  1.00  0.00     0.208 A 
ATOM      3  C   UNL     1     -28.391  28.546 -18.185  1.00  0.00     0.238 A 
ATOM      4  O   UNL     1     -29.600  28.192 -18.163  1.00  0.00    -0.285 OA
ATOM      5  C   UNL     1     -27.530  28.164 -19.243  1.00  0.00     0.111 A 
ATOM      6  C   UNL     1     -27.942  27.437 -20.400  1.00  0.00     0.134 A 
ATOM      7  C   UNL     1     -26.980  27.001 -21.319  1.00  0.00     0.093 A 
ATOM      8  C   UNL     1     -25.629  27.323 -21.155  1.00  0.00     0.123 A 
ATOM      9  C   UNL     1     -25.227  28.082 -20.060  1.00  0.00     0.094 A 
ATOM     10  C   UNL     1     -26.159  28.501 -19.107  1.00  0.00     0.146 A 
ATOM     11  O   UNL     1     -25.731  29.214 -18.073  1.00  0.00    -0.452 OA
ENDROOT
BRANCH   1  12
ATOM     12  C   UNL     1     -25.928  30.453 -16.014  1.00  0.00     0.025 A 
ATOM     13  C   UNL     1     -26.050  31.854 -15.995  1.00  0.00     0.016 A 
ATOM     14  C   UNL     1     -25.456  32.600 -14.974  1.00  0.00     0.051 A 
ATOM     15  C   UNL     1     -24.723  31.962 -13.965  1.00  0.00     0.157 A 
ATOM     16  C   UNL     1     -25.173  29.819 -15.013  1.00  0.00     0.062 A 
ATOM     17  C   UNL     1     -24.578  30.565 -13.989  1.00  0.00     0.158 A 
BRANCH  15  18
ATOM     18  O   UNL     1     -24.133  32.709 -12.947  1.00  0.00    -0.504 OA
ATOM     19  H   UNL     1     -23.257  33.200 -13.088  1.00  0.00     0.293 HD
ENDBRANCH  15  18
BRANCH  17  20
ATOM     20  O   UNL     1     -23.848  29.899 -13.004  1.00  0.00    -0.504 OA
ATOM     21  H   UNL     1     -24.204  29.075 -12.534  1.00  0.00     0.293 HD
ENDBRANCH  17  20
ENDBRANCH   1  12
BRANCH   2  22
ATOM     22  O   UNL     1     -28.716  29.665 -16.046  1.00  0.00    -0.502 OA
ATOM     23  H   UNL     1     -28.833  29.085 -15.224  1.00  0.00     0.293 HD
ENDBRANCH   2  22
BRANCH   6  24
ATOM     24  O   UNL     1     -29.274  27.144 -20.705  1.00  0.00    -0.507 OA
ATOM     25  H   UNL     1     -30.059  27.733 -20.473  1.00  0.00     0.293 HD
ENDBRANCH   6  24
BRANCH   8  26
ATOM     26  O   UNL     1     -24.681  26.898 -22.084  1.00  0.00    -0.508 OA
ATOM     27  H   UNL     1     -24.102  26.084 -21.916  1.00  0.00     0.293 HD
ENDBRANCH   8  26
TORSDOF 6
ENDMDL
MODEL 7
REMARK VINA RESULT:    -6.311      4.354      7.668
REMARK INTER + INTRA:          -7.677
REMARK INTER:                  -7.389
REMARK INTRA:                  -0.288
REMARK UNBOUND:                -0.075
REMARK SMILES O=c1c(O)c(-c2ccc(O)c(O)c2)oc2cc(O)cc(O)c12
REMARK SMILES IDX 5 1 3 2 2 3 1 4 22 5 20 6 19 7 17 8 16 9 15 10 14 11 6 12
REMARK SMILES IDX 7 13 8 14 9 15 13 16 11 17 10 18 12 20 4 22 21 24 18 26
REMARK H PARENT 10 19 12 21 4 23 21 25 18 27
REMARK Flexibility Score: inf
ROOT
ATOM      1  C   UNL     1     -25.734  29.010 -17.626  1.00  0.00     0.180 A 
ATOM      2  C   UNL     1     -27.070  29.221 -17.238  1.00  0.00     0.208 A 
ATOM      3  C   UNL     1     -28.100  28.819 -18.103  1.00  0.00     0.238 A 
ATOM      4  O   UNL     1     -29.294  28.961 -17.728  1.00  0.00    -0.285 OA
ATOM      5  C   UNL     1     -27.784  28.228 -19.350  1.00  0.00     0.111 A 
ATOM      6  C   UNL     1     -28.747  27.820 -20.321  1.00  0.00     0.134 A 
ATOM      7  C   UNL     1     -28.327  27.127 -21.463  1.00  0.00     0.093 A 
ATOM      8  C   UNL     1     -26.970  26.885 -21.699  1.00  0.00     0.123 A 
ATOM      9  C   UNL     1     -26.019  27.332 -20.786  1.00  0.00     0.094 A 
ATOM     10  C   UNL     1     -26.411  27.994 -19.620  1.00  0.00     0.146 A 
ATOM     11  O   UNL     1     -25.472  28.394 -18.771  1.00  0.00    -0.452 OA
ENDROOT
BRANCH   1  12
ATOM     12  C   UNL     1     -24.594  29.428 -16.779  1.00  0.00     0.025 A 
ATOM     13  C   UNL     1     -24.186  28.665 -15.670  1.00  0.00     0.016 A 
ATOM     14  C   UNL     1     -23.123  29.092 -14.872  1.00  0.00     0.051 A 
ATOM     15  C   UNL     1     -22.459  30.292 -15.159  1.00  0.00     0.157 A 
ATOM     16  C   UNL     1     -23.939  30.641 -17.051  1.00  0.00     0.062 A 
ATOM     17  C   UNL     1     -22.873  31.071 -16.252  1.00  0.00     0.158 A 
BRANCH  15  18
ATOM     18  O   UNL     1     -21.397  30.714 -14.361  1.00  0.00    -0.504 OA
ATOM     19  H   UNL     1     -21.552  31.218 -13.495  1.00  0.00     0.293 HD
ENDBRANCH  15  18
BRANCH  17  20
ATOM     20  O   UNL     1     -22.238  32.274 -16.561  1.00  0.00    -0.504 OA
ATOM     21  H   UNL     1     -21.449  32.319 -17.196  1.00  0.00     0.293 HD
ENDBRANCH  17  20
ENDBRANCH   1  12
BRANCH   2  22
ATOM     22  O   UNL     1     -27.360  29.787 -15.994  1.00  0.00    -0.502 OA
ATOM     23  H   UNL     1     -26.769  29.647 -15.183  1.00  0.00     0.293 HD
ENDBRANCH   2  22
BRANCH   6  24
ATOM     24  O   UNL     1     -30.115  28.094 -20.226  1.00  0.00    -0.507 OA
ATOM     25  H   UNL     1     -30.547  28.607 -19.474  1.00  0.00     0.293 HD
ENDBRANCH   6  24
BRANCH   8  26
ATOM     26  O   UNL     1     -26.559  26.209 -22.846  1.00  0.00    -0.508 OA
ATOM     27  H   UNL     1     -26.392  25.210 -22.841  1.00  0.00     0.293 HD
ENDBRANCH   8  26
TORSDOF 6
ENDMDL
MODEL 8
REMARK VINA RESULT:    -6.266      5.194      7.191
REMARK INTER + INTRA:          -7.623
REMARK INTER:                  -7.335
REMARK INTRA:                  -0.288
REMARK UNBOUND:                -0.075
REMARK SMILES O=c1c(O)c(-c2ccc(O)c(O)c2)oc2cc(O)cc(O)c12
REMARK SMILES IDX 5 1 3 2 2 3 1 4 22 5 20 6 19 7 17 8 16 9 15 10 14 11 6 12
REMARK SMILES IDX 7 13 8 14 9 15 13 16 11 17 10 18 12 20 4 22 21 24 18 26
REMARK H PARENT 10 19 12 21 4 23 21 25 18 27
REMARK Flexibility Score: inf
ROOT
ATOM      1  C   UNL     1     -25.361  30.119 -16.673  1.00  0.00     0.180 A 
ATOM      2  C   UNL     1     -24.830  29.620 -15.470  1.00  0.00     0.208 A 
ATOM      3  C   UNL     1     -24.702  30.485 -14.372  1.00  0.00     0.238 A 
ATOM      4  O   UNL     1     -24.277  30.020 -13.282  1.00  0.00    -0.285 OA
ATOM      5  C   UNL     1     -25.092  31.841 -14.493  1.00  0.00     0.111 A 
ATOM      6  C   UNL     1     -24.970  32.815 -13.457  1.00  0.00     0.134 A 
ATOM      7  C   UNL     1     -25.508  34.094 -13.645  1.00  0.00     0.093 A 
ATOM      8  C   UNL     1     -26.106  34.453 -14.857  1.00  0.00     0.123 A 
ATOM      9  C   UNL     1     -26.176  33.527 -15.894  1.00  0.00     0.094 A 
ATOM     10  C   UNL     1     -25.681  32.232 -15.724  1.00  0.00     0.146 A 
ATOM     11  O   UNL     1     -25.778  31.377 -16.735  1.00  0.00    -0.452 OA
ENDROOT
BRANCH   1  12
ATOM     12  C   UNL     1     -25.503  29.275 -17.881  1.00  0.00     0.025 A 
ATOM     13  C   UNL     1     -26.739  28.705 -18.235  1.00  0.00     0.016 A 
ATOM     14  C   UNL     1     -26.844  27.892 -19.366  1.00  0.00     0.051 A 
ATOM     15  C   UNL     1     -25.716  27.625 -20.153  1.00  0.00     0.157 A 
ATOM     16  C   UNL     1     -24.371  28.987 -18.661  1.00  0.00     0.062 A 
ATOM     17  C   UNL     1     -24.473  28.173 -19.795  1.00  0.00     0.158 A 
BRANCH  15  18
ATOM     18  O   UNL     1     -25.825  26.815 -21.282  1.00  0.00    -0.504 OA
ATOM     19  H   UNL     1     -25.462  25.869 -21.293  1.00  0.00     0.293 HD
ENDBRANCH  15  18
BRANCH  17  20
ATOM     20  O   UNL     1     -23.330  27.921 -20.553  1.00  0.00    -0.504 OA
ATOM     21  H   UNL     1     -22.843  27.034 -20.515  1.00  0.00     0.293 HD
ENDBRANCH  17  20
ENDBRANCH   1  12
BRANCH   2  22
ATOM     22  O   UNL     1     -24.471  28.273 -15.366  1.00  0.00    -0.502 OA
ATOM     23  H   UNL     1     -25.098  27.572 -14.990  1.00  0.00     0.293 HD
ENDBRANCH   2  22
BRANCH   6  24
ATOM     24  O   UNL     1     -24.310  32.587 -12.246  1.00  0.00    -0.507 OA
ATOM     25  H   UNL     1     -23.388  32.929 -12.021  1.00  0.00     0.293 HD
ENDBRANCH   6  24
BRANCH   8  26
ATOM     26  O   UNL     1     -26.624  35.733 -15.041  1.00  0.00    -0.508 OA
ATOM     27  H   UNL     1     -26.366  36.502 -14.433  1.00  0.00     0.293 HD
ENDBRANCH   8  26
TORSDOF 6
ENDMDL
MODEL 9
REMARK VINA RESULT:    -6.148      3.791      4.935
REMARK INTER + INTRA:          -7.480
REMARK INTER:                  -7.165
REMARK INTRA:                  -0.316
REMARK UNBOUND:                -0.075
REMARK SMILES O=c1c(O)c(-c2ccc(O)c(O)c2)oc2cc(O)cc(O)c12
REMARK SMILES IDX 5 1 3 2 2 3 1 4 22 5 20 6 19 7 17 8 16 9 15 10 14 11 6 12
REMARK SMILES IDX 7 13 8 14 9 15 13 16 11 17 10 18 12 20 4 22 21 24 18 26
REMARK H PARENT 10 19 12 21 4 23 21 25 18 27
REMARK Flexibility Score: inf
ROOT
ATOM      1  C   UNL     1     -24.409  29.641 -18.387  1.00  0.00     0.180 A 
ATOM      2  C   UNL     1     -23.882  30.882 -18.788  1.00  0.00     0.208 A 
ATOM      3  C   UNL     1     -23.235  31.686 -17.837  1.00  0.00     0.238 A 
ATOM      4  O   UNL     1     -22.717  32.771 -18.213  1.00  0.00    -0.285 OA
ATOM      5  C   UNL     1     -23.136  31.249 -16.493  1.00  0.00     0.111 A 
ATOM      6  C   UNL     1     -22.538  32.000 -15.438  1.00  0.00     0.134 A 
ATOM      7  C   UNL     1     -22.379  31.414 -14.176  1.00  0.00     0.093 A 
ATOM      8  C   UNL     1     -22.858  30.127 -13.915  1.00  0.00     0.123 A 
ATOM      9  C   UNL     1     -23.497  29.409 -14.922  1.00  0.00     0.094 A 
ATOM     10  C   UNL     1     -23.637  29.953 -16.201  1.00  0.00     0.146 A 
ATOM     11  O   UNL     1     -24.243  29.231 -17.136  1.00  0.00    -0.452 OA
ENDROOT
BRANCH   1  12
ATOM     12  C   UNL     1     -25.126  28.749 -19.326  1.00  0.00     0.025 A 
ATOM     13  C   UNL     1     -24.433  27.851 -20.156  1.00  0.00     0.016 A 
ATOM     14  C   UNL     1     -25.129  27.036 -21.052  1.00  0.00     0.051 A 
ATOM     15  C   UNL     1     -26.524  27.115 -21.143  1.00  0.00     0.157 A 
ATOM     16  C   UNL     1     -26.523  28.841 -19.436  1.00  0.00     0.062 A 
ATOM     17  C   UNL     1     -27.223  28.025 -20.333  1.00  0.00     0.158 A 
BRANCH  15  18
ATOM     18  O   UNL     1     -27.216  26.300 -22.037  1.00  0.00    -0.504 OA
ATOM     19  H   UNL     1     -28.228  26.311 -22.093  1.00  0.00     0.293 HD
ENDBRANCH  15  18
BRANCH  17  20
ATOM     20  O   UNL     1     -28.612  28.134 -20.404  1.00  0.00    -0.504 OA
ATOM     21  H   UNL     1     -29.089  29.022 -20.302  1.00  0.00     0.293 HD
ENDBRANCH  17  20
ENDBRANCH   1  12
BRANCH   2  22
ATOM     22  O   UNL     1     -23.971  31.284 -20.123  1.00  0.00    -0.502 OA
ATOM     23  H   UNL     1     -24.814  31.163 -20.672  1.00  0.00     0.293 HD
ENDBRANCH   2  22
BRANCH   6  24
ATOM     24  O   UNL     1     -22.111  33.325 -15.569  1.00  0.00    -0.507 OA
ATOM     25  H   UNL     1     -21.616  33.842 -14.858  1.00  0.00     0.293 HD
ENDBRANCH   6  24
BRANCH   8  26
ATOM     26  O   UNL     1     -22.711  29.558 -12.652  1.00  0.00    -0.508 OA
ATOM     27  H   UNL     1     -21.800  29.308 -12.286  1.00  0.00     0.293 HD
ENDBRANCH   8  26
TORSDOF 6
ENDMDL
