MODEL 1
REMARK VINA RESULT:    -7.316      0.000      0.000
REMARK INTER + INTRA:          -8.892
REMARK INTER:                  -8.600
REMARK INTRA:                  -0.293
REMARK UNBOUND:                -0.293
REMARK SMILES O=c1cc(-c2ccc(O)c(O)c2)oc2cc(O)cc(O)c12
REMARK SMILES IDX 4 1 3 2 2 3 1 4 21 5 19 6 18 7 16 8 15 9 14 10 13 11 5 12
REMARK SMILES IDX 6 13 7 14 8 15 12 16 10 17 9 18 11 20 20 22 17 24
REMARK H PARENT 9 19 11 21 20 23 17 25
REMARK Flexibility Score: inf
ROOT
ATOM      1  C   UNL     1      29.233  23.270  48.851  1.00  0.00     0.138 A 
ATOM      2  C   UNL     1      30.526  22.747  48.995  1.00  0.00     0.100 A 
ATOM      3  C   UNL     1      30.939  22.257  50.235  1.00  0.00     0.197 A 
ATOM      4  O   UNL     1      32.125  21.852  50.349  1.00  0.00    -0.289 OA
ATOM      5  C   UNL     1      30.039  22.263  51.327  1.00  0.00     0.107 A 
ATOM      6  C   UNL     1      30.336  21.751  52.626  1.00  0.00     0.134 A 
ATOM      7  C   UNL     1      29.407  21.916  53.661  1.00  0.00     0.093 A 
ATOM      8  C   UNL     1      28.171  22.518  53.432  1.00  0.00     0.123 A 
ATOM      9  C   UNL     1      27.849  22.973  52.152  1.00  0.00     0.094 A 
ATOM     10  C   UNL     1      28.768  22.854  51.107  1.00  0.00     0.146 A 
ATOM     11  O   UNL     1      28.428  23.313  49.907  1.00  0.00    -0.456 OA
ENDROOT
BRANCH   1  12
ATOM     12  C   UNL     1      28.743  23.802  47.555  1.00  0.00     0.021 A 
ATOM     13  C   UNL     1      29.574  24.642  46.794  1.00  0.00     0.016 A 
ATOM     14  C   UNL     1      29.134  25.163  45.574  1.00  0.00     0.051 A 
ATOM     15  C   UNL     1      27.855  24.861  45.097  1.00  0.00     0.157 A 
ATOM     16  C   UNL     1      27.450  23.512  47.076  1.00  0.00     0.062 A 
ATOM     17  C   UNL     1      27.007  24.035  45.852  1.00  0.00     0.158 A 
BRANCH  15  18
ATOM     18  O   UNL     1      27.445  25.394  43.875  1.00  0.00    -0.504 OA
ATOM     19  H   UNL     1      26.697  26.073  43.809  1.00  0.00     0.293 HD
ENDBRANCH  15  18
BRANCH  17  20
ATOM     20  O   UNL     1      25.727  23.739  45.387  1.00  0.00    -0.504 OA
ATOM     21  H   UNL     1      25.548  22.936  44.797  1.00  0.00     0.293 HD
ENDBRANCH  17  20
ENDBRANCH   1  12
BRANCH   6  22
ATOM     22  O   UNL     1      31.508  21.058  52.944  1.00  0.00    -0.507 OA
ATOM     23  H   UNL     1      32.408  21.485  53.095  1.00  0.00     0.293 HD
ENDBRANCH   6  22
BRANCH   8  24
ATOM     24  O   UNL     1      27.266  22.652  54.483  1.00  0.00    -0.508 OA
ATOM     25  H   UNL     1      26.472  23.279  54.421  1.00  0.00     0.293 HD
ENDBRANCH   8  24
TORSDOF 5
ENDMDL
MODEL 2
REMARK VINA RESULT:    -7.089     12.405     13.954
REMARK INTER + INTRA:          -8.625
REMARK INTER:                  -8.356
REMARK INTRA:                  -0.269
REMARK UNBOUND:                -0.293
REMARK SMILES O=c1cc(-c2ccc(O)c(O)c2)oc2cc(O)cc(O)c12
REMARK SMILES IDX 4 1 3 2 2 3 1 4 21 5 19 6 18 7 16 8 15 9 14 10 13 11 5 12
REMARK SMILES IDX 6 13 7 14 8 15 12 16 10 17 9 18 11 20 20 22 17 24
REMARK H PARENT 9 19 11 21 20 23 17 25
REMARK Flexibility Score: inf
ROOT
ATOM      1  C   UNL     1      18.851  25.252  40.308  1.00  0.00     0.138 A 
ATOM      2  C   UNL     1      19.876  26.204  40.401  1.00  0.00     0.100 A 
ATOM      3  C   UNL     1      19.992  26.985  41.552  1.00  0.00     0.197 A 
ATOM      4  O   UNL     1      20.883  27.873  41.581  1.00  0.00    -0.289 OA
ATOM      5  C   UNL     1      19.094  26.787  42.628  1.00  0.00     0.107 A 
ATOM      6  C   UNL     1      19.142  27.496  43.866  1.00  0.00     0.134 A 
ATOM      7  C   UNL     1      18.129  27.299  44.813  1.00  0.00     0.093 A 
ATOM      8  C   UNL     1      17.107  26.376  44.594  1.00  0.00     0.123 A 
ATOM      9  C   UNL     1      17.081  25.639  43.410  1.00  0.00     0.094 A 
ATOM     10  C   UNL     1      18.057  25.838  42.431  1.00  0.00     0.146 A 
ATOM     11  O   UNL     1      17.989  25.126  41.311  1.00  0.00    -0.456 OA
ENDROOT
BRANCH   1  12
ATOM     12  C   UNL     1      18.684  24.395  39.108  1.00  0.00     0.021 A 
ATOM     13  C   UNL     1      17.469  24.423  38.402  1.00  0.00     0.016 A 
ATOM     14  C   UNL     1      17.283  23.620  37.274  1.00  0.00     0.051 A 
ATOM     15  C   UNL     1      18.303  22.770  36.836  1.00  0.00     0.157 A 
ATOM     16  C   UNL     1      19.703  23.526  38.670  1.00  0.00     0.062 A 
ATOM     17  C   UNL     1      19.518  22.719  37.538  1.00  0.00     0.158 A 
BRANCH  15  18
ATOM     18  O   UNL     1      18.088  21.982  35.705  1.00  0.00    -0.504 OA
ATOM     19  H   UNL     1      17.362  22.195  35.032  1.00  0.00     0.293 HD
ENDBRANCH  15  18
BRANCH  17  20
ATOM     20  O   UNL     1      20.533  21.865  37.112  1.00  0.00    -0.504 OA
ATOM     21  H   UNL     1      21.137  22.103  36.335  1.00  0.00     0.293 HD
ENDBRANCH  17  20
ENDBRANCH   1  12
BRANCH   6  22
ATOM     22  O   UNL     1      20.165  28.379  44.222  1.00  0.00    -0.507 OA
ATOM     23  H   UNL     1      21.136  28.269  43.970  1.00  0.00     0.293 HD
ENDBRANCH   6  22
BRANCH   8  24
ATOM     24  O   UNL     1      16.124  26.196  45.566  1.00  0.00    -0.508 OA
ATOM     25  H   UNL     1      15.215  26.635  45.487  1.00  0.00     0.293 HD
ENDBRANCH   8  24
TORSDOF 5
ENDMDL
MODEL 3
REMARK VINA RESULT:    -7.024     12.364     15.152
REMARK INTER + INTRA:          -8.548
REMARK INTER:                  -8.285
REMARK INTRA:                  -0.263
REMARK UNBOUND:                -0.293
REMARK SMILES O=c1cc(-c2ccc(O)c(O)c2)oc2cc(O)cc(O)c12
REMARK SMILES IDX 4 1 3 2 2 3 1 4 21 5 19 6 18 7 16 8 15 9 14 10 13 11 5 12
REMARK SMILES IDX 6 13 7 14 8 15 12 16 10 17 9 18 11 20 20 22 17 24
REMARK H PARENT 9 19 11 21 20 23 17 25
REMARK Flexibility Score: inf
ROOT
ATOM      1  C   UNL     1      19.005  25.724  40.358  1.00  0.00     0.138 A 
ATOM      2  C   UNL     1      18.969  26.647  39.304  1.00  0.00     0.100 A 
ATOM      3  C   UNL     1      19.246  26.223  38.004  1.00  0.00     0.197 A 
ATOM      4  O   UNL     1      19.267  27.086  37.089  1.00  0.00    -0.289 OA
ATOM      5  C   UNL     1      19.530  24.859  37.756  1.00  0.00     0.107 A 
ATOM      6  C   UNL     1      19.786  24.305  36.466  1.00  0.00     0.134 A 
ATOM      7  C   UNL     1      20.170  22.962  36.356  1.00  0.00     0.093 A 
ATOM      8  C   UNL     1      20.247  22.140  37.479  1.00  0.00     0.123 A 
ATOM      9  C   UNL     1      19.945  22.658  38.739  1.00  0.00     0.094 A 
ATOM     10  C   UNL     1      19.593  24.002  38.886  1.00  0.00     0.146 A 
ATOM     11  O   UNL     1      19.327  24.460  40.105  1.00  0.00    -0.456 OA
ENDROOT
BRANCH   1  12
ATOM     12  C   UNL     1      18.717  26.121  41.759  1.00  0.00     0.021 A 
ATOM     13  C   UNL     1      17.576  25.610  42.402  1.00  0.00     0.016 A 
ATOM     14  C   UNL     1      17.278  25.975  43.718  1.00  0.00     0.051 A 
ATOM     15  C   UNL     1      18.107  26.861  44.411  1.00  0.00     0.157 A 
ATOM     16  C   UNL     1      19.542  27.025  42.457  1.00  0.00     0.062 A 
ATOM     17  C   UNL     1      19.243  27.393  43.778  1.00  0.00     0.158 A 
BRANCH  15  18
ATOM     18  O   UNL     1      17.785  27.204  45.724  1.00  0.00    -0.504 OA
ATOM     19  H   UNL     1      16.920  26.907  46.159  1.00  0.00     0.293 HD
ENDBRANCH  15  18
BRANCH  17  20
ATOM     20  O   UNL     1      20.067  28.285  44.460  1.00  0.00    -0.504 OA
ATOM     21  H   UNL     1      20.793  28.808  43.985  1.00  0.00     0.293 HD
ENDBRANCH  17  20
ENDBRANCH   1  12
BRANCH   6  22
ATOM     22  O   UNL     1      19.656  25.016  35.270  1.00  0.00    -0.507 OA
ATOM     23  H   UNL     1      18.836  25.532  34.992  1.00  0.00     0.293 HD
ENDBRANCH   6  22
BRANCH   8  24
ATOM     24  O   UNL     1      20.618  20.805  37.330  1.00  0.00    -0.508 OA
ATOM     25  H   UNL     1      21.460  20.542  36.832  1.00  0.00     0.293 HD
ENDBRANCH   8  24
TORSDOF 5
ENDMDL
MODEL 4
REMARK VINA RESULT:    -6.927     12.818     13.789
REMARK INTER + INTRA:          -8.435
REMARK INTER:                  -8.171
REMARK INTRA:                  -0.264
REMARK UNBOUND:                -0.293
REMARK SMILES O=c1cc(-c2ccc(O)c(O)c2)oc2cc(O)cc(O)c12
REMARK SMILES IDX 4 1 3 2 2 3 1 4 21 5 19 6 18 7 16 8 15 9 14 10 13 11 5 12
REMARK SMILES IDX 6 13 7 14 8 15 12 16 10 17 9 18 11 20 20 22 17 24
REMARK H PARENT 9 19 11 21 20 23 17 25
REMARK Flexibility Score: inf
ROOT
ATOM      1  C   UNL     1      17.980  24.542  41.749  1.00  0.00     0.138 A 
ATOM      2  C   UNL     1      16.912  23.907  42.399  1.00  0.00     0.100 A 
ATOM      3  C   UNL     1      16.384  24.464  43.565  1.00  0.00     0.197 A 
ATOM      4  O   UNL     1      15.468  23.839  44.160  1.00  0.00    -0.289 OA
ATOM      5  C   UNL     1      16.909  25.680  44.063  1.00  0.00     0.107 A 
ATOM      6  C   UNL     1      16.422  26.361  45.219  1.00  0.00     0.134 A 
ATOM      7  C   UNL     1      17.096  27.498  45.684  1.00  0.00     0.093 A 
ATOM      8  C   UNL     1      18.199  28.012  45.003  1.00  0.00     0.123 A 
ATOM      9  C   UNL     1      18.649  27.384  43.841  1.00  0.00     0.094 A 
ATOM     10  C   UNL     1      18.020  26.229  43.371  1.00  0.00     0.146 A 
ATOM     11  O   UNL     1      18.489  25.653  42.268  1.00  0.00    -0.456 OA
ENDROOT
BRANCH   1  12
ATOM     12  C   UNL     1      18.578  23.993  40.506  1.00  0.00     0.021 A 
ATOM     13  C   UNL     1      18.026  24.343  39.261  1.00  0.00     0.016 A 
ATOM     14  C   UNL     1      18.566  23.834  38.077  1.00  0.00     0.051 A 
ATOM     15  C   UNL     1      19.658  22.963  38.114  1.00  0.00     0.157 A 
ATOM     16  C   UNL     1      19.670  23.104  40.539  1.00  0.00     0.062 A 
ATOM     17  C   UNL     1      20.212  22.592  39.350  1.00  0.00     0.158 A 
BRANCH  15  18
ATOM     18  O   UNL     1      20.175  22.474  36.914  1.00  0.00    -0.504 OA
ATOM     19  H   UNL     1      20.992  21.876  36.886  1.00  0.00     0.293 HD
ENDBRANCH  15  18
BRANCH  17  20
ATOM     20  O   UNL     1      21.293  21.715  39.394  1.00  0.00    -0.504 OA
ATOM     21  H   UNL     1      21.889  21.564  38.589  1.00  0.00     0.293 HD
ENDBRANCH  17  20
ENDBRANCH   1  12
BRANCH   6  22
ATOM     22  O   UNL     1      15.278  25.981  45.926  1.00  0.00    -0.507 OA
ATOM     23  H   UNL     1      14.741  25.147  45.749  1.00  0.00     0.293 HD
ENDBRANCH   6  22
BRANCH   8  24
ATOM     24  O   UNL     1      18.835  29.153  45.487  1.00  0.00    -0.508 OA
ATOM     25  H   UNL     1      19.145  29.890  44.865  1.00  0.00     0.293 HD
ENDBRANCH   8  24
TORSDOF 5
ENDMDL
MODEL 5
REMARK VINA RESULT:    -6.838      1.499      2.544
REMARK INTER + INTRA:          -8.330
REMARK INTER:                  -8.034
REMARK INTRA:                  -0.296
REMARK UNBOUND:                -0.293
REMARK SMILES O=c1cc(-c2ccc(O)c(O)c2)oc2cc(O)cc(O)c12
REMARK SMILES IDX 4 1 3 2 2 3 1 4 21 5 19 6 18 7 16 8 15 9 14 10 13 11 5 12
REMARK SMILES IDX 6 13 7 14 8 15 12 16 10 17 9 18 11 20 20 22 17 24
REMARK H PARENT 9 19 11 21 20 23 17 25
REMARK Flexibility Score: inf
ROOT
ATOM      1  C   UNL     1      28.439  23.440  49.651  1.00  0.00     0.138 A 
ATOM      2  C   UNL     1      27.403  22.682  50.215  1.00  0.00     0.100 A 
ATOM      3  C   UNL     1      27.482  22.292  51.552  1.00  0.00     0.197 A 
ATOM      4  O   UNL     1      26.567  21.560  52.013  1.00  0.00    -0.289 OA
ATOM      5  C   UNL     1      28.590  22.690  52.337  1.00  0.00     0.107 A 
ATOM      6  C   UNL     1      28.757  22.386  53.721  1.00  0.00     0.134 A 
ATOM      7  C   UNL     1      29.950  22.734  54.365  1.00  0.00     0.093 A 
ATOM      8  C   UNL     1      30.957  23.427  53.693  1.00  0.00     0.123 A 
ATOM      9  C   UNL     1      30.781  23.778  52.354  1.00  0.00     0.094 A 
ATOM     10  C   UNL     1      29.616  23.414  51.675  1.00  0.00     0.146 A 
ATOM     11  O   UNL     1      29.494  23.754  50.395  1.00  0.00    -0.456 OA
ENDROOT
BRANCH   1  12
ATOM     12  C   UNL     1      28.405  23.883  48.235  1.00  0.00     0.021 A 
ATOM     13  C   UNL     1      29.550  24.466  47.665  1.00  0.00     0.016 A 
ATOM     14  C   UNL     1      29.542  24.898  46.337  1.00  0.00     0.051 A 
ATOM     15  C   UNL     1      28.390  24.764  45.557  1.00  0.00     0.157 A 
ATOM     16  C   UNL     1      27.242  23.763  47.449  1.00  0.00     0.062 A 
ATOM     17  C   UNL     1      27.233  24.197  46.114  1.00  0.00     0.158 A 
BRANCH  15  18
ATOM     18  O   UNL     1      28.413  25.203  44.233  1.00  0.00    -0.504 OA
ATOM     19  H   UNL     1      27.564  25.362  43.705  1.00  0.00     0.293 HD
ENDBRANCH  15  18
BRANCH  17  20
ATOM     20  O   UNL     1      26.077  24.071  45.345  1.00  0.00    -0.504 OA
ATOM     21  H   UNL     1      25.610  24.878  44.951  1.00  0.00     0.293 HD
ENDBRANCH  17  20
ENDBRANCH   1  12
BRANCH   6  22
ATOM     22  O   UNL     1      27.779  21.771  54.509  1.00  0.00    -0.507 OA
ATOM     23  H   UNL     1      27.837  21.647  55.508  1.00  0.00     0.293 HD
ENDBRANCH   6  22
BRANCH   8  24
ATOM     24  O   UNL     1      32.125  23.770  54.371  1.00  0.00    -0.508 OA
ATOM     25  H   UNL     1      32.961  23.202  54.306  1.00  0.00     0.293 HD
ENDBRANCH   8  24
TORSDOF 5
ENDMDL
MODEL 6
REMARK VINA RESULT:    -6.761     12.526     15.829
REMARK INTER + INTRA:          -8.239
REMARK INTER:                  -7.952
REMARK INTRA:                  -0.287
REMARK UNBOUND:                -0.293
REMARK SMILES O=c1cc(-c2ccc(O)c(O)c2)oc2cc(O)cc(O)c12
REMARK SMILES IDX 4 1 3 2 2 3 1 4 21 5 19 6 18 7 16 8 15 9 14 10 13 11 5 12
REMARK SMILES IDX 6 13 7 14 8 15 12 16 10 17 9 18 11 20 20 22 17 24
REMARK H PARENT 9 19 11 21 20 23 17 25
REMARK Flexibility Score: inf
ROOT
ATOM      1  C   UNL     1      17.811  25.273  40.407  1.00  0.00     0.138 A 
ATOM      2  C   UNL     1      16.673  25.461  39.611  1.00  0.00     0.100 A 
ATOM      3  C   UNL     1      16.560  24.783  38.396  1.00  0.00     0.197 A 
ATOM      4  O   UNL     1      15.556  25.020  37.675  1.00  0.00    -0.289 OA
ATOM      5  C   UNL     1      17.579  23.888  37.993  1.00  0.00     0.107 A 
ATOM      6  C   UNL     1      17.551  23.112  36.796  1.00  0.00     0.134 A 
ATOM      7  C   UNL     1      18.671  22.348  36.443  1.00  0.00     0.093 A 
ATOM      8  C   UNL     1      19.790  22.284  37.272  1.00  0.00     0.123 A 
ATOM      9  C   UNL     1      19.805  22.996  38.472  1.00  0.00     0.094 A 
ATOM     10  C   UNL     1      18.718  23.794  38.835  1.00  0.00     0.146 A 
ATOM     11  O   UNL     1      18.779  24.469  39.979  1.00  0.00    -0.456 OA
ENDROOT
BRANCH   1  12
ATOM     12  C   UNL     1      17.982  25.967  41.708  1.00  0.00     0.021 A 
ATOM     13  C   UNL     1      16.946  25.922  42.656  1.00  0.00     0.016 A 
ATOM     14  C   UNL     1      17.078  26.573  43.885  1.00  0.00     0.051 A 
ATOM     15  C   UNL     1      18.241  27.288  44.185  1.00  0.00     0.157 A 
ATOM     16  C   UNL     1      19.147  26.700  42.010  1.00  0.00     0.062 A 
ATOM     17  C   UNL     1      19.280  27.355  43.243  1.00  0.00     0.158 A 
BRANCH  15  18
ATOM     18  O   UNL     1      18.344  27.925  45.422  1.00  0.00    -0.504 OA
ATOM     19  H   UNL     1      18.105  28.902  45.544  1.00  0.00     0.293 HD
ENDBRANCH  15  18
BRANCH  17  20
ATOM     20  O   UNL     1      20.438  28.075  43.532  1.00  0.00    -0.504 OA
ATOM     21  H   UNL     1      21.337  27.619  43.628  1.00  0.00     0.293 HD
ENDBRANCH  17  20
ENDBRANCH   1  12
BRANCH   6  22
ATOM     22  O   UNL     1      16.450  23.038  35.938  1.00  0.00    -0.507 OA
ATOM     23  H   UNL     1      15.495  23.214  36.209  1.00  0.00     0.293 HD
ENDBRANCH   6  22
BRANCH   8  24
ATOM     24  O   UNL     1      20.880  21.501  36.896  1.00  0.00    -0.508 OA
ATOM     25  H   UNL     1      21.043  21.251  35.928  1.00  0.00     0.293 HD
ENDBRANCH   8  24
TORSDOF 5
ENDMDL
MODEL 7
REMARK VINA RESULT:    -6.564     12.879     14.606
REMARK INTER + INTRA:          -8.008
REMARK INTER:                  -7.737
REMARK INTRA:                  -0.271
REMARK UNBOUND:                -0.293
REMARK SMILES O=c1cc(-c2ccc(O)c(O)c2)oc2cc(O)cc(O)c12
REMARK SMILES IDX 4 1 3 2 2 3 1 4 21 5 19 6 18 7 16 8 15 9 14 10 13 11 5 12
REMARK SMILES IDX 6 13 7 14 8 15 12 16 10 17 9 18 11 20 20 22 17 24
REMARK H PARENT 9 19 11 21 20 23 17 25
REMARK Flexibility Score: inf
ROOT
ATOM      1  C   UNL     1      17.016  24.277  41.843  1.00  0.00     0.138 A 
ATOM      2  C   UNL     1      15.632  24.379  41.642  1.00  0.00     0.100 A 
ATOM      3  C   UNL     1      14.794  23.352  42.079  1.00  0.00     0.197 A 
ATOM      4  O   UNL     1      13.564  23.442  41.830  1.00  0.00    -0.289 OA
ATOM      5  C   UNL     1      15.344  22.233  42.749  1.00  0.00     0.107 A 
ATOM      6  C   UNL     1      14.582  21.147  43.275  1.00  0.00     0.134 A 
ATOM      7  C   UNL     1      15.245  20.038  43.815  1.00  0.00     0.093 A 
ATOM      8  C   UNL     1      16.636  20.001  43.904  1.00  0.00     0.123 A 
ATOM      9  C   UNL     1      17.388  21.083  43.442  1.00  0.00     0.094 A 
ATOM     10  C   UNL     1      16.758  22.188  42.866  1.00  0.00     0.146 A 
ATOM     11  O   UNL     1      17.511  23.191  42.425  1.00  0.00    -0.456 OA
ENDROOT
BRANCH   1  12
ATOM     12  C   UNL     1      17.952  25.341  41.399  1.00  0.00     0.021 A 
ATOM     13  C   UNL     1      18.123  25.582  40.025  1.00  0.00     0.016 A 
ATOM     14  C   UNL     1      19.004  26.571  39.581  1.00  0.00     0.051 A 
ATOM     15  C   UNL     1      19.735  27.331  40.499  1.00  0.00     0.157 A 
ATOM     16  C   UNL     1      18.700  26.100  42.320  1.00  0.00     0.062 A 
ATOM     17  C   UNL     1      19.586  27.094  41.875  1.00  0.00     0.158 A 
BRANCH  15  18
ATOM     18  O   UNL     1      20.604  28.314  40.025  1.00  0.00    -0.504 OA
ATOM     19  H   UNL     1      20.388  28.874  39.210  1.00  0.00     0.293 HD
ENDBRANCH  15  18
BRANCH  17  20
ATOM     20  O   UNL     1      20.319  27.841  42.795  1.00  0.00    -0.504 OA
ATOM     21  H   UNL     1      21.061  27.426  43.346  1.00  0.00     0.293 HD
ENDBRANCH  17  20
ENDBRANCH   1  12
BRANCH   6  22
ATOM     22  O   UNL     1      13.185  21.118  43.313  1.00  0.00    -0.507 OA
ATOM     23  H   UNL     1      12.605  21.827  43.734  1.00  0.00     0.293 HD
ENDBRANCH   6  22
BRANCH   8  24
ATOM     24  O   UNL     1      17.261  18.888  44.461  1.00  0.00    -0.508 OA
ATOM     25  H   UNL     1      16.781  18.286  45.121  1.00  0.00     0.293 HD
ENDBRANCH   8  24
TORSDOF 5
ENDMDL
MODEL 8
REMARK VINA RESULT:    -6.449     12.288     14.916
REMARK INTER + INTRA:          -7.873
REMARK INTER:                  -7.610
REMARK INTRA:                  -0.263
REMARK UNBOUND:                -0.293
REMARK SMILES O=c1cc(-c2ccc(O)c(O)c2)oc2cc(O)cc(O)c12
REMARK SMILES IDX 4 1 3 2 2 3 1 4 21 5 19 6 18 7 16 8 15 9 14 10 13 11 5 12
REMARK SMILES IDX 6 13 7 14 8 15 12 16 10 17 9 18 11 20 20 22 17 24
REMARK H PARENT 9 19 11 21 20 23 17 25
REMARK Flexibility Score: inf
ROOT
ATOM      1  C   UNL     1      16.474  25.124  43.472  1.00  0.00     0.138 A 
ATOM      2  C   UNL     1      15.732  25.227  42.288  1.00  0.00     0.100 A 
ATOM      3  C   UNL     1      14.930  24.161  41.880  1.00  0.00     0.197 A 
ATOM      4  O   UNL     1      14.324  24.259  40.781  1.00  0.00    -0.289 OA
ATOM      5  C   UNL     1      14.847  22.998  42.682  1.00  0.00     0.107 A 
ATOM      6  C   UNL     1      14.029  21.866  42.388  1.00  0.00     0.134 A 
ATOM      7  C   UNL     1      14.117  20.724  43.194  1.00  0.00     0.093 A 
ATOM      8  C   UNL     1      14.945  20.694  44.315  1.00  0.00     0.123 A 
ATOM      9  C   UNL     1      15.708  21.816  44.643  1.00  0.00     0.094 A 
ATOM     10  C   UNL     1      15.668  22.958  43.839  1.00  0.00     0.146 A 
ATOM     11  O   UNL     1      16.421  24.000  44.177  1.00  0.00    -0.456 OA
ENDROOT
BRANCH   1  12
ATOM     12  C   UNL     1      17.343  26.229  43.952  1.00  0.00     0.021 A 
ATOM     13  C   UNL     1      16.906  27.040  45.013  1.00  0.00     0.016 A 
ATOM     14  C   UNL     1      17.700  28.091  45.478  1.00  0.00     0.051 A 
ATOM     15  C   UNL     1      18.939  28.356  44.888  1.00  0.00     0.157 A 
ATOM     16  C   UNL     1      18.586  26.508  43.351  1.00  0.00     0.062 A 
ATOM     17  C   UNL     1      19.384  27.564  43.817  1.00  0.00     0.158 A 
BRANCH  15  18
ATOM     18  O   UNL     1      19.710  29.410  45.377  1.00  0.00    -0.504 OA
ATOM     19  H   UNL     1      19.960  29.485  46.355  1.00  0.00     0.293 HD
ENDBRANCH  15  18
BRANCH  17  20
ATOM     20  O   UNL     1      20.614  27.830  43.218  1.00  0.00    -0.504 OA
ATOM     21  H   UNL     1      20.699  27.965  42.218  1.00  0.00     0.293 HD
ENDBRANCH  17  20
ENDBRANCH   1  12
BRANCH   6  22
ATOM     22  O   UNL     1      13.105  21.820  41.340  1.00  0.00    -0.507 OA
ATOM     23  H   UNL     1      12.966  21.032  40.727  1.00  0.00     0.293 HD
ENDBRANCH   6  22
BRANCH   8  24
ATOM     24  O   UNL     1      14.995  19.546  45.103  1.00  0.00    -0.508 OA
ATOM     25  H   UNL     1      14.579  19.518  46.026  1.00  0.00     0.293 HD
ENDBRANCH   8  24
TORSDOF 5
ENDMDL
MODEL 9
REMARK VINA RESULT:    -6.297     13.469     15.084
REMARK INTER + INTRA:          -7.694
REMARK INTER:                  -7.398
REMARK INTRA:                  -0.296
REMARK UNBOUND:                -0.293
REMARK SMILES O=c1cc(-c2ccc(O)c(O)c2)oc2cc(O)cc(O)c12
REMARK SMILES IDX 4 1 3 2 2 3 1 4 21 5 19 6 18 7 16 8 15 9 14 10 13 11 5 12
REMARK SMILES IDX 6 13 7 14 8 15 12 16 10 17 9 18 11 20 20 22 17 24
REMARK H PARENT 9 19 11 21 20 23 17 25
REMARK Flexibility Score: inf
ROOT
ATOM      1  C   UNL     1      16.702  22.638  43.265  1.00  0.00     0.138 A 
ATOM      2  C   UNL     1      16.365  23.851  43.881  1.00  0.00     0.100 A 
ATOM      3  C   UNL     1      16.825  25.052  43.339  1.00  0.00     0.197 A 
ATOM      4  O   UNL     1      16.558  26.120  43.949  1.00  0.00    -0.289 OA
ATOM      5  C   UNL     1      17.600  25.038  42.155  1.00  0.00     0.107 A 
ATOM      6  C   UNL     1      18.088  26.203  41.490  1.00  0.00     0.134 A 
ATOM      7  C   UNL     1      18.942  26.061  40.390  1.00  0.00     0.093 A 
ATOM      8  C   UNL     1      19.278  24.801  39.894  1.00  0.00     0.123 A 
ATOM      9  C   UNL     1      18.762  23.657  40.505  1.00  0.00     0.094 A 
ATOM     10  C   UNL     1      17.935  23.765  41.624  1.00  0.00     0.146 A 
ATOM     11  O   UNL     1      17.476  22.650  42.185  1.00  0.00    -0.456 OA
ENDROOT
BRANCH   1  12
ATOM     12  C   UNL     1      16.238  21.333  43.798  1.00  0.00     0.021 A 
ATOM     13  C   UNL     1      14.921  21.208  44.271  1.00  0.00     0.016 A 
ATOM     14  C   UNL     1      14.462  19.992  44.786  1.00  0.00     0.051 A 
ATOM     15  C   UNL     1      15.312  18.884  44.845  1.00  0.00     0.157 A 
ATOM     16  C   UNL     1      17.095  20.216  43.872  1.00  0.00     0.062 A 
ATOM     17  C   UNL     1      16.635  18.995  44.389  1.00  0.00     0.158 A 
BRANCH  15  18
ATOM     18  O   UNL     1      14.824  17.684  45.361  1.00  0.00    -0.504 OA
ATOM     19  H   UNL     1      14.289  17.034  44.797  1.00  0.00     0.293 HD
ENDBRANCH  15  18
BRANCH  17  20
ATOM     20  O   UNL     1      17.490  17.897  44.455  1.00  0.00    -0.504 OA
ATOM     21  H   UNL     1      17.427  17.218  45.204  1.00  0.00     0.293 HD
ENDBRANCH  17  20
ENDBRANCH   1  12
BRANCH   6  22
ATOM     22  O   UNL     1      17.747  27.509  41.851  1.00  0.00    -0.507 OA
ATOM     23  H   UNL     1      18.223  28.339  41.533  1.00  0.00     0.293 HD
ENDBRANCH   6  22
BRANCH   8  24
ATOM     24  O   UNL     1      20.119  24.700  38.788  1.00  0.00    -0.508 OA
ATOM     25  H   UNL     1      20.907  24.062  38.779  1.00  0.00     0.293 HD
ENDBRANCH   8  24
TORSDOF 5
ENDMDL
