MODEL 1
REMARK VINA RESULT:    -1.198      0.000      0.000
REMARK INTER + INTRA:          -9.186
REMARK INTER:                  -3.018
REMARK INTRA:                  -6.168
REMARK UNBOUND:                -6.168
REMARK SMILES CCCCCCCCCCCCCCCCCCCCCCCCCCCC(=O)[O-]
REMARK SMILES IDX 15 1 16 2 17 3 18 4 19 5 20 6 21 7 22 8 23 9 24 10 25 11
REMARK SMILES IDX 26 12 27 13 28 14 29 15 30 16 14 17 13 18 12 19 11 20 10 21
REMARK SMILES IDX 9 22 8 23 7 24 6 25 5 26 4 27 3 28 2 29 1 30
REMARK H PARENT
REMARK Flexibility Score: inf
ROOT
ATOM      1  C   UNL     1      20.555 -29.880   1.997  1.00  0.00     0.000 C 
ENDROOT
BRANCH   1   2
ATOM      2  C   UNL     1      20.322 -30.285   0.532  1.00  0.00     0.000 C 
BRANCH   2   3
ATOM      3  C   UNL     1      19.771 -29.133  -0.325  1.00  0.00     0.000 C 
BRANCH   3   4
ATOM      4  C   UNL     1      20.535 -28.864  -1.636  1.00  0.00     0.000 C 
BRANCH   4   5
ATOM      5  C   UNL     1      21.698 -29.848  -1.903  1.00  0.00     0.000 C 
BRANCH   5   6
ATOM      6  C   UNL     1      23.106 -29.255  -1.689  1.00  0.00     0.000 C 
BRANCH   6   7
ATOM      7  C   UNL     1      23.143 -27.816  -1.132  1.00  0.00     0.000 C 
BRANCH   7   8
ATOM      8  C   UNL     1      23.449 -27.698   0.373  1.00  0.00     0.000 C 
BRANCH   8   9
ATOM      9  C   UNL     1      22.970 -26.390   1.033  1.00  0.00     0.000 C 
BRANCH   9  10
ATOM     10  C   UNL     1      21.511 -26.002   0.722  1.00  0.00     0.000 C 
BRANCH  10  11
ATOM     11  C   UNL     1      20.492 -26.342   1.829  1.00  0.00     0.000 C 
BRANCH  11  12
ATOM     12  C   UNL     1      20.962 -26.037   3.262  1.00  0.00     0.006 C 
BRANCH  12  13
ATOM     13  C   UNL     1      20.340 -26.974   4.304  1.00  0.00     0.053 C 
BRANCH  13  14
ATOM     14  C   UNL     1      18.901 -26.628   4.524  1.00  0.00     0.041 C 
ATOM     15  O   UNL     1      18.033 -27.539   4.588  1.00  0.00    -0.550 OA
ATOM     16  O   UNL     1      18.510 -25.298   4.600  1.00  0.00    -0.550 OA
ENDBRANCH  13  14
ENDBRANCH  12  13
ENDBRANCH  11  12
ENDBRANCH  10  11
ENDBRANCH   9  10
ENDBRANCH   8   9
ENDBRANCH   7   8
ENDBRANCH   6   7
ENDBRANCH   5   6
ENDBRANCH   4   5
ENDBRANCH   3   4
ENDBRANCH   2   3
ENDBRANCH   1   2
BRANCH   1  17
ATOM     17  C   UNL     1      21.949 -30.283   2.513  1.00  0.00     0.000 C 
BRANCH  17  18
ATOM     18  C   UNL     1      22.759 -31.183   1.562  1.00  0.00     0.000 C 
BRANCH  18  19
ATOM     19  C   UNL     1      22.710 -32.668   1.955  1.00  0.00     0.000 C 
BRANCH  19  20
ATOM     20  C   UNL     1      21.934 -32.867   3.264  1.00  0.00     0.000 C 
BRANCH  20  21
ATOM     21  C   UNL     1      20.685 -33.751   3.094  1.00  0.00     0.000 C 
BRANCH  21  22
ATOM     22  C   UNL     1      20.203 -33.927   1.641  1.00  0.00    -0.000 C 
BRANCH  22  23
ATOM     23  C   UNL     1      18.741 -33.519   1.380  1.00  0.00    -0.000 C 
BRANCH  23  24
ATOM     24  C   UNL     1      17.942 -33.195   2.661  1.00  0.00    -0.000 C 
BRANCH  24  25
ATOM     25  C   UNL     1      17.500 -31.722   2.726  1.00  0.00    -0.000 C 
BRANCH  25  26
ATOM     26  C   UNL     1      17.720 -31.098   4.113  1.00  0.00    -0.000 C 
BRANCH  26  27
ATOM     27  C   UNL     1      18.070 -32.144   5.187  1.00  0.00    -0.000 C 
BRANCH  27  28
ATOM     28  C   UNL     1      19.436 -31.861   5.847  1.00  0.00    -0.000 C 
BRANCH  28  29
ATOM     29  C   UNL     1      19.964 -30.440   5.586  1.00  0.00    -0.003 C 
ATOM     30  C   UNL     1      21.281 -30.151   6.301  1.00  0.00     0.004 C 
ENDBRANCH  28  29
ENDBRANCH  27  28
ENDBRANCH  26  27
ENDBRANCH  25  26
ENDBRANCH  24  25
ENDBRANCH  23  24
ENDBRANCH  22  23
ENDBRANCH  21  22
ENDBRANCH  20  21
ENDBRANCH  19  20
ENDBRANCH  18  19
ENDBRANCH  17  18
ENDBRANCH   1  17
TORSDOF 26
ENDMDL
MODEL 2
REMARK VINA RESULT:    -1.149      4.080      7.362
REMARK INTER + INTRA:          -9.063
REMARK INTER:                  -3.050
REMARK INTRA:                  -6.013
REMARK UNBOUND:                -6.168
REMARK SMILES CCCCCCCCCCCCCCCCCCCCCCCCCCCC(=O)[O-]
REMARK SMILES IDX 15 1 16 2 17 3 18 4 19 5 20 6 21 7 22 8 23 9 24 10 25 11
REMARK SMILES IDX 26 12 27 13 28 14 29 15 30 16 14 17 13 18 12 19 11 20 10 21
REMARK SMILES IDX 9 22 8 23 7 24 6 25 5 26 4 27 3 28 2 29 1 30
REMARK H PARENT
REMARK Flexibility Score: inf
ROOT
ATOM      1  C   UNL     1      17.355 -34.789   0.860  1.00  0.00     0.000 C 
ENDROOT
BRANCH   1   2
ATOM      2  C   UNL     1      16.098 -33.921   1.034  1.00  0.00     0.000 C 
BRANCH   2   3
ATOM      3  C   UNL     1      15.207 -34.385   2.199  1.00  0.00     0.000 C 
BRANCH   3   4
ATOM      4  C   UNL     1      13.690 -34.285   1.947  1.00  0.00     0.000 C 
BRANCH   4   5
ATOM      5  C   UNL     1      13.315 -33.643   0.592  1.00  0.00     0.000 C 
BRANCH   5   6
ATOM      6  C   UNL     1      12.445 -32.372   0.700  1.00  0.00     0.000 C 
BRANCH   6   7
ATOM      7  C   UNL     1      12.341 -31.757   2.111  1.00  0.00     0.000 C 
BRANCH   7   8
ATOM      8  C   UNL     1      13.260 -30.550   2.375  1.00  0.00     0.000 C 
BRANCH   8   9
ATOM      9  C   UNL     1      14.470 -30.841   3.285  1.00  0.00     0.000 C 
BRANCH   9  10
ATOM     10  C   UNL     1      15.830 -30.370   2.729  1.00  0.00     0.000 C 
BRANCH  10  11
ATOM     11  C   UNL     1      17.048 -31.193   3.193  1.00  0.00     0.000 C 
BRANCH  11  12
ATOM     12  C   UNL     1      18.391 -30.777   2.567  1.00  0.00     0.006 C 
BRANCH  12  13
ATOM     13  C   UNL     1      19.285 -31.975   2.226  1.00  0.00     0.053 C 
BRANCH  13  14
ATOM     14  C   UNL     1      20.331 -31.579   1.231  1.00  0.00     0.041 C 
ATOM     15  O   UNL     1      20.254 -30.470   0.639  1.00  0.00    -0.550 OA
ATOM     16  O   UNL     1      21.358 -32.459   0.917  1.00  0.00    -0.550 OA
ENDBRANCH  13  14
ENDBRANCH  12  13
ENDBRANCH  11  12
ENDBRANCH  10  11
ENDBRANCH   9  10
ENDBRANCH   8   9
ENDBRANCH   7   8
ENDBRANCH   6   7
ENDBRANCH   5   6
ENDBRANCH   4   5
ENDBRANCH   3   4
ENDBRANCH   2   3
ENDBRANCH   1   2
BRANCH   1  17
ATOM     17  C   UNL     1      17.457 -35.416  -0.543  1.00  0.00     0.000 C 
BRANCH  17  18
ATOM     18  C   UNL     1      16.119 -35.555  -1.292  1.00  0.00     0.000 C 
BRANCH  18  19
ATOM     19  C   UNL     1      15.569 -36.990  -1.274  1.00  0.00     0.000 C 
BRANCH  19  20
ATOM     20  C   UNL     1      14.369 -37.108  -0.323  1.00  0.00     0.000 C 
BRANCH  20  21
ATOM     21  C   UNL     1      14.694 -37.897   0.960  1.00  0.00     0.000 C 
BRANCH  21  22
ATOM     22  C   UNL     1      16.148 -38.396   1.067  1.00  0.00    -0.000 C 
BRANCH  22  23
ATOM     23  C   UNL     1      16.743 -38.385   2.488  1.00  0.00    -0.000 C 
BRANCH  23  24
ATOM     24  C   UNL     1      15.864 -37.660   3.530  1.00  0.00    -0.000 C 
BRANCH  24  25
ATOM     25  C   UNL     1      16.695 -36.890   4.572  1.00  0.00    -0.000 C 
BRANCH  25  26
ATOM     26  C   UNL     1      18.047 -36.414   4.018  1.00  0.00    -0.000 C 
BRANCH  26  27
ATOM     27  C   UNL     1      18.400 -34.984   4.460  1.00  0.00    -0.000 C 
BRANCH  27  28
ATOM     28  C   UNL     1      17.252 -34.321   5.251  1.00  0.00    -0.000 C 
BRANCH  28  29
ATOM     29  C   UNL     1      17.718 -33.186   6.178  1.00  0.00    -0.003 C 
ATOM     30  C   UNL     1      19.179 -32.802   5.966  1.00  0.00     0.004 C 
ENDBRANCH  28  29
ENDBRANCH  27  28
ENDBRANCH  26  27
ENDBRANCH  25  26
ENDBRANCH  24  25
ENDBRANCH  23  24
ENDBRANCH  22  23
ENDBRANCH  21  22
ENDBRANCH  20  21
ENDBRANCH  19  20
ENDBRANCH  18  19
ENDBRANCH  17  18
ENDBRANCH   1  17
TORSDOF 26
ENDMDL
MODEL 3
REMARK VINA RESULT:    -1.100      4.636      8.545
REMARK INTER + INTRA:          -8.940
REMARK INTER:                  -2.936
REMARK INTRA:                  -6.005
REMARK UNBOUND:                -6.168
REMARK SMILES CCCCCCCCCCCCCCCCCCCCCCCCCCCC(=O)[O-]
REMARK SMILES IDX 15 1 16 2 17 3 18 4 19 5 20 6 21 7 22 8 23 9 24 10 25 11
REMARK SMILES IDX 26 12 27 13 28 14 29 15 30 16 14 17 13 18 12 19 11 20 10 21
REMARK SMILES IDX 9 22 8 23 7 24 6 25 5 26 4 27 3 28 2 29 1 30
REMARK H PARENT
REMARK Flexibility Score: inf
ROOT
ATOM      1  C   UNL     1      13.399 -32.143   2.438  1.00  0.00     0.000 C 
ENDROOT
BRANCH   1   2
ATOM      2  C   UNL     1      12.642 -32.186   1.100  1.00  0.00     0.000 C 
BRANCH   2   3
ATOM      3  C   UNL     1      11.876 -33.502   0.889  1.00  0.00     0.000 C 
BRANCH   3   4
ATOM      4  C   UNL     1      12.120 -34.195  -0.466  1.00  0.00     0.000 C 
BRANCH   4   5
ATOM      5  C   UNL     1      13.172 -33.493  -1.355  1.00  0.00     0.000 C 
BRANCH   5   6
ATOM      6  C   UNL     1      14.394 -34.362  -1.717  1.00  0.00     0.000 C 
BRANCH   6   7
ATOM      7  C   UNL     1      14.253 -35.868  -1.407  1.00  0.00     0.000 C 
BRANCH   7   8
ATOM      8  C   UNL     1      15.472 -36.519  -0.727  1.00  0.00     0.000 C 
BRANCH   8   9
ATOM      9  C   UNL     1      15.148 -37.343   0.535  1.00  0.00     0.000 C 
BRANCH   9  10
ATOM     10  C   UNL     1      13.759 -37.075   1.148  1.00  0.00     0.000 C 
BRANCH  10  11
ATOM     11  C   UNL     1      13.757 -36.776   2.661  1.00  0.00     0.000 C 
BRANCH  11  12
ATOM     12  C   UNL     1      14.975 -37.314   3.433  1.00  0.00     0.006 C 
BRANCH  12  13
ATOM     13  C   UNL     1      15.287 -36.500   4.694  1.00  0.00     0.053 C 
BRANCH  13  14
ATOM     14  C   UNL     1      16.750 -36.556   5.002  1.00  0.00     0.041 C 
ATOM     15  O   UNL     1      17.545 -37.121   4.204  1.00  0.00    -0.550 OA
ATOM     16  O   UNL     1      17.228 -36.034   6.196  1.00  0.00    -0.550 OA
ENDBRANCH  13  14
ENDBRANCH  12  13
ENDBRANCH  11  12
ENDBRANCH  10  11
ENDBRANCH   9  10
ENDBRANCH   8   9
ENDBRANCH   7   8
ENDBRANCH   6   7
ENDBRANCH   5   6
ENDBRANCH   4   5
ENDBRANCH   3   4
ENDBRANCH   2   3
ENDBRANCH   1   2
BRANCH   1  17
ATOM     17  C   UNL     1      14.347 -33.342   2.626  1.00  0.00     0.000 C 
BRANCH  17  18
ATOM     18  C   UNL     1      15.445 -33.476   1.555  1.00  0.00     0.000 C 
BRANCH  18  19
ATOM     19  C   UNL     1      16.626 -34.344   2.014  1.00  0.00     0.000 C 
BRANCH  19  20
ATOM     20  C   UNL     1      17.836 -34.166   1.085  1.00  0.00     0.000 C 
BRANCH  20  21
ATOM     21  C   UNL     1      19.176 -34.480   1.776  1.00  0.00     0.000 C 
BRANCH  21  22
ATOM     22  C   UNL     1      20.146 -33.288   1.887  1.00  0.00    -0.000 C 
BRANCH  22  23
ATOM     23  C   UNL     1      19.525 -31.907   1.605  1.00  0.00    -0.000 C 
BRANCH  23  24
ATOM     24  C   UNL     1      19.055 -31.160   2.872  1.00  0.00    -0.000 C 
BRANCH  24  25
ATOM     25  C   UNL     1      17.631 -30.593   2.732  1.00  0.00    -0.000 C 
BRANCH  25  26
ATOM     26  C   UNL     1      16.742 -30.918   3.942  1.00  0.00    -0.000 C 
BRANCH  26  27
ATOM     27  C   UNL     1      17.239 -32.139   4.735  1.00  0.00    -0.000 C 
BRANCH  27  28
ATOM     28  C   UNL     1      16.611 -32.212   6.143  1.00  0.00    -0.000 C 
BRANCH  28  29
ATOM     29  C   UNL     1      15.315 -33.039   6.196  1.00  0.00    -0.003 C 
ATOM     30  C   UNL     1      14.055 -32.177   6.202  1.00  0.00     0.004 C 
ENDBRANCH  28  29
ENDBRANCH  27  28
ENDBRANCH  26  27
ENDBRANCH  25  26
ENDBRANCH  24  25
ENDBRANCH  23  24
ENDBRANCH  22  23
ENDBRANCH  21  22
ENDBRANCH  20  21
ENDBRANCH  19  20
ENDBRANCH  18  19
ENDBRANCH  17  18
ENDBRANCH   1  17
TORSDOF 26
ENDMDL
MODEL 4
REMARK VINA RESULT:    -1.064      4.836      8.148
REMARK INTER + INTRA:          -8.849
REMARK INTER:                  -2.704
REMARK INTRA:                  -6.145
REMARK UNBOUND:                -6.168
REMARK SMILES CCCCCCCCCCCCCCCCCCCCCCCCCCCC(=O)[O-]
REMARK SMILES IDX 15 1 16 2 17 3 18 4 19 5 20 6 21 7 22 8 23 9 24 10 25 11
REMARK SMILES IDX 26 12 27 13 28 14 29 15 30 16 14 17 13 18 12 19 11 20 10 21
REMARK SMILES IDX 9 22 8 23 7 24 6 25 5 26 4 27 3 28 2 29 1 30
REMARK H PARENT
REMARK Flexibility Score: inf
ROOT
ATOM      1  C   UNL     1      16.737 -34.705   0.781  1.00  0.00     0.000 C 
ENDROOT
BRANCH   1   2
ATOM      2  C   UNL     1      17.820 -34.637   1.871  1.00  0.00     0.000 C 
BRANCH   2   3
ATOM      3  C   UNL     1      19.117 -33.971   1.384  1.00  0.00     0.000 C 
BRANCH   3   4
ATOM      4  C   UNL     1      19.229 -32.460   1.670  1.00  0.00     0.000 C 
BRANCH   4   5
ATOM      5  C   UNL     1      18.469 -31.998   2.934  1.00  0.00     0.000 C 
BRANCH   5   6
ATOM      6  C   UNL     1      17.871 -30.578   2.844  1.00  0.00     0.000 C 
BRANCH   6   7
ATOM      7  C   UNL     1      16.334 -30.512   2.725  1.00  0.00     0.000 C 
BRANCH   7   8
ATOM      8  C   UNL     1      15.607 -31.868   2.792  1.00  0.00     0.000 C 
BRANCH   8   9
ATOM      9  C   UNL     1      14.449 -31.934   3.807  1.00  0.00     0.000 C 
BRANCH   9  10
ATOM     10  C   UNL     1      14.691 -32.868   5.010  1.00  0.00     0.000 C 
BRANCH  10  11
ATOM     11  C   UNL     1      15.799 -33.922   4.809  1.00  0.00     0.000 C 
BRANCH  11  12
ATOM     12  C   UNL     1      16.793 -34.052   5.977  1.00  0.00     0.006 C 
BRANCH  12  13
ATOM     13  C   UNL     1      18.150 -34.617   5.541  1.00  0.00     0.053 C 
BRANCH  13  14
ATOM     14  C   UNL     1      18.504 -35.817   6.363  1.00  0.00     0.041 C 
ATOM     15  O   UNL     1      17.595 -36.535   6.859  1.00  0.00    -0.550 OA
ATOM     16  O   UNL     1      19.835 -36.109   6.629  1.00  0.00    -0.550 OA
ENDBRANCH  13  14
ENDBRANCH  12  13
ENDBRANCH  11  12
ENDBRANCH  10  11
ENDBRANCH   9  10
ENDBRANCH   8   9
ENDBRANCH   7   8
ENDBRANCH   6   7
ENDBRANCH   5   6
ENDBRANCH   4   5
ENDBRANCH   3   4
ENDBRANCH   2   3
ENDBRANCH   1   2
BRANCH   1  17
ATOM     17  C   UNL     1      17.190 -35.497  -0.460  1.00  0.00     0.000 C 
BRANCH  17  18
ATOM     18  C   UNL     1      16.985 -37.021  -0.369  1.00  0.00     0.000 C 
BRANCH  18  19
ATOM     19  C   UNL     1      15.665 -37.408   0.315  1.00  0.00     0.000 C 
BRANCH  19  20
ATOM     20  C   UNL     1      15.885 -38.517   1.353  1.00  0.00     0.000 C 
BRANCH  20  21
ATOM     21  C   UNL     1      16.858 -38.107   2.474  1.00  0.00     0.000 C 
BRANCH  21  22
ATOM     22  C   UNL     1      16.203 -37.409   3.682  1.00  0.00    -0.000 C 
BRANCH  22  23
ATOM     23  C   UNL     1      14.822 -37.958   4.088  1.00  0.00    -0.000 C 
BRANCH  23  24
ATOM     24  C   UNL     1      13.731 -36.873   4.224  1.00  0.00    -0.000 C 
BRANCH  24  25
ATOM     25  C   UNL     1      13.036 -36.561   2.886  1.00  0.00    -0.000 C 
BRANCH  25  26
ATOM     26  C   UNL     1      13.435 -35.191   2.317  1.00  0.00    -0.000 C 
BRANCH  26  27
ATOM     27  C   UNL     1      12.882 -34.953   0.900  1.00  0.00    -0.000 C 
BRANCH  27  28
ATOM     28  C   UNL     1      13.399 -33.633   0.290  1.00  0.00    -0.000 C 
BRANCH  28  29
ATOM     29  C   UNL     1      13.606 -33.698  -1.233  1.00  0.00    -0.003 C 
ATOM     30  C   UNL     1      13.689 -35.126  -1.764  1.00  0.00     0.004 C 
ENDBRANCH  28  29
ENDBRANCH  27  28
ENDBRANCH  26  27
ENDBRANCH  25  26
ENDBRANCH  24  25
ENDBRANCH  23  24
ENDBRANCH  22  23
ENDBRANCH  21  22
ENDBRANCH  20  21
ENDBRANCH  19  20
ENDBRANCH  18  19
ENDBRANCH  17  18
ENDBRANCH   1  17
TORSDOF 26
ENDMDL
MODEL 5
REMARK VINA RESULT:    -1.055      2.522      5.935
REMARK INTER + INTRA:          -8.826
REMARK INTER:                  -2.531
REMARK INTRA:                  -6.296
REMARK UNBOUND:                -6.168
REMARK SMILES CCCCCCCCCCCCCCCCCCCCCCCCCCCC(=O)[O-]
REMARK SMILES IDX 15 1 16 2 17 3 18 4 19 5 20 6 21 7 22 8 23 9 24 10 25 11
REMARK SMILES IDX 26 12 27 13 28 14 29 15 30 16 14 17 13 18 12 19 11 20 10 21
REMARK SMILES IDX 9 22 8 23 7 24 6 25 5 26 4 27 3 28 2 29 1 30
REMARK H PARENT
REMARK Flexibility Score: inf
ROOT
ATOM      1  C   UNL     1      19.693 -31.258   6.292  1.00  0.00     0.000 C 
ENDROOT
BRANCH   1   2
ATOM      2  C   UNL     1      18.493 -30.721   5.493  1.00  0.00     0.000 C 
BRANCH   2   3
ATOM      3  C   UNL     1      18.892 -30.166   4.116  1.00  0.00     0.000 C 
BRANCH   3   4
ATOM      4  C   UNL     1      17.900 -30.464   2.974  1.00  0.00     0.000 C 
BRANCH   4   5
ATOM      5  C   UNL     1      17.424 -31.934   2.918  1.00  0.00     0.000 C 
BRANCH   5   6
ATOM      6  C   UNL     1      18.442 -32.919   2.306  1.00  0.00     0.000 C 
BRANCH   6   7
ATOM      7  C   UNL     1      19.292 -33.710   3.322  1.00  0.00     0.000 C 
BRANCH   7   8
ATOM      8  C   UNL     1      20.798 -33.385   3.319  1.00  0.00     0.000 C 
BRANCH   8   9
ATOM      9  C   UNL     1      21.297 -32.631   2.071  1.00  0.00     0.000 C 
BRANCH   9  10
ATOM     10  C   UNL     1      22.041 -31.312   2.362  1.00  0.00     0.000 C 
BRANCH  10  11
ATOM     11  C   UNL     1      21.657 -30.128   1.451  1.00  0.00     0.000 C 
BRANCH  11  12
ATOM     12  C   UNL     1      20.530 -30.419   0.445  1.00  0.00     0.006 C 
BRANCH  12  13
ATOM     13  C   UNL     1      19.700 -29.176   0.105  1.00  0.00     0.053 C 
BRANCH  13  14
ATOM     14  C   UNL     1      20.365 -28.385  -0.978  1.00  0.00     0.041 C 
ATOM     15  O   UNL     1      20.520 -28.887  -2.123  1.00  0.00    -0.550 OA
ATOM     16  O   UNL     1      20.862 -27.118  -0.708  1.00  0.00    -0.550 OA
ENDBRANCH  13  14
ENDBRANCH  12  13
ENDBRANCH  11  12
ENDBRANCH  10  11
ENDBRANCH   9  10
ENDBRANCH   8   9
ENDBRANCH   7   8
ENDBRANCH   6   7
ENDBRANCH   5   6
ENDBRANCH   4   5
ENDBRANCH   3   4
ENDBRANCH   2   3
ENDBRANCH   1   2
BRANCH   1  17
ATOM     17  C   UNL     1      21.026 -30.611   5.871  1.00  0.00     0.000 C 
BRANCH  17  18
ATOM     18  C   UNL     1      21.586 -29.574   6.863  1.00  0.00     0.000 C 
BRANCH  18  19
ATOM     19  C   UNL     1      21.919 -28.229   6.200  1.00  0.00     0.000 C 
BRANCH  19  20
ATOM     20  C   UNL     1      21.957 -28.363   4.671  1.00  0.00     0.000 C 
BRANCH  20  21
ATOM     21  C   UNL     1      21.778 -27.016   3.945  1.00  0.00     0.000 C 
BRANCH  21  22
ATOM     22  C   UNL     1      20.579 -26.950   2.979  1.00  0.00    -0.000 C 
BRANCH  22  23
ATOM     23  C   UNL     1      19.523 -25.881   3.315  1.00  0.00    -0.000 C 
BRANCH  23  24
ATOM     24  C   UNL     1      19.162 -25.805   4.814  1.00  0.00    -0.000 C 
BRANCH  24  25
ATOM     25  C   UNL     1      18.215 -26.936   5.253  1.00  0.00    -0.000 C 
BRANCH  25  26
ATOM     26  C   UNL     1      17.670 -26.735   6.676  1.00  0.00    -0.000 C 
BRANCH  26  27
ATOM     27  C   UNL     1      18.207 -27.779   7.670  1.00  0.00    -0.000 C 
BRANCH  27  28
ATOM     28  C   UNL     1      19.311 -27.199   8.581  1.00  0.00    -0.000 C 
BRANCH  28  29
ATOM     29  C   UNL     1      19.653 -28.097   9.782  1.00  0.00    -0.003 C 
ATOM     30  C   UNL     1      19.173 -29.536   9.608  1.00  0.00     0.004 C 
ENDBRANCH  28  29
ENDBRANCH  27  28
ENDBRANCH  26  27
ENDBRANCH  25  26
ENDBRANCH  24  25
ENDBRANCH  23  24
ENDBRANCH  22  23
ENDBRANCH  21  22
ENDBRANCH  20  21
ENDBRANCH  19  20
ENDBRANCH  18  19
ENDBRANCH  17  18
ENDBRANCH   1  17
TORSDOF 26
ENDMDL
MODEL 6
REMARK VINA RESULT:    -1.042      1.981      5.994
REMARK INTER + INTRA:          -8.793
REMARK INTER:                  -2.538
REMARK INTRA:                  -6.256
REMARK UNBOUND:                -6.168
REMARK SMILES CCCCCCCCCCCCCCCCCCCCCCCCCCCC(=O)[O-]
REMARK SMILES IDX 15 1 16 2 17 3 18 4 19 5 20 6 21 7 22 8 23 9 24 10 25 11
REMARK SMILES IDX 26 12 27 13 28 14 29 15 30 16 14 17 13 18 12 19 11 20 10 21
REMARK SMILES IDX 9 22 8 23 7 24 6 25 5 26 4 27 3 28 2 29 1 30
REMARK H PARENT
REMARK Flexibility Score: inf
ROOT
ATOM      1  C   UNL     1      23.853 -29.175   3.423  1.00  0.00     0.000 C 
ENDROOT
BRANCH   1   2
ATOM      2  C   UNL     1      23.291 -30.469   4.035  1.00  0.00     0.000 C 
BRANCH   2   3
ATOM      3  C   UNL     1      21.911 -30.272   4.685  1.00  0.00     0.000 C 
BRANCH   3   4
ATOM      4  C   UNL     1      21.453 -28.807   4.824  1.00  0.00     0.000 C 
BRANCH   4   5
ATOM      5  C   UNL     1      20.109 -28.496   4.127  1.00  0.00     0.000 C 
BRANCH   5   6
ATOM      6  C   UNL     1      20.239 -27.804   2.754  1.00  0.00     0.000 C 
BRANCH   6   7
ATOM      7  C   UNL     1      20.693 -28.714   1.593  1.00  0.00     0.000 C 
BRANCH   7   8
ATOM      8  C   UNL     1      19.660 -29.760   1.131  1.00  0.00     0.000 C 
BRANCH   8   9
ATOM      9  C   UNL     1      20.140 -31.223   1.205  1.00  0.00     0.000 C 
BRANCH   9  10
ATOM     10  C   UNL     1      19.601 -32.023   2.408  1.00  0.00     0.000 C 
BRANCH  10  11
ATOM     11  C   UNL     1      18.094 -31.853   2.686  1.00  0.00     0.000 C 
BRANCH  11  12
ATOM     12  C   UNL     1      17.750 -31.182   4.028  1.00  0.00     0.006 C 
BRANCH  12  13
ATOM     13  C   UNL     1      18.481 -31.820   5.215  1.00  0.00     0.053 C 
BRANCH  13  14
ATOM     14  C   UNL     1      18.197 -31.059   6.472  1.00  0.00     0.041 C 
ATOM     15  O   UNL     1      19.080 -30.313   6.974  1.00  0.00    -0.550 OA
ATOM     16  O   UNL     1      16.979 -31.217   7.120  1.00  0.00    -0.550 OA
ENDBRANCH  13  14
ENDBRANCH  12  13
ENDBRANCH  11  12
ENDBRANCH  10  11
ENDBRANCH   9  10
ENDBRANCH   8   9
ENDBRANCH   7   8
ENDBRANCH   6   7
ENDBRANCH   5   6
ENDBRANCH   4   5
ENDBRANCH   3   4
ENDBRANCH   2   3
ENDBRANCH   1   2
BRANCH   1  17
ATOM     17  C   UNL     1      24.095 -29.289   1.906  1.00  0.00     0.000 C 
BRANCH  17  18
ATOM     18  C   UNL     1      23.843 -30.686   1.311  1.00  0.00     0.000 C 
BRANCH  18  19
ATOM     19  C   UNL     1      23.470 -30.645  -0.179  1.00  0.00     0.000 C 
BRANCH  19  20
ATOM     20  C   UNL     1      23.935 -29.334  -0.828  1.00  0.00     0.000 C 
BRANCH  20  21
ATOM     21  C   UNL     1      23.147 -28.980  -2.103  1.00  0.00     0.000 C 
BRANCH  21  22
ATOM     22  C   UNL     1      21.644 -29.319  -2.054  1.00  0.00    -0.000 C 
BRANCH  22  23
ATOM     23  C   UNL     1      20.698 -28.104  -2.015  1.00  0.00    -0.000 C 
BRANCH  23  24
ATOM     24  C   UNL     1      21.424 -26.743  -2.054  1.00  0.00    -0.000 C 
BRANCH  24  25
ATOM     25  C   UNL     1      21.348 -25.992  -0.712  1.00  0.00    -0.000 C 
BRANCH  25  26
ATOM     26  C   UNL     1      22.678 -26.020   0.058  1.00  0.00    -0.000 C 
BRANCH  26  27
ATOM     27  C   UNL     1      22.700 -25.036   1.241  1.00  0.00    -0.000 C 
BRANCH  27  28
ATOM     28  C   UNL     1      23.514 -25.581   2.434  1.00  0.00    -0.000 C 
BRANCH  28  29
ATOM     29  C   UNL     1      22.773 -25.485   3.779  1.00  0.00    -0.003 C 
ATOM     30  C   UNL     1      23.676 -25.757   4.979  1.00  0.00     0.004 C 
ENDBRANCH  28  29
ENDBRANCH  27  28
ENDBRANCH  26  27
ENDBRANCH  25  26
ENDBRANCH  24  25
ENDBRANCH  23  24
ENDBRANCH  22  23
ENDBRANCH  21  22
ENDBRANCH  20  21
ENDBRANCH  19  20
ENDBRANCH  18  19
ENDBRANCH  17  18
ENDBRANCH   1  17
TORSDOF 26
ENDMDL
MODEL 7
REMARK VINA RESULT:    -1.040      4.197      7.411
REMARK INTER + INTRA:          -8.790
REMARK INTER:                  -2.756
REMARK INTRA:                  -6.033
REMARK UNBOUND:                -6.168
REMARK SMILES CCCCCCCCCCCCCCCCCCCCCCCCCCCC(=O)[O-]
REMARK SMILES IDX 15 1 16 2 17 3 18 4 19 5 20 6 21 7 22 8 23 9 24 10 25 11
REMARK SMILES IDX 26 12 27 13 28 14 29 15 30 16 14 17 13 18 12 19 11 20 10 21
REMARK SMILES IDX 9 22 8 23 7 24 6 25 5 26 4 27 3 28 2 29 1 30
REMARK H PARENT
REMARK Flexibility Score: inf
ROOT
ATOM      1  C   UNL     1      16.723 -32.997   4.820  1.00  0.00     0.000 C 
ENDROOT
BRANCH   1   2
ATOM      2  C   UNL     1      17.021 -33.740   3.507  1.00  0.00     0.000 C 
BRANCH   2   3
ATOM      3  C   UNL     1      17.366 -32.790   2.348  1.00  0.00     0.000 C 
BRANCH   3   4
ATOM      4  C   UNL     1      18.773 -32.973   1.745  1.00  0.00     0.000 C 
BRANCH   4   5
ATOM      5  C   UNL     1      19.638 -31.692   1.762  1.00  0.00     0.000 C 
BRANCH   5   6
ATOM      6  C   UNL     1      18.941 -30.450   2.355  1.00  0.00     0.000 C 
BRANCH   6   7
ATOM      7  C   UNL     1      19.684 -29.765   3.521  1.00  0.00     0.000 C 
BRANCH   7   8
ATOM      8  C   UNL     1      19.151 -30.096   4.928  1.00  0.00     0.000 C 
BRANCH   8   9
ATOM      9  C   UNL     1      19.845 -31.284   5.623  1.00  0.00     0.000 C 
BRANCH   9  10
ATOM     10  C   UNL     1      21.267 -31.595   5.113  1.00  0.00     0.000 C 
BRANCH  10  11
ATOM     11  C   UNL     1      21.494 -33.048   4.650  1.00  0.00     0.000 C 
BRANCH  11  12
ATOM     12  C   UNL     1      20.362 -34.029   5.007  1.00  0.00     0.006 C 
BRANCH  12  13
ATOM     13  C   UNL     1      20.388 -35.302   4.153  1.00  0.00     0.053 C 
BRANCH  13  14
ATOM     14  C   UNL     1      21.269 -36.335   4.783  1.00  0.00     0.041 C 
ATOM     15  O   UNL     1      21.771 -37.253   4.081  1.00  0.00    -0.550 OA
ATOM     16  O   UNL     1      21.489 -36.318   6.153  1.00  0.00    -0.550 OA
ENDBRANCH  13  14
ENDBRANCH  12  13
ENDBRANCH  11  12
ENDBRANCH  10  11
ENDBRANCH   9  10
ENDBRANCH   8   9
ENDBRANCH   7   8
ENDBRANCH   6   7
ENDBRANCH   5   6
ENDBRANCH   4   5
ENDBRANCH   3   4
ENDBRANCH   2   3
ENDBRANCH   1   2
BRANCH   1  17
ATOM     17  C   UNL     1      15.258 -33.146   5.271  1.00  0.00     0.000 C 
BRANCH  17  18
ATOM     18  C   UNL     1      14.707 -31.964   6.090  1.00  0.00     0.000 C 
BRANCH  18  19
ATOM     19  C   UNL     1      15.665 -30.763   6.129  1.00  0.00     0.000 C 
BRANCH  19  20
ATOM     20  C   UNL     1      15.075 -29.562   5.377  1.00  0.00     0.000 C 
BRANCH  20  21
ATOM     21  C   UNL     1      15.781 -29.285   4.037  1.00  0.00     0.000 C 
BRANCH  21  22
ATOM     22  C   UNL     1      15.199 -30.039   2.825  1.00  0.00    -0.000 C 
BRANCH  22  23
ATOM     23  C   UNL     1      13.661 -30.045   2.733  1.00  0.00    -0.000 C 
BRANCH  23  24
ATOM     24  C   UNL     1      13.034 -31.453   2.807  1.00  0.00    -0.000 C 
BRANCH  24  25
ATOM     25  C   UNL     1      13.419 -32.337   1.607  1.00  0.00    -0.000 C 
BRANCH  25  26
ATOM     26  C   UNL     1      13.643 -33.805   2.000  1.00  0.00    -0.000 C 
BRANCH  26  27
ATOM     27  C   UNL     1      13.816 -34.727   0.780  1.00  0.00    -0.000 C 
BRANCH  27  28
ATOM     28  C   UNL     1      15.150 -34.473   0.046  1.00  0.00    -0.000 C 
BRANCH  28  29
ATOM     29  C   UNL     1      15.977 -35.749  -0.187  1.00  0.00    -0.003 C 
ATOM     30  C   UNL     1      17.427 -35.461  -0.567  1.00  0.00     0.004 C 
ENDBRANCH  28  29
ENDBRANCH  27  28
ENDBRANCH  26  27
ENDBRANCH  25  26
ENDBRANCH  24  25
ENDBRANCH  23  24
ENDBRANCH  22  23
ENDBRANCH  21  22
ENDBRANCH  20  21
ENDBRANCH  19  20
ENDBRANCH  18  19
ENDBRANCH  17  18
ENDBRANCH   1  17
TORSDOF 26
ENDMDL
MODEL 8
REMARK VINA RESULT:    -1.039      5.511      8.430
REMARK INTER + INTRA:          -8.788
REMARK INTER:                  -2.598
REMARK INTRA:                  -6.190
REMARK UNBOUND:                -6.168
REMARK SMILES CCCCCCCCCCCCCCCCCCCCCCCCCCCC(=O)[O-]
REMARK SMILES IDX 15 1 16 2 17 3 18 4 19 5 20 6 21 7 22 8 23 9 24 10 25 11
REMARK SMILES IDX 26 12 27 13 28 14 29 15 30 16 14 17 13 18 12 19 11 20 10 21
REMARK SMILES IDX 9 22 8 23 7 24 6 25 5 26 4 27 3 28 2 29 1 30
REMARK H PARENT
REMARK Flexibility Score: inf
ROOT
ATOM      1  C   UNL     1      17.977 -32.273   3.740  1.00  0.00     0.000 C 
ENDROOT
BRANCH   1   2
ATOM      2  C   UNL     1      17.399 -30.848   3.722  1.00  0.00     0.000 C 
BRANCH   2   3
ATOM      3  C   UNL     1      16.210 -30.698   2.758  1.00  0.00     0.000 C 
BRANCH   3   4
ATOM      4  C   UNL     1      15.067 -29.794   3.259  1.00  0.00     0.000 C 
BRANCH   4   5
ATOM      5  C   UNL     1      13.676 -30.468   3.248  1.00  0.00     0.000 C 
BRANCH   5   6
ATOM      6  C   UNL     1      13.707 -32.009   3.176  1.00  0.00     0.000 C 
BRANCH   6   7
ATOM      7  C   UNL     1      13.117 -32.626   1.890  1.00  0.00     0.000 C 
BRANCH   7   8
ATOM      8  C   UNL     1      14.141 -33.258   0.930  1.00  0.00     0.000 C 
BRANCH   8   9
ATOM      9  C   UNL     1      13.546 -33.820  -0.376  1.00  0.00     0.000 C 
BRANCH   9  10
ATOM     10  C   UNL     1      14.542 -34.593  -1.265  1.00  0.00     0.000 C 
BRANCH  10  11
ATOM     11  C   UNL     1      15.850 -35.017  -0.568  1.00  0.00     0.000 C 
BRANCH  11  12
ATOM     12  C   UNL     1      16.220 -36.503  -0.726  1.00  0.00     0.006 C 
BRANCH  12  13
ATOM     13  C   UNL     1      17.630 -36.822  -0.216  1.00  0.00     0.053 C 
BRANCH  13  14
ATOM     14  C   UNL     1      18.635 -35.920  -0.861  1.00  0.00     0.041 C 
ATOM     15  O   UNL     1      18.808 -35.953  -2.108  1.00  0.00    -0.550 OA
ATOM     16  O   UNL     1      19.421 -35.084  -0.079  1.00  0.00    -0.550 OA
ENDBRANCH  13  14
ENDBRANCH  12  13
ENDBRANCH  11  12
ENDBRANCH  10  11
ENDBRANCH   9  10
ENDBRANCH   8   9
ENDBRANCH   7   8
ENDBRANCH   6   7
ENDBRANCH   5   6
ENDBRANCH   4   5
ENDBRANCH   3   4
ENDBRANCH   2   3
ENDBRANCH   1   2
BRANCH   1  17
ATOM     17  C   UNL     1      17.529 -33.114   2.530  1.00  0.00     0.000 C 
BRANCH  17  18
ATOM     18  C   UNL     1      17.360 -34.619   2.812  1.00  0.00     0.000 C 
BRANCH  18  19
ATOM     19  C   UNL     1      15.951 -34.981   3.304  1.00  0.00     0.000 C 
BRANCH  19  20
ATOM     20  C   UNL     1      15.616 -36.446   2.990  1.00  0.00     0.000 C 
BRANCH  20  21
ATOM     21  C   UNL     1      14.195 -36.630   2.424  1.00  0.00     0.000 C 
BRANCH  21  22
ATOM     22  C   UNL     1      13.093 -36.830   3.482  1.00  0.00    -0.000 C 
BRANCH  22  23
ATOM     23  C   UNL     1      12.271 -35.572   3.820  1.00  0.00    -0.000 C 
BRANCH  23  24
ATOM     24  C   UNL     1      12.482 -35.052   5.258  1.00  0.00    -0.000 C 
BRANCH  24  25
ATOM     25  C   UNL     1      13.435 -35.942   6.076  1.00  0.00    -0.000 C 
BRANCH  25  26
ATOM     26  C   UNL     1      14.227 -35.151   7.129  1.00  0.00    -0.000 C 
BRANCH  26  27
ATOM     27  C   UNL     1      15.731 -35.079   6.810  1.00  0.00    -0.000 C 
BRANCH  27  28
ATOM     28  C   UNL     1      16.234 -33.623   6.718  1.00  0.00    -0.000 C 
BRANCH  28  29
ATOM     29  C   UNL     1      15.124 -32.607   6.399  1.00  0.00    -0.003 C 
ATOM     30  C   UNL     1      15.483 -31.181   6.808  1.00  0.00     0.004 C 
ENDBRANCH  28  29
ENDBRANCH  27  28
ENDBRANCH  26  27
ENDBRANCH  25  26
ENDBRANCH  24  25
ENDBRANCH  23  24
ENDBRANCH  22  23
ENDBRANCH  21  22
ENDBRANCH  20  21
ENDBRANCH  19  20
ENDBRANCH  18  19
ENDBRANCH  17  18
ENDBRANCH   1  17
TORSDOF 26
ENDMDL
MODEL 9
REMARK VINA RESULT:    -1.025      3.845      6.512
REMARK INTER + INTRA:          -8.752
REMARK INTER:                  -2.455
REMARK INTRA:                  -6.297
REMARK UNBOUND:                -6.168
REMARK SMILES CCCCCCCCCCCCCCCCCCCCCCCCCCCC(=O)[O-]
REMARK SMILES IDX 15 1 16 2 17 3 18 4 19 5 20 6 21 7 22 8 23 9 24 10 25 11
REMARK SMILES IDX 26 12 27 13 28 14 29 15 30 16 14 17 13 18 12 19 11 20 10 21
REMARK SMILES IDX 9 22 8 23 7 24 6 25 5 26 4 27 3 28 2 29 1 30
REMARK H PARENT
REMARK Flexibility Score: inf
ROOT
ATOM      1  C   UNL     1      18.746 -33.247   1.452  1.00  0.00     0.000 C 
ENDROOT
BRANCH   1   2
ATOM      2  C   UNL     1      18.814 -33.042   2.974  1.00  0.00     0.000 C 
BRANCH   2   3
ATOM      3  C   UNL     1      19.087 -31.581   3.369  1.00  0.00     0.000 C 
BRANCH   3   4
ATOM      4  C   UNL     1      18.698 -30.530   2.311  1.00  0.00     0.000 C 
BRANCH   4   5
ATOM      5  C   UNL     1      19.882 -29.675   1.804  1.00  0.00     0.000 C 
BRANCH   5   6
ATOM      6  C   UNL     1      20.442 -30.100   0.430  1.00  0.00     0.000 C 
BRANCH   6   7
ATOM      7  C   UNL     1      21.607 -31.111   0.472  1.00  0.00     0.000 C 
BRANCH   7   8
ATOM      8  C   UNL     1      22.526 -31.010   1.705  1.00  0.00     0.000 C 
BRANCH   8   9
ATOM      9  C   UNL     1      22.622 -32.295   2.550  1.00  0.00     0.000 C 
BRANCH   9  10
ATOM     10  C   UNL     1      22.431 -33.607   1.762  1.00  0.00     0.000 C 
BRANCH  10  11
ATOM     11  C   UNL     1      22.209 -34.864   2.627  1.00  0.00     0.000 C 
BRANCH  11  12
ATOM     12  C   UNL     1      21.219 -35.888   2.045  1.00  0.00     0.006 C 
BRANCH  12  13
ATOM     13  C   UNL     1      20.294 -36.491   3.108  1.00  0.00     0.053 C 
BRANCH  13  14
ATOM     14  C   UNL     1      19.138 -37.186   2.460  1.00  0.00     0.041 C 
ATOM     15  O   UNL     1      18.132 -37.514   3.144  1.00  0.00    -0.550 OA
ATOM     16  O   UNL     1      19.195 -37.523   1.115  1.00  0.00    -0.550 OA
ENDBRANCH  13  14
ENDBRANCH  12  13
ENDBRANCH  11  12
ENDBRANCH  10  11
ENDBRANCH   9  10
ENDBRANCH   8   9
ENDBRANCH   7   8
ENDBRANCH   6   7
ENDBRANCH   5   6
ENDBRANCH   4   5
ENDBRANCH   3   4
ENDBRANCH   2   3
ENDBRANCH   1   2
BRANCH   1  17
ATOM     17  C   UNL     1      17.637 -34.228   1.030  1.00  0.00     0.000 C 
BRANCH  17  18
ATOM     18  C   UNL     1      16.397 -34.238   1.943  1.00  0.00     0.000 C 
BRANCH  18  19
ATOM     19  C   UNL     1      15.104 -33.863   1.203  1.00  0.00     0.000 C 
BRANCH  19  20
ATOM     20  C   UNL     1      14.333 -32.770   1.957  1.00  0.00     0.000 C 
BRANCH  20  21
ATOM     21  C   UNL     1      15.258 -31.745   2.641  1.00  0.00     0.000 C 
BRANCH  21  22
ATOM     22  C   UNL     1      14.909 -31.431   4.109  1.00  0.00    -0.000 C 
BRANCH  22  23
ATOM     23  C   UNL     1      15.938 -31.917   5.147  1.00  0.00    -0.000 C 
BRANCH  23  24
ATOM     24  C   UNL     1      15.804 -33.411   5.511  1.00  0.00    -0.000 C 
BRANCH  24  25
ATOM     25  C   UNL     1      16.999 -33.930   6.330  1.00  0.00    -0.000 C 
BRANCH  25  26
ATOM     26  C   UNL     1      17.699 -35.126   5.665  1.00  0.00    -0.000 C 
BRANCH  26  27
ATOM     27  C   UNL     1      18.894 -35.646   6.483  1.00  0.00    -0.000 C 
BRANCH  27  28
ATOM     28  C   UNL     1      19.818 -34.501   6.950  1.00  0.00    -0.000 C 
BRANCH  28  29
ATOM     29  C   UNL     1      20.872 -34.096   5.906  1.00  0.00    -0.003 C 
ATOM     30  C   UNL     1      21.392 -32.674   6.102  1.00  0.00     0.004 C 
ENDBRANCH  28  29
ENDBRANCH  27  28
ENDBRANCH  26  27
ENDBRANCH  25  26
ENDBRANCH  24  25
ENDBRANCH  23  24
ENDBRANCH  22  23
ENDBRANCH  21  22
ENDBRANCH  20  21
ENDBRANCH  19  20
ENDBRANCH  18  19
ENDBRANCH  17  18
ENDBRANCH   1  17
TORSDOF 26
ENDMDL
