MODEL 1
REMARK VINA RESULT:    -5.013      0.000      0.000
REMARK INTER + INTRA:         -17.550
REMARK INTER:                 -12.633
REMARK INTRA:                  -4.918
REMARK UNBOUND:                -4.918
REMARK SMILES CCCCCCCCCCCCCCCCCCCCCCCCCCCC(=O)[O-]
REMARK SMILES IDX 15 1 16 2 17 3 18 4 19 5 20 6 21 7 22 8 23 9 24 10 25 11
REMARK SMILES IDX 26 12 27 13 28 14 29 15 30 16 14 17 13 18 12 19 11 20 10 21
REMARK SMILES IDX 9 22 8 23 7 24 6 25 5 26 4 27 3 28 2 29 1 30
REMARK H PARENT
REMARK Flexibility Score: inf
ROOT
ATOM      1  C   UNL     1      14.512 -33.468  23.501  1.00  0.00     0.000 C 
ENDROOT
BRANCH   1   2
ATOM      2  C   UNL     1      14.922 -32.034  23.861  1.00  0.00     0.000 C 
BRANCH   2   3
ATOM      3  C   UNL     1      13.798 -31.043  23.524  1.00  0.00     0.000 C 
BRANCH   3   4
ATOM      4  C   UNL     1      14.325 -29.706  22.980  1.00  0.00     0.000 C 
BRANCH   4   5
ATOM      5  C   UNL     1      15.041 -29.859  21.629  1.00  0.00     0.000 C 
BRANCH   5   6
ATOM      6  C   UNL     1      16.565 -29.856  21.811  1.00  0.00     0.000 C 
BRANCH   6   7
ATOM      7  C   UNL     1      17.268 -30.926  20.956  1.00  0.00     0.000 C 
BRANCH   7   8
ATOM      8  C   UNL     1      18.047 -31.988  21.758  1.00  0.00     0.000 C 
BRANCH   8   9
ATOM      9  C   UNL     1      19.299 -32.524  21.032  1.00  0.00     0.000 C 
BRANCH   9  10
ATOM     10  C   UNL     1      20.604 -31.961  21.621  1.00  0.00     0.000 C 
BRANCH  10  11
ATOM     11  C   UNL     1      21.132 -30.748  20.838  1.00  0.00     0.000 C 
BRANCH  11  12
ATOM     12  C   UNL     1      21.161 -29.463  21.687  1.00  0.00     0.006 C 
BRANCH  12  13
ATOM     13  C   UNL     1      21.510 -28.223  20.852  1.00  0.00     0.053 C 
BRANCH  13  14
ATOM     14  C   UNL     1      20.315 -27.351  20.609  1.00  0.00     0.041 C 
ATOM     15  O   UNL     1      19.153 -27.799  20.792  1.00  0.00    -0.550 OA
ATOM     16  O   UNL     1      20.488 -26.048  20.163  1.00  0.00    -0.550 OA
ENDBRANCH  13  14
ENDBRANCH  12  13
ENDBRANCH  11  12
ENDBRANCH  10  11
ENDBRANCH   9  10
ENDBRANCH   8   9
ENDBRANCH   7   8
ENDBRANCH   6   7
ENDBRANCH   5   6
ENDBRANCH   4   5
ENDBRANCH   3   4
ENDBRANCH   2   3
ENDBRANCH   1   2
BRANCH   1  17
ATOM     17  C   UNL     1      15.337 -33.997  22.314  1.00  0.00     0.000 C 
BRANCH  17  18
ATOM     18  C   UNL     1      14.655 -33.734  20.958  1.00  0.00     0.000 C 
BRANCH  18  19
ATOM     19  C   UNL     1      15.138 -34.658  19.825  1.00  0.00     0.000 C 
BRANCH  19  20
ATOM     20  C   UNL     1      16.465 -34.186  19.206  1.00  0.00     0.000 C 
BRANCH  20  21
ATOM     21  C   UNL     1      17.550 -35.284  19.244  1.00  0.00     0.000 C 
BRANCH  21  22
ATOM     22  C   UNL     1      17.025 -36.658  19.696  1.00  0.00    -0.000 C 
BRANCH  22  23
ATOM     23  C   UNL     1      17.774 -37.216  20.917  1.00  0.00    -0.000 C 
BRANCH  23  24
ATOM     24  C   UNL     1      17.918 -36.185  22.045  1.00  0.00    -0.000 C 
BRANCH  24  25
ATOM     25  C   UNL     1      19.326 -36.175  22.660  1.00  0.00    -0.000 C 
BRANCH  25  26
ATOM     26  C   UNL     1      19.512 -35.062  23.707  1.00  0.00    -0.000 C 
BRANCH  26  27
ATOM     27  C   UNL     1      18.184 -34.571  24.322  1.00  0.00    -0.000 C 
BRANCH  27  28
ATOM     28  C   UNL     1      18.408 -33.735  25.592  1.00  0.00    -0.000 C 
BRANCH  28  29
ATOM     29  C   UNL     1      18.321 -32.236  25.288  1.00  0.00    -0.003 C 
ATOM     30  C   UNL     1      19.519 -31.486  25.863  1.00  0.00     0.004 C 
ENDBRANCH  28  29
ENDBRANCH  27  28
ENDBRANCH  26  27
ENDBRANCH  25  26
ENDBRANCH  24  25
ENDBRANCH  23  24
ENDBRANCH  22  23
ENDBRANCH  21  22
ENDBRANCH  20  21
ENDBRANCH  19  20
ENDBRANCH  18  19
ENDBRANCH  17  18
ENDBRANCH   1  17
TORSDOF 26
ENDMDL
MODEL 2
REMARK VINA RESULT:    -4.955      1.803      4.260
REMARK INTER + INTRA:         -17.404
REMARK INTER:                 -13.457
REMARK INTRA:                  -3.947
REMARK UNBOUND:                -4.918
REMARK SMILES CCCCCCCCCCCCCCCCCCCCCCCCCCCC(=O)[O-]
REMARK SMILES IDX 15 1 16 2 17 3 18 4 19 5 20 6 21 7 22 8 23 9 24 10 25 11
REMARK SMILES IDX 26 12 27 13 28 14 29 15 30 16 14 17 13 18 12 19 11 20 10 21
REMARK SMILES IDX 9 22 8 23 7 24 6 25 5 26 4 27 3 28 2 29 1 30
REMARK H PARENT
REMARK Flexibility Score: inf
ROOT
ATOM      1  C   UNL     1      16.475 -30.257  22.894  1.00  0.00     0.000 C 
ENDROOT
BRANCH   1   2
ATOM      2  C   UNL     1      17.305 -30.174  21.606  1.00  0.00     0.000 C 
BRANCH   2   3
ATOM      3  C   UNL     1      17.344 -31.533  20.891  1.00  0.00     0.000 C 
BRANCH   3   4
ATOM      4  C   UNL     1      18.745 -32.163  20.885  1.00  0.00     0.000 C 
BRANCH   4   5
ATOM      5  C   UNL     1      19.739 -31.404  21.778  1.00  0.00     0.000 C 
BRANCH   5   6
ATOM      6  C   UNL     1      21.070 -31.175  21.048  1.00  0.00     0.000 C 
BRANCH   6   7
ATOM      7  C   UNL     1      21.234 -29.728  20.550  1.00  0.00     0.000 C 
BRANCH   7   8
ATOM      8  C   UNL     1      20.516 -28.663  21.402  1.00  0.00     0.000 C 
BRANCH   8   9
ATOM      9  C   UNL     1      19.796 -27.581  20.571  1.00  0.00     0.000 C 
BRANCH   9  10
ATOM     10  C   UNL     1      20.296 -26.162  20.896  1.00  0.00     0.000 C 
BRANCH  10  11
ATOM     11  C   UNL     1      21.103 -26.103  22.203  1.00  0.00     0.000 C 
BRANCH  11  12
ATOM     12  C   UNL     1      22.597 -25.818  21.962  1.00  0.00     0.006 C 
BRANCH  12  13
ATOM     13  C   UNL     1      22.836 -24.403  21.415  1.00  0.00     0.053 C 
BRANCH  13  14
ATOM     14  C   UNL     1      23.528 -24.420  20.086  1.00  0.00     0.041 C 
ATOM     15  O   UNL     1      23.296 -25.342  19.260  1.00  0.00    -0.550 OA
ATOM     16  O   UNL     1      24.442 -23.425  19.767  1.00  0.00    -0.550 OA
ENDBRANCH  13  14
ENDBRANCH  12  13
ENDBRANCH  11  12
ENDBRANCH  10  11
ENDBRANCH   9  10
ENDBRANCH   8   9
ENDBRANCH   7   8
ENDBRANCH   6   7
ENDBRANCH   5   6
ENDBRANCH   4   5
ENDBRANCH   3   4
ENDBRANCH   2   3
ENDBRANCH   1   2
BRANCH   1  17
ATOM     17  C   UNL     1      15.051 -29.719  22.668  1.00  0.00     0.000 C 
BRANCH  17  18
ATOM     18  C   UNL     1      13.970 -30.787  22.926  1.00  0.00     0.000 C 
BRANCH  18  19
ATOM     19  C   UNL     1      14.524 -32.126  23.445  1.00  0.00     0.000 C 
BRANCH  19  20
ATOM     20  C   UNL     1      14.546 -33.216  22.359  1.00  0.00     0.000 C 
BRANCH  20  21
ATOM     21  C   UNL     1      13.931 -32.728  21.030  1.00  0.00     0.000 C 
BRANCH  21  22
ATOM     22  C   UNL     1      14.268 -33.625  19.825  1.00  0.00    -0.000 C 
BRANCH  22  23
ATOM     23  C   UNL     1      15.237 -34.766  20.178  1.00  0.00    -0.000 C 
BRANCH  23  24
ATOM     24  C   UNL     1      16.451 -34.823  19.240  1.00  0.00    -0.000 C 
BRANCH  24  25
ATOM     25  C   UNL     1      17.224 -36.146  19.356  1.00  0.00    -0.000 C 
BRANCH  25  26
ATOM     26  C   UNL     1      17.308 -36.662  20.803  1.00  0.00    -0.000 C 
BRANCH  26  27
ATOM     27  C   UNL     1      18.200 -35.792  21.714  1.00  0.00    -0.000 C 
BRANCH  27  28
ATOM     28  C   UNL     1      17.541 -35.514  23.075  1.00  0.00    -0.000 C 
BRANCH  28  29
ATOM     29  C   UNL     1      18.330 -34.464  23.864  1.00  0.00    -0.003 C 
ATOM     30  C   UNL     1      19.833 -34.652  23.686  1.00  0.00     0.004 C 
ENDBRANCH  28  29
ENDBRANCH  27  28
ENDBRANCH  26  27
ENDBRANCH  25  26
ENDBRANCH  24  25
ENDBRANCH  23  24
ENDBRANCH  22  23
ENDBRANCH  21  22
ENDBRANCH  20  21
ENDBRANCH  19  20
ENDBRANCH  18  19
ENDBRANCH  17  18
ENDBRANCH   1  17
TORSDOF 26
ENDMDL
MODEL 3
REMARK VINA RESULT:    -4.899      1.804      4.636
REMARK INTER + INTRA:         -17.264
REMARK INTER:                 -13.471
REMARK INTRA:                  -3.793
REMARK UNBOUND:                -4.918
REMARK SMILES CCCCCCCCCCCCCCCCCCCCCCCCCCCC(=O)[O-]
REMARK SMILES IDX 15 1 16 2 17 3 18 4 19 5 20 6 21 7 22 8 23 9 24 10 25 11
REMARK SMILES IDX 26 12 27 13 28 14 29 15 30 16 14 17 13 18 12 19 11 20 10 21
REMARK SMILES IDX 9 22 8 23 7 24 6 25 5 26 4 27 3 28 2 29 1 30
REMARK H PARENT
REMARK Flexibility Score: inf
ROOT
ATOM      1  C   UNL     1      16.708 -32.269  23.727  1.00  0.00     0.000 C 
ENDROOT
BRANCH   1   2
ATOM      2  C   UNL     1      17.281 -31.160  22.835  1.00  0.00     0.000 C 
BRANCH   2   3
ATOM      3  C   UNL     1      17.194 -31.551  21.352  1.00  0.00     0.000 C 
BRANCH   3   4
ATOM      4  C   UNL     1      18.538 -32.034  20.783  1.00  0.00     0.000 C 
BRANCH   4   5
ATOM      5  C   UNL     1      19.707 -31.801  21.752  1.00  0.00     0.000 C 
BRANCH   5   6
ATOM      6  C   UNL     1      20.977 -31.392  20.993  1.00  0.00     0.000 C 
BRANCH   6   7
ATOM      7  C   UNL     1      21.097 -29.868  20.812  1.00  0.00     0.000 C 
BRANCH   7   8
ATOM      8  C   UNL     1      19.973 -29.046  21.473  1.00  0.00     0.000 C 
BRANCH   8   9
ATOM      9  C   UNL     1      19.364 -27.968  20.552  1.00  0.00     0.000 C 
BRANCH   9  10
ATOM     10  C   UNL     1      20.294 -26.754  20.374  1.00  0.00     0.000 C 
BRANCH  10  11
ATOM     11  C   UNL     1      20.766 -26.169  21.715  1.00  0.00     0.000 C 
BRANCH  11  12
ATOM     12  C   UNL     1      21.562 -24.862  21.541  1.00  0.00     0.006 C 
BRANCH  12  13
ATOM     13  C   UNL     1      23.062 -25.119  21.341  1.00  0.00     0.053 C 
BRANCH  13  14
ATOM     14  C   UNL     1      23.526 -24.723  19.971  1.00  0.00     0.041 C 
ATOM     15  O   UNL     1      24.123 -23.628  19.793  1.00  0.00    -0.550 OA
ATOM     16  O   UNL     1      23.280 -25.557  18.889  1.00  0.00    -0.550 OA
ENDBRANCH  13  14
ENDBRANCH  12  13
ENDBRANCH  11  12
ENDBRANCH  10  11
ENDBRANCH   9  10
ENDBRANCH   8   9
ENDBRANCH   7   8
ENDBRANCH   6   7
ENDBRANCH   5   6
ENDBRANCH   4   5
ENDBRANCH   3   4
ENDBRANCH   2   3
ENDBRANCH   1   2
BRANCH   1  17
ATOM     17  C   UNL     1      17.689 -32.633  24.855  1.00  0.00     0.000 C 
BRANCH  17  18
ATOM     18  C   UNL     1      18.015 -34.138  24.891  1.00  0.00     0.000 C 
BRANCH  18  19
ATOM     19  C   UNL     1      17.190 -34.981  23.901  1.00  0.00     0.000 C 
BRANCH  19  20
ATOM     20  C   UNL     1      18.069 -35.894  23.029  1.00  0.00     0.000 C 
BRANCH  20  21
ATOM     21  C   UNL     1      17.997 -35.519  21.533  1.00  0.00     0.000 C 
BRANCH  21  22
ATOM     22  C   UNL     1      17.552 -36.678  20.624  1.00  0.00    -0.000 C 
BRANCH  22  23
ATOM     23  C   UNL     1      16.724 -36.210  19.416  1.00  0.00    -0.000 C 
BRANCH  23  24
ATOM     24  C   UNL     1      16.217 -34.769  19.568  1.00  0.00    -0.000 C 
BRANCH  24  25
ATOM     25  C   UNL     1      14.797 -34.702  20.152  1.00  0.00    -0.000 C 
BRANCH  25  26
ATOM     26  C   UNL     1      14.567 -33.449  21.016  1.00  0.00    -0.000 C 
BRANCH  26  27
ATOM     27  C   UNL     1      13.577 -32.445  20.387  1.00  0.00    -0.000 C 
BRANCH  27  28
ATOM     28  C   UNL     1      13.453 -31.158  21.217  1.00  0.00    -0.000 C 
BRANCH  28  29
ATOM     29  C   UNL     1      13.206 -31.476  22.696  1.00  0.00    -0.003 C 
ATOM     30  C   UNL     1      13.543 -30.281  23.583  1.00  0.00     0.004 C 
ENDBRANCH  28  29
ENDBRANCH  27  28
ENDBRANCH  26  27
ENDBRANCH  25  26
ENDBRANCH  24  25
ENDBRANCH  23  24
ENDBRANCH  22  23
ENDBRANCH  21  22
ENDBRANCH  20  21
ENDBRANCH  19  20
ENDBRANCH  18  19
ENDBRANCH  17  18
ENDBRANCH   1  17
TORSDOF 26
ENDMDL
MODEL 4
REMARK VINA RESULT:    -4.877      2.314      4.138
REMARK INTER + INTRA:         -17.206
REMARK INTER:                 -12.187
REMARK INTRA:                  -5.019
REMARK UNBOUND:                -4.918
REMARK SMILES CCCCCCCCCCCCCCCCCCCCCCCCCCCC(=O)[O-]
REMARK SMILES IDX 15 1 16 2 17 3 18 4 19 5 20 6 21 7 22 8 23 9 24 10 25 11
REMARK SMILES IDX 26 12 27 13 28 14 29 15 30 16 14 17 13 18 12 19 11 20 10 21
REMARK SMILES IDX 9 22 8 23 7 24 6 25 5 26 4 27 3 28 2 29 1 30
REMARK H PARENT
REMARK Flexibility Score: inf
ROOT
ATOM      1  C   UNL     1      14.224 -30.017  23.348  1.00  0.00     0.000 C 
ENDROOT
BRANCH   1   2
ATOM      2  C   UNL     1      15.695 -30.340  23.056  1.00  0.00     0.000 C 
BRANCH   2   3
ATOM      3  C   UNL     1      16.137 -29.719  21.721  1.00  0.00     0.000 C 
BRANCH   3   4
ATOM      4  C   UNL     1      17.500 -30.243  21.243  1.00  0.00     0.000 C 
BRANCH   4   5
ATOM      5  C   UNL     1      17.495 -31.759  20.989  1.00  0.00     0.000 C 
BRANCH   5   6
ATOM      6  C   UNL     1      18.925 -32.299  20.855  1.00  0.00     0.000 C 
BRANCH   6   7
ATOM      7  C   UNL     1      19.988 -31.290  21.324  1.00  0.00     0.000 C 
BRANCH   7   8
ATOM      8  C   UNL     1      20.521 -31.524  22.751  1.00  0.00     0.000 C 
BRANCH   8   9
ATOM      9  C   UNL     1      19.653 -32.484  23.592  1.00  0.00     0.000 C 
BRANCH   9  10
ATOM     10  C   UNL     1      18.736 -31.737  24.576  1.00  0.00     0.000 C 
BRANCH  10  11
ATOM     11  C   UNL     1      18.878 -32.246  26.020  1.00  0.00     0.000 C 
BRANCH  11  12
ATOM     12  C   UNL     1      20.247 -31.902  26.636  1.00  0.00     0.006 C 
BRANCH  12  13
ATOM     13  C   UNL     1      20.521 -30.392  26.633  1.00  0.00     0.053 C 
BRANCH  13  14
ATOM     14  C   UNL     1      21.977 -30.081  26.803  1.00  0.00     0.041 C 
ATOM     15  O   UNL     1      22.665 -29.699  25.819  1.00  0.00    -0.550 OA
ATOM     16  O   UNL     1      22.578 -30.232  28.045  1.00  0.00    -0.550 OA
ENDBRANCH  13  14
ENDBRANCH  12  13
ENDBRANCH  11  12
ENDBRANCH  10  11
ENDBRANCH   9  10
ENDBRANCH   8   9
ENDBRANCH   7   8
ENDBRANCH   6   7
ENDBRANCH   5   6
ENDBRANCH   4   5
ENDBRANCH   3   4
ENDBRANCH   2   3
ENDBRANCH   1   2
BRANCH   1  17
ATOM     17  C   UNL     1      13.319 -31.218  23.021  1.00  0.00     0.000 C 
BRANCH  17  18
ATOM     18  C   UNL     1      12.526 -31.021  21.715  1.00  0.00     0.000 C 
BRANCH  18  19
ATOM     19  C   UNL     1      13.127 -31.753  20.501  1.00  0.00     0.000 C 
BRANCH  19  20
ATOM     20  C   UNL     1      14.089 -32.882  20.910  1.00  0.00     0.000 C 
BRANCH  20  21
ATOM     21  C   UNL     1      14.438 -33.809  19.727  1.00  0.00     0.000 C 
BRANCH  21  22
ATOM     22  C   UNL     1      15.235 -35.061  20.133  1.00  0.00    -0.000 C 
BRANCH  22  23
ATOM     23  C   UNL     1      16.628 -35.123  19.486  1.00  0.00    -0.000 C 
BRANCH  23  24
ATOM     24  C   UNL     1      17.223 -36.538  19.495  1.00  0.00    -0.000 C 
BRANCH  24  25
ATOM     25  C   UNL     1      17.623 -37.001  20.905  1.00  0.00    -0.000 C 
BRANCH  25  26
ATOM     26  C   UNL     1      18.248 -35.874  21.747  1.00  0.00    -0.000 C 
BRANCH  26  27
ATOM     27  C   UNL     1      18.441 -36.252  23.231  1.00  0.00    -0.000 C 
BRANCH  27  28
ATOM     28  C   UNL     1      17.511 -35.453  24.157  1.00  0.00    -0.000 C 
BRANCH  28  29
ATOM     29  C   UNL     1      16.619 -34.500  23.355  1.00  0.00    -0.003 C 
ATOM     30  C   UNL     1      15.580 -33.830  24.250  1.00  0.00     0.004 C 
ENDBRANCH  28  29
ENDBRANCH  27  28
ENDBRANCH  26  27
ENDBRANCH  25  26
ENDBRANCH  24  25
ENDBRANCH  23  24
ENDBRANCH  22  23
ENDBRANCH  21  22
ENDBRANCH  20  21
ENDBRANCH  19  20
ENDBRANCH  18  19
ENDBRANCH  17  18
ENDBRANCH   1  17
TORSDOF 26
ENDMDL
MODEL 5
REMARK VINA RESULT:    -4.871      2.828      5.963
REMARK INTER + INTRA:         -17.192
REMARK INTER:                 -12.309
REMARK INTRA:                  -4.883
REMARK UNBOUND:                -4.918
REMARK SMILES CCCCCCCCCCCCCCCCCCCCCCCCCCCC(=O)[O-]
REMARK SMILES IDX 15 1 16 2 17 3 18 4 19 5 20 6 21 7 22 8 23 9 24 10 25 11
REMARK SMILES IDX 26 12 27 13 28 14 29 15 30 16 14 17 13 18 12 19 11 20 10 21
REMARK SMILES IDX 9 22 8 23 7 24 6 25 5 26 4 27 3 28 2 29 1 30
REMARK H PARENT
REMARK Flexibility Score: inf
ROOT
ATOM      1  C   UNL     1      14.783 -34.204  19.932  1.00  0.00     0.000 C 
ENDROOT
BRANCH   1   2
ATOM      2  C   UNL     1      14.580 -33.479  21.269  1.00  0.00     0.000 C 
BRANCH   2   3
ATOM      3  C   UNL     1      15.294 -34.223  22.408  1.00  0.00     0.000 C 
BRANCH   3   4
ATOM      4  C   UNL     1      15.213 -33.477  23.749  1.00  0.00     0.000 C 
BRANCH   4   5
ATOM      5  C   UNL     1      16.407 -33.780  24.667  1.00  0.00     0.000 C 
BRANCH   5   6
ATOM      6  C   UNL     1      16.797 -35.263  24.590  1.00  0.00     0.000 C 
BRANCH   6   7
ATOM      7  C   UNL     1      18.217 -35.477  24.038  1.00  0.00     0.000 C 
BRANCH   7   8
ATOM      8  C   UNL     1      18.278 -36.006  22.591  1.00  0.00     0.000 C 
BRANCH   8   9
ATOM      9  C   UNL     1      18.992 -37.367  22.454  1.00  0.00     0.000 C 
BRANCH   9  10
ATOM     10  C   UNL     1      19.393 -37.960  23.817  1.00  0.00     0.000 C 
BRANCH  10  11
ATOM     11  C   UNL     1      20.899 -37.833  24.098  1.00  0.00     0.000 C 
BRANCH  11  12
ATOM     12  C   UNL     1      21.635 -37.023  23.015  1.00  0.00     0.006 C 
BRANCH  12  13
ATOM     13  C   UNL     1      22.490 -35.897  23.614  1.00  0.00     0.053 C 
BRANCH  13  14
ATOM     14  C   UNL     1      21.857 -34.550  23.433  1.00  0.00     0.041 C 
ATOM     15  O   UNL     1      21.875 -33.707  24.368  1.00  0.00    -0.550 OA
ATOM     16  O   UNL     1      21.233 -34.233  22.234  1.00  0.00    -0.550 OA
ENDBRANCH  13  14
ENDBRANCH  12  13
ENDBRANCH  11  12
ENDBRANCH  10  11
ENDBRANCH   9  10
ENDBRANCH   8   9
ENDBRANCH   7   8
ENDBRANCH   6   7
ENDBRANCH   5   6
ENDBRANCH   4   5
ENDBRANCH   3   4
ENDBRANCH   2   3
ENDBRANCH   1   2
BRANCH   1  17
ATOM     17  C   UNL     1      15.581 -35.505  20.124  1.00  0.00     0.000 C 
BRANCH  17  18
ATOM     18  C   UNL     1      16.850 -35.554  19.251  1.00  0.00     0.000 C 
BRANCH  18  19
ATOM     19  C   UNL     1      17.412 -34.167  18.887  1.00  0.00     0.000 C 
BRANCH  19  20
ATOM     20  C   UNL     1      18.441 -33.661  19.912  1.00  0.00     0.000 C 
BRANCH  20  21
ATOM     21  C   UNL     1      18.022 -32.315  20.542  1.00  0.00     0.000 C 
BRANCH  21  22
ATOM     22  C   UNL     1      18.292 -32.229  22.055  1.00  0.00    -0.000 C 
BRANCH  22  23
ATOM     23  C   UNL     1      17.928 -30.860  22.653  1.00  0.00    -0.000 C 
BRANCH  23  24
ATOM     24  C   UNL     1      16.978 -30.055  21.755  1.00  0.00    -0.000 C 
BRANCH  24  25
ATOM     25  C   UNL     1      15.604 -29.828  22.405  1.00  0.00    -0.000 C 
BRANCH  25  26
ATOM     26  C   UNL     1      14.435 -30.123  21.448  1.00  0.00    -0.000 C 
BRANCH  26  27
ATOM     27  C   UNL     1      13.076 -30.265  22.164  1.00  0.00    -0.000 C 
BRANCH  27  28
ATOM     28  C   UNL     1      13.191 -30.028  23.679  1.00  0.00    -0.000 C 
BRANCH  28  29
ATOM     29  C   UNL     1      12.388 -28.796  24.107  1.00  0.00    -0.003 C 
ATOM     30  C   UNL     1      13.220 -27.523  23.982  1.00  0.00     0.004 C 
ENDBRANCH  28  29
ENDBRANCH  27  28
ENDBRANCH  26  27
ENDBRANCH  25  26
ENDBRANCH  24  25
ENDBRANCH  23  24
ENDBRANCH  22  23
ENDBRANCH  21  22
ENDBRANCH  20  21
ENDBRANCH  19  20
ENDBRANCH  18  19
ENDBRANCH  17  18
ENDBRANCH   1  17
TORSDOF 26
ENDMDL
MODEL 6
REMARK VINA RESULT:    -4.858      1.590      2.701
REMARK INTER + INTRA:         -17.161
REMARK INTER:                 -13.065
REMARK INTRA:                  -4.096
REMARK UNBOUND:                -4.918
REMARK SMILES CCCCCCCCCCCCCCCCCCCCCCCCCCCC(=O)[O-]
REMARK SMILES IDX 15 1 16 2 17 3 18 4 19 5 20 6 21 7 22 8 23 9 24 10 25 11
REMARK SMILES IDX 26 12 27 13 28 14 29 15 30 16 14 17 13 18 12 19 11 20 10 21
REMARK SMILES IDX 9 22 8 23 7 24 6 25 5 26 4 27 3 28 2 29 1 30
REMARK H PARENT
REMARK Flexibility Score: inf
ROOT
ATOM      1  C   UNL     1      13.859 -31.215  21.856  1.00  0.00     0.000 C 
ENDROOT
BRANCH   1   2
ATOM      2  C   UNL     1      14.858 -30.074  21.624  1.00  0.00     0.000 C 
BRANCH   2   3
ATOM      3  C   UNL     1      16.003 -30.133  22.646  1.00  0.00     0.000 C 
BRANCH   3   4
ATOM      4  C   UNL     1      17.390 -30.175  21.985  1.00  0.00     0.000 C 
BRANCH   4   5
ATOM      5  C   UNL     1      17.450 -31.151  20.799  1.00  0.00     0.000 C 
BRANCH   5   6
ATOM      6  C   UNL     1      18.285 -32.391  21.149  1.00  0.00     0.000 C 
BRANCH   6   7
ATOM      7  C   UNL     1      19.037 -32.244  22.484  1.00  0.00     0.000 C 
BRANCH   7   8
ATOM      8  C   UNL     1      20.483 -32.776  22.475  1.00  0.00     0.000 C 
BRANCH   8   9
ATOM      9  C   UNL     1      21.486 -31.847  21.759  1.00  0.00     0.000 C 
BRANCH   9  10
ATOM     10  C   UNL     1      21.396 -30.393  22.256  1.00  0.00     0.000 C 
BRANCH  10  11
ATOM     11  C   UNL     1      20.893 -29.427  21.171  1.00  0.00     0.000 C 
BRANCH  11  12
ATOM     12  C   UNL     1      21.011 -27.951  21.593  1.00  0.00     0.006 C 
BRANCH  12  13
ATOM     13  C   UNL     1      21.071 -27.005  20.385  1.00  0.00     0.053 C 
BRANCH  13  14
ATOM     14  C   UNL     1      22.391 -26.303  20.283  1.00  0.00     0.041 C 
ATOM     15  O   UNL     1      23.404 -26.762  20.873  1.00  0.00    -0.550 OA
ATOM     16  O   UNL     1      22.497 -25.129  19.548  1.00  0.00    -0.550 OA
ENDBRANCH  13  14
ENDBRANCH  12  13
ENDBRANCH  11  12
ENDBRANCH  10  11
ENDBRANCH   9  10
ENDBRANCH   8   9
ENDBRANCH   7   8
ENDBRANCH   6   7
ENDBRANCH   5   6
ENDBRANCH   4   5
ENDBRANCH   3   4
ENDBRANCH   2   3
ENDBRANCH   1   2
BRANCH   1  17
ATOM     17  C   UNL     1      14.395 -32.217  22.894  1.00  0.00     0.000 C 
BRANCH  17  18
ATOM     18  C   UNL     1      14.845 -33.544  22.255  1.00  0.00     0.000 C 
BRANCH  18  19
ATOM     19  C   UNL     1      14.565 -33.638  20.744  1.00  0.00     0.000 C 
BRANCH  19  20
ATOM     20  C   UNL     1      15.202 -34.883  20.102  1.00  0.00     0.000 C 
BRANCH  20  21
ATOM     21  C   UNL     1      16.431 -34.530  19.238  1.00  0.00     0.000 C 
BRANCH  21  22
ATOM     22  C   UNL     1      17.556 -35.577  19.303  1.00  0.00    -0.000 C 
BRANCH  22  23
ATOM     23  C   UNL     1      17.145 -36.855  20.053  1.00  0.00    -0.000 C 
BRANCH  23  24
ATOM     24  C   UNL     1      17.949 -37.070  21.343  1.00  0.00    -0.000 C 
BRANCH  24  25
ATOM     25  C   UNL     1      17.799 -35.903  22.332  1.00  0.00    -0.000 C 
BRANCH  25  26
ATOM     26  C   UNL     1      18.444 -36.194  23.699  1.00  0.00    -0.000 C 
BRANCH  26  27
ATOM     27  C   UNL     1      17.986 -35.227  24.812  1.00  0.00    -0.000 C 
BRANCH  27  28
ATOM     28  C   UNL     1      16.899 -35.844  25.705  1.00  0.00    -0.000 C 
BRANCH  28  29
ATOM     29  C   UNL     1      17.462 -36.996  26.543  1.00  0.00    -0.003 C 
ATOM     30  C   UNL     1      16.346 -37.887  27.080  1.00  0.00     0.004 C 
ENDBRANCH  28  29
ENDBRANCH  27  28
ENDBRANCH  26  27
ENDBRANCH  25  26
ENDBRANCH  24  25
ENDBRANCH  23  24
ENDBRANCH  22  23
ENDBRANCH  21  22
ENDBRANCH  20  21
ENDBRANCH  19  20
ENDBRANCH  18  19
ENDBRANCH  17  18
ENDBRANCH   1  17
TORSDOF 26
ENDMDL
MODEL 7
REMARK VINA RESULT:    -4.838      2.513      6.358
REMARK INTER + INTRA:         -17.109
REMARK INTER:                 -11.873
REMARK INTRA:                  -5.236
REMARK UNBOUND:                -4.918
REMARK SMILES CCCCCCCCCCCCCCCCCCCCCCCCCCCC(=O)[O-]
REMARK SMILES IDX 15 1 16 2 17 3 18 4 19 5 20 6 21 7 22 8 23 9 24 10 25 11
REMARK SMILES IDX 26 12 27 13 28 14 29 15 30 16 14 17 13 18 12 19 11 20 10 21
REMARK SMILES IDX 9 22 8 23 7 24 6 25 5 26 4 27 3 28 2 29 1 30
REMARK H PARENT
REMARK Flexibility Score: inf
ROOT
ATOM      1  C   UNL     1      16.694 -35.111  19.397  1.00  0.00     0.000 C 
ENDROOT
BRANCH   1   2
ATOM      2  C   UNL     1      16.613 -36.590  19.800  1.00  0.00     0.000 C 
BRANCH   2   3
ATOM      3  C   UNL     1      17.688 -36.933  20.841  1.00  0.00     0.000 C 
BRANCH   3   4
ATOM      4  C   UNL     1      18.451 -35.696  21.340  1.00  0.00     0.000 C 
BRANCH   4   5
ATOM      5  C   UNL     1      19.439 -36.026  22.470  1.00  0.00     0.000 C 
BRANCH   5   6
ATOM      6  C   UNL     1      19.417 -37.525  22.798  1.00  0.00     0.000 C 
BRANCH   6   7
ATOM      7  C   UNL     1      18.885 -37.817  24.212  1.00  0.00     0.000 C 
BRANCH   7   8
ATOM      8  C   UNL     1      19.369 -36.840  25.302  1.00  0.00     0.000 C 
BRANCH   8   9
ATOM      9  C   UNL     1      18.227 -36.108  26.037  1.00  0.00     0.000 C 
BRANCH   9  10
ATOM     10  C   UNL     1      16.994 -35.894  25.141  1.00  0.00     0.000 C 
BRANCH  10  11
ATOM     11  C   UNL     1      16.585 -34.416  25.040  1.00  0.00     0.000 C 
BRANCH  11  12
ATOM     12  C   UNL     1      17.619 -33.568  24.275  1.00  0.00     0.006 C 
BRANCH  12  13
ATOM     13  C   UNL     1      18.077 -32.345  25.083  1.00  0.00     0.053 C 
BRANCH  13  14
ATOM     14  C   UNL     1      19.474 -32.501  25.601  1.00  0.00     0.041 C 
ATOM     15  O   UNL     1      19.885 -31.782  26.550  1.00  0.00    -0.550 OA
ATOM     16  O   UNL     1      20.328 -33.430  25.023  1.00  0.00    -0.550 OA
ENDBRANCH  13  14
ENDBRANCH  12  13
ENDBRANCH  11  12
ENDBRANCH  10  11
ENDBRANCH   9  10
ENDBRANCH   8   9
ENDBRANCH   7   8
ENDBRANCH   6   7
ENDBRANCH   5   6
ENDBRANCH   4   5
ENDBRANCH   3   4
ENDBRANCH   2   3
ENDBRANCH   1   2
BRANCH   1  17
ATOM     17  C   UNL     1      15.394 -34.369  19.753  1.00  0.00     0.000 C 
BRANCH  17  18
ATOM     18  C   UNL     1      15.102 -34.383  21.265  1.00  0.00     0.000 C 
BRANCH  18  19
ATOM     19  C   UNL     1      14.373 -33.125  21.773  1.00  0.00     0.000 C 
BRANCH  19  20
ATOM     20  C   UNL     1      13.595 -32.404  20.659  1.00  0.00     0.000 C 
BRANCH  20  21
ATOM     21  C   UNL     1      13.119 -31.002  21.093  1.00  0.00     0.000 C 
BRANCH  21  22
ATOM     22  C   UNL     1      13.291 -30.727  22.598  1.00  0.00    -0.000 C 
BRANCH  22  23
ATOM     23  C   UNL     1      13.999 -29.393  22.888  1.00  0.00    -0.000 C 
BRANCH  23  24
ATOM     24  C   UNL     1      15.281 -29.211  22.063  1.00  0.00    -0.000 C 
BRANCH  24  25
ATOM     25  C   UNL     1      16.397 -30.180  22.485  1.00  0.00    -0.000 C 
BRANCH  25  26
ATOM     26  C   UNL     1      17.469 -30.365  21.396  1.00  0.00    -0.000 C 
BRANCH  26  27
ATOM     27  C   UNL     1      17.761 -31.845  21.068  1.00  0.00    -0.000 C 
BRANCH  27  28
ATOM     28  C   UNL     1      19.259 -32.104  20.846  1.00  0.00    -0.000 C 
BRANCH  28  29
ATOM     29  C   UNL     1      20.098 -31.489  21.971  1.00  0.00    -0.003 C 
ATOM     30  C   UNL     1      21.553 -31.942  21.887  1.00  0.00     0.004 C 
ENDBRANCH  28  29
ENDBRANCH  27  28
ENDBRANCH  26  27
ENDBRANCH  25  26
ENDBRANCH  24  25
ENDBRANCH  23  24
ENDBRANCH  22  23
ENDBRANCH  21  22
ENDBRANCH  20  21
ENDBRANCH  19  20
ENDBRANCH  18  19
ENDBRANCH  17  18
ENDBRANCH   1  17
TORSDOF 26
ENDMDL
MODEL 8
REMARK VINA RESULT:    -4.784      2.053      5.123
REMARK INTER + INTRA:         -16.973
REMARK INTER:                 -11.720
REMARK INTRA:                  -5.253
REMARK UNBOUND:                -4.918
REMARK SMILES CCCCCCCCCCCCCCCCCCCCCCCCCCCC(=O)[O-]
REMARK SMILES IDX 15 1 16 2 17 3 18 4 19 5 20 6 21 7 22 8 23 9 24 10 25 11
REMARK SMILES IDX 26 12 27 13 28 14 29 15 30 16 14 17 13 18 12 19 11 20 10 21
REMARK SMILES IDX 9 22 8 23 7 24 6 25 5 26 4 27 3 28 2 29 1 30
REMARK H PARENT
REMARK Flexibility Score: inf
ROOT
ATOM      1  C   UNL     1      18.229 -31.892  24.751  1.00  0.00     0.000 C 
ENDROOT
BRANCH   1   2
ATOM      2  C   UNL     1      18.212 -33.303  25.354  1.00  0.00     0.000 C 
BRANCH   2   3
ATOM      3  C   UNL     1      16.889 -34.017  25.037  1.00  0.00     0.000 C 
BRANCH   3   4
ATOM      4  C   UNL     1      17.095 -35.443  24.501  1.00  0.00     0.000 C 
BRANCH   4   5
ATOM      5  C   UNL     1      18.014 -36.285  25.400  1.00  0.00     0.000 C 
BRANCH   5   6
ATOM      6  C   UNL     1      18.948 -37.166  24.559  1.00  0.00     0.000 C 
BRANCH   6   7
ATOM      7  C   UNL     1      19.252 -36.562  23.177  1.00  0.00     0.000 C 
BRANCH   7   8
ATOM      8  C   UNL     1      20.570 -35.767  23.092  1.00  0.00     0.000 C 
BRANCH   8   9
ATOM      9  C   UNL     1      20.415 -34.365  22.467  1.00  0.00     0.000 C 
BRANCH   9  10
ATOM     10  C   UNL     1      21.293 -33.311  23.165  1.00  0.00     0.000 C 
BRANCH  10  11
ATOM     11  C   UNL     1      22.204 -32.555  22.184  1.00  0.00     0.000 C 
BRANCH  11  12
ATOM     12  C   UNL     1      21.518 -31.317  21.576  1.00  0.00     0.006 C 
BRANCH  12  13
ATOM     13  C   UNL     1      20.976 -30.367  22.654  1.00  0.00     0.053 C 
BRANCH  13  14
ATOM     14  C   UNL     1      22.069 -29.802  23.510  1.00  0.00     0.041 C 
ATOM     15  O   UNL     1      22.098 -30.043  24.746  1.00  0.00    -0.550 OA
ATOM     16  O   UNL     1      23.045 -28.993  22.944  1.00  0.00    -0.550 OA
ENDBRANCH  13  14
ENDBRANCH  12  13
ENDBRANCH  11  12
ENDBRANCH  10  11
ENDBRANCH   9  10
ENDBRANCH   8   9
ENDBRANCH   7   8
ENDBRANCH   6   7
ENDBRANCH   5   6
ENDBRANCH   4   5
ENDBRANCH   3   4
ENDBRANCH   2   3
ENDBRANCH   1   2
BRANCH   1  17
ATOM     17  C   UNL     1      17.044 -31.687  23.791  1.00  0.00     0.000 C 
BRANCH  17  18
ATOM     18  C   UNL     1      17.324 -30.603  22.733  1.00  0.00     0.000 C 
BRANCH  18  19
ATOM     19  C   UNL     1      17.086 -31.066  21.284  1.00  0.00     0.000 C 
BRANCH  19  20
ATOM     20  C   UNL     1      18.147 -32.072  20.804  1.00  0.00     0.000 C 
BRANCH  20  21
ATOM     21  C   UNL     1      17.514 -33.326  20.165  1.00  0.00     0.000 C 
BRANCH  21  22
ATOM     22  C   UNL     1      16.969 -34.337  21.189  1.00  0.00    -0.000 C 
BRANCH  22  23
ATOM     23  C   UNL     1      15.465 -34.610  21.022  1.00  0.00    -0.000 C 
BRANCH  23  24
ATOM     24  C   UNL     1      14.591 -33.529  21.673  1.00  0.00    -0.000 C 
BRANCH  24  25
ATOM     25  C   UNL     1      13.815 -32.697  20.639  1.00  0.00    -0.000 C 
BRANCH  25  26
ATOM     26  C   UNL     1      13.545 -31.258  21.114  1.00  0.00    -0.000 C 
BRANCH  26  27
ATOM     27  C   UNL     1      12.755 -31.186  22.437  1.00  0.00    -0.000 C 
BRANCH  27  28
ATOM     28  C   UNL     1      13.531 -30.444  23.536  1.00  0.00    -0.000 C 
BRANCH  28  29
ATOM     29  C   UNL     1      13.328 -28.929  23.428  1.00  0.00    -0.003 C 
ATOM     30  C   UNL     1      11.933 -28.524  23.897  1.00  0.00     0.004 C 
ENDBRANCH  28  29
ENDBRANCH  27  28
ENDBRANCH  26  27
ENDBRANCH  25  26
ENDBRANCH  24  25
ENDBRANCH  23  24
ENDBRANCH  22  23
ENDBRANCH  21  22
ENDBRANCH  20  21
ENDBRANCH  19  20
ENDBRANCH  18  19
ENDBRANCH  17  18
ENDBRANCH   1  17
TORSDOF 26
ENDMDL
MODEL 9
REMARK VINA RESULT:    -4.751      2.580      6.959
REMARK INTER + INTRA:         -16.890
REMARK INTER:                 -13.049
REMARK INTRA:                  -3.841
REMARK UNBOUND:                -4.918
REMARK SMILES CCCCCCCCCCCCCCCCCCCCCCCCCCCC(=O)[O-]
REMARK SMILES IDX 15 1 16 2 17 3 18 4 19 5 20 6 21 7 22 8 23 9 24 10 25 11
REMARK SMILES IDX 26 12 27 13 28 14 29 15 30 16 14 17 13 18 12 19 11 20 10 21
REMARK SMILES IDX 9 22 8 23 7 24 6 25 5 26 4 27 3 28 2 29 1 30
REMARK H PARENT
REMARK Flexibility Score: inf
ROOT
ATOM      1  C   UNL     1      15.077 -29.654  21.683  1.00  0.00     0.000 C 
ENDROOT
BRANCH   1   2
ATOM      2  C   UNL     1      14.284 -29.173  22.905  1.00  0.00     0.000 C 
BRANCH   2   3
ATOM      3  C   UNL     1      13.326 -30.267  23.400  1.00  0.00     0.000 C 
BRANCH   3   4
ATOM      4  C   UNL     1      13.518 -31.604  22.667  1.00  0.00     0.000 C 
BRANCH   4   5
ATOM      5  C   UNL     1      14.214 -32.661  23.537  1.00  0.00     0.000 C 
BRANCH   5   6
ATOM      6  C   UNL     1      15.027 -33.636  22.674  1.00  0.00     0.000 C 
BRANCH   6   7
ATOM      7  C   UNL     1      14.660 -33.557  21.182  1.00  0.00     0.000 C 
BRANCH   7   8
ATOM      8  C   UNL     1      15.068 -34.786  20.347  1.00  0.00     0.000 C 
BRANCH   8   9
ATOM      9  C   UNL     1      16.148 -34.490  19.285  1.00  0.00     0.000 C 
BRANCH   9  10
ATOM     10  C   UNL     1      17.404 -35.361  19.467  1.00  0.00     0.000 C 
BRANCH  10  11
ATOM     11  C   UNL     1      17.107 -36.686  20.189  1.00  0.00     0.000 C 
BRANCH  11  12
ATOM     12  C   UNL     1      17.907 -36.840  21.495  1.00  0.00     0.006 C 
BRANCH  12  13
ATOM     13  C   UNL     1      18.649 -35.550  21.876  1.00  0.00     0.053 C 
BRANCH  13  14
ATOM     14  C   UNL     1      18.497 -35.219  23.329  1.00  0.00     0.041 C 
ATOM     15  O   UNL     1      19.175 -34.291  23.845  1.00  0.00    -0.550 OA
ATOM     16  O   UNL     1      17.619 -35.949  24.119  1.00  0.00    -0.550 OA
ENDBRANCH  13  14
ENDBRANCH  12  13
ENDBRANCH  11  12
ENDBRANCH  10  11
ENDBRANCH   9  10
ENDBRANCH   8   9
ENDBRANCH   7   8
ENDBRANCH   6   7
ENDBRANCH   5   6
ENDBRANCH   4   5
ENDBRANCH   3   4
ENDBRANCH   2   3
ENDBRANCH   1   2
BRANCH   1  17
ATOM     17  C   UNL     1      16.556 -29.887  22.040  1.00  0.00     0.000 C 
BRANCH  17  18
ATOM     18  C   UNL     1      17.314 -30.655  20.941  1.00  0.00     0.000 C 
BRANCH  18  19
ATOM     19  C   UNL     1      17.897 -32.001  21.408  1.00  0.00     0.000 C 
BRANCH  19  20
ATOM     20  C   UNL     1      19.420 -32.088  21.201  1.00  0.00     0.000 C 
BRANCH  20  21
ATOM     21  C   UNL     1      20.196 -31.211  22.206  1.00  0.00     0.000 C 
BRANCH  21  22
ATOM     22  C   UNL     1      21.431 -30.520  21.601  1.00  0.00    -0.000 C 
BRANCH  22  23
ATOM     23  C   UNL     1      21.070 -29.347  20.675  1.00  0.00    -0.000 C 
BRANCH  23  24
ATOM     24  C   UNL     1      20.321 -28.224  21.407  1.00  0.00    -0.000 C 
BRANCH  24  25
ATOM     25  C   UNL     1      19.968 -27.050  20.480  1.00  0.00    -0.000 C 
BRANCH  25  26
ATOM     26  C   UNL     1      20.233 -25.679  21.128  1.00  0.00    -0.000 C 
BRANCH  26  27
ATOM     27  C   UNL     1      21.334 -25.714  22.208  1.00  0.00    -0.000 C 
BRANCH  27  28
ATOM     28  C   UNL     1      22.744 -25.745  21.597  1.00  0.00    -0.000 C 
BRANCH  28  29
ATOM     29  C   UNL     1      23.195 -24.342  21.179  1.00  0.00    -0.003 C 
ATOM     30  C   UNL     1      23.664 -24.321  19.727  1.00  0.00     0.004 C 
ENDBRANCH  28  29
ENDBRANCH  27  28
ENDBRANCH  26  27
ENDBRANCH  25  26
ENDBRANCH  24  25
ENDBRANCH  23  24
ENDBRANCH  22  23
ENDBRANCH  21  22
ENDBRANCH  20  21
ENDBRANCH  19  20
ENDBRANCH  18  19
ENDBRANCH  17  18
ENDBRANCH   1  17
TORSDOF 26
ENDMDL
