MODEL 1
REMARK VINA RESULT:    -4.874      0.000      0.000
REMARK INTER + INTRA:         -14.145
REMARK INTER:                 -11.144
REMARK INTRA:                  -3.002
REMARK UNBOUND:                -3.002
REMARK SMILES CCCCCCCCCCCCCCCCCCCCCCCC(=O)[O-]
REMARK SMILES IDX 13 1 14 2 15 3 16 4 17 5 18 6 19 7 20 8 21 9 22 10 23 11
REMARK SMILES IDX 24 12 25 13 26 14 12 15 11 16 10 17 9 18 8 19 7 20 6 21 5 22
REMARK SMILES IDX 4 23 3 24 2 25 1 26
REMARK H PARENT
REMARK Flexibility Score: inf
ROOT
ATOM      1  C   UNL     1       0.417  44.356   7.799  1.00  0.00     0.000 C 
ENDROOT
BRANCH   1   2
ATOM      2  C   UNL     1       1.281  44.087   9.043  1.00  0.00     0.000 C 
BRANCH   2   3
ATOM      3  C   UNL     1       2.439  43.118   8.757  1.00  0.00     0.000 C 
BRANCH   3   4
ATOM      4  C   UNL     1       3.789  43.630   9.291  1.00  0.00     0.000 C 
BRANCH   4   5
ATOM      5  C   UNL     1       3.626  44.791  10.284  1.00  0.00     0.000 C 
BRANCH   5   6
ATOM      6  C   UNL     1       4.532  44.646  11.517  1.00  0.00     0.000 C 
BRANCH   6   7
ATOM      7  C   UNL     1       3.852  43.801  12.601  1.00  0.00     0.000 C 
BRANCH   7   8
ATOM      8  C   UNL     1       2.323  43.890  12.488  1.00  0.00     0.000 C 
BRANCH   8   9
ATOM      9  C   UNL     1       1.658  42.510  12.354  1.00  0.00     0.000 C 
BRANCH   9  10
ATOM     10  C   UNL     1       2.678  41.387  12.102  1.00  0.00     0.006 C 
BRANCH  10  11
ATOM     11  C   UNL     1       2.389  40.142  12.951  1.00  0.00     0.053 C 
BRANCH  11  12
ATOM     12  C   UNL     1       3.436  39.086  12.764  1.00  0.00     0.041 C 
ATOM     13  O   UNL     1       4.611  39.277  13.173  1.00  0.00    -0.550 OA
ATOM     14  O   UNL     1       3.106  37.879  12.159  1.00  0.00    -0.550 OA
ENDBRANCH  11  12
ENDBRANCH  10  11
ENDBRANCH   9  10
ENDBRANCH   8   9
ENDBRANCH   7   8
ENDBRANCH   6   7
ENDBRANCH   5   6
ENDBRANCH   4   5
ENDBRANCH   3   4
ENDBRANCH   2   3
ENDBRANCH   1   2
BRANCH   1  15
ATOM     15  C   UNL     1      -0.014  45.829   7.671  1.00  0.00     0.000 C 
BRANCH  15  16
ATOM     16  C   UNL     1      -0.143  46.598   9.000  1.00  0.00     0.000 C 
BRANCH  16  17
ATOM     17  C   UNL     1      -1.123  47.780   8.918  1.00  0.00     0.000 C 
BRANCH  17  18
ATOM     18  C   UNL     1      -1.101  48.481   7.546  1.00  0.00    -0.000 C 
BRANCH  18  19
ATOM     19  C   UNL     1      -0.891  50.007   7.591  1.00  0.00    -0.000 C 
BRANCH  19  20
ATOM     20  C   UNL     1       0.559  50.475   7.356  1.00  0.00    -0.000 C 
BRANCH  20  21
ATOM     21  C   UNL     1       1.616  49.776   8.232  1.00  0.00    -0.000 C 
BRANCH  21  22
ATOM     22  C   UNL     1       2.540  48.793   7.486  1.00  0.00    -0.000 C 
BRANCH  22  23
ATOM     23  C   UNL     1       3.138  47.669   8.351  1.00  0.00    -0.000 C 
BRANCH  23  24
ATOM     24  C   UNL     1       4.639  47.453   8.097  1.00  0.00    -0.000 C 
BRANCH  24  25
ATOM     25  C   UNL     1       5.476  47.583   9.379  1.00  0.00    -0.003 C 
ATOM     26  C   UNL     1       6.636  48.568   9.233  1.00  0.00     0.004 C 
ENDBRANCH  24  25
ENDBRANCH  23  24
ENDBRANCH  22  23
ENDBRANCH  21  22
ENDBRANCH  20  21
ENDBRANCH  19  20
ENDBRANCH  18  19
ENDBRANCH  17  18
ENDBRANCH  16  17
ENDBRANCH  15  16
ENDBRANCH   1  15
TORSDOF 22
ENDMDL
MODEL 2
REMARK VINA RESULT:    -4.795      3.011      7.866
REMARK INTER + INTRA:         -13.965
REMARK INTER:                 -10.626
REMARK INTRA:                  -3.339
REMARK UNBOUND:                -3.002
REMARK SMILES CCCCCCCCCCCCCCCCCCCCCCCC(=O)[O-]
REMARK SMILES IDX 13 1 14 2 15 3 16 4 17 5 18 6 19 7 20 8 21 9 22 10 23 11
REMARK SMILES IDX 24 12 25 13 26 14 12 15 11 16 10 17 9 18 8 19 7 20 6 21 5 22
REMARK SMILES IDX 4 23 3 24 2 25 1 26
REMARK H PARENT
REMARK Flexibility Score: inf
ROOT
ATOM      1  C   UNL     1       1.930  43.366   8.779  1.00  0.00     0.000 C 
ENDROOT
BRANCH   1   2
ATOM      2  C   UNL     1       0.834  44.438   8.661  1.00  0.00     0.000 C 
BRANCH   2   3
ATOM      3  C   UNL     1       0.620  45.208   9.974  1.00  0.00     0.000 C 
BRANCH   3   4
ATOM      4  C   UNL     1      -0.743  45.919  10.031  1.00  0.00     0.000 C 
BRANCH   4   5
ATOM      5  C   UNL     1      -0.623  47.439   9.833  1.00  0.00     0.000 C 
BRANCH   5   6
ATOM      6  C   UNL     1      -0.422  47.829   8.361  1.00  0.00     0.000 C 
BRANCH   6   7
ATOM      7  C   UNL     1       0.676  48.890   8.219  1.00  0.00     0.000 C 
BRANCH   7   8
ATOM      8  C   UNL     1       1.968  48.273   7.663  1.00  0.00     0.000 C 
BRANCH   8   9
ATOM      9  C   UNL     1       2.873  47.702   8.766  1.00  0.00     0.000 C 
BRANCH   9  10
ATOM     10  C   UNL     1       4.325  47.509   8.296  1.00  0.00     0.006 C 
BRANCH  10  11
ATOM     11  C   UNL     1       5.297  47.340   9.471  1.00  0.00     0.053 C 
BRANCH  11  12
ATOM     12  C   UNL     1       6.627  47.970   9.188  1.00  0.00     0.041 C 
ATOM     13  O   UNL     1       6.692  49.058   8.557  1.00  0.00    -0.550 OA
ATOM     14  O   UNL     1       7.793  47.369   9.645  1.00  0.00    -0.550 OA
ENDBRANCH  11  12
ENDBRANCH  10  11
ENDBRANCH   9  10
ENDBRANCH   8   9
ENDBRANCH   7   8
ENDBRANCH   6   7
ENDBRANCH   5   6
ENDBRANCH   4   5
ENDBRANCH   3   4
ENDBRANCH   2   3
ENDBRANCH   1   2
BRANCH   1  15
ATOM     15  C   UNL     1       3.337  43.961   8.975  1.00  0.00     0.000 C 
BRANCH  15  16
ATOM     16  C   UNL     1       4.131  43.402  10.171  1.00  0.00     0.000 C 
BRANCH  16  17
ATOM     17  C   UNL     1       4.220  44.389  11.347  1.00  0.00     0.000 C 
BRANCH  17  18
ATOM     18  C   UNL     1       3.245  44.048  12.490  1.00  0.00    -0.000 C 
BRANCH  18  19
ATOM     19  C   UNL     1       2.458  42.734  12.312  1.00  0.00    -0.000 C 
BRANCH  19  20
ATOM     20  C   UNL     1       0.944  42.836  12.585  1.00  0.00    -0.000 C 
BRANCH  20  21
ATOM     21  C   UNL     1       0.343  41.645  13.355  1.00  0.00    -0.000 C 
BRANCH  21  22
ATOM     22  C   UNL     1       1.369  40.620  13.880  1.00  0.00    -0.000 C 
BRANCH  22  23
ATOM     23  C   UNL     1       1.443  39.303  13.087  1.00  0.00    -0.000 C 
BRANCH  23  24
ATOM     24  C   UNL     1       2.866  38.978  12.603  1.00  0.00    -0.000 C 
BRANCH  24  25
ATOM     25  C   UNL     1       3.947  39.492  13.567  1.00  0.00    -0.003 C 
ATOM     26  C   UNL     1       5.062  40.256  12.854  1.00  0.00     0.004 C 
ENDBRANCH  24  25
ENDBRANCH  23  24
ENDBRANCH  22  23
ENDBRANCH  21  22
ENDBRANCH  20  21
ENDBRANCH  19  20
ENDBRANCH  18  19
ENDBRANCH  17  18
ENDBRANCH  16  17
ENDBRANCH  15  16
ENDBRANCH   1  15
TORSDOF 22
ENDMDL
MODEL 3
REMARK VINA RESULT:    -4.755      3.010      7.708
REMARK INTER + INTRA:         -13.872
REMARK INTER:                 -11.243
REMARK INTRA:                  -2.628
REMARK UNBOUND:                -3.002
REMARK SMILES CCCCCCCCCCCCCCCCCCCCCCCC(=O)[O-]
REMARK SMILES IDX 13 1 14 2 15 3 16 4 17 5 18 6 19 7 20 8 21 9 22 10 23 11
REMARK SMILES IDX 24 12 25 13 26 14 12 15 11 16 10 17 9 18 8 19 7 20 6 21 5 22
REMARK SMILES IDX 4 23 3 24 2 25 1 26
REMARK H PARENT
REMARK Flexibility Score: inf
ROOT
ATOM      1  C   UNL     1       1.481  43.754   9.123  1.00  0.00     0.000 C 
ENDROOT
BRANCH   1   2
ATOM      2  C   UNL     1       0.650  44.138   7.887  1.00  0.00     0.000 C 
BRANCH   2   3
ATOM      3  C   UNL     1      -0.019  45.514   8.032  1.00  0.00     0.000 C 
BRANCH   3   4
ATOM      4  C   UNL     1       0.124  46.098   9.449  1.00  0.00     0.000 C 
BRANCH   4   5
ATOM      5  C   UNL     1      -0.768  47.330   9.670  1.00  0.00     0.000 C 
BRANCH   5   6
ATOM      6  C   UNL     1      -0.380  48.511   8.768  1.00  0.00     0.000 C 
BRANCH   6   7
ATOM      7  C   UNL     1       1.089  48.900   8.974  1.00  0.00     0.000 C 
BRANCH   7   8
ATOM      8  C   UNL     1       1.859  48.856   7.646  1.00  0.00     0.000 C 
BRANCH   8   9
ATOM      9  C   UNL     1       2.970  47.793   7.639  1.00  0.00     0.000 C 
BRANCH   9  10
ATOM     10  C   UNL     1       4.370  48.403   7.825  1.00  0.00     0.006 C 
BRANCH  10  11
ATOM     11  C   UNL     1       5.185  47.666   8.895  1.00  0.00     0.053 C 
BRANCH  11  12
ATOM     12  C   UNL     1       6.580  48.204   9.001  1.00  0.00     0.041 C 
ATOM     13  O   UNL     1       7.514  47.471   9.420  1.00  0.00    -0.550 OA
ATOM     14  O   UNL     1       6.852  49.510   8.613  1.00  0.00    -0.550 OA
ENDBRANCH  11  12
ENDBRANCH  10  11
ENDBRANCH   9  10
ENDBRANCH   8   9
ENDBRANCH   7   8
ENDBRANCH   6   7
ENDBRANCH   5   6
ENDBRANCH   4   5
ENDBRANCH   3   4
ENDBRANCH   2   3
ENDBRANCH   1   2
BRANCH   1  15
ATOM     15  C   UNL     1       2.763  42.978   8.770  1.00  0.00     0.000 C 
BRANCH  15  16
ATOM     16  C   UNL     1       4.083  43.678   9.145  1.00  0.00     0.000 C 
BRANCH  16  17
ATOM     17  C   UNL     1       3.870  44.993   9.913  1.00  0.00     0.000 C 
BRANCH  17  18
ATOM     18  C   UNL     1       4.475  44.963  11.330  1.00  0.00    -0.000 C 
BRANCH  18  19
ATOM     19  C   UNL     1       3.996  43.802  12.224  1.00  0.00    -0.000 C 
BRANCH  19  20
ATOM     20  C   UNL     1       2.552  43.932  12.748  1.00  0.00    -0.000 C 
BRANCH  20  21
ATOM     21  C   UNL     1       1.632  42.742  12.414  1.00  0.00    -0.000 C 
BRANCH  21  22
ATOM     22  C   UNL     1       2.361  41.445  12.010  1.00  0.00    -0.000 C 
BRANCH  22  23
ATOM     23  C   UNL     1       2.231  40.282  13.011  1.00  0.00    -0.000 C 
BRANCH  23  24
ATOM     24  C   UNL     1       3.149  39.096  12.670  1.00  0.00    -0.000 C 
BRANCH  24  25
ATOM     25  C   UNL     1       4.486  39.151  13.427  1.00  0.00    -0.003 C 
ATOM     26  C   UNL     1       5.240  40.461  13.201  1.00  0.00     0.004 C 
ENDBRANCH  24  25
ENDBRANCH  23  24
ENDBRANCH  22  23
ENDBRANCH  21  22
ENDBRANCH  20  21
ENDBRANCH  19  20
ENDBRANCH  18  19
ENDBRANCH  17  18
ENDBRANCH  16  17
ENDBRANCH  15  16
ENDBRANCH   1  15
TORSDOF 22
ENDMDL
MODEL 4
REMARK VINA RESULT:    -4.701      1.836      2.867
REMARK INTER + INTRA:         -13.748
REMARK INTER:                 -11.054
REMARK INTRA:                  -2.694
REMARK UNBOUND:                -3.002
REMARK SMILES CCCCCCCCCCCCCCCCCCCCCCCC(=O)[O-]
REMARK SMILES IDX 13 1 14 2 15 3 16 4 17 5 18 6 19 7 20 8 21 9 22 10 23 11
REMARK SMILES IDX 24 12 25 13 26 14 12 15 11 16 10 17 9 18 8 19 7 20 6 21 5 22
REMARK SMILES IDX 4 23 3 24 2 25 1 26
REMARK H PARENT
REMARK Flexibility Score: inf
ROOT
ATOM      1  C   UNL     1       1.335  44.068   8.913  1.00  0.00     0.000 C 
ENDROOT
BRANCH   1   2
ATOM      2  C   UNL     1       0.932  44.709  10.252  1.00  0.00     0.000 C 
BRANCH   2   3
ATOM      3  C   UNL     1       1.256  43.810  11.455  1.00  0.00     0.000 C 
BRANCH   3   4
ATOM      4  C   UNL     1       2.661  44.068  12.029  1.00  0.00     0.000 C 
BRANCH   4   5
ATOM      5  C   UNL     1       3.677  42.996  11.604  1.00  0.00     0.000 C 
BRANCH   5   6
ATOM      6  C   UNL     1       3.253  41.580  12.024  1.00  0.00     0.000 C 
BRANCH   6   7
ATOM      7  C   UNL     1       4.465  40.753  12.470  1.00  0.00     0.000 C 
BRANCH   7   8
ATOM      8  C   UNL     1       4.021  39.477  13.200  1.00  0.00     0.000 C 
BRANCH   8   9
ATOM      9  C   UNL     1       2.506  39.234  13.099  1.00  0.00     0.000 C 
BRANCH   9  10
ATOM     10  C   UNL     1       2.167  37.919  12.374  1.00  0.00     0.006 C 
BRANCH  10  11
ATOM     11  C   UNL     1       0.668  37.601  12.424  1.00  0.00     0.053 C 
BRANCH  11  12
ATOM     12  C   UNL     1       0.383  36.193  11.997  1.00  0.00     0.041 C 
ATOM     13  O   UNL     1       1.046  35.666  11.064  1.00  0.00    -0.550 OA
ATOM     14  O   UNL     1      -0.596  35.453  12.647  1.00  0.00    -0.550 OA
ENDBRANCH  11  12
ENDBRANCH  10  11
ENDBRANCH   9  10
ENDBRANCH   8   9
ENDBRANCH   7   8
ENDBRANCH   6   7
ENDBRANCH   5   6
ENDBRANCH   4   5
ENDBRANCH   3   4
ENDBRANCH   2   3
ENDBRANCH   1   2
BRANCH   1  15
ATOM     15  C   UNL     1       0.419  44.483   7.747  1.00  0.00     0.000 C 
BRANCH  15  16
ATOM     16  C   UNL     1      -0.643  45.546   8.086  1.00  0.00     0.000 C 
BRANCH  16  17
ATOM     17  C   UNL     1      -0.757  46.645   7.016  1.00  0.00     0.000 C 
BRANCH  17  18
ATOM     18  C   UNL     1      -0.443  48.050   7.566  1.00  0.00    -0.000 C 
BRANCH  18  19
ATOM     19  C   UNL     1      -0.140  48.111   9.077  1.00  0.00    -0.000 C 
BRANCH  19  20
ATOM     20  C   UNL     1       1.337  48.363   9.437  1.00  0.00    -0.000 C 
BRANCH  20  21
ATOM     21  C   UNL     1       2.296  48.430   8.233  1.00  0.00    -0.000 C 
BRANCH  21  22
ATOM     22  C   UNL     1       3.422  47.378   8.234  1.00  0.00    -0.000 C 
BRANCH  22  23
ATOM     23  C   UNL     1       3.726  46.743   9.603  1.00  0.00    -0.000 C 
BRANCH  23  24
ATOM     24  C   UNL     1       5.232  46.672   9.908  1.00  0.00    -0.000 C 
BRANCH  24  25
ATOM     25  C   UNL     1       6.037  47.735   9.144  1.00  0.00    -0.003 C 
ATOM     26  C   UNL     1       7.539  47.644   9.408  1.00  0.00     0.004 C 
ENDBRANCH  24  25
ENDBRANCH  23  24
ENDBRANCH  22  23
ENDBRANCH  21  22
ENDBRANCH  20  21
ENDBRANCH  19  20
ENDBRANCH  18  19
ENDBRANCH  17  18
ENDBRANCH  16  17
ENDBRANCH  15  16
ENDBRANCH   1  15
TORSDOF 22
ENDMDL
MODEL 5
REMARK VINA RESULT:    -4.577      1.060      3.111
REMARK INTER + INTRA:         -13.466
REMARK INTER:                 -10.366
REMARK INTRA:                  -3.100
REMARK UNBOUND:                -3.002
REMARK SMILES CCCCCCCCCCCCCCCCCCCCCCCC(=O)[O-]
REMARK SMILES IDX 13 1 14 2 15 3 16 4 17 5 18 6 19 7 20 8 21 9 22 10 23 11
REMARK SMILES IDX 24 12 25 13 26 14 12 15 11 16 10 17 9 18 8 19 7 20 6 21 5 22
REMARK SMILES IDX 4 23 3 24 2 25 1 26
REMARK H PARENT
REMARK Flexibility Score: inf
ROOT
ATOM      1  C   UNL     1       0.065  46.731   6.938  1.00  0.00     0.000 C 
ENDROOT
BRANCH   1   2
ATOM      2  C   UNL     1      -0.310  45.258   7.177  1.00  0.00     0.000 C 
BRANCH   2   3
ATOM      3  C   UNL     1       0.390  44.666   8.411  1.00  0.00     0.000 C 
BRANCH   3   4
ATOM      4  C   UNL     1       0.899  45.746   9.382  1.00  0.00     0.000 C 
BRANCH   4   5
ATOM      5  C   UNL     1      -0.060  45.974  10.562  1.00  0.00     0.000 C 
BRANCH   5   6
ATOM      6  C   UNL     1      -0.140  44.762  11.502  1.00  0.00     0.000 C 
BRANCH   6   7
ATOM      7  C   UNL     1       1.255  44.349  11.987  1.00  0.00     0.000 C 
BRANCH   7   8
ATOM      8  C   UNL     1       1.449  42.830  11.871  1.00  0.00     0.000 C 
BRANCH   8   9
ATOM      9  C   UNL     1       0.934  42.072  13.106  1.00  0.00     0.000 C 
BRANCH   9  10
ATOM     10  C   UNL     1       1.532  40.659  13.221  1.00  0.00     0.006 C 
BRANCH  10  11
ATOM     11  C   UNL     1       2.874  40.537  12.488  1.00  0.00     0.053 C 
BRANCH  11  12
ATOM     12  C   UNL     1       3.578  39.258  12.825  1.00  0.00     0.041 C 
ATOM     13  O   UNL     1       4.649  39.278  13.487  1.00  0.00    -0.550 OA
ATOM     14  O   UNL     1       3.037  38.041  12.430  1.00  0.00    -0.550 OA
ENDBRANCH  11  12
ENDBRANCH  10  11
ENDBRANCH   9  10
ENDBRANCH   8   9
ENDBRANCH   7   8
ENDBRANCH   6   7
ENDBRANCH   5   6
ENDBRANCH   4   5
ENDBRANCH   3   4
ENDBRANCH   2   3
ENDBRANCH   1   2
BRANCH   1  15
ATOM     15  C   UNL     1      -1.072  47.707   7.293  1.00  0.00     0.000 C 
BRANCH  15  16
ATOM     16  C   UNL     1      -0.685  48.854   8.246  1.00  0.00     0.000 C 
BRANCH  16  17
ATOM     17  C   UNL     1       0.426  49.756   7.683  1.00  0.00     0.000 C 
BRANCH  17  18
ATOM     18  C   UNL     1       1.803  49.476   8.316  1.00  0.00    -0.000 C 
BRANCH  18  19
ATOM     19  C   UNL     1       2.847  48.852   7.368  1.00  0.00    -0.000 C 
BRANCH  19  20
ATOM     20  C   UNL     1       3.622  47.653   7.949  1.00  0.00    -0.000 C 
BRANCH  20  21
ATOM     21  C   UNL     1       5.017  47.993   8.509  1.00  0.00    -0.000 C 
BRANCH  21  22
ATOM     22  C   UNL     1       5.380  47.291   9.833  1.00  0.00    -0.000 C 
BRANCH  22  23
ATOM     23  C   UNL     1       4.246  46.466  10.469  1.00  0.00    -0.000 C 
BRANCH  23  24
ATOM     24  C   UNL     1       4.524  44.954  10.448  1.00  0.00    -0.000 C 
BRANCH  24  25
ATOM     25  C   UNL     1       4.021  44.282   9.161  1.00  0.00    -0.003 C 
ATOM     26  C   UNL     1       3.625  42.821   9.370  1.00  0.00     0.004 C 
ENDBRANCH  24  25
ENDBRANCH  23  24
ENDBRANCH  22  23
ENDBRANCH  21  22
ENDBRANCH  20  21
ENDBRANCH  19  20
ENDBRANCH  18  19
ENDBRANCH  17  18
ENDBRANCH  16  17
ENDBRANCH  15  16
ENDBRANCH   1  15
TORSDOF 22
ENDMDL
MODEL 6
REMARK VINA RESULT:    -4.547      1.317      3.692
REMARK INTER + INTRA:         -13.397
REMARK INTER:                 -10.719
REMARK INTRA:                  -2.677
REMARK UNBOUND:                -3.002
REMARK SMILES CCCCCCCCCCCCCCCCCCCCCCCC(=O)[O-]
REMARK SMILES IDX 13 1 14 2 15 3 16 4 17 5 18 6 19 7 20 8 21 9 22 10 23 11
REMARK SMILES IDX 24 12 25 13 26 14 12 15 11 16 10 17 9 18 8 19 7 20 6 21 5 22
REMARK SMILES IDX 4 23 3 24 2 25 1 26
REMARK H PARENT
REMARK Flexibility Score: inf
ROOT
ATOM      1  C   UNL     1       3.451  48.832   7.127  1.00  0.00     0.000 C 
ENDROOT
BRANCH   1   2
ATOM      2  C   UNL     1       2.880  47.794   8.109  1.00  0.00     0.000 C 
BRANCH   2   3
ATOM      3  C   UNL     1       3.897  46.697   8.463  1.00  0.00     0.000 C 
BRANCH   3   4
ATOM      4  C   UNL     1       4.211  46.640   9.968  1.00  0.00     0.000 C 
BRANCH   4   5
ATOM      5  C   UNL     1       4.414  45.202  10.473  1.00  0.00     0.000 C 
BRANCH   5   6
ATOM      6  C   UNL     1       4.157  45.064  11.981  1.00  0.00     0.000 C 
BRANCH   6   7
ATOM      7  C   UNL     1       3.144  43.950  12.266  1.00  0.00     0.000 C 
BRANCH   7   8
ATOM      8  C   UNL     1       3.351  42.762  11.314  1.00  0.00     0.000 C 
BRANCH   8   9
ATOM      9  C   UNL     1       3.070  41.408  11.986  1.00  0.00     0.000 C 
BRANCH   9  10
ATOM     10  C   UNL     1       4.352  40.723  12.490  1.00  0.00     0.006 C 
BRANCH  10  11
ATOM     11  C   UNL     1       4.049  39.474  13.328  1.00  0.00     0.053 C 
BRANCH  11  12
ATOM     12  C   UNL     1       2.959  38.647  12.719  1.00  0.00     0.041 C 
ATOM     13  O   UNL     1       1.752  38.889  12.988  1.00  0.00    -0.550 OA
ATOM     14  O   UNL     1       3.274  37.624  11.833  1.00  0.00    -0.550 OA
ENDBRANCH  11  12
ENDBRANCH  10  11
ENDBRANCH   9  10
ENDBRANCH   8   9
ENDBRANCH   7   8
ENDBRANCH   6   7
ENDBRANCH   5   6
ENDBRANCH   4   5
ENDBRANCH   3   4
ENDBRANCH   2   3
ENDBRANCH   1   2
BRANCH   1  15
ATOM     15  C   UNL     1       2.653  50.149   7.112  1.00  0.00     0.000 C 
BRANCH  15  16
ATOM     16  C   UNL     1       1.443  50.200   8.064  1.00  0.00     0.000 C 
BRANCH  16  17
ATOM     17  C   UNL     1       0.167  50.728   7.386  1.00  0.00     0.000 C 
BRANCH  17  18
ATOM     18  C   UNL     1      -1.048  49.805   7.598  1.00  0.00    -0.000 C 
BRANCH  18  19
ATOM     19  C   UNL     1      -0.724  48.300   7.681  1.00  0.00    -0.000 C 
BRANCH  19  20
ATOM     20  C   UNL     1      -1.035  47.638   9.038  1.00  0.00    -0.000 C 
BRANCH  20  21
ATOM     21  C   UNL     1       0.204  47.269   9.877  1.00  0.00    -0.000 C 
BRANCH  21  22
ATOM     22  C   UNL     1       0.023  46.058  10.814  1.00  0.00    -0.000 C 
BRANCH  22  23
ATOM     23  C   UNL     1       0.398  44.696  10.202  1.00  0.00    -0.000 C 
BRANCH  23  24
ATOM     24  C   UNL     1       1.086  44.825   8.832  1.00  0.00    -0.000 C 
BRANCH  24  25
ATOM     25  C   UNL     1       0.396  43.983   7.747  1.00  0.00    -0.003 C 
ATOM     26  C   UNL     1      -0.221  44.836   6.639  1.00  0.00     0.004 C 
ENDBRANCH  24  25
ENDBRANCH  23  24
ENDBRANCH  22  23
ENDBRANCH  21  22
ENDBRANCH  20  21
ENDBRANCH  19  20
ENDBRANCH  18  19
ENDBRANCH  17  18
ENDBRANCH  16  17
ENDBRANCH  15  16
ENDBRANCH   1  15
TORSDOF 22
ENDMDL
MODEL 7
REMARK VINA RESULT:    -4.479      1.292      2.999
REMARK INTER + INTRA:         -13.242
REMARK INTER:                 -10.595
REMARK INTRA:                  -2.647
REMARK UNBOUND:                -3.002
REMARK SMILES CCCCCCCCCCCCCCCCCCCCCCCC(=O)[O-]
REMARK SMILES IDX 13 1 14 2 15 3 16 4 17 5 18 6 19 7 20 8 21 9 22 10 23 11
REMARK SMILES IDX 24 12 25 13 26 14 12 15 11 16 10 17 9 18 8 19 7 20 6 21 5 22
REMARK SMILES IDX 4 23 3 24 2 25 1 26
REMARK H PARENT
REMARK Flexibility Score: inf
ROOT
ATOM      1  C   UNL     1      -0.903  47.748   7.446  1.00  0.00     0.000 C 
ENDROOT
BRANCH   1   2
ATOM      2  C   UNL     1      -0.579  46.598   8.416  1.00  0.00     0.000 C 
BRANCH   2   3
ATOM      3  C   UNL     1      -0.390  47.085   9.862  1.00  0.00     0.000 C 
BRANCH   3   4
ATOM      4  C   UNL     1      -0.642  45.977  10.900  1.00  0.00     0.000 C 
BRANCH   4   5
ATOM      5  C   UNL     1       0.336  44.800  10.754  1.00  0.00     0.000 C 
BRANCH   5   6
ATOM      6  C   UNL     1       0.350  43.888  11.990  1.00  0.00     0.000 C 
BRANCH   6   7
ATOM      7  C   UNL     1       1.775  43.718  12.531  1.00  0.00     0.000 C 
BRANCH   7   8
ATOM      8  C   UNL     1       2.815  43.986  11.432  1.00  0.00     0.000 C 
BRANCH   8   9
ATOM      9  C   UNL     1       3.494  42.701  10.933  1.00  0.00     0.000 C 
BRANCH   9  10
ATOM     10  C   UNL     1       3.924  41.776  12.084  1.00  0.00     0.006 C 
BRANCH  10  11
ATOM     11  C   UNL     1       2.895  40.670  12.354  1.00  0.00     0.053 C 
BRANCH  11  12
ATOM     12  C   UNL     1       3.550  39.396  12.794  1.00  0.00     0.041 C 
ATOM     13  O   UNL     1       2.999  38.287  12.566  1.00  0.00    -0.550 OA
ATOM     14  O   UNL     1       4.783  39.433  13.434  1.00  0.00    -0.550 OA
ENDBRANCH  11  12
ENDBRANCH  10  11
ENDBRANCH   9  10
ENDBRANCH   8   9
ENDBRANCH   7   8
ENDBRANCH   6   7
ENDBRANCH   5   6
ENDBRANCH   4   5
ENDBRANCH   3   4
ENDBRANCH   2   3
ENDBRANCH   1   2
BRANCH   1  15
ATOM     15  C   UNL     1      -0.957  49.122   8.137  1.00  0.00     0.000 C 
BRANCH  15  16
ATOM     16  C   UNL     1      -1.028  50.336   7.191  1.00  0.00     0.000 C 
BRANCH  16  17
ATOM     17  C   UNL     1       0.327  51.045   7.021  1.00  0.00     0.000 C 
BRANCH  17  18
ATOM     18  C   UNL     1       1.434  50.438   7.903  1.00  0.00    -0.000 C 
BRANCH  18  19
ATOM     19  C   UNL     1       2.699  49.982   7.147  1.00  0.00    -0.000 C 
BRANCH  19  20
ATOM     20  C   UNL     1       3.046  48.487   7.297  1.00  0.00    -0.000 C 
BRANCH  20  21
ATOM     21  C   UNL     1       2.832  47.911   8.709  1.00  0.00    -0.000 C 
BRANCH  21  22
ATOM     22  C   UNL     1       3.078  46.394   8.841  1.00  0.00    -0.000 C 
BRANCH  22  23
ATOM     23  C   UNL     1       4.523  45.993   9.188  1.00  0.00    -0.000 C 
BRANCH  23  24
ATOM     24  C   UNL     1       5.310  47.124   9.871  1.00  0.00    -0.000 C 
BRANCH  24  25
ATOM     25  C   UNL     1       6.577  47.512   9.092  1.00  0.00    -0.003 C 
ATOM     26  C   UNL     1       6.775  49.024   8.997  1.00  0.00     0.004 C 
ENDBRANCH  24  25
ENDBRANCH  23  24
ENDBRANCH  22  23
ENDBRANCH  21  22
ENDBRANCH  20  21
ENDBRANCH  19  20
ENDBRANCH  18  19
ENDBRANCH  17  18
ENDBRANCH  16  17
ENDBRANCH  15  16
ENDBRANCH   1  15
TORSDOF 22
ENDMDL
MODEL 8
REMARK VINA RESULT:    -4.429      1.159      2.240
REMARK INTER + INTRA:         -13.127
REMARK INTER:                  -9.627
REMARK INTRA:                  -3.500
REMARK UNBOUND:                -3.002
REMARK SMILES CCCCCCCCCCCCCCCCCCCCCCCC(=O)[O-]
REMARK SMILES IDX 13 1 14 2 15 3 16 4 17 5 18 6 19 7 20 8 21 9 22 10 23 11
REMARK SMILES IDX 24 12 25 13 26 14 12 15 11 16 10 17 9 18 8 19 7 20 6 21 5 22
REMARK SMILES IDX 4 23 3 24 2 25 1 26
REMARK H PARENT
REMARK Flexibility Score: inf
ROOT
ATOM      1  C   UNL     1       1.946  43.248   8.343  1.00  0.00     0.000 C 
ENDROOT
BRANCH   1   2
ATOM      2  C   UNL     1       3.232  43.327   9.182  1.00  0.00     0.000 C 
BRANCH   2   3
ATOM      3  C   UNL     1       3.106  42.584  10.522  1.00  0.00     0.000 C 
BRANCH   3   4
ATOM      4  C   UNL     1       3.502  43.457  11.726  1.00  0.00     0.000 C 
BRANCH   4   5
ATOM      5  C   UNL     1       2.314  43.752  12.655  1.00  0.00     0.000 C 
BRANCH   5   6
ATOM      6  C   UNL     1       0.960  43.637  11.937  1.00  0.00     0.000 C 
BRANCH   6   7
ATOM      7  C   UNL     1      -0.052  42.867  12.794  1.00  0.00     0.000 C 
BRANCH   7   8
ATOM      8  C   UNL     1       0.660  42.037  13.872  1.00  0.00     0.000 C 
BRANCH   8   9
ATOM      9  C   UNL     1       0.056  40.633  14.035  1.00  0.00     0.000 C 
BRANCH   9  10
ATOM     10  C   UNL     1       0.952  39.533  13.442  1.00  0.00     0.006 C 
BRANCH  10  11
ATOM     11  C   UNL     1       2.300  40.084  12.957  1.00  0.00     0.053 C 
BRANCH  11  12
ATOM     12  C   UNL     1       3.320  38.997  12.798  1.00  0.00     0.041 C 
ATOM     13  O   UNL     1       4.490  39.157  13.233  1.00  0.00    -0.550 OA
ATOM     14  O   UNL     1       2.969  37.798  12.191  1.00  0.00    -0.550 OA
ENDBRANCH  11  12
ENDBRANCH  10  11
ENDBRANCH   9  10
ENDBRANCH   8   9
ENDBRANCH   7   8
ENDBRANCH   6   7
ENDBRANCH   5   6
ENDBRANCH   4   5
ENDBRANCH   3   4
ENDBRANCH   2   3
ENDBRANCH   1   2
BRANCH   1  15
ATOM     15  C   UNL     1       0.966  44.400   8.633  1.00  0.00     0.000 C 
BRANCH  15  16
ATOM     16  C   UNL     1       0.027  44.778   7.471  1.00  0.00     0.000 C 
BRANCH  16  17
ATOM     17  C   UNL     1      -0.956  45.904   7.834  1.00  0.00     0.000 C 
BRANCH  17  18
ATOM     18  C   UNL     1      -0.917  46.274   9.329  1.00  0.00    -0.000 C 
BRANCH  18  19
ATOM     19  C   UNL     1      -0.993  47.783   9.635  1.00  0.00    -0.000 C 
BRANCH  19  20
ATOM     20  C   UNL     1      -0.293  48.694   8.608  1.00  0.00    -0.000 C 
BRANCH  20  21
ATOM     21  C   UNL     1       1.234  48.810   8.777  1.00  0.00    -0.000 C 
BRANCH  21  22
ATOM     22  C   UNL     1       2.068  48.137   7.669  1.00  0.00    -0.000 C 
BRANCH  22  23
ATOM     23  C   UNL     1       3.302  47.357   8.160  1.00  0.00    -0.000 C 
BRANCH  23  24
ATOM     24  C   UNL     1       3.260  47.061   9.668  1.00  0.00    -0.000 C 
BRANCH  24  25
ATOM     25  C   UNL     1       4.619  46.596  10.214  1.00  0.00    -0.003 C 
ATOM     26  C   UNL     1       5.794  47.372   9.619  1.00  0.00     0.004 C 
ENDBRANCH  24  25
ENDBRANCH  23  24
ENDBRANCH  22  23
ENDBRANCH  21  22
ENDBRANCH  20  21
ENDBRANCH  19  20
ENDBRANCH  18  19
ENDBRANCH  17  18
ENDBRANCH  16  17
ENDBRANCH  15  16
ENDBRANCH   1  15
TORSDOF 22
ENDMDL
MODEL 9
REMARK VINA RESULT:    -4.342      1.383      4.424
REMARK INTER + INTRA:         -12.928
REMARK INTER:                  -9.617
REMARK INTRA:                  -3.312
REMARK UNBOUND:                -3.002
REMARK SMILES CCCCCCCCCCCCCCCCCCCCCCCC(=O)[O-]
REMARK SMILES IDX 13 1 14 2 15 3 16 4 17 5 18 6 19 7 20 8 21 9 22 10 23 11
REMARK SMILES IDX 24 12 25 13 26 14 12 15 11 16 10 17 9 18 8 19 7 20 6 21 5 22
REMARK SMILES IDX 4 23 3 24 2 25 1 26
REMARK H PARENT
REMARK Flexibility Score: inf
ROOT
ATOM      1  C   UNL     1       0.727  48.655   9.154  1.00  0.00     0.000 C 
ENDROOT
BRANCH   1   2
ATOM      2  C   UNL     1       0.686  47.370   9.999  1.00  0.00     0.000 C 
BRANCH   2   3
ATOM      3  C   UNL     1      -0.742  46.830  10.177  1.00  0.00     0.000 C 
BRANCH   3   4
ATOM      4  C   UNL     1      -0.922  46.048  11.490  1.00  0.00     0.000 C 
BRANCH   4   5
ATOM      5  C   UNL     1      -0.488  44.579  11.364  1.00  0.00     0.000 C 
BRANCH   5   6
ATOM      6  C   UNL     1       0.937  44.337  11.884  1.00  0.00     0.000 C 
BRANCH   6   7
ATOM      7  C   UNL     1       1.095  42.904  12.408  1.00  0.00     0.000 C 
BRANCH   7   8
ATOM      8  C   UNL     1       2.567  42.591  12.714  1.00  0.00     0.000 C 
BRANCH   8   9
ATOM      9  C   UNL     1       3.151  41.519  11.779  1.00  0.00     0.000 C 
BRANCH   9  10
ATOM     10  C   UNL     1       4.351  40.785  12.402  1.00  0.00     0.006 C 
BRANCH  10  11
ATOM     11  C   UNL     1       3.913  39.697  13.392  1.00  0.00     0.053 C 
BRANCH  11  12
ATOM     12  C   UNL     1       2.783  38.876  12.851  1.00  0.00     0.041 C 
ATOM     13  O   UNL     1       3.013  37.911  12.075  1.00  0.00    -0.550 OA
ATOM     14  O   UNL     1       1.476  39.159  13.227  1.00  0.00    -0.550 OA
ENDBRANCH  11  12
ENDBRANCH  10  11
ENDBRANCH   9  10
ENDBRANCH   8   9
ENDBRANCH   7   8
ENDBRANCH   6   7
ENDBRANCH   5   6
ENDBRANCH   4   5
ENDBRANCH   3   4
ENDBRANCH   2   3
ENDBRANCH   1   2
BRANCH   1  15
ATOM     15  C   UNL     1       1.249  48.420   7.724  1.00  0.00     0.000 C 
BRANCH  15  16
ATOM     16  C   UNL     1       2.338  49.399   7.248  1.00  0.00     0.000 C 
BRANCH  16  17
ATOM     17  C   UNL     1       3.737  48.762   7.194  1.00  0.00     0.000 C 
BRANCH  17  18
ATOM     18  C   UNL     1       3.870  47.533   8.112  1.00  0.00    -0.000 C 
BRANCH  18  19
ATOM     19  C   UNL     1       5.191  47.443   8.902  1.00  0.00    -0.000 C 
BRANCH  19  20
ATOM     20  C   UNL     1       5.089  46.732  10.267  1.00  0.00    -0.000 C 
BRANCH  20  21
ATOM     21  C   UNL     1       3.920  45.736  10.393  1.00  0.00    -0.000 C 
BRANCH  21  22
ATOM     22  C   UNL     1       4.234  44.298   9.937  1.00  0.00    -0.000 C 
BRANCH  22  23
ATOM     23  C   UNL     1       3.235  43.696   8.932  1.00  0.00    -0.000 C 
BRANCH  23  24
ATOM     24  C   UNL     1       2.020  44.605   8.681  1.00  0.00    -0.000 C 
BRANCH  24  25
ATOM     25  C   UNL     1       0.831  43.843   8.075  1.00  0.00    -0.003 C 
ATOM     26  C   UNL     1      -0.069  44.732   7.217  1.00  0.00     0.004 C 
ENDBRANCH  24  25
ENDBRANCH  23  24
ENDBRANCH  22  23
ENDBRANCH  21  22
ENDBRANCH  20  21
ENDBRANCH  19  20
ENDBRANCH  18  19
ENDBRANCH  17  18
ENDBRANCH  16  17
ENDBRANCH  15  16
ENDBRANCH   1  15
TORSDOF 22
ENDMDL
