MODEL 1
REMARK VINA RESULT:    -6.111      0.000      0.000
REMARK INTER + INTRA:         -20.991
REMARK INTER:                 -16.115
REMARK INTRA:                  -4.876
REMARK UNBOUND:                -4.876
REMARK SMILES CCCCCCCCCCCCCCCCCCCCCCCCCCCCCC(=O)[O-]
REMARK SMILES IDX 16 1 17 2 18 3 19 4 20 5 21 6 22 7 23 8 24 9 25 10 26 11
REMARK SMILES IDX 27 12 28 13 29 14 30 15 31 16 32 17 15 18 14 19 13 20 12 21
REMARK SMILES IDX 11 22 10 23 9 24 8 25 7 26 6 27 5 28 4 29 3 30 2 31 1 32
REMARK H PARENT
REMARK Flexibility Score: inf
ROOT
ATOM      1  C   UNL     1     110.013 -81.238  23.684  1.00  0.00     0.000 C 
ENDROOT
BRANCH   1   2
ATOM      2  C   UNL     1     109.644 -82.701  23.407  1.00  0.00     0.000 C 
BRANCH   2   3
ATOM      3  C   UNL     1     108.199 -82.995  23.827  1.00  0.00     0.000 C 
BRANCH   3   4
ATOM      4  C   UNL     1     107.720 -81.991  24.882  1.00  0.00     0.000 C 
BRANCH   4   5
ATOM      5  C   UNL     1     106.206 -81.751  24.773  1.00  0.00     0.000 C 
BRANCH   5   6
ATOM      6  C   UNL     1     105.528 -82.734  23.794  1.00  0.00     0.000 C 
BRANCH   6   7
ATOM      7  C   UNL     1     104.567 -82.057  22.801  1.00  0.00     0.000 C 
BRANCH   7   8
ATOM      8  C   UNL     1     104.957 -82.292  21.334  1.00  0.00     0.000 C 
BRANCH   8   9
ATOM      9  C   UNL     1     105.521 -81.012  20.697  1.00  0.00     0.000 C 
BRANCH   9  10
ATOM     10  C   UNL     1     107.004 -80.785  21.063  1.00  0.00     0.000 C 
BRANCH  10  11
ATOM     11  C   UNL     1     107.239 -79.565  21.971  1.00  0.00     0.000 C 
BRANCH  11  12
ATOM     12  C   UNL     1     107.765 -78.342  21.206  1.00  0.00     0.000 C 
BRANCH  12  13
ATOM     13  C   UNL     1     106.680 -77.645  20.362  1.00  0.00     0.006 C 
BRANCH  13  14
ATOM     14  C   UNL     1     107.193 -76.439  19.554  1.00  0.00     0.053 C 
BRANCH  14  15
ATOM     15  C   UNL     1     106.115 -75.438  19.269  1.00  0.00     0.041 C 
ATOM     16  O   UNL     1     106.412 -74.234  19.049  1.00  0.00    -0.550 OA
ATOM     17  O   UNL     1     104.786 -75.839  19.216  1.00  0.00    -0.550 OA
ENDBRANCH  14  15
ENDBRANCH  13  14
ENDBRANCH  12  13
ENDBRANCH  11  12
ENDBRANCH  10  11
ENDBRANCH   9  10
ENDBRANCH   8   9
ENDBRANCH   7   8
ENDBRANCH   6   7
ENDBRANCH   5   6
ENDBRANCH   4   5
ENDBRANCH   3   4
ENDBRANCH   2   3
ENDBRANCH   1   2
BRANCH   1  18
ATOM     18  C   UNL     1     110.961 -80.701  22.602  1.00  0.00     0.000 C 
BRANCH  18  19
ATOM     19  C   UNL     1     110.646 -81.254  21.201  1.00  0.00     0.000 C 
BRANCH  19  20
ATOM     20  C   UNL     1     111.788 -82.058  20.546  1.00  0.00     0.000 C 
BRANCH  20  21
ATOM     21  C   UNL     1     112.904 -82.520  21.505  1.00  0.00     0.000 C 
BRANCH  21  22
ATOM     22  C   UNL     1     113.744 -83.710  21.006  1.00  0.00     0.000 C 
BRANCH  22  23
ATOM     23  C   UNL     1     115.115 -83.282  20.456  1.00  0.00     0.000 C 
BRANCH  23  24
ATOM     24  C   UNL     1     116.106 -82.883  21.567  1.00  0.00    -0.000 C 
BRANCH  24  25
ATOM     25  C   UNL     1     116.919 -81.601  21.296  1.00  0.00    -0.000 C 
BRANCH  25  26
ATOM     26  C   UNL     1     116.451 -80.358  22.073  1.00  0.00    -0.000 C 
BRANCH  26  27
ATOM     27  C   UNL     1     116.008 -79.211  21.149  1.00  0.00    -0.000 C 
BRANCH  27  28
ATOM     28  C   UNL     1     114.748 -79.554  20.336  1.00  0.00    -0.000 C 
BRANCH  28  29
ATOM     29  C   UNL     1     113.510 -78.696  20.667  1.00  0.00    -0.000 C 
BRANCH  29  30
ATOM     30  C   UNL     1     112.483 -78.560  19.524  1.00  0.00    -0.000 C 
BRANCH  30  31
ATOM     31  C   UNL     1     111.165 -77.871  19.917  1.00  0.00    -0.003 C 
ATOM     32  C   UNL     1     111.214 -77.242  21.307  1.00  0.00     0.004 C 
ENDBRANCH  30  31
ENDBRANCH  29  30
ENDBRANCH  28  29
ENDBRANCH  27  28
ENDBRANCH  26  27
ENDBRANCH  25  26
ENDBRANCH  24  25
ENDBRANCH  23  24
ENDBRANCH  22  23
ENDBRANCH  21  22
ENDBRANCH  20  21
ENDBRANCH  19  20
ENDBRANCH  18  19
ENDBRANCH   1  18
TORSDOF 28
ENDMDL
MODEL 2
REMARK VINA RESULT:    -6.046      4.170      8.053
REMARK INTER + INTRA:         -20.818
REMARK INTER:                 -16.030
REMARK INTRA:                  -4.789
REMARK UNBOUND:                -4.876
REMARK SMILES CCCCCCCCCCCCCCCCCCCCCCCCCCCCCC(=O)[O-]
REMARK SMILES IDX 16 1 17 2 18 3 19 4 20 5 21 6 22 7 23 8 24 9 25 10 26 11
REMARK SMILES IDX 27 12 28 13 29 14 30 15 31 16 32 17 15 18 14 19 13 20 12 21
REMARK SMILES IDX 11 22 10 23 9 24 8 25 7 26 6 27 5 28 4 29 3 30 2 31 1 32
REMARK H PARENT
REMARK Flexibility Score: inf
ROOT
ATOM      1  C   UNL     1     106.946 -79.751  21.796  1.00  0.00     0.000 C 
ENDROOT
BRANCH   1   2
ATOM      2  C   UNL     1     108.382 -79.214  21.738  1.00  0.00     0.000 C 
BRANCH   2   3
ATOM      3  C   UNL     1     108.403 -77.729  21.354  1.00  0.00     0.000 C 
BRANCH   3   4
ATOM      4  C   UNL     1     106.984 -77.217  21.078  1.00  0.00     0.000 C 
BRANCH   4   5
ATOM      5  C   UNL     1     106.937 -76.384  19.787  1.00  0.00     0.000 C 
BRANCH   5   6
ATOM      6  C   UNL     1     105.534 -76.387  19.141  1.00  0.00     0.000 C 
BRANCH   6   7
ATOM      7  C   UNL     1     104.419 -76.878  20.080  1.00  0.00     0.000 C 
BRANCH   7   8
ATOM      8  C   UNL     1     103.193 -75.954  20.089  1.00  0.00     0.000 C 
BRANCH   8   9
ATOM      9  C   UNL     1     102.474 -75.997  21.447  1.00  0.00     0.000 C 
BRANCH   9  10
ATOM     10  C   UNL     1     102.926 -74.852  22.380  1.00  0.00     0.000 C 
BRANCH  10  11
ATOM     11  C   UNL     1     104.312 -75.074  23.008  1.00  0.00     0.000 C 
BRANCH  11  12
ATOM     12  C   UNL     1     105.361 -74.066  22.513  1.00  0.00     0.000 C 
BRANCH  12  13
ATOM     13  C   UNL     1     104.737 -72.804  21.887  1.00  0.00     0.006 C 
BRANCH  13  14
ATOM     14  C   UNL     1     105.347 -72.412  20.529  1.00  0.00     0.053 C 
BRANCH  14  15
ATOM     15  C   UNL     1     105.648 -70.947  20.436  1.00  0.00     0.041 C 
ATOM     16  O   UNL     1     105.529 -70.345  19.336  1.00  0.00    -0.550 OA
ATOM     17  O   UNL     1     106.032 -70.239  21.568  1.00  0.00    -0.550 OA
ENDBRANCH  14  15
ENDBRANCH  13  14
ENDBRANCH  12  13
ENDBRANCH  11  12
ENDBRANCH  10  11
ENDBRANCH   9  10
ENDBRANCH   8   9
ENDBRANCH   7   8
ENDBRANCH   6   7
ENDBRANCH   5   6
ENDBRANCH   4   5
ENDBRANCH   3   4
ENDBRANCH   2   3
ENDBRANCH   1   2
BRANCH   1  18
ATOM     18  C   UNL     1     106.710 -80.795  20.695  1.00  0.00     0.000 C 
BRANCH  18  19
ATOM     19  C   UNL     1     105.472 -80.489  19.834  1.00  0.00     0.000 C 
BRANCH  19  20
ATOM     20  C   UNL     1     105.125 -81.566  18.786  1.00  0.00     0.000 C 
BRANCH  20  21
ATOM     21  C   UNL     1     105.505 -83.010  19.173  1.00  0.00     0.000 C 
BRANCH  21  22
ATOM     22  C   UNL     1     104.334 -83.890  19.646  1.00  0.00     0.000 C 
BRANCH  22  23
ATOM     23  C   UNL     1     102.965 -83.221  19.439  1.00  0.00     0.000 C 
BRANCH  23  24
ATOM     24  C   UNL     1     102.013 -83.425  20.632  1.00  0.00    -0.000 C 
BRANCH  24  25
ATOM     25  C   UNL     1     102.698 -83.549  22.009  1.00  0.00    -0.000 C 
BRANCH  25  26
ATOM     26  C   UNL     1     103.145 -82.216  22.634  1.00  0.00    -0.000 C 
BRANCH  26  27
ATOM     27  C   UNL     1     104.614 -82.235  23.089  1.00  0.00    -0.000 C 
BRANCH  27  28
ATOM     28  C   UNL     1     105.138 -83.659  23.347  1.00  0.00    -0.000 C 
BRANCH  28  29
ATOM     29  C   UNL     1     106.287 -83.750  24.372  1.00  0.00    -0.000 C 
BRANCH  29  30
ATOM     30  C   UNL     1     106.779 -82.397  24.926  1.00  0.00    -0.000 C 
BRANCH  30  31
ATOM     31  C   UNL     1     108.299 -82.178  24.844  1.00  0.00    -0.003 C 
ATOM     32  C   UNL     1     108.920 -82.781  23.585  1.00  0.00     0.004 C 
ENDBRANCH  30  31
ENDBRANCH  29  30
ENDBRANCH  28  29
ENDBRANCH  27  28
ENDBRANCH  26  27
ENDBRANCH  25  26
ENDBRANCH  24  25
ENDBRANCH  23  24
ENDBRANCH  22  23
ENDBRANCH  21  22
ENDBRANCH  20  21
ENDBRANCH  19  20
ENDBRANCH  18  19
ENDBRANCH   1  18
TORSDOF 28
ENDMDL
MODEL 3
REMARK VINA RESULT:    -5.930      4.047      7.076
REMARK INTER + INTRA:         -20.512
REMARK INTER:                 -15.754
REMARK INTRA:                  -4.758
REMARK UNBOUND:                -4.876
REMARK SMILES CCCCCCCCCCCCCCCCCCCCCCCCCCCCCC(=O)[O-]
REMARK SMILES IDX 16 1 17 2 18 3 19 4 20 5 21 6 22 7 23 8 24 9 25 10 26 11
REMARK SMILES IDX 27 12 28 13 29 14 30 15 31 16 32 17 15 18 14 19 13 20 12 21
REMARK SMILES IDX 11 22 10 23 9 24 8 25 7 26 6 27 5 28 4 29 3 30 2 31 1 32
REMARK H PARENT
REMARK Flexibility Score: inf
ROOT
ATOM      1  C   UNL     1     105.416 -81.184  21.646  1.00  0.00     0.000 C 
ENDROOT
BRANCH   1   2
ATOM      2  C   UNL     1     105.345 -81.894  23.004  1.00  0.00     0.000 C 
BRANCH   2   3
ATOM      3  C   UNL     1     106.172 -83.185  22.997  1.00  0.00     0.000 C 
BRANCH   3   4
ATOM      4  C   UNL     1     107.080 -83.259  24.230  1.00  0.00     0.000 C 
BRANCH   4   5
ATOM      5  C   UNL     1     107.660 -81.878  24.575  1.00  0.00     0.000 C 
BRANCH   5   6
ATOM      6  C   UNL     1     109.203 -81.891  24.639  1.00  0.00     0.000 C 
BRANCH   6   7
ATOM      7  C   UNL     1     109.871 -82.511  23.399  1.00  0.00     0.000 C 
BRANCH   7   8
ATOM      8  C   UNL     1     111.030 -81.664  22.856  1.00  0.00     0.000 C 
BRANCH   8   9
ATOM      9  C   UNL     1     111.571 -82.241  21.538  1.00  0.00     0.000 C 
BRANCH   9  10
ATOM     10  C   UNL     1     112.865 -83.057  21.748  1.00  0.00     0.000 C 
BRANCH  10  11
ATOM     11  C   UNL     1     113.510 -83.543  20.439  1.00  0.00     0.000 C 
BRANCH  11  12
ATOM     12  C   UNL     1     114.933 -83.000  20.236  1.00  0.00     0.000 C 
BRANCH  12  13
ATOM     13  C   UNL     1     115.733 -82.898  21.549  1.00  0.00     0.006 C 
BRANCH  13  14
ATOM     14  C   UNL     1     116.685 -81.690  21.611  1.00  0.00     0.053 C 
BRANCH  14  15
ATOM     15  C   UNL     1     118.108 -82.092  21.851  1.00  0.00     0.041 C 
ATOM     16  O   UNL     1     119.035 -81.575  21.171  1.00  0.00    -0.550 OA
ATOM     17  O   UNL     1     118.416 -83.014  22.843  1.00  0.00    -0.550 OA
ENDBRANCH  14  15
ENDBRANCH  13  14
ENDBRANCH  12  13
ENDBRANCH  11  12
ENDBRANCH  10  11
ENDBRANCH   9  10
ENDBRANCH   8   9
ENDBRANCH   7   8
ENDBRANCH   6   7
ENDBRANCH   5   6
ENDBRANCH   4   5
ENDBRANCH   3   4
ENDBRANCH   2   3
ENDBRANCH   1   2
BRANCH   1  18
ATOM     18  C   UNL     1     106.558 -81.754  20.791  1.00  0.00     0.000 C 
BRANCH  18  19
ATOM     19  C   UNL     1     107.881 -80.988  20.971  1.00  0.00     0.000 C 
BRANCH  19  20
ATOM     20  C   UNL     1     107.727 -79.516  21.404  1.00  0.00     0.000 C 
BRANCH  20  21
ATOM     21  C   UNL     1     108.892 -78.948  22.240  1.00  0.00     0.000 C 
BRANCH  21  22
ATOM     22  C   UNL     1     109.367 -77.542  21.831  1.00  0.00     0.000 C 
BRANCH  22  23
ATOM     23  C   UNL     1     110.166 -77.542  20.517  1.00  0.00     0.000 C 
BRANCH  23  24
ATOM     24  C   UNL     1     111.068 -78.782  20.366  1.00  0.00    -0.000 C 
BRANCH  24  25
ATOM     25  C   UNL     1     112.433 -78.526  19.694  1.00  0.00    -0.000 C 
BRANCH  25  26
ATOM     26  C   UNL     1     113.582 -79.416  20.197  1.00  0.00    -0.000 C 
BRANCH  26  27
ATOM     27  C   UNL     1     114.561 -78.662  21.112  1.00  0.00    -0.000 C 
BRANCH  27  28
ATOM     28  C   UNL     1     114.269 -78.883  22.606  1.00  0.00    -0.000 C 
BRANCH  28  29
ATOM     29  C   UNL     1     114.677 -77.714  23.526  1.00  0.00    -0.000 C 
BRANCH  29  30
ATOM     30  C   UNL     1     115.072 -76.414  22.797  1.00  0.00    -0.000 C 
BRANCH  30  31
ATOM     31  C   UNL     1     114.034 -75.282  22.884  1.00  0.00    -0.003 C 
ATOM     32  C   UNL     1     112.780 -75.561  22.058  1.00  0.00     0.004 C 
ENDBRANCH  30  31
ENDBRANCH  29  30
ENDBRANCH  28  29
ENDBRANCH  27  28
ENDBRANCH  26  27
ENDBRANCH  25  26
ENDBRANCH  24  25
ENDBRANCH  23  24
ENDBRANCH  22  23
ENDBRANCH  21  22
ENDBRANCH  20  21
ENDBRANCH  19  20
ENDBRANCH  18  19
ENDBRANCH   1  18
TORSDOF 28
ENDMDL
MODEL 4
REMARK VINA RESULT:    -5.927      1.206      2.846
REMARK INTER + INTRA:         -20.503
REMARK INTER:                 -16.750
REMARK INTRA:                  -3.754
REMARK UNBOUND:                -4.876
REMARK SMILES CCCCCCCCCCCCCCCCCCCCCCCCCCCCCC(=O)[O-]
REMARK SMILES IDX 16 1 17 2 18 3 19 4 20 5 21 6 22 7 23 8 24 9 25 10 26 11
REMARK SMILES IDX 27 12 28 13 29 14 30 15 31 16 32 17 15 18 14 19 13 20 12 21
REMARK SMILES IDX 11 22 10 23 9 24 8 25 7 26 6 27 5 28 4 29 3 30 2 31 1 32
REMARK H PARENT
REMARK Flexibility Score: inf
ROOT
ATOM      1  C   UNL     1     112.539 -82.662  21.015  1.00  0.00     0.000 C 
ENDROOT
BRANCH   1   2
ATOM      2  C   UNL     1     111.834 -82.928  22.352  1.00  0.00     0.000 C 
BRANCH   2   3
ATOM      3  C   UNL     1     110.550 -82.099  22.475  1.00  0.00     0.000 C 
BRANCH   3   4
ATOM      4  C   UNL     1     110.111 -81.986  23.940  1.00  0.00     0.000 C 
BRANCH   4   5
ATOM      5  C   UNL     1     108.732 -82.630  24.156  1.00  0.00     0.000 C 
BRANCH   5   6
ATOM      6  C   UNL     1     107.996 -82.037  25.377  1.00  0.00     0.000 C 
BRANCH   6   7
ATOM      7  C   UNL     1     106.544 -81.619  25.085  1.00  0.00     0.000 C 
BRANCH   7   8
ATOM      8  C   UNL     1     105.870 -82.498  24.022  1.00  0.00     0.000 C 
BRANCH   8   9
ATOM      9  C   UNL     1     105.503 -81.679  22.774  1.00  0.00     0.000 C 
BRANCH   9  10
ATOM     10  C   UNL     1     106.345 -82.082  21.545  1.00  0.00     0.000 C 
BRANCH  10  11
ATOM     11  C   UNL     1     107.294 -80.975  21.053  1.00  0.00     0.000 C 
BRANCH  11  12
ATOM     12  C   UNL     1     107.374 -79.783  22.019  1.00  0.00     0.000 C 
BRANCH  12  13
ATOM     13  C   UNL     1     106.989 -78.445  21.360  1.00  0.00     0.006 C 
BRANCH  13  14
ATOM     14  C   UNL     1     105.788 -78.541  20.401  1.00  0.00     0.053 C 
BRANCH  14  15
ATOM     15  C   UNL     1     105.500 -77.244  19.709  1.00  0.00     0.041 C 
ATOM     16  O   UNL     1     106.419 -76.632  19.103  1.00  0.00    -0.550 OA
ATOM     17  O   UNL     1     104.212 -76.724  19.707  1.00  0.00    -0.550 OA
ENDBRANCH  14  15
ENDBRANCH  13  14
ENDBRANCH  12  13
ENDBRANCH  11  12
ENDBRANCH  10  11
ENDBRANCH   9  10
ENDBRANCH   8   9
ENDBRANCH   7   8
ENDBRANCH   6   7
ENDBRANCH   5   6
ENDBRANCH   4   5
ENDBRANCH   3   4
ENDBRANCH   2   3
ENDBRANCH   1   2
BRANCH   1  18
ATOM     18  C   UNL     1     113.607 -83.731  20.740  1.00  0.00     0.000 C 
BRANCH  18  19
ATOM     19  C   UNL     1     114.956 -83.132  20.304  1.00  0.00     0.000 C 
BRANCH  19  20
ATOM     20  C   UNL     1     115.887 -82.714  21.461  1.00  0.00     0.000 C 
BRANCH  20  21
ATOM     21  C   UNL     1     117.278 -83.378  21.462  1.00  0.00     0.000 C 
BRANCH  21  22
ATOM     22  C   UNL     1     118.396 -82.553  22.125  1.00  0.00     0.000 C 
BRANCH  22  23
ATOM     23  C   UNL     1     119.068 -81.570  21.152  1.00  0.00     0.000 C 
BRANCH  23  24
ATOM     24  C   UNL     1     118.911 -80.100  21.584  1.00  0.00    -0.000 C 
BRANCH  24  25
ATOM     25  C   UNL     1     117.595 -79.422  21.149  1.00  0.00    -0.000 C 
BRANCH  25  26
ATOM     26  C   UNL     1     116.578 -79.191  22.280  1.00  0.00    -0.000 C 
BRANCH  26  27
ATOM     27  C   UNL     1     115.593 -78.051  21.970  1.00  0.00    -0.000 C 
BRANCH  27  28
ATOM     28  C   UNL     1     114.152 -78.549  21.768  1.00  0.00    -0.000 C 
BRANCH  28  29
ATOM     29  C   UNL     1     113.863 -79.149  20.376  1.00  0.00    -0.000 C 
BRANCH  29  30
ATOM     30  C   UNL     1     112.383 -79.118  19.944  1.00  0.00    -0.000 C 
BRANCH  30  31
ATOM     31  C   UNL     1     111.417 -78.531  20.988  1.00  0.00    -0.003 C 
ATOM     32  C   UNL     1     110.269 -77.743  20.359  1.00  0.00     0.004 C 
ENDBRANCH  30  31
ENDBRANCH  29  30
ENDBRANCH  28  29
ENDBRANCH  27  28
ENDBRANCH  26  27
ENDBRANCH  25  26
ENDBRANCH  24  25
ENDBRANCH  23  24
ENDBRANCH  22  23
ENDBRANCH  21  22
ENDBRANCH  20  21
ENDBRANCH  19  20
ENDBRANCH  18  19
ENDBRANCH   1  18
TORSDOF 28
ENDMDL
MODEL 5
REMARK VINA RESULT:    -5.881      1.311      2.390
REMARK INTER + INTRA:         -20.383
REMARK INTER:                 -15.824
REMARK INTRA:                  -4.559
REMARK UNBOUND:                -4.876
REMARK SMILES CCCCCCCCCCCCCCCCCCCCCCCCCCCCCC(=O)[O-]
REMARK SMILES IDX 16 1 17 2 18 3 19 4 20 5 21 6 22 7 23 8 24 9 25 10 26 11
REMARK SMILES IDX 27 12 28 13 29 14 30 15 31 16 32 17 15 18 14 19 13 20 12 21
REMARK SMILES IDX 11 22 10 23 9 24 8 25 7 26 6 27 5 28 4 29 3 30 2 31 1 32
REMARK H PARENT
REMARK Flexibility Score: inf
ROOT
ATOM      1  C   UNL     1     108.360 -81.873  25.276  1.00  0.00     0.000 C 
ENDROOT
BRANCH   1   2
ATOM      2  C   UNL     1     106.840 -82.056  25.365  1.00  0.00     0.000 C 
BRANCH   2   3
ATOM      3  C   UNL     1     106.295 -82.776  24.125  1.00  0.00     0.000 C 
BRANCH   3   4
ATOM      4  C   UNL     1     105.040 -82.074  23.593  1.00  0.00     0.000 C 
BRANCH   4   5
ATOM      5  C   UNL     1     104.892 -82.278  22.077  1.00  0.00     0.000 C 
BRANCH   5   6
ATOM      6  C   UNL     1     106.257 -82.423  21.370  1.00  0.00     0.000 C 
BRANCH   6   7
ATOM      7  C   UNL     1     106.731 -81.141  20.664  1.00  0.00     0.000 C 
BRANCH   7   8
ATOM      8  C   UNL     1     107.044 -79.999  21.640  1.00  0.00     0.000 C 
BRANCH   8   9
ATOM      9  C   UNL     1     108.525 -79.595  21.566  1.00  0.00     0.000 C 
BRANCH   9  10
ATOM     10  C   UNL     1     108.857 -78.422  22.514  1.00  0.00     0.000 C 
BRANCH  10  11
ATOM     11  C   UNL     1     108.571 -77.036  21.909  1.00  0.00     0.000 C 
BRANCH  11  12
ATOM     12  C   UNL     1     108.669 -77.021  20.376  1.00  0.00     0.000 C 
BRANCH  12  13
ATOM     13  C   UNL     1     107.351 -76.610  19.691  1.00  0.00     0.006 C 
BRANCH  13  14
ATOM     14  C   UNL     1     106.131 -76.609  20.630  1.00  0.00     0.053 C 
BRANCH  14  15
ATOM     15  C   UNL     1     104.946 -77.305  20.032  1.00  0.00     0.041 C 
ATOM     16  O   UNL     1     105.111 -78.309  19.290  1.00  0.00    -0.550 OA
ATOM     17  O   UNL     1     103.660 -76.865  20.318  1.00  0.00    -0.550 OA
ENDBRANCH  14  15
ENDBRANCH  13  14
ENDBRANCH  12  13
ENDBRANCH  11  12
ENDBRANCH  10  11
ENDBRANCH   9  10
ENDBRANCH   8   9
ENDBRANCH   7   8
ENDBRANCH   6   7
ENDBRANCH   5   6
ENDBRANCH   4   5
ENDBRANCH   3   4
ENDBRANCH   2   3
ENDBRANCH   1   2
BRANCH   1  18
ATOM     18  C   UNL     1     108.898 -82.419  23.945  1.00  0.00     0.000 C 
BRANCH  18  19
ATOM     19  C   UNL     1     110.398 -82.137  23.744  1.00  0.00     0.000 C 
BRANCH  19  20
ATOM     20  C   UNL     1     110.890 -82.244  22.286  1.00  0.00     0.000 C 
BRANCH  20  21
ATOM     21  C   UNL     1     112.129 -83.138  22.071  1.00  0.00     0.000 C 
BRANCH  21  22
ATOM     22  C   UNL     1     112.941 -82.836  20.799  1.00  0.00     0.000 C 
BRANCH  22  23
ATOM     23  C   UNL     1     113.989 -83.919  20.491  1.00  0.00     0.000 C 
BRANCH  23  24
ATOM     24  C   UNL     1     115.435 -83.412  20.643  1.00  0.00    -0.000 C 
BRANCH  24  25
ATOM     25  C   UNL     1     115.706 -82.561  21.901  1.00  0.00    -0.000 C 
BRANCH  25  26
ATOM     26  C   UNL     1     116.940 -81.646  21.814  1.00  0.00    -0.000 C 
BRANCH  26  27
ATOM     27  C   UNL     1     116.570 -80.156  21.723  1.00  0.00    -0.000 C 
BRANCH  27  28
ATOM     28  C   UNL     1     115.913 -79.787  20.381  1.00  0.00    -0.000 C 
BRANCH  28  29
ATOM     29  C   UNL     1     114.392 -79.538  20.452  1.00  0.00    -0.000 C 
BRANCH  29  30
ATOM     30  C   UNL     1     113.830 -79.320  21.872  1.00  0.00    -0.000 C 
BRANCH  30  31
ATOM     31  C   UNL     1     112.415 -78.720  21.922  1.00  0.00    -0.003 C 
ATOM     32  C   UNL     1     112.320 -77.360  21.233  1.00  0.00     0.004 C 
ENDBRANCH  30  31
ENDBRANCH  29  30
ENDBRANCH  28  29
ENDBRANCH  27  28
ENDBRANCH  26  27
ENDBRANCH  25  26
ENDBRANCH  24  25
ENDBRANCH  23  24
ENDBRANCH  22  23
ENDBRANCH  21  22
ENDBRANCH  20  21
ENDBRANCH  19  20
ENDBRANCH  18  19
ENDBRANCH   1  18
TORSDOF 28
ENDMDL
MODEL 6
REMARK VINA RESULT:    -5.846      1.234      2.016
REMARK INTER + INTRA:         -20.290
REMARK INTER:                 -16.282
REMARK INTRA:                  -4.008
REMARK UNBOUND:                -4.876
REMARK SMILES CCCCCCCCCCCCCCCCCCCCCCCCCCCCCC(=O)[O-]
REMARK SMILES IDX 16 1 17 2 18 3 19 4 20 5 21 6 22 7 23 8 24 9 25 10 26 11
REMARK SMILES IDX 27 12 28 13 29 14 30 15 31 16 32 17 15 18 14 19 13 20 12 21
REMARK SMILES IDX 11 22 10 23 9 24 8 25 7 26 6 27 5 28 4 29 3 30 2 31 1 32
REMARK H PARENT
REMARK Flexibility Score: inf
ROOT
ATOM      1  C   UNL     1     110.242 -82.169  23.581  1.00  0.00     0.000 C 
ENDROOT
BRANCH   1   2
ATOM      2  C   UNL     1     108.954 -82.984  23.411  1.00  0.00     0.000 C 
BRANCH   2   3
ATOM      3  C   UNL     1     107.955 -82.682  24.535  1.00  0.00     0.000 C 
BRANCH   3   4
ATOM      4  C   UNL     1     106.587 -83.304  24.231  1.00  0.00     0.000 C 
BRANCH   4   5
ATOM      5  C   UNL     1     106.151 -83.008  22.787  1.00  0.00     0.000 C 
BRANCH   5   6
ATOM      6  C   UNL     1     105.505 -81.612  22.647  1.00  0.00     0.000 C 
BRANCH   6   7
ATOM      7  C   UNL     1     105.813 -80.917  21.309  1.00  0.00     0.000 C 
BRANCH   7   8
ATOM      8  C   UNL     1     107.255 -80.398  21.222  1.00  0.00     0.000 C 
BRANCH   8   9
ATOM      9  C   UNL     1     107.637 -79.603  22.481  1.00  0.00     0.000 C 
BRANCH   9  10
ATOM     10  C   UNL     1     108.891 -78.730  22.259  1.00  0.00     0.000 C 
BRANCH  10  11
ATOM     11  C   UNL     1     108.573 -77.263  21.920  1.00  0.00     0.000 C 
BRANCH  11  12
ATOM     12  C   UNL     1     108.469 -77.008  20.409  1.00  0.00     0.000 C 
BRANCH  12  13
ATOM     13  C   UNL     1     107.015 -76.875  19.918  1.00  0.00     0.006 C 
BRANCH  13  14
ATOM     14  C   UNL     1     106.097 -76.100  20.882  1.00  0.00     0.053 C 
BRANCH  14  15
ATOM     15  C   UNL     1     106.211 -74.616  20.716  1.00  0.00     0.041 C 
ATOM     16  O   UNL     1     106.066 -74.093  19.579  1.00  0.00    -0.550 OA
ATOM     17  O   UNL     1     106.449 -73.805  21.819  1.00  0.00    -0.550 OA
ENDBRANCH  14  15
ENDBRANCH  13  14
ENDBRANCH  12  13
ENDBRANCH  11  12
ENDBRANCH  10  11
ENDBRANCH   9  10
ENDBRANCH   8   9
ENDBRANCH   7   8
ENDBRANCH   6   7
ENDBRANCH   5   6
ENDBRANCH   4   5
ENDBRANCH   3   4
ENDBRANCH   2   3
ENDBRANCH   1   2
BRANCH   1  18
ATOM     18  C   UNL     1     110.973 -82.018  22.239  1.00  0.00     0.000 C 
BRANCH  18  19
ATOM     19  C   UNL     1     112.132 -83.017  22.072  1.00  0.00     0.000 C 
BRANCH  19  20
ATOM     20  C   UNL     1     112.905 -82.902  20.742  1.00  0.00     0.000 C 
BRANCH  20  21
ATOM     21  C   UNL     1     114.085 -83.880  20.577  1.00  0.00     0.000 C 
BRANCH  21  22
ATOM     22  C   UNL     1     115.464 -83.219  20.407  1.00  0.00     0.000 C 
BRANCH  22  23
ATOM     23  C   UNL     1     116.312 -83.271  21.689  1.00  0.00     0.000 C 
BRANCH  23  24
ATOM     24  C   UNL     1     117.809 -83.020  21.427  1.00  0.00    -0.000 C 
BRANCH  24  25
ATOM     25  C   UNL     1     118.376 -81.721  22.035  1.00  0.00    -0.000 C 
BRANCH  25  26
ATOM     26  C   UNL     1     118.464 -80.532  21.061  1.00  0.00    -0.000 C 
BRANCH  26  27
ATOM     27  C   UNL     1     117.505 -79.389  21.431  1.00  0.00    -0.000 C 
BRANCH  27  28
ATOM     28  C   UNL     1     116.111 -79.555  20.800  1.00  0.00    -0.000 C 
BRANCH  28  29
ATOM     29  C   UNL     1     114.932 -79.343  21.771  1.00  0.00    -0.000 C 
BRANCH  29  30
ATOM     30  C   UNL     1     113.531 -79.494  21.142  1.00  0.00    -0.000 C 
BRANCH  30  31
ATOM     31  C   UNL     1     113.087 -78.314  20.261  1.00  0.00    -0.003 C 
ATOM     32  C   UNL     1     111.716 -78.531  19.624  1.00  0.00     0.004 C 
ENDBRANCH  30  31
ENDBRANCH  29  30
ENDBRANCH  28  29
ENDBRANCH  27  28
ENDBRANCH  26  27
ENDBRANCH  25  26
ENDBRANCH  24  25
ENDBRANCH  23  24
ENDBRANCH  22  23
ENDBRANCH  21  22
ENDBRANCH  20  21
ENDBRANCH  19  20
ENDBRANCH  18  19
ENDBRANCH   1  18
TORSDOF 28
ENDMDL
MODEL 7
REMARK VINA RESULT:    -5.845      1.521      2.388
REMARK INTER + INTRA:         -20.289
REMARK INTER:                 -15.715
REMARK INTRA:                  -4.574
REMARK UNBOUND:                -4.876
REMARK SMILES CCCCCCCCCCCCCCCCCCCCCCCCCCCCCC(=O)[O-]
REMARK SMILES IDX 16 1 17 2 18 3 19 4 20 5 21 6 22 7 23 8 24 9 25 10 26 11
REMARK SMILES IDX 27 12 28 13 29 14 30 15 31 16 32 17 15 18 14 19 13 20 12 21
REMARK SMILES IDX 11 22 10 23 9 24 8 25 7 26 6 27 5 28 4 29 3 30 2 31 1 32
REMARK H PARENT
REMARK Flexibility Score: inf
ROOT
ATOM      1  C   UNL     1     110.050 -81.157  23.603  1.00  0.00     0.000 C 
ENDROOT
BRANCH   1   2
ATOM      2  C   UNL     1     109.740 -82.648  23.424  1.00  0.00     0.000 C 
BRANCH   2   3
ATOM      3  C   UNL     1     108.232 -82.915  23.514  1.00  0.00     0.000 C 
BRANCH   3   4
ATOM      4  C   UNL     1     107.631 -82.234  24.749  1.00  0.00     0.000 C 
BRANCH   4   5
ATOM      5  C   UNL     1     106.176 -81.810  24.495  1.00  0.00     0.000 C 
BRANCH   5   6
ATOM      6  C   UNL     1     105.457 -82.751  23.504  1.00  0.00     0.000 C 
BRANCH   6   7
ATOM      7  C   UNL     1     104.144 -82.178  22.943  1.00  0.00     0.000 C 
BRANCH   7   8
ATOM      8  C   UNL     1     103.603 -82.976  21.749  1.00  0.00     0.000 C 
BRANCH   8   9
ATOM      9  C   UNL     1     104.744 -83.449  20.834  1.00  0.00     0.000 C 
BRANCH   9  10
ATOM     10  C   UNL     1     104.583 -82.932  19.388  1.00  0.00     0.000 C 
BRANCH  10  11
ATOM     11  C   UNL     1     105.641 -81.891  18.981  1.00  0.00     0.000 C 
BRANCH  11  12
ATOM     12  C   UNL     1     105.746 -80.725  19.975  1.00  0.00     0.000 C 
BRANCH  12  13
ATOM     13  C   UNL     1     107.037 -80.764  20.816  1.00  0.00     0.006 C 
BRANCH  13  14
ATOM     14  C   UNL     1     107.159 -79.610  21.829  1.00  0.00     0.053 C 
BRANCH  14  15
ATOM     15  C   UNL     1     107.558 -78.318  21.183  1.00  0.00     0.041 C 
ATOM     16  O   UNL     1     106.696 -77.425  20.969  1.00  0.00    -0.550 OA
ATOM     17  O   UNL     1     108.886 -78.088  20.843  1.00  0.00    -0.550 OA
ENDBRANCH  14  15
ENDBRANCH  13  14
ENDBRANCH  12  13
ENDBRANCH  11  12
ENDBRANCH  10  11
ENDBRANCH   9  10
ENDBRANCH   8   9
ENDBRANCH   7   8
ENDBRANCH   6   7
ENDBRANCH   5   6
ENDBRANCH   4   5
ENDBRANCH   3   4
ENDBRANCH   2   3
ENDBRANCH   1   2
BRANCH   1  18
ATOM     18  C   UNL     1     111.084 -80.687  22.569  1.00  0.00     0.000 C 
BRANCH  18  19
ATOM     19  C   UNL     1     110.743 -81.132  21.136  1.00  0.00     0.000 C 
BRANCH  19  20
ATOM     20  C   UNL     1     111.774 -82.076  20.484  1.00  0.00     0.000 C 
BRANCH  20  21
ATOM     21  C   UNL     1     112.781 -82.725  21.455  1.00  0.00     0.000 C 
BRANCH  21  22
ATOM     22  C   UNL     1     113.719 -83.769  20.823  1.00  0.00     0.000 C 
BRANCH  22  23
ATOM     23  C   UNL     1     115.092 -83.186  20.445  1.00  0.00     0.000 C 
BRANCH  23  24
ATOM     24  C   UNL     1     116.003 -82.963  21.667  1.00  0.00    -0.000 C 
BRANCH  24  25
ATOM     25  C   UNL     1     117.001 -81.793  21.541  1.00  0.00    -0.000 C 
BRANCH  25  26
ATOM     26  C   UNL     1     116.449 -80.420  21.959  1.00  0.00    -0.000 C 
BRANCH  26  27
ATOM     27  C   UNL     1     115.830 -79.644  20.784  1.00  0.00    -0.000 C 
BRANCH  27  28
ATOM     28  C   UNL     1     114.299 -79.531  20.886  1.00  0.00    -0.000 C 
BRANCH  28  29
ATOM     29  C   UNL     1     113.755 -78.088  20.894  1.00  0.00    -0.000 C 
BRANCH  29  30
ATOM     30  C   UNL     1     113.239 -77.590  22.260  1.00  0.00    -0.000 C 
BRANCH  30  31
ATOM     31  C   UNL     1     114.001 -78.140  23.478  1.00  0.00    -0.003 C 
ATOM     32  C   UNL     1     115.068 -77.178  23.996  1.00  0.00     0.004 C 
ENDBRANCH  30  31
ENDBRANCH  29  30
ENDBRANCH  28  29
ENDBRANCH  27  28
ENDBRANCH  26  27
ENDBRANCH  25  26
ENDBRANCH  24  25
ENDBRANCH  23  24
ENDBRANCH  22  23
ENDBRANCH  21  22
ENDBRANCH  20  21
ENDBRANCH  19  20
ENDBRANCH  18  19
ENDBRANCH   1  18
TORSDOF 28
ENDMDL
MODEL 8
REMARK VINA RESULT:    -5.841      2.046      8.502
REMARK INTER + INTRA:         -20.278
REMARK INTER:                 -16.522
REMARK INTRA:                  -3.756
REMARK UNBOUND:                -4.876
REMARK SMILES CCCCCCCCCCCCCCCCCCCCCCCCCCCCCC(=O)[O-]
REMARK SMILES IDX 16 1 17 2 18 3 19 4 20 5 21 6 22 7 23 8 24 9 25 10 26 11
REMARK SMILES IDX 27 12 28 13 29 14 30 15 31 16 32 17 15 18 14 19 13 20 12 21
REMARK SMILES IDX 11 22 10 23 9 24 8 25 7 26 6 27 5 28 4 29 3 30 2 31 1 32
REMARK H PARENT
REMARK Flexibility Score: inf
ROOT
ATOM      1  C   UNL     1     111.200 -81.283  22.085  1.00  0.00     0.000 C 
ENDROOT
BRANCH   1   2
ATOM      2  C   UNL     1     112.031 -81.948  20.980  1.00  0.00     0.000 C 
BRANCH   2   3
ATOM      3  C   UNL     1     112.826 -83.139  21.527  1.00  0.00     0.000 C 
BRANCH   3   4
ATOM      4  C   UNL     1     113.773 -83.700  20.459  1.00  0.00     0.000 C 
BRANCH   4   5
ATOM      5  C   UNL     1     115.077 -82.889  20.392  1.00  0.00     0.000 C 
BRANCH   5   6
ATOM      6  C   UNL     1     115.938 -83.063  21.662  1.00  0.00     0.000 C 
BRANCH   6   7
ATOM      7  C   UNL     1     117.433 -83.286  21.373  1.00  0.00     0.000 C 
BRANCH   7   8
ATOM      8  C   UNL     1     118.344 -82.323  22.147  1.00  0.00     0.000 C 
BRANCH   8   9
ATOM      9  C   UNL     1     119.018 -81.316  21.203  1.00  0.00     0.000 C 
BRANCH   9  10
ATOM     10  C   UNL     1     118.453 -79.889  21.375  1.00  0.00     0.000 C 
BRANCH  10  11
ATOM     11  C   UNL     1     117.061 -79.694  20.752  1.00  0.00     0.000 C 
BRANCH  11  12
ATOM     12  C   UNL     1     116.079 -78.977  21.692  1.00  0.00     0.000 C 
BRANCH  12  13
ATOM     13  C   UNL     1     114.603 -79.241  21.339  1.00  0.00     0.006 C 
BRANCH  13  14
ATOM     14  C   UNL     1     113.698 -78.001  21.463  1.00  0.00     0.053 C 
BRANCH  14  15
ATOM     15  C   UNL     1     112.523 -78.053  20.534  1.00  0.00     0.041 C 
ATOM     16  O   UNL     1     112.611 -78.662  19.435  1.00  0.00    -0.550 OA
ATOM     17  O   UNL     1     111.322 -77.454  20.894  1.00  0.00    -0.550 OA
ENDBRANCH  14  15
ENDBRANCH  13  14
ENDBRANCH  12  13
ENDBRANCH  11  12
ENDBRANCH  10  11
ENDBRANCH   9  10
ENDBRANCH   8   9
ENDBRANCH   7   8
ENDBRANCH   6   7
ENDBRANCH   5   6
ENDBRANCH   4   5
ENDBRANCH   3   4
ENDBRANCH   2   3
ENDBRANCH   1   2
BRANCH   1  18
ATOM     18  C   UNL     1     110.490 -82.341  22.944  1.00  0.00     0.000 C 
BRANCH  18  19
ATOM     19  C   UNL     1     109.893 -81.759  24.238  1.00  0.00     0.000 C 
BRANCH  19  20
ATOM     20  C   UNL     1     108.430 -82.159  24.516  1.00  0.00     0.000 C 
BRANCH  20  21
ATOM     21  C   UNL     1     107.931 -83.408  23.761  1.00  0.00     0.000 C 
BRANCH  21  22
ATOM     22  C   UNL     1     106.509 -83.869  24.127  1.00  0.00     0.000 C 
BRANCH  22  23
ATOM     23  C   UNL     1     105.422 -83.160  23.301  1.00  0.00     0.000 C 
BRANCH  23  24
ATOM     24  C   UNL     1     105.374 -83.642  21.838  1.00  0.00    -0.000 C 
BRANCH  24  25
ATOM     25  C   UNL     1     105.132 -82.539  20.788  1.00  0.00    -0.000 C 
BRANCH  25  26
ATOM     26  C   UNL     1     105.551 -81.124  21.223  1.00  0.00    -0.000 C 
BRANCH  26  27
ATOM     27  C   UNL     1     107.071 -80.905  21.149  1.00  0.00    -0.000 C 
BRANCH  27  28
ATOM     28  C   UNL     1     107.537 -79.684  21.962  1.00  0.00    -0.000 C 
BRANCH  28  29
ATOM     29  C   UNL     1     107.841 -78.425  21.125  1.00  0.00    -0.000 C 
BRANCH  29  30
ATOM     30  C   UNL     1     106.675 -77.423  21.003  1.00  0.00    -0.000 C 
BRANCH  30  31
ATOM     31  C   UNL     1     105.670 -77.733  19.880  1.00  0.00    -0.003 C 
ATOM     32  C   UNL     1     104.316 -77.059  20.090  1.00  0.00     0.004 C 
ENDBRANCH  30  31
ENDBRANCH  29  30
ENDBRANCH  28  29
ENDBRANCH  27  28
ENDBRANCH  26  27
ENDBRANCH  25  26
ENDBRANCH  24  25
ENDBRANCH  23  24
ENDBRANCH  22  23
ENDBRANCH  21  22
ENDBRANCH  20  21
ENDBRANCH  19  20
ENDBRANCH  18  19
ENDBRANCH   1  18
TORSDOF 28
ENDMDL
MODEL 9
REMARK VINA RESULT:    -5.832      2.832      4.398
REMARK INTER + INTRA:         -20.253
REMARK INTER:                 -16.179
REMARK INTRA:                  -4.075
REMARK UNBOUND:                -4.876
REMARK SMILES CCCCCCCCCCCCCCCCCCCCCCCCCCCCCC(=O)[O-]
REMARK SMILES IDX 16 1 17 2 18 3 19 4 20 5 21 6 22 7 23 8 24 9 25 10 26 11
REMARK SMILES IDX 27 12 28 13 29 14 30 15 31 16 32 17 15 18 14 19 13 20 12 21
REMARK SMILES IDX 11 22 10 23 9 24 8 25 7 26 6 27 5 28 4 29 3 30 2 31 1 32
REMARK H PARENT
REMARK Flexibility Score: inf
ROOT
ATOM      1  C   UNL     1     111.633 -80.952  21.936  1.00  0.00     0.000 C 
ENDROOT
BRANCH   1   2
ATOM      2  C   UNL     1     110.466 -80.081  21.453  1.00  0.00     0.000 C 
BRANCH   2   3
ATOM      3  C   UNL     1     110.205 -78.920  22.420  1.00  0.00     0.000 C 
BRANCH   3   4
ATOM      4  C   UNL     1     108.792 -78.357  22.230  1.00  0.00     0.000 C 
BRANCH   4   5
ATOM      5  C   UNL     1     107.737 -79.473  22.299  1.00  0.00     0.000 C 
BRANCH   5   6
ATOM      6  C   UNL     1     106.863 -79.530  21.027  1.00  0.00     0.000 C 
BRANCH   6   7
ATOM      7  C   UNL     1     106.671 -80.951  20.468  1.00  0.00     0.000 C 
BRANCH   7   8
ATOM      8  C   UNL     1     105.298 -81.157  19.814  1.00  0.00     0.000 C 
BRANCH   8   9
ATOM      9  C   UNL     1     104.502 -82.261  20.528  1.00  0.00     0.000 C 
BRANCH   9  10
ATOM     10  C   UNL     1     103.848 -81.755  21.833  1.00  0.00     0.000 C 
BRANCH  10  11
ATOM     11  C   UNL     1     104.339 -82.485  23.095  1.00  0.00     0.000 C 
BRANCH  11  12
ATOM     12  C   UNL     1     105.521 -81.778  23.774  1.00  0.00     0.000 C 
BRANCH  12  13
ATOM     13  C   UNL     1     106.537 -82.758  24.392  1.00  0.00     0.006 C 
BRANCH  13  14
ATOM     14  C   UNL     1     107.646 -82.076  25.213  1.00  0.00     0.053 C 
BRANCH  14  15
ATOM     15  C   UNL     1     108.975 -82.106  24.521  1.00  0.00     0.041 C 
ATOM     16  O   UNL     1     109.123 -82.775  23.464  1.00  0.00    -0.550 OA
ATOM     17  O   UNL     1     110.042 -81.372  25.024  1.00  0.00    -0.550 OA
ENDBRANCH  14  15
ENDBRANCH  13  14
ENDBRANCH  12  13
ENDBRANCH  11  12
ENDBRANCH  10  11
ENDBRANCH   9  10
ENDBRANCH   8   9
ENDBRANCH   7   8
ENDBRANCH   6   7
ENDBRANCH   5   6
ENDBRANCH   4   5
ENDBRANCH   3   4
ENDBRANCH   2   3
ENDBRANCH   1   2
BRANCH   1  18
ATOM     18  C   UNL     1     111.909 -82.091  20.943  1.00  0.00     0.000 C 
BRANCH  18  19
ATOM     19  C   UNL     1     112.830 -83.180  21.522  1.00  0.00     0.000 C 
BRANCH  19  20
ATOM     20  C   UNL     1     113.778 -83.841  20.501  1.00  0.00     0.000 C 
BRANCH  20  21
ATOM     21  C   UNL     1     115.139 -83.141  20.314  1.00  0.00     0.000 C 
BRANCH  21  22
ATOM     22  C   UNL     1     116.070 -83.181  21.540  1.00  0.00     0.000 C 
BRANCH  22  23
ATOM     23  C   UNL     1     117.541 -83.422  21.163  1.00  0.00     0.000 C 
BRANCH  23  24
ATOM     24  C   UNL     1     118.517 -82.558  21.983  1.00  0.00    -0.000 C 
BRANCH  24  25
ATOM     25  C   UNL     1     118.868 -81.190  21.362  1.00  0.00    -0.000 C 
BRANCH  25  26
ATOM     26  C   UNL     1     118.129 -79.988  21.975  1.00  0.00    -0.000 C 
BRANCH  26  27
ATOM     27  C   UNL     1     117.046 -79.418  21.044  1.00  0.00    -0.000 C 
BRANCH  27  28
ATOM     28  C   UNL     1     115.622 -79.631  21.588  1.00  0.00    -0.000 C 
BRANCH  28  29
ATOM     29  C   UNL     1     114.505 -79.552  20.528  1.00  0.00    -0.000 C 
BRANCH  29  30
ATOM     30  C   UNL     1     113.684 -78.246  20.539  1.00  0.00    -0.000 C 
BRANCH  30  31
ATOM     31  C   UNL     1     113.807 -77.415  21.828  1.00  0.00    -0.003 C 
ATOM     32  C   UNL     1     112.716 -76.354  21.957  1.00  0.00     0.004 C 
ENDBRANCH  30  31
ENDBRANCH  29  30
ENDBRANCH  28  29
ENDBRANCH  27  28
ENDBRANCH  26  27
ENDBRANCH  25  26
ENDBRANCH  24  25
ENDBRANCH  23  24
ENDBRANCH  22  23
ENDBRANCH  21  22
ENDBRANCH  20  21
ENDBRANCH  19  20
ENDBRANCH  18  19
ENDBRANCH   1  18
TORSDOF 28
ENDMDL
