MODEL 1
REMARK VINA RESULT:    -4.577      0.000      0.000
REMARK INTER + INTRA:          -9.384
REMARK INTER:                  -7.787
REMARK INTRA:                  -1.597
REMARK UNBOUND:                -1.597
REMARK SMILES CCCCCCCCCCCCCC(=O)[O-]
REMARK SMILES IDX 8 1 9 2 10 3 11 4 12 5 13 6 14 7 15 8 16 9 7 10 6 11 5 12
REMARK SMILES IDX 4 13 3 14 2 15 1 16
REMARK H PARENT
REMARK Flexibility Score: inf
ROOT
ATOM      1  C   UNL     1     -19.587   0.134  29.586  1.00  0.00     0.000 C 
ENDROOT
BRANCH   1   2
ATOM      2  C   UNL     1     -18.379   0.237  28.644  1.00  0.00     0.000 C 
BRANCH   2   3
ATOM      3  C   UNL     1     -18.662   1.097  27.399  1.00  0.00     0.000 C 
BRANCH   3   4
ATOM      4  C   UNL     1     -20.154   1.292  27.065  1.00  0.00     0.000 C 
BRANCH   4   5
ATOM      5  C   UNL     1     -20.734   0.287  26.049  1.00  0.00     0.006 C 
BRANCH   5   6
ATOM      6  C   UNL     1     -22.268   0.246  26.002  1.00  0.00     0.053 C 
BRANCH   6   7
ATOM      7  C   UNL     1     -22.854  -0.220  27.300  1.00  0.00     0.041 C 
ATOM      8  O   UNL     1     -23.228   0.616  28.163  1.00  0.00    -0.550 OA
ATOM      9  O   UNL     1     -22.957  -1.579  27.567  1.00  0.00    -0.550 OA
ENDBRANCH   6   7
ENDBRANCH   5   6
ENDBRANCH   4   5
ENDBRANCH   3   4
ENDBRANCH   2   3
ENDBRANCH   1   2
BRANCH   1  10
ATOM     10  C   UNL     1     -20.051  -1.320  29.726  1.00  0.00     0.000 C 
BRANCH  10  11
ATOM     11  C   UNL     1     -18.930  -2.295  29.346  1.00  0.00    -0.000 C 
BRANCH  11  12
ATOM     12  C   UNL     1     -18.742  -3.366  30.427  1.00  0.00    -0.000 C 
BRANCH  12  13
ATOM     13  C   UNL     1     -17.417  -3.169  31.174  1.00  0.00    -0.000 C 
BRANCH  13  14
ATOM     14  C   UNL     1     -17.627  -2.366  32.466  1.00  0.00    -0.000 C 
BRANCH  14  15
ATOM     15  C   UNL     1     -16.989  -0.970  32.405  1.00  0.00    -0.003 C 
ATOM     16  C   UNL     1     -15.933  -0.850  31.306  1.00  0.00     0.004 C 
ENDBRANCH  14  15
ENDBRANCH  13  14
ENDBRANCH  12  13
ENDBRANCH  11  12
ENDBRANCH  10  11
ENDBRANCH   1  10
TORSDOF 12
ENDMDL
MODEL 2
REMARK VINA RESULT:    -4.555      0.955      1.743
REMARK INTER + INTRA:          -9.348
REMARK INTER:                  -8.051
REMARK INTRA:                  -1.296
REMARK UNBOUND:                -1.597
REMARK SMILES CCCCCCCCCCCCCC(=O)[O-]
REMARK SMILES IDX 8 1 9 2 10 3 11 4 12 5 13 6 14 7 15 8 16 9 7 10 6 11 5 12
REMARK SMILES IDX 4 13 3 14 2 15 1 16
REMARK H PARENT
REMARK Flexibility Score: inf
ROOT
ATOM      1  C   UNL     1     -18.447   0.174  28.498  1.00  0.00     0.000 C 
ENDROOT
BRANCH   1   2
ATOM      2  C   UNL     1     -18.907   1.278  27.535  1.00  0.00     0.000 C 
BRANCH   2   3
ATOM      3  C   UNL     1     -20.422   1.245  27.266  1.00  0.00     0.000 C 
BRANCH   3   4
ATOM      4  C   UNL     1     -20.848   0.430  26.028  1.00  0.00     0.000 C 
BRANCH   4   5
ATOM      5  C   UNL     1     -22.363   0.169  25.905  1.00  0.00     0.006 C 
BRANCH   5   6
ATOM      6  C   UNL     1     -23.090   0.015  27.249  1.00  0.00     0.053 C 
BRANCH   6   7
ATOM      7  C   UNL     1     -23.269  -1.424  27.626  1.00  0.00     0.041 C 
ATOM      8  O   UNL     1     -23.601  -2.270  26.756  1.00  0.00    -0.550 OA
ATOM      9  O   UNL     1     -23.099  -1.823  28.946  1.00  0.00    -0.550 OA
ENDBRANCH   6   7
ENDBRANCH   5   6
ENDBRANCH   4   5
ENDBRANCH   3   4
ENDBRANCH   2   3
ENDBRANCH   1   2
BRANCH   1  10
ATOM     10  C   UNL     1     -19.590  -0.259  29.423  1.00  0.00     0.000 C 
BRANCH  10  11
ATOM     11  C   UNL     1     -19.522  -1.763  29.716  1.00  0.00    -0.000 C 
BRANCH  11  12
ATOM     12  C   UNL     1     -18.164  -2.342  29.301  1.00  0.00    -0.000 C 
BRANCH  12  13
ATOM     13  C   UNL     1     -17.373  -2.824  30.525  1.00  0.00    -0.000 C 
BRANCH  13  14
ATOM     14  C   UNL     1     -16.615  -1.661  31.182  1.00  0.00    -0.000 C 
BRANCH  14  15
ATOM     15  C   UNL     1     -17.110  -1.364  32.605  1.00  0.00    -0.003 C 
ATOM     16  C   UNL     1     -17.745  -2.581  33.278  1.00  0.00     0.004 C 
ENDBRANCH  14  15
ENDBRANCH  13  14
ENDBRANCH  12  13
ENDBRANCH  11  12
ENDBRANCH  10  11
ENDBRANCH   1  10
TORSDOF 12
ENDMDL
MODEL 3
REMARK VINA RESULT:    -4.530      2.900      6.401
REMARK INTER + INTRA:          -9.306
REMARK INTER:                  -7.809
REMARK INTRA:                  -1.497
REMARK UNBOUND:                -1.597
REMARK SMILES CCCCCCCCCCCCCC(=O)[O-]
REMARK SMILES IDX 8 1 9 2 10 3 11 4 12 5 13 6 14 7 15 8 16 9 7 10 6 11 5 12
REMARK SMILES IDX 4 13 3 14 2 15 1 16
REMARK H PARENT
REMARK Flexibility Score: inf
ROOT
ATOM      1  C   UNL     1     -18.213   0.045  28.668  1.00  0.00     0.000 C 
ENDROOT
BRANCH   1   2
ATOM      2  C   UNL     1     -19.427   0.047  29.608  1.00  0.00     0.000 C 
BRANCH   2   3
ATOM      3  C   UNL     1     -19.992  -1.362  29.859  1.00  0.00     0.000 C 
BRANCH   3   4
ATOM      4  C   UNL     1     -18.985  -2.514  29.661  1.00  0.00     0.000 C 
BRANCH   4   5
ATOM      5  C   UNL     1     -18.320  -3.031  30.952  1.00  0.00     0.006 C 
BRANCH   5   6
ATOM      6  C   UNL     1     -16.816  -2.736  31.052  1.00  0.00     0.053 C 
BRANCH   6   7
ATOM      7  C   UNL     1     -16.549  -1.391  31.654  1.00  0.00     0.041 C 
ATOM      8  O   UNL     1     -17.304  -0.938  32.554  1.00  0.00    -0.550 OA
ATOM      9  O   UNL     1     -15.485  -0.623  31.198  1.00  0.00    -0.550 OA
ENDBRANCH   6   7
ENDBRANCH   5   6
ENDBRANCH   4   5
ENDBRANCH   3   4
ENDBRANCH   2   3
ENDBRANCH   1   2
BRANCH   1  10
ATOM     10  C   UNL     1     -18.413   1.029  27.510  1.00  0.00     0.000 C 
BRANCH  10  11
ATOM     11  C   UNL     1     -19.903   1.228  27.208  1.00  0.00    -0.000 C 
BRANCH  11  12
ATOM     12  C   UNL     1     -20.389   0.227  26.153  1.00  0.00    -0.000 C 
BRANCH  12  13
ATOM     13  C   UNL     1     -21.913   0.297  25.987  1.00  0.00    -0.000 C 
BRANCH  13  14
ATOM     14  C   UNL     1     -22.614   0.335  27.352  1.00  0.00    -0.000 C 
BRANCH  14  15
ATOM     15  C   UNL     1     -22.999  -1.063  27.858  1.00  0.00    -0.003 C 
ATOM     16  C   UNL     1     -23.840  -1.846  26.849  1.00  0.00     0.004 C 
ENDBRANCH  14  15
ENDBRANCH  13  14
ENDBRANCH  12  13
ENDBRANCH  11  12
ENDBRANCH  10  11
ENDBRANCH   1  10
TORSDOF 12
ENDMDL
MODEL 4
REMARK VINA RESULT:    -4.468      2.874      6.225
REMARK INTER + INTRA:          -9.200
REMARK INTER:                  -7.683
REMARK INTRA:                  -1.517
REMARK UNBOUND:                -1.597
REMARK SMILES CCCCCCCCCCCCCC(=O)[O-]
REMARK SMILES IDX 8 1 9 2 10 3 11 4 12 5 13 6 14 7 15 8 16 9 7 10 6 11 5 12
REMARK SMILES IDX 4 13 3 14 2 15 1 16
REMARK H PARENT
REMARK Flexibility Score: inf
ROOT
ATOM      1  C   UNL     1     -19.096   1.034  27.661  1.00  0.00     0.000 C 
ENDROOT
BRANCH   1   2
ATOM      2  C   UNL     1     -19.958   0.873  28.921  1.00  0.00     0.000 C 
BRANCH   2   3
ATOM      3  C   UNL     1     -19.565  -0.354  29.763  1.00  0.00     0.000 C 
BRANCH   3   4
ATOM      4  C   UNL     1     -18.380  -1.172  29.211  1.00  0.00     0.000 C 
BRANCH   4   5
ATOM      5  C   UNL     1     -18.174  -2.551  29.870  1.00  0.00     0.006 C 
BRANCH   5   6
ATOM      6  C   UNL     1     -16.989  -2.617  30.845  1.00  0.00     0.053 C 
BRANCH   6   7
ATOM      7  C   UNL     1     -17.344  -2.072  32.194  1.00  0.00     0.041 C 
ATOM      8  O   UNL     1     -17.970  -2.785  33.021  1.00  0.00    -0.550 OA
ATOM      9  O   UNL     1     -17.012  -0.764  32.524  1.00  0.00    -0.550 OA
ENDBRANCH   6   7
ENDBRANCH   5   6
ENDBRANCH   4   5
ENDBRANCH   3   4
ENDBRANCH   2   3
ENDBRANCH   1   2
BRANCH   1  10
ATOM     10  C   UNL     1     -19.971   1.194  26.413  1.00  0.00     0.000 C 
BRANCH  10  11
ATOM     11  C   UNL     1     -20.845  -0.047  26.190  1.00  0.00    -0.000 C 
BRANCH  11  12
ATOM     12  C   UNL     1     -22.243   0.346  25.698  1.00  0.00    -0.000 C 
BRANCH  12  13
ATOM     13  C   UNL     1     -23.333  -0.300  26.562  1.00  0.00    -0.000 C 
BRANCH  13  14
ATOM     14  C   UNL     1     -23.474   0.428  27.906  1.00  0.00    -0.000 C 
BRANCH  14  15
ATOM     15  C   UNL     1     -23.559  -0.540  29.096  1.00  0.00    -0.003 C 
ATOM     16  C   UNL     1     -22.798  -1.843  28.854  1.00  0.00     0.004 C 
ENDBRANCH  14  15
ENDBRANCH  13  14
ENDBRANCH  12  13
ENDBRANCH  11  12
ENDBRANCH  10  11
ENDBRANCH   1  10
TORSDOF 12
ENDMDL
MODEL 5
REMARK VINA RESULT:    -4.363      1.384      2.248
REMARK INTER + INTRA:          -9.021
REMARK INTER:                  -8.275
REMARK INTRA:                  -0.747
REMARK UNBOUND:                -1.597
REMARK SMILES CCCCCCCCCCCCCC(=O)[O-]
REMARK SMILES IDX 8 1 9 2 10 3 11 4 12 5 13 6 14 7 15 8 16 9 7 10 6 11 5 12
REMARK SMILES IDX 4 13 3 14 2 15 1 16
REMARK H PARENT
REMARK Flexibility Score: inf
ROOT
ATOM      1  C   UNL     1     -19.472  -1.999  29.740  1.00  0.00     0.000 C 
ENDROOT
BRANCH   1   2
ATOM      2  C   UNL     1     -18.413  -1.051  29.160  1.00  0.00     0.000 C 
BRANCH   2   3
ATOM      3  C   UNL     1     -18.907  -0.292  27.915  1.00  0.00     0.000 C 
BRANCH   3   4
ATOM      4  C   UNL     1     -19.564   1.073  28.199  1.00  0.00     0.000 C 
BRANCH   4   5
ATOM      5  C   UNL     1     -20.898   1.323  27.466  1.00  0.00     0.006 C 
BRANCH   5   6
ATOM      6  C   UNL     1     -21.063   0.530  26.161  1.00  0.00     0.053 C 
BRANCH   6   7
ATOM      7  C   UNL     1     -22.494   0.166  25.906  1.00  0.00     0.041 C 
ATOM      8  O   UNL     1     -23.100  -0.610  26.691  1.00  0.00    -0.550 OA
ATOM      9  O   UNL     1     -23.146   0.660  24.784  1.00  0.00    -0.550 OA
ENDBRANCH   6   7
ENDBRANCH   5   6
ENDBRANCH   4   5
ENDBRANCH   3   4
ENDBRANCH   2   3
ENDBRANCH   1   2
BRANCH   1  10
ATOM     10  C   UNL     1     -18.815  -3.194  30.440  1.00  0.00     0.000 C 
BRANCH  10  11
ATOM     11  C   UNL     1     -17.342  -2.906  30.754  1.00  0.00    -0.000 C 
BRANCH  11  12
ATOM     12  C   UNL     1     -17.155  -2.550  32.234  1.00  0.00    -0.000 C 
BRANCH  12  13
ATOM     13  C   UNL     1     -16.627  -1.118  32.393  1.00  0.00    -0.000 C 
BRANCH  13  14
ATOM     14  C   UNL     1     -15.745  -0.721  31.200  1.00  0.00    -0.000 C 
BRANCH  14  15
ATOM     15  C   UNL     1     -14.324  -0.322  31.623  1.00  0.00    -0.003 C 
ATOM     16  C   UNL     1     -13.583   0.463  30.541  1.00  0.00     0.004 C 
ENDBRANCH  14  15
ENDBRANCH  13  14
ENDBRANCH  12  13
ENDBRANCH  11  12
ENDBRANCH  10  11
ENDBRANCH   1  10
TORSDOF 12
ENDMDL
MODEL 6
REMARK VINA RESULT:    -4.354     15.193     17.492
REMARK INTER + INTRA:          -9.006
REMARK INTER:                  -7.377
REMARK INTRA:                  -1.629
REMARK UNBOUND:                -1.597
REMARK SMILES CCCCCCCCCCCCCC(=O)[O-]
REMARK SMILES IDX 8 1 9 2 10 3 11 4 12 5 13 6 14 7 15 8 16 9 7 10 6 11 5 12
REMARK SMILES IDX 4 13 3 14 2 15 1 16
REMARK H PARENT
REMARK Flexibility Score: inf
ROOT
ATOM      1  C   UNL     1      -4.274   8.408  25.584  1.00  0.00     0.000 C 
ENDROOT
BRANCH   1   2
ATOM      2  C   UNL     1      -5.012   7.569  26.636  1.00  0.00     0.000 C 
BRANCH   2   3
ATOM      3  C   UNL     1      -6.277   6.890  26.081  1.00  0.00     0.000 C 
BRANCH   3   4
ATOM      4  C   UNL     1      -7.579   7.216  26.839  1.00  0.00     0.000 C 
BRANCH   4   5
ATOM      5  C   UNL     1      -7.892   6.290  28.032  1.00  0.00     0.006 C 
BRANCH   5   6
ATOM      6  C   UNL     1      -7.936   7.002  29.392  1.00  0.00     0.053 C 
BRANCH   6   7
ATOM      7  C   UNL     1      -6.609   6.963  30.086  1.00  0.00     0.041 C 
ATOM      8  O   UNL     1      -6.306   7.852  30.924  1.00  0.00    -0.550 OA
ATOM      9  O   UNL     1      -5.694   5.963  29.781  1.00  0.00    -0.550 OA
ENDBRANCH   6   7
ENDBRANCH   5   6
ENDBRANCH   4   5
ENDBRANCH   3   4
ENDBRANCH   2   3
ENDBRANCH   1   2
BRANCH   1  10
ATOM     10  C   UNL     1      -4.035   7.599  24.304  1.00  0.00     0.000 C 
BRANCH  10  11
ATOM     11  C   UNL     1      -4.136   8.492  23.061  1.00  0.00    -0.000 C 
BRANCH  11  12
ATOM     12  C   UNL     1      -4.341   9.960  23.454  1.00  0.00    -0.000 C 
BRANCH  12  13
ATOM     13  C   UNL     1      -5.491  10.588  22.657  1.00  0.00    -0.000 C 
BRANCH  13  14
ATOM     14  C   UNL     1      -6.590  11.110  23.594  1.00  0.00    -0.000 C 
BRANCH  14  15
ATOM     15  C   UNL     1      -7.325   9.980  24.329  1.00  0.00    -0.003 C 
ATOM     16  C   UNL     1      -7.951   8.962  23.375  1.00  0.00     0.004 C 
ENDBRANCH  14  15
ENDBRANCH  13  14
ENDBRANCH  12  13
ENDBRANCH  11  12
ENDBRANCH  10  11
ENDBRANCH   1  10
TORSDOF 12
ENDMDL
MODEL 7
REMARK VINA RESULT:    -4.351      2.903      6.022
REMARK INTER + INTRA:          -9.001
REMARK INTER:                  -7.528
REMARK INTRA:                  -1.473
REMARK UNBOUND:                -1.597
REMARK SMILES CCCCCCCCCCCCCC(=O)[O-]
REMARK SMILES IDX 8 1 9 2 10 3 11 4 12 5 13 6 14 7 15 8 16 9 7 10 6 11 5 12
REMARK SMILES IDX 4 13 3 14 2 15 1 16
REMARK H PARENT
REMARK Flexibility Score: inf
ROOT
ATOM      1  C   UNL     1     -22.844   0.096  29.249  1.00  0.00     0.000 C 
ENDROOT
BRANCH   1   2
ATOM      2  C   UNL     1     -21.942  -1.144  29.164  1.00  0.00     0.000 C 
BRANCH   2   3
ATOM      3  C   UNL     1     -20.531  -0.898  29.728  1.00  0.00     0.000 C 
BRANCH   3   4
ATOM      4  C   UNL     1     -19.666  -2.163  29.897  1.00  0.00     0.000 C 
BRANCH   4   5
ATOM      5  C   UNL     1     -18.146  -1.940  29.757  1.00  0.00     0.006 C 
BRANCH   5   6
ATOM      6  C   UNL     1     -17.298  -2.678  30.802  1.00  0.00     0.053 C 
BRANCH   6   7
ATOM      7  C   UNL     1     -17.331  -1.993  32.134  1.00  0.00     0.041 C 
ATOM      8  O   UNL     1     -16.801  -0.860  32.277  1.00  0.00    -0.550 OA
ATOM      9  O   UNL     1     -17.920  -2.621  33.224  1.00  0.00    -0.550 OA
ENDBRANCH   6   7
ENDBRANCH   5   6
ENDBRANCH   4   5
ENDBRANCH   3   4
ENDBRANCH   2   3
ENDBRANCH   1   2
BRANCH   1  10
ATOM     10  C   UNL     1     -23.813   0.153  28.063  1.00  0.00     0.000 C 
BRANCH  10  11
ATOM     11  C   UNL     1     -23.302  -0.698  26.893  1.00  0.00    -0.000 C 
BRANCH  11  12
ATOM     12  C   UNL     1     -22.683   0.184  25.802  1.00  0.00    -0.000 C 
BRANCH  12  13
ATOM     13  C   UNL     1     -21.187  -0.113  25.637  1.00  0.00    -0.000 C 
BRANCH  13  14
ATOM     14  C   UNL     1     -20.336   0.880  26.442  1.00  0.00    -0.000 C 
BRANCH  14  15
ATOM     15  C   UNL     1     -18.943   0.327  26.778  1.00  0.00    -0.003 C 
ATOM     16  C   UNL     1     -18.153   1.242  27.714  1.00  0.00     0.004 C 
ENDBRANCH  14  15
ENDBRANCH  13  14
ENDBRANCH  12  13
ENDBRANCH  11  12
ENDBRANCH  10  11
ENDBRANCH   1  10
TORSDOF 12
ENDMDL
MODEL 8
REMARK VINA RESULT:    -4.267     15.445     17.385
REMARK INTER + INTRA:          -8.858
REMARK INTER:                  -7.169
REMARK INTRA:                  -1.690
REMARK UNBOUND:                -1.597
REMARK SMILES CCCCCCCCCCCCCC(=O)[O-]
REMARK SMILES IDX 8 1 9 2 10 3 11 4 12 5 13 6 14 7 15 8 16 9 7 10 6 11 5 12
REMARK SMILES IDX 4 13 3 14 2 15 1 16
REMARK H PARENT
REMARK Flexibility Score: inf
ROOT
ATOM      1  C   UNL     1      -7.925   7.986  25.750  1.00  0.00     0.000 C 
ENDROOT
BRANCH   1   2
ATOM      2  C   UNL     1      -6.819   7.971  26.815  1.00  0.00     0.000 C 
BRANCH   2   3
ATOM      3  C   UNL     1      -6.045   6.641  26.855  1.00  0.00     0.000 C 
BRANCH   3   4
ATOM      4  C   UNL     1      -4.581   6.752  27.326  1.00  0.00     0.000 C 
BRANCH   4   5
ATOM      5  C   UNL     1      -4.397   7.185  28.794  1.00  0.00     0.006 C 
BRANCH   5   6
ATOM      6  C   UNL     1      -5.172   6.331  29.809  1.00  0.00     0.053 C 
BRANCH   6   7
ATOM      7  C   UNL     1      -5.832   7.173  30.858  1.00  0.00     0.041 C 
ATOM      8  O   UNL     1      -6.762   7.961  30.545  1.00  0.00    -0.550 OA
ATOM      9  O   UNL     1      -5.397   7.108  32.176  1.00  0.00    -0.550 OA
ENDBRANCH   6   7
ENDBRANCH   5   6
ENDBRANCH   4   5
ENDBRANCH   3   4
ENDBRANCH   2   3
ENDBRANCH   1   2
BRANCH   1  10
ATOM     10  C   UNL     1      -7.828   9.240  24.875  1.00  0.00     0.000 C 
BRANCH  10  11
ATOM     11  C   UNL     1      -8.150   8.917  23.411  1.00  0.00    -0.000 C 
BRANCH  11  12
ATOM     12  C   UNL     1      -7.251   7.791  22.886  1.00  0.00    -0.000 C 
BRANCH  12  13
ATOM     13  C   UNL     1      -5.858   8.322  22.523  1.00  0.00    -0.000 C 
BRANCH  13  14
ATOM     14  C   UNL     1      -4.794   7.784  23.490  1.00  0.00    -0.000 C 
BRANCH  14  15
ATOM     15  C   UNL     1      -4.125   8.896  24.311  1.00  0.00    -0.003 C 
ATOM     16  C   UNL     1      -4.435  10.294  23.775  1.00  0.00     0.004 C 
ENDBRANCH  14  15
ENDBRANCH  13  14
ENDBRANCH  12  13
ENDBRANCH  11  12
ENDBRANCH  10  11
ENDBRANCH   1  10
TORSDOF 12
ENDMDL
MODEL 9
REMARK VINA RESULT:    -4.192     14.471     16.988
REMARK INTER + INTRA:          -8.730
REMARK INTER:                  -7.214
REMARK INTRA:                  -1.516
REMARK UNBOUND:                -1.597
REMARK SMILES CCCCCCCCCCCCCC(=O)[O-]
REMARK SMILES IDX 8 1 9 2 10 3 11 4 12 5 13 6 14 7 15 8 16 9 7 10 6 11 5 12
REMARK SMILES IDX 4 13 3 14 2 15 1 16
REMARK H PARENT
REMARK Flexibility Score: inf
ROOT
ATOM      1  C   UNL     1      -4.922   7.941  26.961  1.00  0.00     0.000 C 
ENDROOT
BRANCH   1   2
ATOM      2  C   UNL     1      -3.942   7.347  27.983  1.00  0.00     0.000 C 
BRANCH   2   3
ATOM      3  C   UNL     1      -4.369   7.603  29.440  1.00  0.00     0.000 C 
BRANCH   3   4
ATOM      4  C   UNL     1      -4.739   6.341  30.243  1.00  0.00     0.000 C 
BRANCH   4   5
ATOM      5  C   UNL     1      -6.210   5.893  30.117  1.00  0.00     0.006 C 
BRANCH   5   6
ATOM      6  C   UNL     1      -7.195   7.030  29.807  1.00  0.00     0.053 C 
BRANCH   6   7
ATOM      7  C   UNL     1      -8.096   6.691  28.660  1.00  0.00     0.041 C 
ATOM      8  O   UNL     1      -9.242   7.207  28.581  1.00  0.00    -0.550 OA
ATOM      9  O   UNL     1      -7.682   5.781  27.696  1.00  0.00    -0.550 OA
ENDBRANCH   6   7
ENDBRANCH   5   6
ENDBRANCH   4   5
ENDBRANCH   3   4
ENDBRANCH   2   3
ENDBRANCH   1   2
BRANCH   1  10
ATOM     10  C   UNL     1      -5.020   7.054  25.715  1.00  0.00     0.000 C 
BRANCH  10  11
ATOM     11  C   UNL     1      -4.461   7.775  24.481  1.00  0.00    -0.000 C 
BRANCH  11  12
ATOM     12  C   UNL     1      -4.609   9.295  24.619  1.00  0.00    -0.000 C 
BRANCH  12  13
ATOM     13  C   UNL     1      -5.428   9.876  23.460  1.00  0.00    -0.000 C 
BRANCH  13  14
ATOM     14  C   UNL     1      -6.813  10.335  23.940  1.00  0.00    -0.000 C 
BRANCH  14  15
ATOM     15  C   UNL     1      -7.843   9.196  23.945  1.00  0.00    -0.003 C 
ATOM     16  C   UNL     1      -8.273   8.794  25.356  1.00  0.00     0.004 C 
ENDBRANCH  14  15
ENDBRANCH  13  14
ENDBRANCH  12  13
ENDBRANCH  11  12
ENDBRANCH  10  11
ENDBRANCH   1  10
TORSDOF 12
ENDMDL
