MODEL 1
REMARK VINA RESULT:    -6.863      0.000      0.000
REMARK INTER + INTRA:          -8.523
REMARK INTER:                  -8.267
REMARK INTRA:                  -0.255
REMARK UNBOUND:                -0.255
REMARK SMILES O=c1c(O)c(-c2ccc(O)c(O)c2)oc2cc(O)cc(O)c12
REMARK SMILES IDX 5 1 3 2 2 3 1 4 22 5 20 6 19 7 17 8 16 9 15 10 14 11 6 12
REMARK SMILES IDX 7 13 8 14 9 15 13 16 11 17 10 18 12 20 4 22 21 24 18 26
REMARK H PARENT 10 19 12 21 4 23 21 25 18 27
REMARK Flexibility Score: inf
ROOT
ATOM      1  C   UNL     1       8.682 -10.276  14.268  1.00  0.00     0.180 A 
ATOM      2  C   UNL     1       8.533  -9.949  15.627  1.00  0.00     0.208 A 
ATOM      3  C   UNL     1       7.278  -9.524  16.092  1.00  0.00     0.238 A 
ATOM      4  O   UNL     1       7.163  -9.181  17.297  1.00  0.00    -0.285 OA
ATOM      5  C   UNL     1       6.183  -9.449  15.196  1.00  0.00     0.111 A 
ATOM      6  C   UNL     1       4.858  -9.070  15.566  1.00  0.00     0.134 A 
ATOM      7  C   UNL     1       3.885  -8.904  14.573  1.00  0.00     0.093 A 
ATOM      8  C   UNL     1       4.171  -9.163  13.233  1.00  0.00     0.123 A 
ATOM      9  C   UNL     1       5.448  -9.592  12.868  1.00  0.00     0.094 A 
ATOM     10  C   UNL     1       6.449  -9.732  13.831  1.00  0.00     0.146 A 
ATOM     11  O   UNL     1       7.654 -10.131  13.440  1.00  0.00    -0.452 OA
ENDROOT
BRANCH   1  12
ATOM     12  C   UNL     1       9.967 -10.755  13.710  1.00  0.00     0.025 A 
ATOM     13  C   UNL     1      10.683  -9.935  12.823  1.00  0.00     0.016 A 
ATOM     14  C   UNL     1      11.887 -10.375  12.267  1.00  0.00     0.051 A 
ATOM     15  C   UNL     1      12.385 -11.646  12.579  1.00  0.00     0.157 A 
ATOM     16  C   UNL     1      10.461 -12.039  14.004  1.00  0.00     0.062 A 
ATOM     17  C   UNL     1      11.669 -12.481  13.446  1.00  0.00     0.158 A 
BRANCH  15  18
ATOM     18  O   UNL     1      13.587 -12.089  12.030  1.00  0.00    -0.504 OA
ATOM     19  H   UNL     1      14.328 -12.464  12.610  1.00  0.00     0.293 HD
ENDBRANCH  15  18
BRANCH  17  20
ATOM     20  O   UNL     1      12.160 -13.752  13.743  1.00  0.00    -0.504 OA
ATOM     21  H   UNL     1      12.446 -14.393  13.013  1.00  0.00     0.293 HD
ENDBRANCH  17  20
ENDBRANCH   1  12
BRANCH   2  22
ATOM     22  O   UNL     1       9.631 -10.010  16.490  1.00  0.00    -0.502 OA
ATOM     23  H   UNL     1       9.725 -10.725  17.201  1.00  0.00     0.293 HD
ENDBRANCH   2  22
BRANCH   6  24
ATOM     24  O   UNL     1       4.442  -8.875  16.887  1.00  0.00    -0.507 OA
ATOM     25  H   UNL     1       4.556  -8.018  17.405  1.00  0.00     0.293 HD
ENDBRANCH   6  24
BRANCH   8  26
ATOM     26  O   UNL     1       3.174  -9.002  12.274  1.00  0.00    -0.508 OA
ATOM     27  H   UNL     1       3.381  -9.038  11.283  1.00  0.00     0.293 HD
ENDBRANCH   8  26
TORSDOF 6
ENDMDL
MODEL 2
REMARK VINA RESULT:    -6.760     19.979     22.345
REMARK INTER + INTRA:          -8.398
REMARK INTER:                  -8.082
REMARK INTRA:                  -0.316
REMARK UNBOUND:                -0.255
REMARK SMILES O=c1c(O)c(-c2ccc(O)c(O)c2)oc2cc(O)cc(O)c12
REMARK SMILES IDX 5 1 3 2 2 3 1 4 22 5 20 6 19 7 17 8 16 9 15 10 14 11 6 12
REMARK SMILES IDX 7 13 8 14 9 15 13 16 11 17 10 18 12 20 4 22 21 24 18 26
REMARK H PARENT 10 19 12 21 4 23 21 25 18 27
REMARK Flexibility Score: inf
ROOT
ATOM      1  C   UNL     1      15.477 -26.289  26.357  1.00  0.00     0.180 A 
ATOM      2  C   UNL     1      16.033 -27.570  26.519  1.00  0.00     0.208 A 
ATOM      3  C   UNL     1      17.300 -27.836  25.977  1.00  0.00     0.238 A 
ATOM      4  O   UNL     1      17.770 -28.999  26.078  1.00  0.00    -0.285 OA
ATOM      5  C   UNL     1      18.005 -26.813  25.296  1.00  0.00     0.111 A 
ATOM      6  C   UNL     1      19.312 -26.959  24.743  1.00  0.00     0.134 A 
ATOM      7  C   UNL     1      19.857 -25.921  23.977  1.00  0.00     0.093 A 
ATOM      8  C   UNL     1      19.171 -24.720  23.798  1.00  0.00     0.123 A 
ATOM      9  C   UNL     1      17.918 -24.545  24.385  1.00  0.00     0.094 A 
ATOM     10  C   UNL     1      17.332 -25.575  25.124  1.00  0.00     0.146 A 
ATOM     11  O   UNL     1      16.132 -25.371  25.656  1.00  0.00    -0.452 OA
ENDROOT
BRANCH   1  12
ATOM     12  C   UNL     1      14.156 -25.926  26.921  1.00  0.00     0.025 A 
ATOM     13  C   UNL     1      12.994 -26.191  26.181  1.00  0.00     0.016 A 
ATOM     14  C   UNL     1      11.739 -25.838  26.684  1.00  0.00     0.051 A 
ATOM     15  C   UNL     1      11.630 -25.203  27.928  1.00  0.00     0.157 A 
ATOM     16  C   UNL     1      14.045 -25.270  28.160  1.00  0.00     0.062 A 
ATOM     17  C   UNL     1      12.785 -24.914  28.665  1.00  0.00     0.158 A 
BRANCH  15  18
ATOM     18  O   UNL     1      10.381 -24.851  28.435  1.00  0.00    -0.504 OA
ATOM     19  H   UNL     1       9.906 -25.427  29.121  1.00  0.00     0.293 HD
ENDBRANCH  15  18
BRANCH  17  20
ATOM     20  O   UNL     1      12.675 -24.269  29.896  1.00  0.00    -0.504 OA
ATOM     21  H   UNL     1      12.793 -23.267  29.981  1.00  0.00     0.293 HD
ENDBRANCH  17  20
ENDBRANCH   1  12
BRANCH   2  22
ATOM     22  O   UNL     1      15.312 -28.572  27.176  1.00  0.00    -0.502 OA
ATOM     23  H   UNL     1      14.520 -29.038  26.753  1.00  0.00     0.293 HD
ENDBRANCH   2  22
BRANCH   6  24
ATOM     24  O   UNL     1      20.121 -28.083  24.939  1.00  0.00    -0.507 OA
ATOM     25  H   UNL     1      20.047 -28.715  25.721  1.00  0.00     0.293 HD
ENDBRANCH   6  24
BRANCH   8  26
ATOM     26  O   UNL     1      19.752 -23.704  23.043  1.00  0.00    -0.508 OA
ATOM     27  H   UNL     1      20.240 -22.931  23.481  1.00  0.00     0.293 HD
ENDBRANCH   8  26
TORSDOF 6
ENDMDL
MODEL 3
REMARK VINA RESULT:    -6.493     20.416     22.308
REMARK INTER + INTRA:          -8.077
REMARK INTER:                  -7.775
REMARK INTRA:                  -0.302
REMARK UNBOUND:                -0.255
REMARK SMILES O=c1c(O)c(-c2ccc(O)c(O)c2)oc2cc(O)cc(O)c12
REMARK SMILES IDX 5 1 3 2 2 3 1 4 22 5 20 6 19 7 17 8 16 9 15 10 14 11 6 12
REMARK SMILES IDX 7 13 8 14 9 15 13 16 11 17 10 18 12 20 4 22 21 24 18 26
REMARK H PARENT 10 19 12 21 4 23 21 25 18 27
REMARK Flexibility Score: inf
ROOT
ATOM      1  C   UNL     1      15.790 -26.401  26.324  1.00  0.00     0.180 A 
ATOM      2  C   UNL     1      15.251 -27.217  25.314  1.00  0.00     0.208 A 
ATOM      3  C   UNL     1      15.841 -27.202  24.040  1.00  0.00     0.238 A 
ATOM      4  O   UNL     1      15.322 -27.893  23.125  1.00  0.00    -0.285 OA
ATOM      5  C   UNL     1      16.972 -26.387  23.796  1.00  0.00     0.111 A 
ATOM      6  C   UNL     1      17.674 -26.323  22.555  1.00  0.00     0.134 A 
ATOM      7  C   UNL     1      18.699 -25.385  22.388  1.00  0.00     0.093 A 
ATOM      8  C   UNL     1      19.089 -24.551  23.435  1.00  0.00     0.123 A 
ATOM      9  C   UNL     1      18.450 -24.645  24.672  1.00  0.00     0.094 A 
ATOM     10  C   UNL     1      17.399 -25.547  24.857  1.00  0.00     0.146 A 
ATOM     11  O   UNL     1      16.810 -25.597  26.046  1.00  0.00    -0.452 OA
ENDROOT
BRANCH   1  12
ATOM     12  C   UNL     1      15.239 -26.381  27.698  1.00  0.00     0.025 A 
ATOM     13  C   UNL     1      15.595 -27.396  28.600  1.00  0.00     0.016 A 
ATOM     14  C   UNL     1      15.069 -27.409  29.895  1.00  0.00     0.051 A 
ATOM     15  C   UNL     1      14.171 -26.415  30.302  1.00  0.00     0.157 A 
ATOM     16  C   UNL     1      14.320 -25.396  28.104  1.00  0.00     0.062 A 
ATOM     17  C   UNL     1      13.792 -25.409  29.404  1.00  0.00     0.158 A 
BRANCH  15  18
ATOM     18  O   UNL     1      13.647 -26.422  31.593  1.00  0.00    -0.504 OA
ATOM     19  H   UNL     1      12.912 -27.065  31.863  1.00  0.00     0.293 HD
ENDBRANCH  15  18
BRANCH  17  20
ATOM     20  O   UNL     1      12.887 -24.429  29.807  1.00  0.00    -0.504 OA
ATOM     21  H   UNL     1      12.338 -24.530  30.653  1.00  0.00     0.293 HD
ENDBRANCH  17  20
ENDBRANCH   1  12
BRANCH   2  22
ATOM     22  O   UNL     1      14.121 -27.999  25.569  1.00  0.00    -0.502 OA
ATOM     23  H   UNL     1      13.621 -28.487  24.837  1.00  0.00     0.293 HD
ENDBRANCH   2  22
BRANCH   6  24
ATOM     24  O   UNL     1      17.424 -27.174  21.474  1.00  0.00    -0.507 OA
ATOM     25  H   UNL     1      17.512 -26.913  20.504  1.00  0.00     0.293 HD
ENDBRANCH   6  24
BRANCH   8  26
ATOM     26  O   UNL     1      20.124 -23.639  23.238  1.00  0.00    -0.508 OA
ATOM     27  H   UNL     1      21.035 -23.935  22.907  1.00  0.00     0.293 HD
ENDBRANCH   8  26
TORSDOF 6
ENDMDL
MODEL 4
REMARK VINA RESULT:    -6.319     19.753     21.860
REMARK INTER + INTRA:          -7.868
REMARK INTER:                  -7.815
REMARK INTRA:                  -0.053
REMARK UNBOUND:                -0.255
REMARK SMILES O=c1c(O)c(-c2ccc(O)c(O)c2)oc2cc(O)cc(O)c12
REMARK SMILES IDX 5 1 3 2 2 3 1 4 22 5 20 6 19 7 17 8 16 9 15 10 14 11 6 12
REMARK SMILES IDX 7 13 8 14 9 15 13 16 11 17 10 18 12 20 4 22 21 24 18 26
REMARK H PARENT 10 19 12 21 4 23 21 25 18 27
REMARK Flexibility Score: inf
ROOT
ATOM      1  C   UNL     1      14.979 -26.110  26.224  1.00  0.00     0.180 A 
ATOM      2  C   UNL     1      16.090 -26.612  26.923  1.00  0.00     0.208 A 
ATOM      3  C   UNL     1      17.277 -26.868  26.219  1.00  0.00     0.238 A 
ATOM      4  O   UNL     1      18.252 -27.368  26.839  1.00  0.00    -0.285 OA
ATOM      5  C   UNL     1      17.346 -26.602  24.830  1.00  0.00     0.111 A 
ATOM      6  C   UNL     1      18.510 -26.785  24.025  1.00  0.00     0.134 A 
ATOM      7  C   UNL     1      18.424 -26.615  22.639  1.00  0.00     0.093 A 
ATOM      8  C   UNL     1      17.236 -26.206  22.035  1.00  0.00     0.123 A 
ATOM      9  C   UNL     1      16.107 -25.966  22.819  1.00  0.00     0.094 A 
ATOM     10  C   UNL     1      16.152 -26.163  24.201  1.00  0.00     0.146 A 
ATOM     11  O   UNL     1      15.052 -25.933  24.910  1.00  0.00    -0.452 OA
ENDROOT
BRANCH   1  12
ATOM     12  C   UNL     1      13.700 -25.792  26.901  1.00  0.00     0.025 A 
ATOM     13  C   UNL     1      12.497 -26.286  26.372  1.00  0.00     0.016 A 
ATOM     14  C   UNL     1      11.278 -25.981  26.982  1.00  0.00     0.051 A 
ATOM     15  C   UNL     1      11.242 -25.167  28.120  1.00  0.00     0.157 A 
ATOM     16  C   UNL     1      13.658 -24.957  28.032  1.00  0.00     0.062 A 
ATOM     17  C   UNL     1      12.434 -24.651  28.644  1.00  0.00     0.158 A 
BRANCH  15  18
ATOM     18  O   UNL     1      10.028 -24.862  28.734  1.00  0.00    -0.504 OA
ATOM     19  H   UNL     1       9.625 -23.934  28.678  1.00  0.00     0.293 HD
ENDBRANCH  15  18
BRANCH  17  20
ATOM     20  O   UNL     1      12.394 -23.828  29.770  1.00  0.00    -0.504 OA
ATOM     21  H   UNL     1      13.173 -23.777  30.415  1.00  0.00     0.293 HD
ENDBRANCH  17  20
ENDBRANCH   1  12
BRANCH   2  22
ATOM     22  O   UNL     1      15.995 -26.888  28.290  1.00  0.00    -0.502 OA
ATOM     23  H   UNL     1      16.243 -26.210  29.000  1.00  0.00     0.293 HD
ENDBRANCH   2  22
BRANCH   6  24
ATOM     24  O   UNL     1      19.770 -27.105  24.539  1.00  0.00    -0.507 OA
ATOM     25  H   UNL     1      20.041 -27.001  25.505  1.00  0.00     0.293 HD
ENDBRANCH   6  24
BRANCH   8  26
ATOM     26  O   UNL     1      17.192 -26.031  20.654  1.00  0.00    -0.508 OA
ATOM     27  H   UNL     1      16.326 -26.120  20.135  1.00  0.00     0.293 HD
ENDBRANCH   8  26
TORSDOF 6
ENDMDL
MODEL 5
REMARK VINA RESULT:    -6.309     20.083     20.851
REMARK INTER + INTRA:          -7.856
REMARK INTER:                  -7.556
REMARK INTRA:                  -0.299
REMARK UNBOUND:                -0.255
REMARK SMILES O=c1c(O)c(-c2ccc(O)c(O)c2)oc2cc(O)cc(O)c12
REMARK SMILES IDX 5 1 3 2 2 3 1 4 22 5 20 6 19 7 17 8 16 9 15 10 14 11 6 12
REMARK SMILES IDX 7 13 8 14 9 15 13 16 11 17 10 18 12 20 4 22 21 24 18 26
REMARK H PARENT 10 19 12 21 4 23 21 25 18 27
REMARK Flexibility Score: inf
ROOT
ATOM      1  C   UNL     1      14.859 -26.077  25.676  1.00  0.00     0.180 A 
ATOM      2  C   UNL     1      13.943 -27.042  25.221  1.00  0.00     0.208 A 
ATOM      3  C   UNL     1      12.643 -27.049  25.750  1.00  0.00     0.238 A 
ATOM      4  O   UNL     1      11.844 -27.948  25.379  1.00  0.00    -0.285 OA
ATOM      5  C   UNL     1      12.269 -26.083  26.715  1.00  0.00     0.111 A 
ATOM      6  C   UNL     1      10.967 -25.972  27.290  1.00  0.00     0.134 A 
ATOM      7  C   UNL     1      10.747 -25.062  28.331  1.00  0.00     0.093 A 
ATOM      8  C   UNL     1      11.762 -24.215  28.774  1.00  0.00     0.123 A 
ATOM      9  C   UNL     1      13.023 -24.273  28.179  1.00  0.00     0.094 A 
ATOM     10  C   UNL     1      13.283 -25.196  27.163  1.00  0.00     0.146 A 
ATOM     11  O   UNL     1      14.499 -25.227  26.630  1.00  0.00    -0.452 OA
ENDROOT
BRANCH   1  12
ATOM     12  C   UNL     1      16.240 -25.990  25.147  1.00  0.00     0.025 A 
ATOM     13  C   UNL     1      16.527 -25.087  24.112  1.00  0.00     0.016 A 
ATOM     14  C   UNL     1      17.817 -25.004  23.583  1.00  0.00     0.051 A 
ATOM     15  C   UNL     1      18.836 -25.831  24.073  1.00  0.00     0.157 A 
ATOM     16  C   UNL     1      17.260 -26.834  25.622  1.00  0.00     0.062 A 
ATOM     17  C   UNL     1      18.556 -26.751  25.091  1.00  0.00     0.158 A 
BRANCH  15  18
ATOM     18  O   UNL     1      20.125 -25.749  23.551  1.00  0.00    -0.504 OA
ATOM     19  H   UNL     1      20.288 -25.540  22.572  1.00  0.00     0.293 HD
ENDBRANCH  15  18
BRANCH  17  20
ATOM     20  O   UNL     1      19.568 -27.583  25.567  1.00  0.00    -0.504 OA
ATOM     21  H   UNL     1      20.544 -27.395  25.370  1.00  0.00     0.293 HD
ENDBRANCH  17  20
ENDBRANCH   1  12
BRANCH   2  22
ATOM     22  O   UNL     1      14.339 -28.000  24.283  1.00  0.00    -0.502 OA
ATOM     23  H   UNL     1      14.002 -27.998  23.329  1.00  0.00     0.293 HD
ENDBRANCH   2  22
BRANCH   6  24
ATOM     24  O   UNL     1       9.859 -26.708  26.858  1.00  0.00    -0.507 OA
ATOM     25  H   UNL     1       9.456 -26.652  25.936  1.00  0.00     0.293 HD
ENDBRANCH   6  24
BRANCH   8  26
ATOM     26  O   UNL     1      11.502 -23.311  29.801  1.00  0.00    -0.508 OA
ATOM     27  H   UNL     1      10.763 -22.621  29.726  1.00  0.00     0.293 HD
ENDBRANCH   8  26
TORSDOF 6
ENDMDL
MODEL 6
REMARK VINA RESULT:    -6.010     19.694     20.773
REMARK INTER + INTRA:          -7.496
REMARK INTER:                  -7.298
REMARK INTRA:                  -0.198
REMARK UNBOUND:                -0.255
REMARK SMILES O=c1c(O)c(-c2ccc(O)c(O)c2)oc2cc(O)cc(O)c12
REMARK SMILES IDX 5 1 3 2 2 3 1 4 22 5 20 6 19 7 17 8 16 9 15 10 14 11 6 12
REMARK SMILES IDX 7 13 8 14 9 15 13 16 11 17 10 18 12 20 4 22 21 24 18 26
REMARK H PARENT 10 19 12 21 4 23 21 25 18 27
REMARK Flexibility Score: inf
ROOT
ATOM      1  C   UNL     1      13.234 -25.912  26.671  1.00  0.00     0.180 A 
ATOM      2  C   UNL     1      12.837 -25.011  27.674  1.00  0.00     0.208 A 
ATOM      3  C   UNL     1      11.555 -25.136  28.231  1.00  0.00     0.238 A 
ATOM      4  O   UNL     1      11.183 -24.294  29.090  1.00  0.00    -0.285 OA
ATOM      5  C   UNL     1      10.692 -26.170  27.793  1.00  0.00     0.111 A 
ATOM      6  C   UNL     1       9.387 -26.415  28.316  1.00  0.00     0.134 A 
ATOM      7  C   UNL     1       8.573 -27.383  27.716  1.00  0.00     0.093 A 
ATOM      8  C   UNL     1       9.039 -28.159  26.654  1.00  0.00     0.123 A 
ATOM      9  C   UNL     1      10.334 -27.969  26.173  1.00  0.00     0.094 A 
ATOM     10  C   UNL     1      11.157 -26.985  26.728  1.00  0.00     0.146 A 
ATOM     11  O   UNL     1      12.380 -26.829  26.233  1.00  0.00    -0.452 OA
ENDROOT
BRANCH   1  12
ATOM     12  C   UNL     1      14.579 -25.859  26.052  1.00  0.00     0.025 A 
ATOM     13  C   UNL     1      15.708 -26.172  26.826  1.00  0.00     0.016 A 
ATOM     14  C   UNL     1      16.988 -26.108  26.269  1.00  0.00     0.051 A 
ATOM     15  C   UNL     1      17.158 -25.717  24.935  1.00  0.00     0.157 A 
ATOM     16  C   UNL     1      14.757 -25.446  24.719  1.00  0.00     0.062 A 
ATOM     17  C   UNL     1      16.042 -25.381  24.160  1.00  0.00     0.158 A 
BRANCH  15  18
ATOM     18  O   UNL     1      18.433 -25.654  24.375  1.00  0.00    -0.504 OA
ATOM     19  H   UNL     1      19.017 -24.832  24.479  1.00  0.00     0.293 HD
ENDBRANCH  15  18
BRANCH  17  20
ATOM     20  O   UNL     1      16.216 -24.978  22.837  1.00  0.00    -0.504 OA
ATOM     21  H   UNL     1      16.462 -24.024  22.602  1.00  0.00     0.293 HD
ENDBRANCH  17  20
ENDBRANCH   1  12
BRANCH   2  22
ATOM     22  O   UNL     1      13.695 -23.984  28.078  1.00  0.00    -0.502 OA
ATOM     23  H   UNL     1      14.296 -23.491  27.429  1.00  0.00     0.293 HD
ENDBRANCH   2  22
BRANCH   6  24
ATOM     24  O   UNL     1       8.860 -25.760  29.433  1.00  0.00    -0.507 OA
ATOM     25  H   UNL     1       9.391 -25.493  30.247  1.00  0.00     0.293 HD
ENDBRANCH   6  24
BRANCH   8  26
ATOM     26  O   UNL     1       8.206 -29.123  26.092  1.00  0.00    -0.508 OA
ATOM     27  H   UNL     1       7.247 -29.241  26.401  1.00  0.00     0.293 HD
ENDBRANCH   8  26
TORSDOF 6
ENDMDL
MODEL 7
REMARK VINA RESULT:    -5.999     20.162     21.750
REMARK INTER + INTRA:          -7.482
REMARK INTER:                  -7.180
REMARK INTRA:                  -0.302
REMARK UNBOUND:                -0.255
REMARK SMILES O=c1c(O)c(-c2ccc(O)c(O)c2)oc2cc(O)cc(O)c12
REMARK SMILES IDX 5 1 3 2 2 3 1 4 22 5 20 6 19 7 17 8 16 9 15 10 14 11 6 12
REMARK SMILES IDX 7 13 8 14 9 15 13 16 11 17 10 18 12 20 4 22 21 24 18 26
REMARK H PARENT 10 19 12 21 4 23 21 25 18 27
REMARK Flexibility Score: inf
ROOT
ATOM      1  C   UNL     1      17.011 -26.246  25.760  1.00  0.00     0.180 A 
ATOM      2  C   UNL     1      17.490 -27.190  26.683  1.00  0.00     0.208 A 
ATOM      3  C   UNL     1      16.667 -27.575  27.753  1.00  0.00     0.238 A 
ATOM      4  O   UNL     1      17.122 -28.381  28.607  1.00  0.00    -0.285 OA
ATOM      5  C   UNL     1      15.368 -27.025  27.877  1.00  0.00     0.111 A 
ATOM      6  C   UNL     1      14.434 -27.373  28.898  1.00  0.00     0.134 A 
ATOM      7  C   UNL     1      13.228 -26.669  28.999  1.00  0.00     0.093 A 
ATOM      8  C   UNL     1      12.894 -25.675  28.079  1.00  0.00     0.123 A 
ATOM      9  C   UNL     1      13.774 -25.368  27.041  1.00  0.00     0.094 A 
ATOM     10  C   UNL     1      15.001 -26.028  26.936  1.00  0.00     0.146 A 
ATOM     11  O   UNL     1      15.815 -25.698  25.939  1.00  0.00    -0.452 OA
ENDROOT
BRANCH   1  12
ATOM     12  C   UNL     1      17.811 -25.809  24.592  1.00  0.00     0.025 A 
ATOM     13  C   UNL     1      17.857 -26.617  23.446  1.00  0.00     0.016 A 
ATOM     14  C   UNL     1      18.622 -26.235  22.341  1.00  0.00     0.051 A 
ATOM     15  C   UNL     1      19.363 -25.046  22.372  1.00  0.00     0.157 A 
ATOM     16  C   UNL     1      18.572 -24.626  24.627  1.00  0.00     0.062 A 
ATOM     17  C   UNL     1      19.341 -24.243  23.518  1.00  0.00     0.158 A 
BRANCH  15  18
ATOM     18  O   UNL     1      20.125 -24.660  21.271  1.00  0.00    -0.504 OA
ATOM     19  H   UNL     1      21.032 -25.071  21.085  1.00  0.00     0.293 HD
ENDBRANCH  15  18
BRANCH  17  20
ATOM     20  O   UNL     1      20.090 -23.067  23.552  1.00  0.00    -0.504 OA
ATOM     21  H   UNL     1      20.731 -22.870  24.311  1.00  0.00     0.293 HD
ENDBRANCH  17  20
ENDBRANCH   1  12
BRANCH   2  22
ATOM     22  O   UNL     1      18.784 -27.706  26.555  1.00  0.00    -0.502 OA
ATOM     23  H   UNL     1      19.116 -28.485  27.110  1.00  0.00     0.293 HD
ENDBRANCH   2  22
BRANCH   6  24
ATOM     24  O   UNL     1      14.629 -28.412  29.812  1.00  0.00    -0.507 OA
ATOM     25  H   UNL     1      14.072 -28.564  30.639  1.00  0.00     0.293 HD
ENDBRANCH   6  24
BRANCH   8  26
ATOM     26  O   UNL     1      11.678 -25.007  28.202  1.00  0.00    -0.508 OA
ATOM     27  H   UNL     1      11.467 -24.184  27.648  1.00  0.00     0.293 HD
ENDBRANCH   8  26
TORSDOF 6
ENDMDL
MODEL 8
REMARK VINA RESULT:    -5.801     19.644     21.597
REMARK INTER + INTRA:          -7.244
REMARK INTER:                  -6.922
REMARK INTRA:                  -0.321
REMARK UNBOUND:                -0.255
REMARK SMILES O=c1c(O)c(-c2ccc(O)c(O)c2)oc2cc(O)cc(O)c12
REMARK SMILES IDX 5 1 3 2 2 3 1 4 22 5 20 6 19 7 17 8 16 9 15 10 14 11 6 12
REMARK SMILES IDX 7 13 8 14 9 15 13 16 11 17 10 18 12 20 4 22 21 24 18 26
REMARK H PARENT 10 19 12 21 4 23 21 25 18 27
REMARK Flexibility Score: inf
ROOT
ATOM      1  C   UNL     1      13.815 -27.183  26.016  1.00  0.00     0.180 A 
ATOM      2  C   UNL     1      14.331 -27.499  27.285  1.00  0.00     0.208 A 
ATOM      3  C   UNL     1      13.441 -27.822  28.321  1.00  0.00     0.238 A 
ATOM      4  O   UNL     1      13.906 -28.051  29.469  1.00  0.00    -0.285 OA
ATOM      5  C   UNL     1      12.047 -27.843  28.072  1.00  0.00     0.111 A 
ATOM      6  C   UNL     1      11.056 -28.195  29.037  1.00  0.00     0.134 A 
ATOM      7  C   UNL     1       9.701 -28.055  28.718  1.00  0.00     0.093 A 
ATOM      8  C   UNL     1       9.299 -27.637  27.449  1.00  0.00     0.123 A 
ATOM      9  C   UNL     1      10.259 -27.347  26.479  1.00  0.00     0.094 A 
ATOM     10  C   UNL     1      11.620 -27.443  26.780  1.00  0.00     0.146 A 
ATOM     11  O   UNL     1      12.501 -27.147  25.831  1.00  0.00    -0.452 OA
ENDROOT
BRANCH   1  12
ATOM     12  C   UNL     1      14.692 -26.857  24.868  1.00  0.00     0.025 A 
ATOM     13  C   UNL     1      15.094 -25.528  24.662  1.00  0.00     0.016 A 
ATOM     14  C   UNL     1      15.903 -25.193  23.573  1.00  0.00     0.051 A 
ATOM     15  C   UNL     1      16.310 -26.181  22.667  1.00  0.00     0.157 A 
ATOM     16  C   UNL     1      15.085 -27.842  23.943  1.00  0.00     0.062 A 
ATOM     17  C   UNL     1      15.897 -27.506  22.850  1.00  0.00     0.158 A 
BRANCH  15  18
ATOM     18  O   UNL     1      17.119 -25.852  21.581  1.00  0.00    -0.504 OA
ATOM     19  H   UNL     1      18.100 -26.105  21.556  1.00  0.00     0.293 HD
ENDBRANCH  15  18
BRANCH  17  20
ATOM     20  O   UNL     1      16.291 -28.484  21.938  1.00  0.00    -0.504 OA
ATOM     21  H   UNL     1      17.068 -29.105  22.131  1.00  0.00     0.293 HD
ENDBRANCH  17  20
ENDBRANCH   1  12
BRANCH   2  22
ATOM     22  O   UNL     1      15.710 -27.451  27.515  1.00  0.00    -0.502 OA
ATOM     23  H   UNL     1      16.156 -26.672  27.982  1.00  0.00     0.293 HD
ENDBRANCH   2  22
BRANCH   6  24
ATOM     24  O   UNL     1      11.350 -28.711  30.303  1.00  0.00    -0.507 OA
ATOM     25  H   UNL     1      10.663 -28.938  31.005  1.00  0.00     0.293 HD
ENDBRANCH   6  24
BRANCH   8  26
ATOM     26  O   UNL     1       7.941 -27.524  27.162  1.00  0.00    -0.508 OA
ATOM     27  H   UNL     1       7.417 -28.295  26.764  1.00  0.00     0.293 HD
ENDBRANCH   8  26
TORSDOF 6
ENDMDL
