MODEL 1
REMARK VINA RESULT:    -3.239      0.000      0.000
REMARK INTER + INTRA:          -4.254
REMARK INTER:                  -3.997
REMARK INTRA:                  -0.258
REMARK UNBOUND:                -0.258
REMARK SMILES C=CC(=C)CCC=C(C)C
REMARK SMILES IDX 5 1 6 2 7 3 9 4 8 5 10 6 3 7 4 8 2 9 1 10
REMARK H PARENT
REMARK Flexibility Score: inf
ROOT
ATOM      1  C   UNL     1     134.875 137.006 161.487  1.00  0.00     0.039 C 
ENDROOT
BRANCH   1   2
ATOM      2  C   UNL     1     134.875 138.403 162.118  1.00  0.00     0.032 C 
BRANCH   2   3
ATOM      3  C   UNL     1     135.630 138.407 163.425  1.00  0.00    -0.028 C 
ATOM      4  C   UNL     1     135.581 140.902 163.645  1.00  0.00     0.039 C 
ATOM      5  C   UNL     1     135.975 139.522 164.108  1.00  0.00    -0.080 C 
ATOM      6  C   UNL     1     136.729 139.400 165.407  1.00  0.00     0.039 C 
ENDBRANCH   2   3
ENDBRANCH   1   2
BRANCH   1   7
ATOM      7  C   UNL     1     136.280 136.446 161.423  1.00  0.00    -0.055 C 
ATOM      8  C   UNL     1     137.211 137.099 160.719  1.00  0.00     0.012 C 
BRANCH   7   9
ATOM      9  C   UNL     1     136.677 135.214 162.155  1.00  0.00    -0.005 C 
ATOM     10  C   UNL     1     137.937 134.896 162.453  1.00  0.00     0.009 C 
ENDBRANCH   7   9
ENDBRANCH   1   7
TORSDOF 4
ENDMDL
MODEL 2
REMARK VINA RESULT:    -3.032      0.887      4.406
REMARK INTER + INTRA:          -3.999
REMARK INTER:                  -3.547
REMARK INTRA:                  -0.452
REMARK UNBOUND:                -0.258
REMARK SMILES C=CC(=C)CCC=C(C)C
REMARK SMILES IDX 5 1 6 2 7 3 9 4 8 5 10 6 3 7 4 8 2 9 1 10
REMARK H PARENT
REMARK Flexibility Score: inf
ROOT
ATOM      1  C   UNL     1     135.060 138.376 162.792  1.00  0.00     0.039 C 
ENDROOT
BRANCH   1   2
ATOM      2  C   UNL     1     135.838 137.943 161.544  1.00  0.00     0.032 C 
BRANCH   2   3
ATOM      3  C   UNL     1     136.984 137.031 161.909  1.00  0.00    -0.028 C 
ATOM      4  C   UNL     1     135.665 134.935 161.535  1.00  0.00     0.039 C 
ATOM      5  C   UNL     1     136.914 135.682 161.933  1.00  0.00    -0.080 C 
ATOM      6  C   UNL     1     138.129 134.876 162.314  1.00  0.00     0.039 C 
ENDBRANCH   2   3
ENDBRANCH   1   2
BRANCH   1   7
ATOM      7  C   UNL     1     135.544 139.723 163.286  1.00  0.00    -0.055 C 
ATOM      8  C   UNL     1     135.173 140.829 162.631  1.00  0.00     0.012 C 
BRANCH   7   9
ATOM      9  C   UNL     1     136.385 139.866 164.503  1.00  0.00    -0.005 C 
ATOM     10  C   UNL     1     136.535 138.912 165.422  1.00  0.00     0.009 C 
ENDBRANCH   7   9
ENDBRANCH   1   7
TORSDOF 4
ENDMDL
MODEL 3
REMARK VINA RESULT:    -2.953      0.895      4.732
REMARK INTER + INTRA:          -3.901
REMARK INTER:                  -3.551
REMARK INTRA:                  -0.350
REMARK UNBOUND:                -0.258
REMARK SMILES C=CC(=C)CCC=C(C)C
REMARK SMILES IDX 5 1 6 2 7 3 9 4 8 5 10 6 3 7 4 8 2 9 1 10
REMARK H PARENT
REMARK Flexibility Score: inf
ROOT
ATOM      1  C   UNL     1     134.882 138.080 163.008  1.00  0.00     0.039 C 
ENDROOT
BRANCH   1   2
ATOM      2  C   UNL     1     135.607 137.884 161.671  1.00  0.00     0.032 C 
BRANCH   2   3
ATOM      3  C   UNL     1     136.854 137.052 161.849  1.00  0.00    -0.028 C 
ATOM      4  C   UNL     1     135.660 134.875 161.512  1.00  0.00     0.039 C 
ATOM      5  C   UNL     1     136.888 135.702 161.805  1.00  0.00    -0.080 C 
ATOM      6  C   UNL     1     138.197 134.979 161.996  1.00  0.00     0.039 C 
ENDBRANCH   2   3
ENDBRANCH   1   2
BRANCH   1   7
ATOM      7  C   UNL     1     135.403 139.306 163.727  1.00  0.00    -0.055 C 
ATOM      8  C   UNL     1     136.336 139.159 164.674  1.00  0.00     0.012 C 
BRANCH   7   9
ATOM      9  C   UNL     1     134.946 140.679 163.386  1.00  0.00    -0.005 C 
ATOM     10  C   UNL     1     135.647 141.535 162.642  1.00  0.00     0.009 C 
ENDBRANCH   7   9
ENDBRANCH   1   7
TORSDOF 4
ENDMDL
MODEL 4
REMARK VINA RESULT:    -2.034      0.877      1.802
REMARK INTER + INTRA:          -2.767
REMARK INTER:                  -2.677
REMARK INTRA:                  -0.090
REMARK UNBOUND:                -0.258
REMARK SMILES C=CC(=C)CCC=C(C)C
REMARK SMILES IDX 5 1 6 2 7 3 9 4 8 5 10 6 3 7 4 8 2 9 1 10
REMARK H PARENT
REMARK Flexibility Score: inf
ROOT
ATOM      1  C   UNL     1     136.413 137.135 161.719  1.00  0.00     0.039 C 
ENDROOT
BRANCH   1   2
ATOM      2  C   UNL     1     134.969 137.619 161.894  1.00  0.00     0.032 C 
BRANCH   2   3
ATOM      3  C   UNL     1     134.916 139.117 162.066  1.00  0.00    -0.028 C 
ATOM      4  C   UNL     1     135.948 139.066 164.348  1.00  0.00     0.039 C 
ATOM      5  C   UNL     1     135.328 139.777 163.171  1.00  0.00    -0.080 C 
ATOM      6  C   UNL     1     135.227 141.280 163.227  1.00  0.00     0.039 C 
ENDBRANCH   2   3
ENDBRANCH   1   2
BRANCH   1   7
ATOM      7  C   UNL     1     136.492 135.628 161.833  1.00  0.00    -0.055 C 
ATOM      8  C   UNL     1     135.590 134.877 161.190  1.00  0.00     0.012 C 
BRANCH   7   9
ATOM      9  C   UNL     1     137.565 134.946 162.602  1.00  0.00    -0.005 C 
ATOM     10  C   UNL     1     138.837 134.875 162.206  1.00  0.00     0.009 C 
ENDBRANCH   7   9
ENDBRANCH   1   7
TORSDOF 4
ENDMDL
