MODEL 1
REMARK VINA RESULT:   133.017      0.000      0.000
REMARK INTER + INTRA:         145.023
REMARK INTER:                 144.681
REMARK INTRA:                   0.341
REMARK UNBOUND:                 0.341
REMARK SMILES CC1(C)CC[C@]2(C(=O)[O-])CC[C@]3(C)C(=CC[C@@H]4[C@@]5(C)CC[C@H](O)C(C)(C)[C@H]5CC[C@]43C)[C@H]2C1
REMARK SMILES IDX 6 1 5 2 10 3 32 4 4 5 11 6 14 7 33 8 2 9 12 10 15 11 1 12
REMARK SMILES IDX 3 13 13 14 30 15 16 16 17 17 29 18 31 19 18 20 28 21 27 22
REMARK SMILES IDX 20 23 19 24 24 25 21 26 22 27 25 28 26 29 7 30 8 31 9 32
REMARK SMILES IDX 23 33
REMARK H PARENT 23 34
REMARK Flexibility Score: inf
ROOT
ATOM      1  C   UNL     1      11.762  -9.120 -16.022  1.00  0.00     0.017 C 
ATOM      2  C   UNL     1      13.068  -8.306 -16.238  1.00  0.00     0.014 C 
ATOM      3  C   UNL     1      12.058 -10.235 -14.987  1.00  0.00     0.014 C 
ATOM      4  C   UNL     1      11.353  -9.795 -17.368  1.00  0.00     0.028 C 
ATOM      5  C   UNL     1      12.935  -7.264 -17.358  1.00  0.00     0.007 C 
ATOM      6  C   UNL     1      10.856 -11.170 -14.759  1.00  0.00     0.013 C 
ATOM      7  C   UNL     1      10.147 -10.740 -17.168  1.00  0.00    -0.064 C 
ATOM      8  C   UNL     1      11.237  -8.762 -18.526  1.00  0.00     0.015 C 
ATOM      9  C   UNL     1      12.506  -7.882 -18.713  1.00  0.00    -0.035 C 
ATOM     10  C   UNL     1      10.271 -11.832 -16.066  1.00  0.00    -0.006 C 
ATOM     11  C   UNL     1       9.069 -10.681 -18.004  1.00  0.00    -0.027 C 
ATOM     12  C   UNL     1      13.662  -8.704 -19.335  1.00  0.00     0.011 C 
ATOM     13  C   UNL     1      12.171  -6.734 -19.692  1.00  0.00     0.011 C 
ATOM     14  C   UNL     1      11.322 -12.882 -16.545  1.00  0.00     0.017 C 
ATOM     15  C   UNL     1       8.828 -12.507 -15.786  1.00  0.00    -0.020 C 
ATOM     16  C   UNL     1       7.888 -11.626 -17.986  1.00  0.00     0.032 C 
ATOM     17  C   UNL     1       8.188 -12.898 -17.178  1.00  0.00     0.006 C 
ATOM     18  C   UNL     1       8.902 -13.775 -14.855  1.00  0.00     0.008 C 
ATOM     19  C   UNL     1       7.928 -11.442 -15.051  1.00  0.00     0.012 C 
ATOM     20  C   UNL     1       7.085 -14.042 -17.141  1.00  0.00    -0.025 C 
ATOM     21  C   UNL     1       8.922 -15.134 -15.584  1.00  0.00     0.005 C 
ATOM     22  C   UNL     1       7.800 -15.387 -16.657  1.00  0.00     0.003 C 
ATOM     23  C   UNL     1       6.346 -14.216 -18.518  1.00  0.00     0.010 C 
ATOM     24  C   UNL     1       5.917 -13.703 -16.164  1.00  0.00     0.012 C 
ATOM     25  C   UNL     1       8.297 -16.424 -17.782  1.00  0.00    -0.006 C 
ATOM     26  C   UNL     1       7.094 -15.047 -19.543  1.00  0.00     0.033 C 
ATOM     27  C   UNL     1       7.318 -16.459 -18.992  1.00  0.00     0.120 C 
ATOM     28  C   UNL     1       9.731 -16.153 -18.344  1.00  0.00     0.014 C 
ATOM     29  C   UNL     1       8.347 -17.848 -17.163  1.00  0.00     0.014 C 
ENDROOT
BRANCH   1  30
ATOM     30  C   UNL     1      10.678  -8.196 -15.463  1.00  0.00     0.048 C 
ATOM     31  O   UNL     1       9.842  -7.668 -16.244  1.00  0.00    -0.550 OA
ATOM     32  O   UNL     1      10.606  -7.897 -14.106  1.00  0.00    -0.550 OA
ENDBRANCH   1  30
BRANCH  27  33
ATOM     33  O   UNL     1       6.092 -17.038 -18.620  1.00  0.00    -0.393 OA
ATOM     34  H   UNL     1       5.938 -16.806 -17.665  1.00  0.00     0.210 HD
ENDBRANCH  27  33
TORSDOF 2
ENDMDL
