MODEL 1
REMARK VINA RESULT:    -7.852      0.000      0.000
REMARK INTER + INTRA:          -9.523
REMARK INTER:                  -9.229
REMARK INTRA:                  -0.293
REMARK UNBOUND:                -0.293
REMARK SMILES O=c1cc(-c2ccc(O)c(O)c2)oc2cc(O)cc(O)c12
REMARK SMILES IDX 4 1 3 2 2 3 1 4 21 5 19 6 18 7 16 8 15 9 14 10 13 11 5 12
REMARK SMILES IDX 6 13 7 14 8 15 12 16 10 17 9 18 11 20 20 22 17 24
REMARK H PARENT 9 19 11 21 20 23 17 25
REMARK Flexibility Score: inf
ROOT
ATOM      1  C   UNL     1      52.240  60.044   4.548  1.00  0.00     0.138 A 
ATOM      2  C   UNL     1      51.099  60.676   5.068  1.00  0.00     0.100 A 
ATOM      3  C   UNL     1      51.105  61.126   6.390  1.00  0.00     0.197 A 
ATOM      4  O   UNL     1      50.076  61.694   6.848  1.00  0.00    -0.289 OA
ATOM      5  C   UNL     1      52.257  60.944   7.181  1.00  0.00     0.107 A 
ATOM      6  C   UNL     1      52.347  61.369   8.527  1.00  0.00     0.134 A 
ATOM      7  C   UNL     1      53.532  61.155   9.247  1.00  0.00     0.093 A 
ATOM      8  C   UNL     1      54.627  60.526   8.644  1.00  0.00     0.123 A 
ATOM      9  C   UNL     1      54.543  60.105   7.315  1.00  0.00     0.094 A 
ATOM     10  C   UNL     1      53.370  60.308   6.582  1.00  0.00     0.146 A 
ATOM     11  O   UNL     1      53.316  59.896   5.320  1.00  0.00    -0.456 OA
ENDROOT
BRANCH   1  12
ATOM     12  C   UNL     1      52.291  59.545   3.150  1.00  0.00     0.021 A 
ATOM     13  C   UNL     1      53.507  59.195   2.534  1.00  0.00     0.016 A 
ATOM     14  C   UNL     1      53.525  58.738   1.214  1.00  0.00     0.051 A 
ATOM     15  C   UNL     1      52.334  58.630   0.485  1.00  0.00     0.157 A 
ATOM     16  C   UNL     1      51.101  59.446   2.408  1.00  0.00     0.062 A 
ATOM     17  C   UNL     1      51.116  58.987   1.086  1.00  0.00     0.158 A 
BRANCH  15  18
ATOM     18  O   UNL     1      52.357  58.171  -0.832  1.00  0.00    -0.504 OA
ATOM     19  H   UNL     1      51.900  58.680  -1.579  1.00  0.00     0.293 HD
ENDBRANCH  15  18
BRANCH  17  20
ATOM     20  O   UNL     1      49.914  58.895   0.387  1.00  0.00    -0.504 OA
ATOM     21  H   UNL     1      49.499  59.693  -0.080  1.00  0.00     0.293 HD
ENDBRANCH  17  20
ENDBRANCH   1  12
BRANCH   6  22
ATOM     22  O   UNL     1      51.271  62.000   9.154  1.00  0.00    -0.507 OA
ATOM     23  H   UNL     1      50.648  62.620   8.649  1.00  0.00     0.293 HD
ENDBRANCH   6  22
BRANCH   8  24
ATOM     24  O   UNL     1      55.805  60.314   9.357  1.00  0.00    -0.508 OA
ATOM     25  H   UNL     1      56.500  59.646   9.045  1.00  0.00     0.293 HD
ENDBRANCH   8  24
TORSDOF 5
ENDMDL
MODEL 2
REMARK VINA RESULT:    -7.819      3.783      4.983
REMARK INTER + INTRA:          -9.484
REMARK INTER:                  -9.196
REMARK INTRA:                  -0.288
REMARK UNBOUND:                -0.293
REMARK SMILES O=c1cc(-c2ccc(O)c(O)c2)oc2cc(O)cc(O)c12
REMARK SMILES IDX 4 1 3 2 2 3 1 4 21 5 19 6 18 7 16 8 15 9 14 10 13 11 5 12
REMARK SMILES IDX 6 13 7 14 8 15 12 16 10 17 9 18 11 20 20 22 17 24
REMARK H PARENT 9 19 11 21 20 23 17 25
REMARK Flexibility Score: inf
ROOT
ATOM      1  C   UNL     1      51.354  60.659   7.071  1.00  0.00     0.138 A 
ATOM      2  C   UNL     1      52.054  61.515   7.936  1.00  0.00     0.100 A 
ATOM      3  C   UNL     1      53.323  61.149   8.388  1.00  0.00     0.197 A 
ATOM      4  O   UNL     1      53.944  61.925   9.163  1.00  0.00    -0.289 OA
ATOM      5  C   UNL     1      53.885  59.928   7.965  1.00  0.00     0.107 A 
ATOM      6  C   UNL     1      55.164  59.481   8.375  1.00  0.00     0.134 A 
ATOM      7  C   UNL     1      55.655  58.254   7.905  1.00  0.00     0.093 A 
ATOM      8  C   UNL     1      54.892  57.468   7.033  1.00  0.00     0.123 A 
ATOM      9  C   UNL     1      53.630  57.905   6.626  1.00  0.00     0.094 A 
ATOM     10  C   UNL     1      53.122  59.124   7.085  1.00  0.00     0.146 A 
ATOM     11  O   UNL     1      51.918  59.516   6.683  1.00  0.00    -0.456 OA
ENDROOT
BRANCH   1  12
ATOM     12  C   UNL     1      50.001  60.997   6.559  1.00  0.00     0.021 A 
ATOM     13  C   UNL     1      49.721  62.250   5.983  1.00  0.00     0.016 A 
ATOM     14  C   UNL     1      48.436  62.543   5.518  1.00  0.00     0.051 A 
ATOM     15  C   UNL     1      47.409  61.597   5.628  1.00  0.00     0.157 A 
ATOM     16  C   UNL     1      48.963  60.057   6.677  1.00  0.00     0.062 A 
ATOM     17  C   UNL     1      47.675  60.348   6.212  1.00  0.00     0.158 A 
BRANCH  15  18
ATOM     18  O   UNL     1      46.129  61.894   5.162  1.00  0.00    -0.504 OA
ATOM     19  H   UNL     1      45.729  62.818   5.265  1.00  0.00     0.293 HD
ENDBRANCH  15  18
BRANCH  17  20
ATOM     20  O   UNL     1      46.675  59.386   6.340  1.00  0.00    -0.504 OA
ATOM     21  H   UNL     1      46.786  58.568   6.929  1.00  0.00     0.293 HD
ENDBRANCH  17  20
ENDBRANCH   1  12
BRANCH   6  22
ATOM     22  O   UNL     1      55.947  60.244   9.242  1.00  0.00    -0.507 OA
ATOM     23  H   UNL     1      56.549  59.814   9.935  1.00  0.00     0.293 HD
ENDBRANCH   6  22
BRANCH   8  24
ATOM     24  O   UNL     1      55.380  56.249   6.565  1.00  0.00    -0.508 OA
ATOM     25  H   UNL     1      55.966  56.195   5.740  1.00  0.00     0.293 HD
ENDBRANCH   8  24
TORSDOF 5
ENDMDL
MODEL 3
REMARK VINA RESULT:    -7.761      1.612      7.232
REMARK INTER + INTRA:          -9.415
REMARK INTER:                  -9.118
REMARK INTRA:                  -0.298
REMARK UNBOUND:                -0.293
REMARK SMILES O=c1cc(-c2ccc(O)c(O)c2)oc2cc(O)cc(O)c12
REMARK SMILES IDX 4 1 3 2 2 3 1 4 21 5 19 6 18 7 16 8 15 9 14 10 13 11 5 12
REMARK SMILES IDX 6 13 7 14 8 15 12 16 10 17 9 18 11 20 20 22 17 24
REMARK H PARENT 9 19 11 21 20 23 17 25
REMARK Flexibility Score: inf
ROOT
ATOM      1  C   UNL     1      52.610  59.591   3.463  1.00  0.00     0.138 A 
ATOM      2  C   UNL     1      51.331  59.601   2.883  1.00  0.00     0.100 A 
ATOM      3  C   UNL     1      51.177  59.210   1.552  1.00  0.00     0.197 A 
ATOM      4  O   UNL     1      50.024  59.221   1.040  1.00  0.00    -0.289 OA
ATOM      5  C   UNL     1      52.305  58.806   0.811  1.00  0.00     0.107 A 
ATOM      6  C   UNL     1      52.238  58.396  -0.542  1.00  0.00     0.134 A 
ATOM      7  C   UNL     1      53.407  58.004  -1.209  1.00  0.00     0.093 A 
ATOM      8  C   UNL     1      54.641  58.013  -0.548  1.00  0.00     0.123 A 
ATOM      9  C   UNL     1      54.713  58.418   0.786  1.00  0.00     0.094 A 
ATOM     10  C   UNL     1      53.559  58.814   1.468  1.00  0.00     0.146 A 
ATOM     11  O   UNL     1      53.655  59.195   2.737  1.00  0.00    -0.456 OA
ENDROOT
BRANCH   1  12
ATOM     12  C   UNL     1      52.834  59.996   4.874  1.00  0.00     0.021 A 
ATOM     13  C   UNL     1      52.186  61.113   5.434  1.00  0.00     0.016 A 
ATOM     14  C   UNL     1      52.422  61.477   6.762  1.00  0.00     0.051 A 
ATOM     15  C   UNL     1      53.315  60.739   7.550  1.00  0.00     0.157 A 
ATOM     16  C   UNL     1      53.738  59.269   5.667  1.00  0.00     0.062 A 
ATOM     17  C   UNL     1      53.977  59.630   6.998  1.00  0.00     0.158 A 
BRANCH  15  18
ATOM     18  O   UNL     1      53.548  61.105   8.875  1.00  0.00    -0.504 OA
ATOM     19  H   UNL     1      53.364  62.045   9.206  1.00  0.00     0.293 HD
ENDBRANCH  15  18
BRANCH  17  20
ATOM     20  O   UNL     1      54.874  58.878   7.754  1.00  0.00    -0.504 OA
ATOM     21  H   UNL     1      55.394  58.103   7.359  1.00  0.00     0.293 HD
ENDBRANCH  17  20
ENDBRANCH   1  12
BRANCH   6  22
ATOM     22  O   UNL     1      51.021  58.375  -1.225  1.00  0.00    -0.507 OA
ATOM     23  H   UNL     1      50.710  57.556  -1.736  1.00  0.00     0.293 HD
ENDBRANCH   6  22
BRANCH   8  24
ATOM     24  O   UNL     1      55.804  57.622  -1.210  1.00  0.00    -0.508 OA
ATOM     25  H   UNL     1      56.478  58.303  -1.542  1.00  0.00     0.293 HD
ENDBRANCH   8  24
TORSDOF 5
ENDMDL
MODEL 4
REMARK VINA RESULT:    -7.696      1.569      2.194
REMARK INTER + INTRA:          -9.339
REMARK INTER:                  -9.046
REMARK INTRA:                  -0.293
REMARK UNBOUND:                -0.293
REMARK SMILES O=c1cc(-c2ccc(O)c(O)c2)oc2cc(O)cc(O)c12
REMARK SMILES IDX 4 1 3 2 2 3 1 4 21 5 19 6 18 7 16 8 15 9 14 10 13 11 5 12
REMARK SMILES IDX 6 13 7 14 8 15 12 16 10 17 9 18 11 20 20 22 17 24
REMARK H PARENT 9 19 11 21 20 23 17 25
REMARK Flexibility Score: inf
ROOT
ATOM      1  C   UNL     1      52.708  59.748   3.506  1.00  0.00     0.138 A 
ATOM      2  C   UNL     1      52.223  60.958   4.027  1.00  0.00     0.100 A 
ATOM      3  C   UNL     1      52.512  61.303   5.349  1.00  0.00     0.197 A 
ATOM      4  O   UNL     1      52.073  62.393   5.808  1.00  0.00    -0.289 OA
ATOM      5  C   UNL     1      53.291  60.434   6.139  1.00  0.00     0.107 A 
ATOM      6  C   UNL     1      53.630  60.706   7.485  1.00  0.00     0.134 A 
ATOM      7  C   UNL     1      54.414  59.792   8.204  1.00  0.00     0.093 A 
ATOM      8  C   UNL     1      54.866  58.613   7.600  1.00  0.00     0.123 A 
ATOM      9  C   UNL     1      54.534  58.339   6.272  1.00  0.00     0.094 A 
ATOM     10  C   UNL     1      53.752  59.238   5.539  1.00  0.00     0.146 A 
ATOM     11  O   UNL     1      53.449  58.954   4.277  1.00  0.00    -0.456 OA
ENDROOT
BRANCH   1  12
ATOM     12  C   UNL     1      52.432  59.330   2.108  1.00  0.00     0.021 A 
ATOM     13  C   UNL     1      51.142  59.415   1.552  1.00  0.00     0.016 A 
ATOM     14  C   UNL     1      50.909  59.006   0.237  1.00  0.00     0.051 A 
ATOM     15  C   UNL     1      51.956  58.498  -0.543  1.00  0.00     0.157 A 
ATOM     16  C   UNL     1      53.475  58.807   1.324  1.00  0.00     0.062 A 
ATOM     17  C   UNL     1      53.245  58.397   0.005  1.00  0.00     0.158 A 
BRANCH  15  18
ATOM     18  O   UNL     1      51.720  58.092  -1.856  1.00  0.00    -0.504 OA
ATOM     19  H   UNL     1      50.919  57.521  -2.098  1.00  0.00     0.293 HD
ENDBRANCH  15  18
BRANCH  17  20
ATOM     20  O   UNL     1      54.308  57.892  -0.742  1.00  0.00    -0.504 OA
ATOM     21  H   UNL     1      54.197  57.110  -1.376  1.00  0.00     0.293 HD
ENDBRANCH  17  20
ENDBRANCH   1  12
BRANCH   6  22
ATOM     22  O   UNL     1      53.194  61.874   8.113  1.00  0.00    -0.507 OA
ATOM     23  H   UNL     1      52.627  61.849   8.953  1.00  0.00     0.293 HD
ENDBRANCH   6  22
BRANCH   8  24
ATOM     24  O   UNL     1      55.646  57.704   8.312  1.00  0.00    -0.508 OA
ATOM     25  H   UNL     1      55.466  57.504   9.290  1.00  0.00     0.293 HD
ENDBRANCH   8  24
TORSDOF 5
ENDMDL
MODEL 5
REMARK VINA RESULT:    -7.672      1.358      7.054
REMARK INTER + INTRA:          -9.311
REMARK INTER:                  -9.017
REMARK INTRA:                  -0.293
REMARK UNBOUND:                -0.293
REMARK SMILES O=c1cc(-c2ccc(O)c(O)c2)oc2cc(O)cc(O)c12
REMARK SMILES IDX 4 1 3 2 2 3 1 4 21 5 19 6 18 7 16 8 15 9 14 10 13 11 5 12
REMARK SMILES IDX 6 13 7 14 8 15 12 16 10 17 9 18 11 20 20 22 17 24
REMARK H PARENT 9 19 11 21 20 23 17 25
REMARK Flexibility Score: inf
ROOT
ATOM      1  C   UNL     1      52.315  59.606   3.471  1.00  0.00     0.138 A 
ATOM      2  C   UNL     1      51.092  59.573   2.783  1.00  0.00     0.100 A 
ATOM      3  C   UNL     1      51.066  59.176   1.445  1.00  0.00     0.197 A 
ATOM      4  O   UNL     1      49.962  59.147   0.836  1.00  0.00    -0.289 OA
ATOM      5  C   UNL     1      52.267  58.809   0.805  1.00  0.00     0.107 A 
ATOM      6  C   UNL     1      52.330  58.396  -0.546  1.00  0.00     0.134 A 
ATOM      7  C   UNL     1      53.565  58.042  -1.109  1.00  0.00     0.093 A 
ATOM      8  C   UNL     1      54.736  58.094  -0.344  1.00  0.00     0.123 A 
ATOM      9  C   UNL     1      54.680  58.502   0.989  1.00  0.00     0.094 A 
ATOM     10  C   UNL     1      53.458  58.859   1.568  1.00  0.00     0.146 A 
ATOM     11  O   UNL     1      53.431  59.245   2.839  1.00  0.00    -0.456 OA
ENDROOT
BRANCH   1  12
ATOM     12  C   UNL     1      52.403  60.020   4.894  1.00  0.00     0.021 A 
ATOM     13  C   UNL     1      53.559  59.786   5.662  1.00  0.00     0.016 A 
ATOM     14  C   UNL     1      53.610  60.178   7.002  1.00  0.00     0.051 A 
ATOM     15  C   UNL     1      52.507  60.802   7.600  1.00  0.00     0.157 A 
ATOM     16  C   UNL     1      51.296  60.635   5.505  1.00  0.00     0.062 A 
ATOM     17  C   UNL     1      51.344  61.030   6.847  1.00  0.00     0.158 A 
BRANCH  15  18
ATOM     18  O   UNL     1      52.563  61.193   8.938  1.00  0.00    -0.504 OA
ATOM     19  H   UNL     1      53.325  61.756   9.294  1.00  0.00     0.293 HD
ENDBRANCH  15  18
BRANCH  17  20
ATOM     20  O   UNL     1      50.229  61.645   7.413  1.00  0.00    -0.504 OA
ATOM     21  H   UNL     1      49.894  61.406   8.339  1.00  0.00     0.293 HD
ENDBRANCH  17  20
ENDBRANCH   1  12
BRANCH   6  22
ATOM     22  O   UNL     1      51.178  58.333  -1.332  1.00  0.00    -0.507 OA
ATOM     23  H   UNL     1      51.132  57.759  -2.167  1.00  0.00     0.293 HD
ENDBRANCH   6  22
BRANCH   8  24
ATOM     24  O   UNL     1      55.964  57.742  -0.902  1.00  0.00    -0.508 OA
ATOM     25  H   UNL     1      56.467  56.917  -0.598  1.00  0.00     0.293 HD
ENDBRANCH   8  24
TORSDOF 5
ENDMDL
MODEL 6
REMARK VINA RESULT:    -7.544      3.951      5.481
REMARK INTER + INTRA:          -9.161
REMARK INTER:                  -8.845
REMARK INTRA:                  -0.316
REMARK UNBOUND:                -0.293
REMARK SMILES O=c1cc(-c2ccc(O)c(O)c2)oc2cc(O)cc(O)c12
REMARK SMILES IDX 4 1 3 2 2 3 1 4 21 5 19 6 18 7 16 8 15 9 14 10 13 11 5 12
REMARK SMILES IDX 6 13 7 14 8 15 12 16 10 17 9 18 11 20 20 22 17 24
REMARK H PARENT 9 19 11 21 20 23 17 25
REMARK Flexibility Score: inf
ROOT
ATOM      1  C   UNL     1      48.923  61.915   5.921  1.00  0.00     0.138 A 
ATOM      2  C   UNL     1      48.288  60.858   6.594  1.00  0.00     0.100 A 
ATOM      3  C   UNL     1      49.058  59.921   7.284  1.00  0.00     0.197 A 
ATOM      4  O   UNL     1      48.478  58.976   7.886  1.00  0.00    -0.289 OA
ATOM      5  C   UNL     1      50.461  60.051   7.300  1.00  0.00     0.107 A 
ATOM      6  C   UNL     1      51.315  59.146   7.974  1.00  0.00     0.134 A 
ATOM      7  C   UNL     1      52.703  59.347   7.946  1.00  0.00     0.093 A 
ATOM      8  C   UNL     1      53.250  60.437   7.259  1.00  0.00     0.123 A 
ATOM      9  C   UNL     1      52.412  61.332   6.592  1.00  0.00     0.094 A 
ATOM     10  C   UNL     1      51.026  61.147   6.607  1.00  0.00     0.146 A 
ATOM     11  O   UNL     1      50.251  62.013   5.964  1.00  0.00    -0.456 OA
ENDROOT
BRANCH   1  12
ATOM     12  C   UNL     1      48.155  62.941   5.171  1.00  0.00     0.021 A 
ATOM     13  C   UNL     1      46.758  63.060   5.301  1.00  0.00     0.016 A 
ATOM     14  C   UNL     1      46.060  64.029   4.575  1.00  0.00     0.051 A 
ATOM     15  C   UNL     1      46.741  64.888   3.704  1.00  0.00     0.157 A 
ATOM     16  C   UNL     1      48.829  63.799   4.285  1.00  0.00     0.062 A 
ATOM     17  C   UNL     1      48.133  64.771   3.558  1.00  0.00     0.158 A 
BRANCH  15  18
ATOM     18  O   UNL     1      46.040  65.855   2.982  1.00  0.00    -0.504 OA
ATOM     19  H   UNL     1      46.232  66.028   2.003  1.00  0.00     0.293 HD
ENDBRANCH  15  18
BRANCH  17  20
ATOM     20  O   UNL     1      48.839  65.608   2.696  1.00  0.00    -0.504 OA
ATOM     21  H   UNL     1      49.158  65.298   1.785  1.00  0.00     0.293 HD
ENDBRANCH  17  20
ENDBRANCH   1  12
BRANCH   6  22
ATOM     22  O   UNL     1      50.797  58.052   8.668  1.00  0.00    -0.507 OA
ATOM     23  H   UNL     1      49.926  58.111   9.184  1.00  0.00     0.293 HD
ENDBRANCH   6  22
BRANCH   8  24
ATOM     24  O   UNL     1      54.629  60.638   7.232  1.00  0.00    -0.508 OA
ATOM     25  H   UNL     1      55.050  61.476   7.617  1.00  0.00     0.293 HD
ENDBRANCH   8  24
TORSDOF 5
ENDMDL
MODEL 7
REMARK VINA RESULT:    -7.535      2.113      4.007
REMARK INTER + INTRA:          -9.150
REMARK INTER:                  -8.859
REMARK INTRA:                  -0.291
REMARK UNBOUND:                -0.293
REMARK SMILES O=c1cc(-c2ccc(O)c(O)c2)oc2cc(O)cc(O)c12
REMARK SMILES IDX 4 1 3 2 2 3 1 4 21 5 19 6 18 7 16 8 15 9 14 10 13 11 5 12
REMARK SMILES IDX 6 13 7 14 8 15 12 16 10 17 9 18 11 20 20 22 17 24
REMARK H PARENT 9 19 11 21 20 23 17 25
REMARK Flexibility Score: inf
ROOT
ATOM      1  C   UNL     1      51.648  59.747   2.152  1.00  0.00     0.138 A 
ATOM      2  C   UNL     1      52.723  59.304   2.939  1.00  0.00     0.100 A 
ATOM      3  C   UNL     1      52.751  59.611   4.300  1.00  0.00     0.197 A 
ATOM      4  O   UNL     1      53.720  59.207   4.999  1.00  0.00    -0.289 OA
ATOM      5  C   UNL     1      51.698  60.357   4.866  1.00  0.00     0.107 A 
ATOM      6  C   UNL     1      51.648  60.711   6.235  1.00  0.00     0.134 A 
ATOM      7  C   UNL     1      50.562  61.453   6.723  1.00  0.00     0.093 A 
ATOM      8  C   UNL     1      49.525  61.843   5.867  1.00  0.00     0.123 A 
ATOM      9  C   UNL     1      49.570  61.496   4.516  1.00  0.00     0.094 A 
ATOM     10  C   UNL     1      50.645  60.759   4.010  1.00  0.00     0.146 A 
ATOM     11  O   UNL     1      50.664  60.443   2.720  1.00  0.00    -0.456 OA
ENDROOT
BRANCH   1  12
ATOM     12  C   UNL     1      51.565  59.450   0.699  1.00  0.00     0.021 A 
ATOM     13  C   UNL     1      50.742  60.199  -0.163  1.00  0.00     0.016 A 
ATOM     14  C   UNL     1      50.677  59.891  -1.524  1.00  0.00     0.051 A 
ATOM     15  C   UNL     1      51.424  58.827  -2.046  1.00  0.00     0.157 A 
ATOM     16  C   UNL     1      52.301  58.376   0.170  1.00  0.00     0.062 A 
ATOM     17  C   UNL     1      52.239  58.065  -1.193  1.00  0.00     0.158 A 
BRANCH  15  18
ATOM     18  O   UNL     1      51.357  58.524  -3.406  1.00  0.00    -0.504 OA
ATOM     19  H   UNL     1      51.139  59.231  -4.096  1.00  0.00     0.293 HD
ENDBRANCH  15  18
BRANCH  17  20
ATOM     20  O   UNL     1      52.991  56.998  -1.680  1.00  0.00    -0.504 OA
ATOM     21  H   UNL     1      52.682  56.037  -1.593  1.00  0.00     0.293 HD
ENDBRANCH  17  20
ENDBRANCH   1  12
BRANCH   6  22
ATOM     22  O   UNL     1      52.667  60.334   7.112  1.00  0.00    -0.507 OA
ATOM     23  H   UNL     1      52.589  59.510   7.696  1.00  0.00     0.293 HD
ENDBRANCH   6  22
BRANCH   8  24
ATOM     24  O   UNL     1      48.445  62.579   6.351  1.00  0.00    -0.508 OA
ATOM     25  H   UNL     1      47.886  63.163   5.740  1.00  0.00     0.293 HD
ENDBRANCH   8  24
TORSDOF 5
ENDMDL
MODEL 8
REMARK VINA RESULT:    -7.526      3.129      5.090
REMARK INTER + INTRA:          -9.139
REMARK INTER:                  -8.876
REMARK INTRA:                  -0.263
REMARK UNBOUND:                -0.293
REMARK SMILES O=c1cc(-c2ccc(O)c(O)c2)oc2cc(O)cc(O)c12
REMARK SMILES IDX 4 1 3 2 2 3 1 4 21 5 19 6 18 7 16 8 15 9 14 10 13 11 5 12
REMARK SMILES IDX 6 13 7 14 8 15 12 16 10 17 9 18 11 20 20 22 17 24
REMARK H PARENT 9 19 11 21 20 23 17 25
REMARK Flexibility Score: inf
ROOT
ATOM      1  C   UNL     1      49.879  61.471   5.531  1.00  0.00     0.138 A 
ATOM      2  C   UNL     1      50.726  60.769   4.658  1.00  0.00     0.100 A 
ATOM      3  C   UNL     1      51.965  60.317   5.117  1.00  0.00     0.197 A 
ATOM      4  O   UNL     1      52.717  59.686   4.326  1.00  0.00    -0.289 OA
ATOM      5  C   UNL     1      52.345  60.568   6.450  1.00  0.00     0.107 A 
ATOM      6  C   UNL     1      53.581  60.146   6.995  1.00  0.00     0.134 A 
ATOM      7  C   UNL     1      53.885  60.432   8.334  1.00  0.00     0.093 A 
ATOM      8  C   UNL     1      52.974  61.129   9.138  1.00  0.00     0.123 A 
ATOM      9  C   UNL     1      51.754  61.547   8.605  1.00  0.00     0.094 A 
ATOM     10  C   UNL     1      51.434  61.273   7.271  1.00  0.00     0.146 A 
ATOM     11  O   UNL     1      50.266  61.684   6.788  1.00  0.00    -0.456 OA
ENDROOT
BRANCH   1  12
ATOM     12  C   UNL     1      48.551  61.975   5.098  1.00  0.00     0.021 A 
ATOM     13  C   UNL     1      48.335  63.335   4.808  1.00  0.00     0.016 A 
ATOM     14  C   UNL     1      47.072  63.783   4.412  1.00  0.00     0.051 A 
ATOM     15  C   UNL     1      46.003  62.884   4.307  1.00  0.00     0.157 A 
ATOM     16  C   UNL     1      47.470  61.081   5.003  1.00  0.00     0.062 A 
ATOM     17  C   UNL     1      46.204  61.526   4.605  1.00  0.00     0.158 A 
BRANCH  15  18
ATOM     18  O   UNL     1      44.745  63.334   3.910  1.00  0.00    -0.504 OA
ATOM     19  H   UNL     1      44.626  64.216   3.427  1.00  0.00     0.293 HD
ENDBRANCH  15  18
BRANCH  17  20
ATOM     20  O   UNL     1      45.161  60.607   4.515  1.00  0.00    -0.504 OA
ATOM     21  H   UNL     1      44.238  60.870   4.189  1.00  0.00     0.293 HD
ENDBRANCH  17  20
ENDBRANCH   1  12
BRANCH   6  22
ATOM     22  O   UNL     1      54.508  59.449   6.218  1.00  0.00    -0.507 OA
ATOM     23  H   UNL     1      55.199  59.929   5.653  1.00  0.00     0.293 HD
ENDBRANCH   6  22
BRANCH   8  24
ATOM     24  O   UNL     1      53.274  61.412  10.469  1.00  0.00    -0.508 OA
ATOM     25  H   UNL     1      52.980  60.798  11.220  1.00  0.00     0.293 HD
ENDBRANCH   8  24
TORSDOF 5
ENDMDL
MODEL 9
REMARK VINA RESULT:    -7.370      3.145      7.219
REMARK INTER + INTRA:          -8.956
REMARK INTER:                  -8.637
REMARK INTRA:                  -0.318
REMARK UNBOUND:                -0.293
REMARK SMILES O=c1cc(-c2ccc(O)c(O)c2)oc2cc(O)cc(O)c12
REMARK SMILES IDX 4 1 3 2 2 3 1 4 21 5 19 6 18 7 16 8 15 9 14 10 13 11 5 12
REMARK SMILES IDX 6 13 7 14 8 15 12 16 10 17 9 18 11 20 20 22 17 24
REMARK H PARENT 9 19 11 21 20 23 17 25
REMARK Flexibility Score: inf
ROOT
ATOM      1  C   UNL     1      50.536  60.507   2.089  1.00  0.00     0.138 A 
ATOM      2  C   UNL     1      50.003  60.506   0.789  1.00  0.00     0.100 A 
ATOM      3  C   UNL     1      50.750  59.969  -0.260  1.00  0.00     0.197 A 
ATOM      4  O   UNL     1      50.262  59.971  -1.423  1.00  0.00    -0.289 OA
ATOM      5  C   UNL     1      52.027  59.432   0.000  1.00  0.00     0.107 A 
ATOM      6  C   UNL     1      52.849  58.869  -1.004  1.00  0.00     0.134 A 
ATOM      7  C   UNL     1      54.107  58.350  -0.663  1.00  0.00     0.093 A 
ATOM      8  C   UNL     1      54.555  58.382   0.662  1.00  0.00     0.123 A 
ATOM      9  C   UNL     1      53.747  58.936   1.657  1.00  0.00     0.094 A 
ATOM     10  C   UNL     1      52.491  59.460   1.337  1.00  0.00     0.146 A 
ATOM     11  O   UNL     1      51.742  59.983   2.301  1.00  0.00    -0.456 OA
ENDROOT
BRANCH   1  12
ATOM     12  C   UNL     1      49.786  61.065   3.243  1.00  0.00     0.021 A 
ATOM     13  C   UNL     1      48.464  61.528   3.111  1.00  0.00     0.016 A 
ATOM     14  C   UNL     1      47.786  62.056   4.213  1.00  0.00     0.051 A 
ATOM     15  C   UNL     1      48.417  62.140   5.460  1.00  0.00     0.157 A 
ATOM     16  C   UNL     1      50.418  61.163   4.495  1.00  0.00     0.062 A 
ATOM     17  C   UNL     1      49.741  61.691   5.601  1.00  0.00     0.158 A 
BRANCH  15  18
ATOM     18  O   UNL     1      47.737  62.667   6.557  1.00  0.00    -0.504 OA
ATOM     19  H   UNL     1      47.603  62.130   7.405  1.00  0.00     0.293 HD
ENDBRANCH  15  18
BRANCH  17  20
ATOM     20  O   UNL     1      50.399  61.763   6.827  1.00  0.00    -0.504 OA
ATOM     21  H   UNL     1      51.331  62.151   6.916  1.00  0.00     0.293 HD
ENDBRANCH  17  20
ENDBRANCH   1  12
BRANCH   6  22
ATOM     22  O   UNL     1      52.428  58.822  -2.334  1.00  0.00    -0.507 OA
ATOM     23  H   UNL     1      51.456  58.949  -2.591  1.00  0.00     0.293 HD
ENDBRANCH   6  22
BRANCH   8  24
ATOM     24  O   UNL     1      55.804  57.865   1.002  1.00  0.00    -0.508 OA
ATOM     25  H   UNL     1      56.303  57.236   0.384  1.00  0.00     0.293 HD
ENDBRANCH   8  24
TORSDOF 5
ENDMDL
