MODEL 1
REMARK VINA RESULT:    -1.899      0.000      0.000
REMARK INTER + INTRA:          -7.138
REMARK INTER:                  -5.008
REMARK INTRA:                  -2.130
REMARK UNBOUND:                -2.130
REMARK SMILES CCCCCCCCCCCCCCCCCCCCCCCCCCCCCC(=O)[O-]
REMARK SMILES IDX 16 1 17 2 18 3 19 4 20 5 21 6 22 7 23 8 24 9 25 10 26 11
REMARK SMILES IDX 27 12 28 13 29 14 30 15 31 16 32 17 15 18 14 19 13 20 12 21
REMARK SMILES IDX 11 22 10 23 9 24 8 25 7 26 6 27 5 28 4 29 3 30 2 31 1 32
REMARK H PARENT
REMARK Flexibility Score: inf
ROOT
ATOM      1  C   UNL     1     -19.080  47.215  -5.603  1.00  0.00     0.000 C 
ENDROOT
BRANCH   1   2
ATOM      2  C   UNL     1     -18.967  47.234  -7.138  1.00  0.00     0.000 C 
BRANCH   2   3
ATOM      3  C   UNL     1     -17.845  48.154  -7.651  1.00  0.00     0.000 C 
BRANCH   3   4
ATOM      4  C   UNL     1     -17.214  47.635  -8.953  1.00  0.00     0.000 C 
BRANCH   4   5
ATOM      5  C   UNL     1     -18.296  47.209  -9.955  1.00  0.00     0.000 C 
BRANCH   5   6
ATOM      6  C   UNL     1     -17.919  45.921 -10.706  1.00  0.00     0.000 C 
BRANCH   6   7
ATOM      7  C   UNL     1     -16.439  45.901 -11.125  1.00  0.00     0.000 C 
BRANCH   7   8
ATOM      8  C   UNL     1     -15.585  44.994 -10.215  1.00  0.00     0.000 C 
BRANCH   8   9
ATOM      9  C   UNL     1     -14.652  45.762  -9.263  1.00  0.00     0.000 C 
BRANCH   9  10
ATOM     10  C   UNL     1     -13.876  46.888  -9.965  1.00  0.00     0.000 C 
BRANCH  10  11
ATOM     11  C   UNL     1     -14.762  47.773 -10.859  1.00  0.00     0.000 C 
BRANCH  11  12
ATOM     12  C   UNL     1     -14.236  49.200 -11.112  1.00  0.00     0.000 C 
BRANCH  12  13
ATOM     13  C   UNL     1     -15.093  50.342 -10.531  1.00  0.00     0.006 C 
BRANCH  13  14
ATOM     14  C   UNL     1     -14.498  50.995  -9.269  1.00  0.00     0.053 C 
BRANCH  14  15
ATOM     15  C   UNL     1     -14.337  52.478  -9.407  1.00  0.00     0.041 C 
ATOM     16  O   UNL     1     -14.273  53.006 -10.549  1.00  0.00    -0.550 OA
ATOM     17  O   UNL     1     -14.301  53.283  -8.275  1.00  0.00    -0.550 OA
ENDBRANCH  14  15
ENDBRANCH  13  14
ENDBRANCH  12  13
ENDBRANCH  11  12
ENDBRANCH  10  11
ENDBRANCH   9  10
ENDBRANCH   8   9
ENDBRANCH   7   8
ENDBRANCH   6   7
ENDBRANCH   5   6
ENDBRANCH   4   5
ENDBRANCH   3   4
ENDBRANCH   2   3
ENDBRANCH   1   2
BRANCH   1  18
ATOM     18  C   UNL     1     -18.019  48.104  -4.915  1.00  0.00     0.000 C 
BRANCH  18  19
ATOM     19  C   UNL     1     -16.882  47.287  -4.281  1.00  0.00     0.000 C 
BRANCH  19  20
ATOM     20  C   UNL     1     -15.946  46.694  -5.346  1.00  0.00     0.000 C 
BRANCH  20  21
ATOM     21  C   UNL     1     -16.037  45.163  -5.444  1.00  0.00     0.000 C 
BRANCH  21  22
ATOM     22  C   UNL     1     -16.948  44.674  -6.592  1.00  0.00     0.000 C 
BRANCH  22  23
ATOM     23  C   UNL     1     -16.354  43.446  -7.308  1.00  0.00     0.000 C 
BRANCH  23  24
ATOM     24  C   UNL     1     -17.388  42.332  -7.571  1.00  0.00    -0.000 C 
BRANCH  24  25
ATOM     25  C   UNL     1     -17.543  41.942  -9.056  1.00  0.00    -0.000 C 
BRANCH  25  26
ATOM     26  C   UNL     1     -18.565  42.769  -9.855  1.00  0.00    -0.000 C 
BRANCH  26  27
ATOM     27  C   UNL     1     -19.943  42.093  -9.940  1.00  0.00    -0.000 C 
BRANCH  27  28
ATOM     28  C   UNL     1     -21.040  42.985  -9.342  1.00  0.00    -0.000 C 
BRANCH  28  29
ATOM     29  C   UNL     1     -20.447  44.303  -8.829  1.00  0.00    -0.000 C 
BRANCH  29  30
ATOM     30  C   UNL     1     -21.019  44.671  -7.450  1.00  0.00    -0.000 C 
BRANCH  30  31
ATOM     31  C   UNL     1     -20.142  44.160  -6.297  1.00  0.00    -0.003 C 
ATOM     32  C   UNL     1     -20.950  43.794  -5.052  1.00  0.00     0.004 C 
ENDBRANCH  30  31
ENDBRANCH  29  30
ENDBRANCH  28  29
ENDBRANCH  27  28
ENDBRANCH  26  27
ENDBRANCH  25  26
ENDBRANCH  24  25
ENDBRANCH  23  24
ENDBRANCH  22  23
ENDBRANCH  21  22
ENDBRANCH  20  21
ENDBRANCH  19  20
ENDBRANCH  18  19
ENDBRANCH   1  18
TORSDOF 28
ENDMDL
MODEL 2
REMARK VINA RESULT:    -1.785      2.524      4.595
REMARK INTER + INTRA:          -6.838
REMARK INTER:                  -3.705
REMARK INTRA:                  -3.133
REMARK UNBOUND:                -2.130
REMARK SMILES CCCCCCCCCCCCCCCCCCCCCCCCCCCCCC(=O)[O-]
REMARK SMILES IDX 16 1 17 2 18 3 19 4 20 5 21 6 22 7 23 8 24 9 25 10 26 11
REMARK SMILES IDX 27 12 28 13 29 14 30 15 31 16 32 17 15 18 14 19 13 20 12 21
REMARK SMILES IDX 11 22 10 23 9 24 8 25 7 26 6 27 5 28 4 29 3 30 2 31 1 32
REMARK H PARENT
REMARK Flexibility Score: inf
ROOT
ATOM      1  C   UNL     1     -22.239  45.623  -8.327  1.00  0.00     0.000 C 
ENDROOT
BRANCH   1   2
ATOM      2  C   UNL     1     -20.783  45.720  -7.837  1.00  0.00     0.000 C 
BRANCH   2   3
ATOM      3  C   UNL     1     -20.340  47.163  -7.533  1.00  0.00     0.000 C 
BRANCH   3   4
ATOM      4  C   UNL     1     -19.006  47.215  -6.772  1.00  0.00     0.000 C 
BRANCH   4   5
ATOM      5  C   UNL     1     -17.826  46.940  -7.713  1.00  0.00     0.000 C 
BRANCH   5   6
ATOM      6  C   UNL     1     -17.852  47.843  -8.957  1.00  0.00     0.000 C 
BRANCH   6   7
ATOM      7  C   UNL     1     -17.255  47.149 -10.195  1.00  0.00     0.000 C 
BRANCH   7   8
ATOM      8  C   UNL     1     -16.376  45.937  -9.820  1.00  0.00     0.000 C 
BRANCH   8   9
ATOM      9  C   UNL     1     -15.112  45.790 -10.683  1.00  0.00     0.000 C 
BRANCH   9  10
ATOM     10  C   UNL     1     -13.878  46.460 -10.057  1.00  0.00     0.000 C 
BRANCH  10  11
ATOM     11  C   UNL     1     -14.129  47.916  -9.624  1.00  0.00     0.000 C 
BRANCH  11  12
ATOM     12  C   UNL     1     -14.290  48.139  -8.107  1.00  0.00     0.000 C 
BRANCH  12  13
ATOM     13  C   UNL     1     -13.878  46.955  -7.209  1.00  0.00     0.006 C 
BRANCH  13  14
ATOM     14  C   UNL     1     -15.066  46.148  -6.652  1.00  0.00     0.053 C 
BRANCH  14  15
ATOM     15  C   UNL     1     -15.282  46.374  -5.188  1.00  0.00     0.041 C 
ATOM     16  O   UNL     1     -16.042  47.297  -4.792  1.00  0.00    -0.550 OA
ATOM     17  O   UNL     1     -14.676  45.539  -4.257  1.00  0.00    -0.550 OA
ENDBRANCH  14  15
ENDBRANCH  13  14
ENDBRANCH  12  13
ENDBRANCH  11  12
ENDBRANCH  10  11
ENDBRANCH   9  10
ENDBRANCH   8   9
ENDBRANCH   7   8
ENDBRANCH   6   7
ENDBRANCH   5   6
ENDBRANCH   4   5
ENDBRANCH   3   4
ENDBRANCH   2   3
ENDBRANCH   1   2
BRANCH   1  18
ATOM     18  C   UNL     1     -22.531  46.563  -9.519  1.00  0.00     0.000 C 
BRANCH  18  19
ATOM     19  C   UNL     1     -22.054  45.985 -10.861  1.00  0.00     0.000 C 
BRANCH  19  20
ATOM     20  C   UNL     1     -20.529  46.094 -11.017  1.00  0.00     0.000 C 
BRANCH  20  21
ATOM     21  C   UNL     1     -19.834  44.728 -11.125  1.00  0.00     0.000 C 
BRANCH  21  22
ATOM     22  C   UNL     1     -20.616  43.585 -10.440  1.00  0.00     0.000 C 
BRANCH  22  23
ATOM     23  C   UNL     1     -19.808  42.274 -10.417  1.00  0.00     0.000 C 
BRANCH  23  24
ATOM     24  C   UNL     1     -18.838  42.174  -9.222  1.00  0.00    -0.000 C 
BRANCH  24  25
ATOM     25  C   UNL     1     -17.437  42.762  -9.486  1.00  0.00    -0.000 C 
BRANCH  25  26
ATOM     26  C   UNL     1     -16.651  43.192  -8.234  1.00  0.00    -0.000 C 
BRANCH  26  27
ATOM     27  C   UNL     1     -17.361  42.809  -6.925  1.00  0.00    -0.000 C 
BRANCH  27  28
ATOM     28  C   UNL     1     -18.190  43.979  -6.378  1.00  0.00    -0.000 C 
BRANCH  28  29
ATOM     29  C   UNL     1     -19.021  43.536  -5.168  1.00  0.00    -0.000 C 
BRANCH  29  30
ATOM     30  C   UNL     1     -20.395  44.225  -5.153  1.00  0.00    -0.000 C 
BRANCH  30  31
ATOM     31  C   UNL     1     -21.457  43.395  -4.413  1.00  0.00    -0.003 C 
ATOM     32  C   UNL     1     -20.856  42.466  -3.358  1.00  0.00     0.004 C 
ENDBRANCH  30  31
ENDBRANCH  29  30
ENDBRANCH  28  29
ENDBRANCH  27  28
ENDBRANCH  26  27
ENDBRANCH  25  26
ENDBRANCH  24  25
ENDBRANCH  23  24
ENDBRANCH  22  23
ENDBRANCH  21  22
ENDBRANCH  20  21
ENDBRANCH  19  20
ENDBRANCH  18  19
ENDBRANCH   1  18
TORSDOF 28
ENDMDL
MODEL 3
REMARK VINA RESULT:    -1.708      1.331      4.121
REMARK INTER + INTRA:          -6.635
REMARK INTER:                  -3.559
REMARK INTRA:                  -3.076
REMARK UNBOUND:                -2.130
REMARK SMILES CCCCCCCCCCCCCCCCCCCCCCCCCCCCCC(=O)[O-]
REMARK SMILES IDX 16 1 17 2 18 3 19 4 20 5 21 6 22 7 23 8 24 9 25 10 26 11
REMARK SMILES IDX 27 12 28 13 29 14 30 15 31 16 32 17 15 18 14 19 13 20 12 21
REMARK SMILES IDX 11 22 10 23 9 24 8 25 7 26 6 27 5 28 4 29 3 30 2 31 1 32
REMARK H PARENT
REMARK Flexibility Score: inf
ROOT
ATOM      1  C   UNL     1     -21.631  45.623  -8.263  1.00  0.00     0.000 C 
ENDROOT
BRANCH   1   2
ATOM      2  C   UNL     1     -20.167  45.961  -7.925  1.00  0.00     0.000 C 
BRANCH   2   3
ATOM      3  C   UNL     1     -19.991  47.374  -7.342  1.00  0.00     0.000 C 
BRANCH   3   4
ATOM      4  C   UNL     1     -18.655  47.538  -6.601  1.00  0.00     0.000 C 
BRANCH   4   5
ATOM      5  C   UNL     1     -17.472  47.436  -7.574  1.00  0.00     0.000 C 
BRANCH   5   6
ATOM      6  C   UNL     1     -17.522  48.518  -8.665  1.00  0.00     0.000 C 
BRANCH   6   7
ATOM      7  C   UNL     1     -17.281  47.942 -10.072  1.00  0.00     0.000 C 
BRANCH   7   8
ATOM      8  C   UNL     1     -17.005  46.424 -10.043  1.00  0.00     0.000 C 
BRANCH   8   9
ATOM      9  C   UNL     1     -16.023  45.946 -11.125  1.00  0.00     0.000 C 
BRANCH   9  10
ATOM     10  C   UNL     1     -14.551  46.164 -10.736  1.00  0.00     0.000 C 
BRANCH  10  11
ATOM     11  C   UNL     1     -14.017  47.554 -11.124  1.00  0.00     0.000 C 
BRANCH  11  12
ATOM     12  C   UNL     1     -13.875  48.559  -9.964  1.00  0.00     0.000 C 
BRANCH  12  13
ATOM     13  C   UNL     1     -14.308  50.006 -10.275  1.00  0.00     0.006 C 
BRANCH  13  14
ATOM     14  C   UNL     1     -14.383  50.917  -9.035  1.00  0.00     0.053 C 
BRANCH  14  15
ATOM     15  C   UNL     1     -14.239  52.369  -9.377  1.00  0.00     0.041 C 
ATOM     16  O   UNL     1     -14.258  52.743 -10.580  1.00  0.00    -0.550 OA
ATOM     17  O   UNL     1     -14.125  53.315  -8.366  1.00  0.00    -0.550 OA
ENDBRANCH  14  15
ENDBRANCH  13  14
ENDBRANCH  12  13
ENDBRANCH  11  12
ENDBRANCH  10  11
ENDBRANCH   9  10
ENDBRANCH   8   9
ENDBRANCH   7   8
ENDBRANCH   6   7
ENDBRANCH   5   6
ENDBRANCH   4   5
ENDBRANCH   3   4
ENDBRANCH   2   3
ENDBRANCH   1   2
BRANCH   1  18
ATOM     18  C   UNL     1     -22.149  46.388  -9.502  1.00  0.00     0.000 C 
BRANCH  18  19
ATOM     19  C   UNL     1     -21.552  45.860 -10.817  1.00  0.00     0.000 C 
BRANCH  19  20
ATOM     20  C   UNL     1     -20.144  45.279 -10.610  1.00  0.00     0.000 C 
BRANCH  20  21
ATOM     21  C   UNL     1     -20.005  43.837 -11.121  1.00  0.00     0.000 C 
BRANCH  21  22
ATOM     22  C   UNL     1     -20.652  42.789 -10.187  1.00  0.00     0.000 C 
BRANCH  22  23
ATOM     23  C   UNL     1     -19.669  41.659  -9.831  1.00  0.00     0.000 C 
BRANCH  23  24
ATOM     24  C   UNL     1     -18.536  42.108  -8.885  1.00  0.00    -0.000 C 
BRANCH  24  25
ATOM     25  C   UNL     1     -17.389  42.870  -9.579  1.00  0.00    -0.000 C 
BRANCH  25  26
ATOM     26  C   UNL     1     -16.144  43.128  -8.711  1.00  0.00    -0.000 C 
BRANCH  26  27
ATOM     27  C   UNL     1     -16.460  43.153  -7.207  1.00  0.00    -0.000 C 
BRANCH  27  28
ATOM     28  C   UNL     1     -17.180  44.450  -6.810  1.00  0.00    -0.000 C 
BRANCH  28  29
ATOM     29  C   UNL     1     -16.699  44.940  -5.439  1.00  0.00    -0.000 C 
BRANCH  29  30
ATOM     30  C   UNL     1     -15.192  45.242  -5.453  1.00  0.00    -0.000 C 
BRANCH  30  31
ATOM     31  C   UNL     1     -14.899  46.751  -5.470  1.00  0.00    -0.003 C 
ATOM     32  C   UNL     1     -13.975  47.164  -6.616  1.00  0.00     0.004 C 
ENDBRANCH  30  31
ENDBRANCH  29  30
ENDBRANCH  28  29
ENDBRANCH  27  28
ENDBRANCH  26  27
ENDBRANCH  25  26
ENDBRANCH  24  25
ENDBRANCH  23  24
ENDBRANCH  22  23
ENDBRANCH  21  22
ENDBRANCH  20  21
ENDBRANCH  19  20
ENDBRANCH  18  19
ENDBRANCH   1  18
TORSDOF 28
ENDMDL
MODEL 4
REMARK VINA RESULT:    -1.645      1.404      4.064
REMARK INTER + INTRA:          -6.468
REMARK INTER:                  -3.548
REMARK INTRA:                  -2.920
REMARK UNBOUND:                -2.130
REMARK SMILES CCCCCCCCCCCCCCCCCCCCCCCCCCCCCC(=O)[O-]
REMARK SMILES IDX 16 1 17 2 18 3 19 4 20 5 21 6 22 7 23 8 24 9 25 10 26 11
REMARK SMILES IDX 27 12 28 13 29 14 30 15 31 16 32 17 15 18 14 19 13 20 12 21
REMARK SMILES IDX 11 22 10 23 9 24 8 25 7 26 6 27 5 28 4 29 3 30 2 31 1 32
REMARK H PARENT
REMARK Flexibility Score: inf
ROOT
ATOM      1  C   UNL     1     -19.968  44.632  -5.494  1.00  0.00     0.000 C 
ENDROOT
BRANCH   1   2
ATOM      2  C   UNL     1     -20.693  44.682  -6.851  1.00  0.00     0.000 C 
BRANCH   2   3
ATOM      3  C   UNL     1     -20.052  45.669  -7.843  1.00  0.00     0.000 C 
BRANCH   3   4
ATOM      4  C   UNL     1     -20.787  45.698  -9.193  1.00  0.00     0.000 C 
BRANCH   4   5
ATOM      5  C   UNL     1     -19.973  44.976 -10.276  1.00  0.00     0.000 C 
BRANCH   5   6
ATOM      6  C   UNL     1     -18.461  45.208 -10.118  1.00  0.00     0.000 C 
BRANCH   6   7
ATOM      7  C   UNL     1     -17.924  46.258 -11.107  1.00  0.00     0.000 C 
BRANCH   7   8
ATOM      8  C   UNL     1     -18.332  47.693 -10.714  1.00  0.00     0.000 C 
BRANCH   8   9
ATOM      9  C   UNL     1     -17.292  48.764 -11.089  1.00  0.00     0.000 C 
BRANCH   9  10
ATOM     10  C   UNL     1     -15.881  48.434 -10.576  1.00  0.00     0.000 C 
BRANCH  10  11
ATOM     11  C   UNL     1     -14.797  49.379 -11.123  1.00  0.00     0.000 C 
BRANCH  11  12
ATOM     12  C   UNL     1     -14.034  50.198 -10.064  1.00  0.00     0.000 C 
BRANCH  12  13
ATOM     13  C   UNL     1     -14.427  51.685  -9.957  1.00  0.00     0.006 C 
BRANCH  13  14
ATOM     14  C   UNL     1     -13.875  52.391  -8.704  1.00  0.00     0.053 C 
BRANCH  14  15
ATOM     15  C   UNL     1     -14.199  53.853  -8.675  1.00  0.00     0.041 C 
ATOM     16  O   UNL     1     -13.959  54.537  -7.645  1.00  0.00    -0.550 OA
ATOM     17  O   UNL     1     -14.729  54.472  -9.802  1.00  0.00    -0.550 OA
ENDBRANCH  14  15
ENDBRANCH  13  14
ENDBRANCH  12  13
ENDBRANCH  11  12
ENDBRANCH  10  11
ENDBRANCH   9  10
ENDBRANCH   8   9
ENDBRANCH   7   8
ENDBRANCH   6   7
ENDBRANCH   5   6
ENDBRANCH   4   5
ENDBRANCH   3   4
ENDBRANCH   2   3
ENDBRANCH   1   2
BRANCH   1  18
ATOM     18  C   UNL     1     -18.709  43.734  -5.522  1.00  0.00     0.000 C 
BRANCH  18  19
ATOM     19  C   UNL     1     -18.518  43.025  -6.872  1.00  0.00     0.000 C 
BRANCH  19  20
ATOM     20  C   UNL     1     -17.032  42.775  -7.178  1.00  0.00     0.000 C 
BRANCH  20  21
ATOM     21  C   UNL     1     -16.757  42.517  -8.667  1.00  0.00     0.000 C 
BRANCH  21  22
ATOM     22  C   UNL     1     -15.318  42.880  -9.098  1.00  0.00     0.000 C 
BRANCH  22  23
ATOM     23  C   UNL     1     -15.270  43.400 -10.546  1.00  0.00     0.000 C 
BRANCH  23  24
ATOM     24  C   UNL     1     -13.913  44.028 -10.927  1.00  0.00    -0.000 C 
BRANCH  24  25
ATOM     25  C   UNL     1     -13.877  45.568 -10.845  1.00  0.00    -0.000 C 
BRANCH  25  26
ATOM     26  C   UNL     1     -14.765  46.195  -9.756  1.00  0.00    -0.000 C 
BRANCH  26  27
ATOM     27  C   UNL     1     -13.982  46.553  -8.482  1.00  0.00    -0.000 C 
BRANCH  27  28
ATOM     28  C   UNL     1     -14.750  46.134  -7.220  1.00  0.00    -0.000 C 
BRANCH  28  29
ATOM     29  C   UNL     1     -15.948  47.059  -6.981  1.00  0.00    -0.000 C 
BRANCH  29  30
ATOM     30  C   UNL     1     -16.665  46.714  -5.666  1.00  0.00    -0.000 C 
BRANCH  30  31
ATOM     31  C   UNL     1     -17.926  47.565  -5.447  1.00  0.00    -0.003 C 
ATOM     32  C   UNL     1     -18.576  48.012  -6.756  1.00  0.00     0.004 C 
ENDBRANCH  30  31
ENDBRANCH  29  30
ENDBRANCH  28  29
ENDBRANCH  27  28
ENDBRANCH  26  27
ENDBRANCH  25  26
ENDBRANCH  24  25
ENDBRANCH  23  24
ENDBRANCH  22  23
ENDBRANCH  21  22
ENDBRANCH  20  21
ENDBRANCH  19  20
ENDBRANCH  18  19
ENDBRANCH   1  18
TORSDOF 28
ENDMDL
MODEL 5
REMARK VINA RESULT:    -1.626      3.507      7.923
REMARK INTER + INTRA:          -6.417
REMARK INTER:                  -5.008
REMARK INTRA:                  -1.409
REMARK UNBOUND:                -2.130
REMARK SMILES CCCCCCCCCCCCCCCCCCCCCCCCCCCCCC(=O)[O-]
REMARK SMILES IDX 16 1 17 2 18 3 19 4 20 5 21 6 22 7 23 8 24 9 25 10 26 11
REMARK SMILES IDX 27 12 28 13 29 14 30 15 31 16 32 17 15 18 14 19 13 20 12 21
REMARK SMILES IDX 11 22 10 23 9 24 8 25 7 26 6 27 5 28 4 29 3 30 2 31 1 32
REMARK H PARENT
REMARK Flexibility Score: inf
ROOT
ATOM      1  C   UNL     1     -18.026  43.379  -7.031  1.00  0.00     0.000 C 
ENDROOT
BRANCH   1   2
ATOM      2  C   UNL     1     -17.364  42.559  -8.154  1.00  0.00     0.000 C 
BRANCH   2   3
ATOM      3  C   UNL     1     -15.837  42.735  -8.213  1.00  0.00     0.000 C 
BRANCH   3   4
ATOM      4  C   UNL     1     -15.339  43.039  -9.635  1.00  0.00     0.000 C 
BRANCH   4   5
ATOM      5  C   UNL     1     -15.198  44.551  -9.855  1.00  0.00     0.000 C 
BRANCH   5   6
ATOM      6  C   UNL     1     -16.057  45.051 -11.028  1.00  0.00     0.000 C 
BRANCH   6   7
ATOM      7  C   UNL     1     -17.560  45.043 -10.697  1.00  0.00     0.000 C 
BRANCH   7   8
ATOM      8  C   UNL     1     -18.238  43.713 -11.085  1.00  0.00     0.000 C 
BRANCH   8   9
ATOM      9  C   UNL     1     -19.758  43.694 -10.852  1.00  0.00     0.000 C 
BRANCH   9  10
ATOM     10  C   UNL     1     -20.136  43.737  -9.363  1.00  0.00     0.000 C 
BRANCH  10  11
ATOM     11  C   UNL     1     -21.002  44.953  -8.988  1.00  0.00     0.000 C 
BRANCH  11  12
ATOM     12  C   UNL     1     -21.632  44.913  -7.582  1.00  0.00     0.000 C 
BRANCH  12  13
ATOM     13  C   UNL     1     -20.670  44.564  -6.428  1.00  0.00     0.006 C 
BRANCH  13  14
ATOM     14  C   UNL     1     -21.377  44.084  -5.146  1.00  0.00     0.053 C 
BRANCH  14  15
ATOM     15  C   UNL     1     -20.554  43.107  -4.365  1.00  0.00     0.041 C 
ATOM     16  O   UNL     1     -19.300  43.219  -4.328  1.00  0.00    -0.550 OA
ATOM     17  O   UNL     1     -21.174  42.095  -3.642  1.00  0.00    -0.550 OA
ENDBRANCH  14  15
ENDBRANCH  13  14
ENDBRANCH  12  13
ENDBRANCH  11  12
ENDBRANCH  10  11
ENDBRANCH   9  10
ENDBRANCH   8   9
ENDBRANCH   7   8
ENDBRANCH   6   7
ENDBRANCH   5   6
ENDBRANCH   4   5
ENDBRANCH   3   4
ENDBRANCH   2   3
ENDBRANCH   1   2
BRANCH   1  18
ATOM     18  C   UNL     1     -17.509  44.834  -6.970  1.00  0.00     0.000 C 
BRANCH  18  19
ATOM     19  C   UNL     1     -17.097  45.258  -5.551  1.00  0.00     0.000 C 
BRANCH  19  20
ATOM     20  C   UNL     1     -16.813  46.766  -5.468  1.00  0.00     0.000 C 
BRANCH  20  21
ATOM     21  C   UNL     1     -15.403  47.087  -4.949  1.00  0.00     0.000 C 
BRANCH  21  22
ATOM     22  C   UNL     1     -14.334  47.134  -6.064  1.00  0.00     0.000 C 
BRANCH  22  23
ATOM     23  C   UNL     1     -14.954  46.918  -7.458  1.00  0.00     0.000 C 
BRANCH  23  24
ATOM     24  C   UNL     1     -14.007  47.299  -8.615  1.00  0.00    -0.000 C 
BRANCH  24  25
ATOM     25  C   UNL     1     -14.094  48.776  -9.050  1.00  0.00    -0.000 C 
BRANCH  25  26
ATOM     26  C   UNL     1     -15.483  49.251  -9.512  1.00  0.00    -0.000 C 
BRANCH  26  27
ATOM     27  C   UNL     1     -15.413  50.432 -10.494  1.00  0.00    -0.000 C 
BRANCH  27  28
ATOM     28  C   UNL     1     -14.003  51.037 -10.539  1.00  0.00    -0.000 C 
BRANCH  28  29
ATOM     29  C   UNL     1     -14.057  52.557 -10.344  1.00  0.00    -0.000 C 
BRANCH  29  30
ATOM     30  C   UNL     1     -14.235  52.922  -8.862  1.00  0.00    -0.000 C 
BRANCH  30  31
ATOM     31  C   UNL     1     -14.468  54.427  -8.654  1.00  0.00    -0.003 C 
ATOM     32  C   UNL     1     -13.878  54.945  -7.342  1.00  0.00     0.004 C 
ENDBRANCH  30  31
ENDBRANCH  29  30
ENDBRANCH  28  29
ENDBRANCH  27  28
ENDBRANCH  26  27
ENDBRANCH  25  26
ENDBRANCH  24  25
ENDBRANCH  23  24
ENDBRANCH  22  23
ENDBRANCH  21  22
ENDBRANCH  20  21
ENDBRANCH  19  20
ENDBRANCH  18  19
ENDBRANCH   1  18
TORSDOF 28
ENDMDL
MODEL 6
REMARK VINA RESULT:    -1.474      2.306      4.634
REMARK INTER + INTRA:          -6.018
REMARK INTER:                  -5.375
REMARK INTRA:                  -0.643
REMARK UNBOUND:                -2.130
REMARK SMILES CCCCCCCCCCCCCCCCCCCCCCCCCCCCCC(=O)[O-]
REMARK SMILES IDX 16 1 17 2 18 3 19 4 20 5 21 6 22 7 23 8 24 9 25 10 26 11
REMARK SMILES IDX 27 12 28 13 29 14 30 15 31 16 32 17 15 18 14 19 13 20 12 21
REMARK SMILES IDX 11 22 10 23 9 24 8 25 7 26 6 27 5 28 4 29 3 30 2 31 1 32
REMARK H PARENT
REMARK Flexibility Score: inf
ROOT
ATOM      1  C   UNL     1     -15.653  45.272  -6.231  1.00  0.00     0.000 C 
ENDROOT
BRANCH   1   2
ATOM      2  C   UNL     1     -15.447  46.273  -7.383  1.00  0.00     0.000 C 
BRANCH   2   3
ATOM      3  C   UNL     1     -14.107  46.084  -8.116  1.00  0.00     0.000 C 
BRANCH   3   4
ATOM      4  C   UNL     1     -14.283  45.408  -9.486  1.00  0.00     0.000 C 
BRANCH   4   5
ATOM      5  C   UNL     1     -14.885  46.384 -10.506  1.00  0.00     0.000 C 
BRANCH   5   6
ATOM      6  C   UNL     1     -13.899  47.498 -10.897  1.00  0.00     0.000 C 
BRANCH   6   7
ATOM      7  C   UNL     1     -13.916  48.670  -9.900  1.00  0.00     0.000 C 
BRANCH   7   8
ATOM      8  C   UNL     1     -14.626  49.915 -10.474  1.00  0.00     0.000 C 
BRANCH   8   9
ATOM      9  C   UNL     1     -16.007  50.189  -9.854  1.00  0.00     0.000 C 
BRANCH   9  10
ATOM     10  C   UNL     1     -17.044  49.110 -10.203  1.00  0.00     0.000 C 
BRANCH  10  11
ATOM     11  C   UNL     1     -17.152  48.001  -9.141  1.00  0.00     0.000 C 
BRANCH  11  12
ATOM     12  C   UNL     1     -17.438  48.483  -7.705  1.00  0.00     0.000 C 
BRANCH  12  13
ATOM     13  C   UNL     1     -18.810  48.085  -7.125  1.00  0.00     0.006 C 
BRANCH  13  14
ATOM     14  C   UNL     1     -18.728  47.123  -5.925  1.00  0.00     0.053 C 
BRANCH  14  15
ATOM     15  C   UNL     1     -18.101  47.755  -4.720  1.00  0.00     0.041 C 
ATOM     16  O   UNL     1     -16.866  47.627  -4.506  1.00  0.00    -0.550 OA
ATOM     17  O   UNL     1     -18.871  48.522  -3.855  1.00  0.00    -0.550 OA
ENDBRANCH  14  15
ENDBRANCH  13  14
ENDBRANCH  12  13
ENDBRANCH  11  12
ENDBRANCH  10  11
ENDBRANCH   9  10
ENDBRANCH   8   9
ENDBRANCH   7   8
ENDBRANCH   6   7
ENDBRANCH   5   6
ENDBRANCH   4   5
ENDBRANCH   3   4
ENDBRANCH   2   3
ENDBRANCH   1   2
BRANCH   1  18
ATOM     18  C   UNL     1     -16.812  44.285  -6.498  1.00  0.00     0.000 C 
BRANCH  18  19
ATOM     19  C   UNL     1     -16.477  43.259  -7.592  1.00  0.00     0.000 C 
BRANCH  19  20
ATOM     20  C   UNL     1     -16.778  43.805  -8.997  1.00  0.00     0.000 C 
BRANCH  20  21
ATOM     21  C   UNL     1     -17.585  42.827  -9.865  1.00  0.00     0.000 C 
BRANCH  21  22
ATOM     22  C   UNL     1     -18.658  42.046  -9.074  1.00  0.00     0.000 C 
BRANCH  22  23
ATOM     23  C   UNL     1     -19.989  41.966  -9.844  1.00  0.00     0.000 C 
BRANCH  23  24
ATOM     24  C   UNL     1     -20.026  42.866 -11.097  1.00  0.00    -0.000 C 
BRANCH  24  25
ATOM     25  C   UNL     1     -21.036  44.029 -11.018  1.00  0.00    -0.000 C 
BRANCH  25  26
ATOM     26  C   UNL     1     -20.492  45.339 -10.421  1.00  0.00    -0.000 C 
BRANCH  26  27
ATOM     27  C   UNL     1     -19.883  45.148  -9.022  1.00  0.00    -0.000 C 
BRANCH  27  28
ATOM     28  C   UNL     1     -20.972  44.903  -7.968  1.00  0.00    -0.000 C 
BRANCH  28  29
ATOM     29  C   UNL     1     -20.470  45.283  -6.570  1.00  0.00    -0.000 C 
BRANCH  29  30
ATOM     30  C   UNL     1     -20.194  44.034  -5.718  1.00  0.00    -0.000 C 
BRANCH  30  31
ATOM     31  C   UNL     1     -21.309  43.767  -4.694  1.00  0.00    -0.003 C 
ATOM     32  C   UNL     1     -20.992  42.597  -3.762  1.00  0.00     0.004 C 
ENDBRANCH  30  31
ENDBRANCH  29  30
ENDBRANCH  28  29
ENDBRANCH  27  28
ENDBRANCH  26  27
ENDBRANCH  25  26
ENDBRANCH  24  25
ENDBRANCH  23  24
ENDBRANCH  22  23
ENDBRANCH  21  22
ENDBRANCH  20  21
ENDBRANCH  19  20
ENDBRANCH  18  19
ENDBRANCH   1  18
TORSDOF 28
ENDMDL
MODEL 7
REMARK VINA RESULT:    -1.381      3.571      7.152
REMARK INTER + INTRA:          -5.773
REMARK INTER:                  -2.768
REMARK INTRA:                  -3.005
REMARK UNBOUND:                -2.130
REMARK SMILES CCCCCCCCCCCCCCCCCCCCCCCCCCCCCC(=O)[O-]
REMARK SMILES IDX 16 1 17 2 18 3 19 4 20 5 21 6 22 7 23 8 24 9 25 10 26 11
REMARK SMILES IDX 27 12 28 13 29 14 30 15 31 16 32 17 15 18 14 19 13 20 12 21
REMARK SMILES IDX 11 22 10 23 9 24 8 25 7 26 6 27 5 28 4 29 3 30 2 31 1 32
REMARK H PARENT
REMARK Flexibility Score: inf
ROOT
ATOM      1  C   UNL     1     -15.811  45.081  -7.411  1.00  0.00     0.000 C 
ENDROOT
BRANCH   1   2
ATOM      2  C   UNL     1     -15.651  43.723  -8.119  1.00  0.00     0.000 C 
BRANCH   2   3
ATOM      3  C   UNL     1     -16.802  42.745  -7.820  1.00  0.00     0.000 C 
BRANCH   3   4
ATOM      4  C   UNL     1     -17.794  42.637  -8.989  1.00  0.00     0.000 C 
BRANCH   4   5
ATOM      5  C   UNL     1     -17.351  43.517 -10.167  1.00  0.00     0.000 C 
BRANCH   5   6
ATOM      6  C   UNL     1     -18.511  43.832 -11.125  1.00  0.00     0.000 C 
BRANCH   6   7
ATOM      7  C   UNL     1     -19.887  43.631 -10.464  1.00  0.00     0.000 C 
BRANCH   7   8
ATOM      8  C   UNL     1     -20.979  44.510 -11.107  1.00  0.00     0.000 C 
BRANCH   8   9
ATOM      9  C   UNL     1     -21.665  45.475 -10.125  1.00  0.00     0.000 C 
BRANCH   9  10
ATOM     10  C   UNL     1     -21.453  45.082  -8.654  1.00  0.00     0.000 C 
BRANCH  10  11
ATOM     11  C   UNL     1     -20.444  45.983  -7.921  1.00  0.00     0.000 C 
BRANCH  11  12
ATOM     12  C   UNL     1     -19.470  45.256  -6.973  1.00  0.00     0.000 C 
BRANCH  12  13
ATOM     13  C   UNL     1     -19.919  43.861  -6.494  1.00  0.00     0.006 C 
BRANCH  13  14
ATOM     14  C   UNL     1     -19.736  43.628  -4.982  1.00  0.00     0.053 C 
BRANCH  14  15
ATOM     15  C   UNL     1     -21.015  43.255  -4.297  1.00  0.00     0.041 C 
ATOM     16  O   UNL     1     -22.120  43.647  -4.757  1.00  0.00    -0.550 OA
ATOM     17  O   UNL     1     -20.990  42.439  -3.173  1.00  0.00    -0.550 OA
ENDBRANCH  14  15
ENDBRANCH  13  14
ENDBRANCH  12  13
ENDBRANCH  11  12
ENDBRANCH  10  11
ENDBRANCH   9  10
ENDBRANCH   8   9
ENDBRANCH   7   8
ENDBRANCH   6   7
ENDBRANCH   5   6
ENDBRANCH   4   5
ENDBRANCH   3   4
ENDBRANCH   2   3
ENDBRANCH   1   2
BRANCH   1  18
ATOM     18  C   UNL     1     -14.721  46.098  -7.818  1.00  0.00     0.000 C 
BRANCH  18  19
ATOM     19  C   UNL     1     -14.150  46.867  -6.616  1.00  0.00     0.000 C 
BRANCH  19  20
ATOM     20  C   UNL     1     -14.109  45.995  -5.350  1.00  0.00     0.000 C 
BRANCH  20  21
ATOM     21  C   UNL     1     -15.160  46.399  -4.305  1.00  0.00     0.000 C 
BRANCH  21  22
ATOM     22  C   UNL     1     -15.903  47.708  -4.654  1.00  0.00     0.000 C 
BRANCH  22  23
ATOM     23  C   UNL     1     -17.421  47.485  -4.786  1.00  0.00     0.000 C 
BRANCH  23  24
ATOM     24  C   UNL     1     -17.858  47.078  -6.209  1.00  0.00    -0.000 C 
BRANCH  24  25
ATOM     25  C   UNL     1     -17.998  48.255  -7.195  1.00  0.00    -0.000 C 
BRANCH  25  26
ATOM     26  C   UNL     1     -17.163  48.143  -8.483  1.00  0.00    -0.000 C 
BRANCH  26  27
ATOM     27  C   UNL     1     -17.791  47.200  -9.522  1.00  0.00    -0.000 C 
BRANCH  27  28
ATOM     28  C   UNL     1     -17.019  47.237 -10.848  1.00  0.00    -0.000 C 
BRANCH  28  29
ATOM     29  C   UNL     1     -15.689  47.982 -10.681  1.00  0.00    -0.000 C 
BRANCH  29  30
ATOM     30  C   UNL     1     -15.816  49.452 -11.114  1.00  0.00    -0.000 C 
BRANCH  30  31
ATOM     31  C   UNL     1     -14.644  50.311 -10.616  1.00  0.00    -0.003 C 
ATOM     32  C   UNL     1     -14.954  51.037  -9.306  1.00  0.00     0.004 C 
ENDBRANCH  30  31
ENDBRANCH  29  30
ENDBRANCH  28  29
ENDBRANCH  27  28
ENDBRANCH  26  27
ENDBRANCH  25  26
ENDBRANCH  24  25
ENDBRANCH  23  24
ENDBRANCH  22  23
ENDBRANCH  21  22
ENDBRANCH  20  21
ENDBRANCH  19  20
ENDBRANCH  18  19
ENDBRANCH   1  18
TORSDOF 28
ENDMDL
MODEL 8
REMARK VINA RESULT:    -1.355      3.960      7.578
REMARK INTER + INTRA:          -5.703
REMARK INTER:                  -3.203
REMARK INTRA:                  -2.500
REMARK UNBOUND:                -2.130
REMARK SMILES CCCCCCCCCCCCCCCCCCCCCCCCCCCCCC(=O)[O-]
REMARK SMILES IDX 16 1 17 2 18 3 19 4 20 5 21 6 22 7 23 8 24 9 25 10 26 11
REMARK SMILES IDX 27 12 28 13 29 14 30 15 31 16 32 17 15 18 14 19 13 20 12 21
REMARK SMILES IDX 11 22 10 23 9 24 8 25 7 26 6 27 5 28 4 29 3 30 2 31 1 32
REMARK H PARENT
REMARK Flexibility Score: inf
ROOT
ATOM      1  C   UNL     1     -17.879  44.902 -10.648  1.00  0.00     0.000 C 
ENDROOT
BRANCH   1   2
ATOM      2  C   UNL     1     -19.310  44.534 -11.082  1.00  0.00     0.000 C 
BRANCH   2   3
ATOM      3  C   UNL     1     -20.348  44.713  -9.959  1.00  0.00     0.000 C 
BRANCH   3   4
ATOM      4  C   UNL     1     -20.680  43.388  -9.255  1.00  0.00     0.000 C 
BRANCH   4   5
ATOM      5  C   UNL     1     -20.243  42.189 -10.108  1.00  0.00     0.000 C 
BRANCH   5   6
ATOM      6  C   UNL     1     -18.995  41.495  -9.540  1.00  0.00     0.000 C 
BRANCH   6   7
ATOM      7  C   UNL     1     -18.502  42.154  -8.239  1.00  0.00     0.000 C 
BRANCH   7   8
ATOM      8  C   UNL     1     -16.962  42.204  -8.157  1.00  0.00     0.000 C 
BRANCH   8   9
ATOM      9  C   UNL     1     -16.413  43.448  -7.438  1.00  0.00     0.000 C 
BRANCH   9  10
ATOM     10  C   UNL     1     -17.292  43.893  -6.258  1.00  0.00     0.000 C 
BRANCH  10  11
ATOM     11  C   UNL     1     -18.768  44.104  -6.641  1.00  0.00     0.000 C 
BRANCH  11  12
ATOM     12  C   UNL     1     -19.654  44.733  -5.548  1.00  0.00     0.000 C 
BRANCH  12  13
ATOM     13  C   UNL     1     -20.898  43.916  -5.143  1.00  0.00     0.006 C 
BRANCH  13  14
ATOM     14  C   UNL     1     -20.857  43.387  -3.697  1.00  0.00     0.053 C 
BRANCH  14  15
ATOM     15  C   UNL     1     -21.412  42.001  -3.574  1.00  0.00     0.041 C 
ATOM     16  O   UNL     1     -21.925  41.431  -4.573  1.00  0.00    -0.550 OA
ATOM     17  O   UNL     1     -21.327  41.321  -2.365  1.00  0.00    -0.550 OA
ENDBRANCH  14  15
ENDBRANCH  13  14
ENDBRANCH  12  13
ENDBRANCH  11  12
ENDBRANCH  10  11
ENDBRANCH   9  10
ENDBRANCH   8   9
ENDBRANCH   7   8
ENDBRANCH   6   7
ENDBRANCH   5   6
ENDBRANCH   4   5
ENDBRANCH   3   4
ENDBRANCH   2   3
ENDBRANCH   1   2
BRANCH   1  18
ATOM     18  C   UNL     1     -16.831  43.859 -11.099  1.00  0.00     0.000 C 
BRANCH  18  19
ATOM     19  C   UNL     1     -15.404  44.426 -11.125  1.00  0.00     0.000 C 
BRANCH  19  20
ATOM     20  C   UNL     1     -14.979  44.964  -9.749  1.00  0.00     0.000 C 
BRANCH  20  21
ATOM     21  C   UNL     1     -14.404  46.387  -9.807  1.00  0.00     0.000 C 
BRANCH  21  22
ATOM     22  C   UNL     1     -15.068  47.274 -10.885  1.00  0.00     0.000 C 
BRANCH  22  23
ATOM     23  C   UNL     1     -15.743  48.513 -10.267  1.00  0.00     0.000 C 
BRANCH  23  24
ATOM     24  C   UNL     1     -16.414  48.230  -8.907  1.00  0.00    -0.000 C 
BRANCH  24  25
ATOM     25  C   UNL     1     -17.570  47.210  -8.965  1.00  0.00    -0.000 C 
BRANCH  25  26
ATOM     26  C   UNL     1     -18.475  47.163  -7.722  1.00  0.00    -0.000 C 
BRANCH  26  27
ATOM     27  C   UNL     1     -18.011  48.118  -6.609  1.00  0.00    -0.000 C 
BRANCH  27  28
ATOM     28  C   UNL     1     -18.357  47.566  -5.220  1.00  0.00    -0.000 C 
BRANCH  28  29
ATOM     29  C   UNL     1     -17.086  47.360  -4.386  1.00  0.00    -0.000 C 
BRANCH  29  30
ATOM     30  C   UNL     1     -15.904  46.930  -5.269  1.00  0.00    -0.000 C 
BRANCH  30  31
ATOM     31  C   UNL     1     -14.557  47.046  -4.539  1.00  0.00    -0.003 C 
ATOM     32  C   UNL     1     -14.174  45.769  -3.791  1.00  0.00     0.004 C 
ENDBRANCH  30  31
ENDBRANCH  29  30
ENDBRANCH  28  29
ENDBRANCH  27  28
ENDBRANCH  26  27
ENDBRANCH  25  26
ENDBRANCH  24  25
ENDBRANCH  23  24
ENDBRANCH  22  23
ENDBRANCH  21  22
ENDBRANCH  20  21
ENDBRANCH  19  20
ENDBRANCH  18  19
ENDBRANCH   1  18
TORSDOF 28
ENDMDL
MODEL 9
REMARK VINA RESULT:    -0.951      3.800      7.065
REMARK INTER + INTRA:          -4.637
REMARK INTER:                  -1.508
REMARK INTRA:                  -3.129
REMARK UNBOUND:                -2.130
REMARK SMILES CCCCCCCCCCCCCCCCCCCCCCCCCCCCCC(=O)[O-]
REMARK SMILES IDX 16 1 17 2 18 3 19 4 20 5 21 6 22 7 23 8 24 9 25 10 26 11
REMARK SMILES IDX 27 12 28 13 29 14 30 15 31 16 32 17 15 18 14 19 13 20 12 21
REMARK SMILES IDX 11 22 10 23 9 24 8 25 7 26 6 27 5 28 4 29 3 30 2 31 1 32
REMARK H PARENT
REMARK Flexibility Score: inf
ROOT
ATOM      1  C   UNL     1     -14.231  46.903  -8.281  1.00  0.00     0.000 C 
ENDROOT
BRANCH   1   2
ATOM      2  C   UNL     1     -14.517  46.450  -6.838  1.00  0.00     0.000 C 
BRANCH   2   3
ATOM      3  C   UNL     1     -13.945  47.407  -5.778  1.00  0.00     0.000 C 
BRANCH   3   4
ATOM      4  C   UNL     1     -14.165  46.892  -4.347  1.00  0.00     0.000 C 
BRANCH   4   5
ATOM      5  C   UNL     1     -15.534  47.331  -3.810  1.00  0.00     0.000 C 
BRANCH   5   6
ATOM      6  C   UNL     1     -16.688  46.878  -4.720  1.00  0.00     0.000 C 
BRANCH   6   7
ATOM      7  C   UNL     1     -17.993  47.641  -4.434  1.00  0.00     0.000 C 
BRANCH   7   8
ATOM      8  C   UNL     1     -18.760  47.993  -5.725  1.00  0.00     0.000 C 
BRANCH   8   9
ATOM      9  C   UNL     1     -18.116  47.438  -7.007  1.00  0.00     0.000 C 
BRANCH   9  10
ATOM     10  C   UNL     1     -19.119  46.707  -7.914  1.00  0.00     0.000 C 
BRANCH  10  11
ATOM     11  C   UNL     1     -20.326  46.133  -7.150  1.00  0.00     0.000 C 
BRANCH  11  12
ATOM     12  C   UNL     1     -20.170  44.681  -6.656  1.00  0.00     0.000 C 
BRANCH  12  13
ATOM     13  C   UNL     1     -20.464  44.447  -5.160  1.00  0.00     0.006 C 
BRANCH  13  14
ATOM     14  C   UNL     1     -19.943  43.102  -4.622  1.00  0.00     0.053 C 
BRANCH  14  15
ATOM     15  C   UNL     1     -20.925  42.422  -3.718  1.00  0.00     0.041 C 
ATOM     16  O   UNL     1     -21.593  41.438  -4.131  1.00  0.00    -0.550 OA
ATOM     17  O   UNL     1     -21.074  42.849  -2.404  1.00  0.00    -0.550 OA
ENDBRANCH  14  15
ENDBRANCH  13  14
ENDBRANCH  12  13
ENDBRANCH  11  12
ENDBRANCH  10  11
ENDBRANCH   9  10
ENDBRANCH   8   9
ENDBRANCH   7   8
ENDBRANCH   6   7
ENDBRANCH   5   6
ENDBRANCH   4   5
ENDBRANCH   3   4
ENDBRANCH   2   3
ENDBRANCH   1   2
BRANCH   1  18
ATOM     18  C   UNL     1     -15.117  48.091  -8.721  1.00  0.00     0.000 C 
BRANCH  18  19
ATOM     19  C   UNL     1     -14.400  49.035  -9.699  1.00  0.00     0.000 C 
BRANCH  19  20
ATOM     20  C   UNL     1     -15.113  49.091 -11.060  1.00  0.00     0.000 C 
BRANCH  20  21
ATOM     21  C   UNL     1     -16.553  48.556 -11.011  1.00  0.00     0.000 C 
BRANCH  21  22
ATOM     22  C   UNL     1     -16.640  47.017 -11.124  1.00  0.00     0.000 C 
BRANCH  22  23
ATOM     23  C   UNL     1     -17.848  46.456 -10.351  1.00  0.00     0.000 C 
BRANCH  23  24
ATOM     24  C   UNL     1     -18.618  45.366 -11.125  1.00  0.00    -0.000 C 
BRANCH  24  25
ATOM     25  C   UNL     1     -20.146  45.398 -10.923  1.00  0.00    -0.000 C 
BRANCH  25  26
ATOM     26  C   UNL     1     -20.732  44.229 -10.112  1.00  0.00    -0.000 C 
BRANCH  26  27
ATOM     27  C   UNL     1     -20.034  42.891 -10.404  1.00  0.00    -0.000 C 
BRANCH  27  28
ATOM     28  C   UNL     1     -19.389  42.310  -9.138  1.00  0.00    -0.000 C 
BRANCH  28  29
ATOM     29  C   UNL     1     -17.861  42.289  -9.268  1.00  0.00    -0.000 C 
BRANCH  29  30
ATOM     30  C   UNL     1     -17.189  42.920  -8.037  1.00  0.00    -0.000 C 
BRANCH  30  31
ATOM     31  C   UNL     1     -16.100  43.934  -8.422  1.00  0.00    -0.003 C 
ATOM     32  C   UNL     1     -15.692  43.839  -9.892  1.00  0.00     0.004 C 
ENDBRANCH  30  31
ENDBRANCH  29  30
ENDBRANCH  28  29
ENDBRANCH  27  28
ENDBRANCH  26  27
ENDBRANCH  25  26
ENDBRANCH  24  25
ENDBRANCH  23  24
ENDBRANCH  22  23
ENDBRANCH  21  22
ENDBRANCH  20  21
ENDBRANCH  19  20
ENDBRANCH  18  19
ENDBRANCH   1  18
TORSDOF 28
ENDMDL
