MODEL 1
REMARK VINA RESULT:    -5.256      0.000      0.000
REMARK INTER + INTRA:         -11.411
REMARK INTER:                  -9.864
REMARK INTRA:                  -1.547
REMARK UNBOUND:                -1.547
REMARK SMILES CCCCCCCCC=CCCCCCCCC(=O)[O-]
REMARK SMILES IDX 10 1 9 2 11 3 12 4 13 5 14 6 15 7 16 8 17 9 18 10 19 11
REMARK SMILES IDX 20 12 8 13 7 14 6 15 5 16 4 17 3 18 2 19 1 20
REMARK H PARENT
REMARK Flexibility Score: inf
ROOT
ATOM      1  C   UNL     1     -22.868 -28.932  17.335  1.00  0.00    -0.031 C 
ATOM      2  C   UNL     1     -22.809 -27.984  18.284  1.00  0.00    -0.031 C 
ENDROOT
BRANCH   1   3
ATOM      3  C   UNL     1     -21.682 -29.803  17.021  1.00  0.00     0.027 C 
BRANCH   3   4
ATOM      4  C   UNL     1     -20.776 -29.127  15.988  1.00  0.00     0.004 C 
BRANCH   4   5
ATOM      5  C   UNL     1     -21.366 -29.234  14.577  1.00  0.00     0.000 C 
BRANCH   5   6
ATOM      6  C   UNL     1     -21.674 -30.693  14.219  1.00  0.00     0.000 C 
BRANCH   6   7
ATOM      7  C   UNL     1     -20.926 -31.121  12.948  1.00  0.00     0.000 C 
BRANCH   7   8
ATOM      8  C   UNL     1     -21.709 -30.826  11.656  1.00  0.00     0.006 C 
BRANCH   8   9
ATOM      9  C   UNL     1     -23.078 -31.523  11.583  1.00  0.00     0.053 C 
BRANCH   9  10
ATOM     10  C   UNL     1     -22.982 -32.931  11.080  1.00  0.00     0.041 C 
ATOM     11  O   UNL     1     -23.915 -33.747  11.303  1.00  0.00    -0.550 OA
ATOM     12  O   UNL     1     -21.876 -33.336  10.341  1.00  0.00    -0.550 OA
ENDBRANCH   9  10
ENDBRANCH   8   9
ENDBRANCH   7   8
ENDBRANCH   6   7
ENDBRANCH   5   6
ENDBRANCH   4   5
ENDBRANCH   3   4
ENDBRANCH   1   3
BRANCH   2  13
ATOM     13  C   UNL     1     -24.020 -27.152  18.610  1.00  0.00     0.027 C 
BRANCH  13  14
ATOM     14  C   UNL     1     -24.632 -26.488  17.366  1.00  0.00     0.004 C 
BRANCH  14  15
ATOM     15  C   UNL     1     -23.764 -25.375  16.748  1.00  0.00     0.000 C 
BRANCH  15  16
ATOM     16  C   UNL     1     -23.085 -25.784  15.424  1.00  0.00     0.000 C 
BRANCH  16  17
ATOM     17  C   UNL     1     -21.564 -25.557  15.458  1.00  0.00    -0.000 C 
BRANCH  17  18
ATOM     18  C   UNL     1     -21.015 -24.971  14.145  1.00  0.00    -0.000 C 
BRANCH  18  19
ATOM     19  C   UNL     1     -19.804 -24.035  14.312  1.00  0.00    -0.003 C 
ATOM     20  C   UNL     1     -19.506 -23.215  13.055  1.00  0.00     0.004 C 
ENDBRANCH  18  19
ENDBRANCH  17  18
ENDBRANCH  16  17
ENDBRANCH  15  16
ENDBRANCH  14  15
ENDBRANCH  13  14
ENDBRANCH   2  13
TORSDOF 15
ENDMDL
MODEL 2
REMARK VINA RESULT:    -5.239      8.685     10.953
REMARK INTER + INTRA:         -11.380
REMARK INTER:                  -9.930
REMARK INTRA:                  -1.450
REMARK UNBOUND:                -1.547
REMARK SMILES CCCCCCCCC=CCCCCCCCC(=O)[O-]
REMARK SMILES IDX 10 1 9 2 11 3 12 4 13 5 14 6 15 7 16 8 17 9 18 10 19 11
REMARK SMILES IDX 20 12 8 13 7 14 6 15 5 16 4 17 3 18 2 19 1 20
REMARK H PARENT
REMARK Flexibility Score: inf
ROOT
ATOM      1  C   UNL     1     -25.099 -29.003   5.493  1.00  0.00    -0.031 C 
ATOM      2  C   UNL     1     -26.401 -28.773   5.727  1.00  0.00    -0.031 C 
ENDROOT
BRANCH   1   3
ATOM      3  C   UNL     1     -24.312 -28.149   4.535  1.00  0.00     0.027 C 
BRANCH   3   4
ATOM      4  C   UNL     1     -23.796 -28.990   3.363  1.00  0.00     0.004 C 
BRANCH   4   5
ATOM      5  C   UNL     1     -22.771 -28.212   2.530  1.00  0.00     0.000 C 
BRANCH   5   6
ATOM      6  C   UNL     1     -22.430 -26.871   3.190  1.00  0.00     0.000 C 
BRANCH   6   7
ATOM      7  C   UNL     1     -22.060 -25.814   2.139  1.00  0.00     0.000 C 
BRANCH   7   8
ATOM      8  C   UNL     1     -21.374 -26.411   0.897  1.00  0.00     0.006 C 
BRANCH   8   9
ATOM      9  C   UNL     1     -19.881 -26.061   0.778  1.00  0.00     0.053 C 
BRANCH   9  10
ATOM     10  C   UNL     1     -18.995 -27.094   1.406  1.00  0.00     0.041 C 
ATOM     11  O   UNL     1     -19.354 -28.301   1.435  1.00  0.00    -0.550 OA
ATOM     12  O   UNL     1     -17.761 -26.730   1.932  1.00  0.00    -0.550 OA
ENDBRANCH   9  10
ENDBRANCH   8   9
ENDBRANCH   7   8
ENDBRANCH   6   7
ENDBRANCH   5   6
ENDBRANCH   4   5
ENDBRANCH   3   4
ENDBRANCH   1   3
BRANCH   2  13
ATOM     13  C   UNL     1     -27.159 -29.613   6.720  1.00  0.00     0.027 C 
BRANCH  13  14
ATOM     14  C   UNL     1     -27.696 -28.789   7.900  1.00  0.00     0.004 C 
BRANCH  14  15
ATOM     15  C   UNL     1     -26.643 -28.456   8.975  1.00  0.00     0.000 C 
BRANCH  15  16
ATOM     16  C   UNL     1     -26.892 -27.109   9.687  1.00  0.00     0.000 C 
BRANCH  16  17
ATOM     17  C   UNL     1     -26.064 -25.967   9.072  1.00  0.00    -0.000 C 
BRANCH  17  18
ATOM     18  C   UNL     1     -24.870 -26.470   8.243  1.00  0.00    -0.000 C 
BRANCH  18  19
ATOM     19  C   UNL     1     -23.706 -25.470   8.115  1.00  0.00    -0.003 C 
ATOM     20  C   UNL     1     -24.149 -24.015   8.281  1.00  0.00     0.004 C 
ENDBRANCH  18  19
ENDBRANCH  17  18
ENDBRANCH  16  17
ENDBRANCH  15  16
ENDBRANCH  14  15
ENDBRANCH  13  14
ENDBRANCH   2  13
TORSDOF 15
ENDMDL
MODEL 3
REMARK VINA RESULT:    -5.187      3.908      6.145
REMARK INTER + INTRA:         -11.282
REMARK INTER:                  -8.977
REMARK INTRA:                  -2.305
REMARK UNBOUND:                -1.547
REMARK SMILES CCCCCCCCC=CCCCCCCCC(=O)[O-]
REMARK SMILES IDX 10 1 9 2 11 3 12 4 13 5 14 6 15 7 16 8 17 9 18 10 19 11
REMARK SMILES IDX 20 12 8 13 7 14 6 15 5 16 4 17 3 18 2 19 1 20
REMARK H PARENT
REMARK Flexibility Score: inf
ROOT
ATOM      1  C   UNL     1     -21.158 -29.179  15.529  1.00  0.00    -0.031 C 
ATOM      2  C   UNL     1     -21.379 -29.420  14.226  1.00  0.00    -0.031 C 
ENDROOT
BRANCH   1   3
ATOM      3  C   UNL     1     -22.158 -29.579  16.580  1.00  0.00     0.027 C 
BRANCH   3   4
ATOM      4  C   UNL     1     -22.771 -28.339  17.239  1.00  0.00     0.004 C 
BRANCH   4   5
ATOM      5  C   UNL     1     -21.772 -27.176  17.271  1.00  0.00     0.000 C 
BRANCH   5   6
ATOM      6  C   UNL     1     -22.464 -25.849  16.940  1.00  0.00     0.000 C 
BRANCH   6   7
ATOM      7  C   UNL     1     -22.766 -25.741  15.438  1.00  0.00     0.000 C 
BRANCH   7   8
ATOM      8  C   UNL     1     -24.131 -25.092  15.141  1.00  0.00     0.006 C 
BRANCH   8   9
ATOM      9  C   UNL     1     -25.206 -25.383  16.202  1.00  0.00     0.053 C 
BRANCH   9  10
ATOM     10  C   UNL     1     -26.531 -24.773  15.861  1.00  0.00     0.041 C 
ATOM     11  O   UNL     1     -26.583 -23.641  15.310  1.00  0.00    -0.550 OA
ATOM     12  O   UNL     1     -27.708 -25.464  16.125  1.00  0.00    -0.550 OA
ENDBRANCH   9  10
ENDBRANCH   8   9
ENDBRANCH   7   8
ENDBRANCH   6   7
ENDBRANCH   5   6
ENDBRANCH   4   5
ENDBRANCH   3   4
ENDBRANCH   1   3
BRANCH   2  13
ATOM     13  C   UNL     1     -20.346 -29.049  13.195  1.00  0.00     0.027 C 
BRANCH  13  14
ATOM     14  C   UNL     1     -19.869 -27.596  13.335  1.00  0.00     0.004 C 
BRANCH  14  15
ATOM     15  C   UNL     1     -18.357 -27.445  13.595  1.00  0.00     0.000 C 
BRANCH  15  16
ATOM     16  C   UNL     1     -17.976 -26.106  14.261  1.00  0.00     0.000 C 
BRANCH  16  17
ATOM     17  C   UNL     1     -19.126 -25.529  15.104  1.00  0.00    -0.000 C 
BRANCH  17  18
ATOM     18  C   UNL     1     -19.439 -24.061  14.768  1.00  0.00    -0.000 C 
BRANCH  18  19
ATOM     19  C   UNL     1     -20.262 -23.854  13.483  1.00  0.00    -0.003 C 
ATOM     20  C   UNL     1     -19.625 -22.846  12.524  1.00  0.00     0.004 C 
ENDBRANCH  18  19
ENDBRANCH  17  18
ENDBRANCH  16  17
ENDBRANCH  15  16
ENDBRANCH  14  15
ENDBRANCH  13  14
ENDBRANCH   2  13
TORSDOF 15
ENDMDL
MODEL 4
REMARK VINA RESULT:    -5.159     10.052     12.878
REMARK INTER + INTRA:         -11.231
REMARK INTER:                  -9.617
REMARK INTRA:                  -1.614
REMARK UNBOUND:                -1.547
REMARK SMILES CCCCCCCCC=CCCCCCCCC(=O)[O-]
REMARK SMILES IDX 10 1 9 2 11 3 12 4 13 5 14 6 15 7 16 8 17 9 18 10 19 11
REMARK SMILES IDX 20 12 8 13 7 14 6 15 5 16 4 17 3 18 2 19 1 20
REMARK H PARENT
REMARK Flexibility Score: inf
ROOT
ATOM      1  C   UNL     1     -22.528 -28.292   2.671  1.00  0.00    -0.031 C 
ATOM      2  C   UNL     1     -22.558 -27.447   3.714  1.00  0.00    -0.031 C 
ENDROOT
BRANCH   1   3
ATOM      3  C   UNL     1     -21.227 -28.767   2.083  1.00  0.00     0.027 C 
BRANCH   3   4
ATOM      4  C   UNL     1     -20.095 -27.792   2.423  1.00  0.00     0.004 C 
BRANCH   4   5
ATOM      5  C   UNL     1     -19.439 -27.238   1.153  1.00  0.00     0.000 C 
BRANCH   5   6
ATOM      6  C   UNL     1     -20.075 -25.905   0.742  1.00  0.00     0.000 C 
BRANCH   6   7
ATOM      7  C   UNL     1     -21.198 -26.119  -0.283  1.00  0.00     0.000 C 
BRANCH   7   8
ATOM      8  C   UNL     1     -22.437 -25.246  -0.014  1.00  0.00     0.006 C 
BRANCH   8   9
ATOM      9  C   UNL     1     -22.480 -24.641   1.399  1.00  0.00     0.053 C 
BRANCH   9  10
ATOM     10  C   UNL     1     -22.463 -23.142   1.385  1.00  0.00     0.041 C 
ATOM     11  O   UNL     1     -21.752 -22.526   0.548  1.00  0.00    -0.550 OA
ATOM     12  O   UNL     1     -23.253 -22.425   2.276  1.00  0.00    -0.550 OA
ENDBRANCH   9  10
ENDBRANCH   8   9
ENDBRANCH   7   8
ENDBRANCH   6   7
ENDBRANCH   5   6
ENDBRANCH   4   5
ENDBRANCH   3   4
ENDBRANCH   1   3
BRANCH   2  13
ATOM     13  C   UNL     1     -23.871 -27.018   4.313  1.00  0.00     0.027 C 
BRANCH  13  14
ATOM     14  C   UNL     1     -24.818 -28.200   4.567  1.00  0.00     0.004 C 
BRANCH  14  15
ATOM     15  C   UNL     1     -25.296 -28.331   6.026  1.00  0.00     0.000 C 
BRANCH  15  16
ATOM     16  C   UNL     1     -26.257 -29.516   6.258  1.00  0.00     0.000 C 
BRANCH  16  17
ATOM     17  C   UNL     1     -27.150 -29.305   7.493  1.00  0.00    -0.000 C 
BRANCH  17  18
ATOM     18  C   UNL     1     -26.385 -28.726   8.695  1.00  0.00    -0.000 C 
BRANCH  18  19
ATOM     19  C   UNL     1     -26.960 -27.412   9.255  1.00  0.00    -0.003 C 
ATOM     20  C   UNL     1     -25.981 -26.241   9.153  1.00  0.00     0.004 C 
ENDBRANCH  18  19
ENDBRANCH  17  18
ENDBRANCH  16  17
ENDBRANCH  15  16
ENDBRANCH  14  15
ENDBRANCH  13  14
ENDBRANCH   2  13
TORSDOF 15
ENDMDL
MODEL 5
REMARK VINA RESULT:    -5.156      7.180     10.142
REMARK INTER + INTRA:         -11.224
REMARK INTER:                  -8.860
REMARK INTRA:                  -2.364
REMARK UNBOUND:                -1.547
REMARK SMILES CCCCCCCCC=CCCCCCCCC(=O)[O-]
REMARK SMILES IDX 10 1 9 2 11 3 12 4 13 5 14 6 15 7 16 8 17 9 18 10 19 11
REMARK SMILES IDX 20 12 8 13 7 14 6 15 5 16 4 17 3 18 2 19 1 20
REMARK H PARENT
REMARK Flexibility Score: inf
ROOT
ATOM      1  C   UNL     1     -22.814 -27.304   3.822  1.00  0.00    -0.031 C 
ATOM      2  C   UNL     1     -23.941 -28.014   3.992  1.00  0.00    -0.031 C 
ENDROOT
BRANCH   1   3
ATOM      3  C   UNL     1     -21.862 -27.602   2.694  1.00  0.00     0.027 C 
BRANCH   3   4
ATOM      4  C   UNL     1     -21.854 -29.100   2.378  1.00  0.00     0.004 C 
BRANCH   4   5
ATOM      5  C   UNL     1     -20.610 -29.783   2.959  1.00  0.00     0.000 C 
BRANCH   5   6
ATOM      6  C   UNL     1     -20.926 -30.453   4.301  1.00  0.00     0.000 C 
BRANCH   6   7
ATOM      7  C   UNL     1     -22.120 -31.412   4.174  1.00  0.00     0.000 C 
BRANCH   7   8
ATOM      8  C   UNL     1     -23.055 -31.377   5.396  1.00  0.00     0.006 C 
BRANCH   8   9
ATOM      9  C   UNL     1     -22.535 -30.515   6.558  1.00  0.00     0.053 C 
BRANCH   9  10
ATOM     10  C   UNL     1     -22.715 -31.177   7.891  1.00  0.00     0.041 C 
ATOM     11  O   UNL     1     -22.425 -32.393   8.037  1.00  0.00    -0.550 OA
ATOM     12  O   UNL     1     -23.175 -30.443   8.979  1.00  0.00    -0.550 OA
ENDBRANCH   9  10
ENDBRANCH   8   9
ENDBRANCH   7   8
ENDBRANCH   6   7
ENDBRANCH   5   6
ENDBRANCH   4   5
ENDBRANCH   3   4
ENDBRANCH   1   3
BRANCH   2  13
ATOM     13  C   UNL     1     -24.899 -27.672   5.101  1.00  0.00     0.027 C 
BRANCH  13  14
ATOM     14  C   UNL     1     -25.953 -28.767   5.329  1.00  0.00     0.004 C 
BRANCH  14  15
ATOM     15  C   UNL     1     -25.953 -29.365   6.749  1.00  0.00     0.000 C 
BRANCH  15  16
ATOM     16  C   UNL     1     -27.364 -29.528   7.351  1.00  0.00     0.000 C 
BRANCH  16  17
ATOM     17  C   UNL     1     -27.758 -28.334   8.238  1.00  0.00    -0.000 C 
BRANCH  17  18
ATOM     18  C   UNL     1     -26.650 -27.929   9.226  1.00  0.00    -0.000 C 
BRANCH  18  19
ATOM     19  C   UNL     1     -26.257 -26.441   9.181  1.00  0.00    -0.003 C 
ATOM     20  C   UNL     1     -24.899 -26.203   8.516  1.00  0.00     0.004 C 
ENDBRANCH  18  19
ENDBRANCH  17  18
ENDBRANCH  16  17
ENDBRANCH  15  16
ENDBRANCH  14  15
ENDBRANCH  13  14
ENDBRANCH   2  13
TORSDOF 15
ENDMDL
MODEL 6
REMARK VINA RESULT:    -5.149      7.595     10.280
REMARK INTER + INTRA:         -11.211
REMARK INTER:                  -9.959
REMARK INTRA:                  -1.252
REMARK UNBOUND:                -1.547
REMARK SMILES CCCCCCCCC=CCCCCCCCC(=O)[O-]
REMARK SMILES IDX 10 1 9 2 11 3 12 4 13 5 14 6 15 7 16 8 17 9 18 10 19 11
REMARK SMILES IDX 20 12 8 13 7 14 6 15 5 16 4 17 3 18 2 19 1 20
REMARK H PARENT
REMARK Flexibility Score: inf
ROOT
ATOM      1  C   UNL     1     -25.511 -25.372   9.087  1.00  0.00    -0.031 C 
ATOM      2  C   UNL     1     -26.547 -25.777   9.838  1.00  0.00    -0.031 C 
ENDROOT
BRANCH   1   3
ATOM      3  C   UNL     1     -25.003 -23.956   9.150  1.00  0.00     0.027 C 
BRANCH   3   4
ATOM      4  C   UNL     1     -23.878 -23.742   8.133  1.00  0.00     0.004 C 
BRANCH   4   5
ATOM      5  C   UNL     1     -22.696 -22.996   8.762  1.00  0.00     0.000 C 
BRANCH   5   6
ATOM      6  C   UNL     1     -22.525 -21.608   8.134  1.00  0.00     0.000 C 
BRANCH   6   7
ATOM      7  C   UNL     1     -21.202 -20.961   8.572  1.00  0.00     0.000 C 
BRANCH   7   8
ATOM      8  C   UNL     1     -20.199 -21.971   9.156  1.00  0.00     0.006 C 
BRANCH   8   9
ATOM      9  C   UNL     1     -19.426 -21.449  10.379  1.00  0.00     0.053 C 
BRANCH   9  10
ATOM     10  C   UNL     1     -19.371 -22.447  11.495  1.00  0.00     0.041 C 
ATOM     11  O   UNL     1     -18.849 -23.577  11.308  1.00  0.00    -0.550 OA
ATOM     12  O   UNL     1     -19.871 -22.119  12.751  1.00  0.00    -0.550 OA
ENDBRANCH   9  10
ENDBRANCH   8   9
ENDBRANCH   7   8
ENDBRANCH   6   7
ENDBRANCH   5   6
ENDBRANCH   4   5
ENDBRANCH   3   4
ENDBRANCH   1   3
BRANCH   2  13
ATOM     13  C   UNL     1     -27.012 -27.208   9.790  1.00  0.00     0.027 C 
BRANCH  13  14
ATOM     14  C   UNL     1     -26.556 -27.934   8.516  1.00  0.00     0.004 C 
BRANCH  14  15
ATOM     15  C   UNL     1     -27.642 -28.807   7.857  1.00  0.00     0.000 C 
BRANCH  15  16
ATOM     16  C   UNL     1     -27.157 -29.549   6.594  1.00  0.00     0.000 C 
BRANCH  16  17
ATOM     17  C   UNL     1     -25.632 -29.450   6.413  1.00  0.00    -0.000 C 
BRANCH  17  18
ATOM     18  C   UNL     1     -25.226 -28.918   5.028  1.00  0.00    -0.000 C 
BRANCH  18  19
ATOM     19  C   UNL     1     -24.787 -27.442   5.006  1.00  0.00    -0.003 C 
ATOM     20  C   UNL     1     -23.841 -27.085   6.154  1.00  0.00     0.004 C 
ENDBRANCH  18  19
ENDBRANCH  17  18
ENDBRANCH  16  17
ENDBRANCH  15  16
ENDBRANCH  14  15
ENDBRANCH  13  14
ENDBRANCH   2  13
TORSDOF 15
ENDMDL
MODEL 7
REMARK VINA RESULT:    -5.137      9.197     12.342
REMARK INTER + INTRA:         -11.188
REMARK INTER:                  -9.583
REMARK INTRA:                  -1.605
REMARK UNBOUND:                -1.547
REMARK SMILES CCCCCCCCC=CCCCCCCCC(=O)[O-]
REMARK SMILES IDX 10 1 9 2 11 3 12 4 13 5 14 6 15 7 16 8 17 9 18 10 19 11
REMARK SMILES IDX 20 12 8 13 7 14 6 15 5 16 4 17 3 18 2 19 1 20
REMARK H PARENT
REMARK Flexibility Score: inf
ROOT
ATOM      1  C   UNL     1     -22.730 -25.182   1.802  1.00  0.00    -0.031 C 
ATOM      2  C   UNL     1     -22.458 -26.161   2.680  1.00  0.00    -0.031 C 
ENDROOT
BRANCH   1   3
ATOM      3  C   UNL     1     -22.005 -25.085   0.487  1.00  0.00     0.027 C 
BRANCH   3   4
ATOM      4  C   UNL     1     -21.184 -26.353   0.229  1.00  0.00     0.004 C 
BRANCH   4   5
ATOM      5  C   UNL     1     -19.682 -26.049   0.224  1.00  0.00     0.000 C 
BRANCH   5   6
ATOM      6  C   UNL     1     -18.992 -26.664   1.447  1.00  0.00     0.000 C 
BRANCH   6   7
ATOM      7  C   UNL     1     -19.181 -28.188   1.482  1.00  0.00     0.000 C 
BRANCH   7   8
ATOM      8  C   UNL     1     -19.831 -28.687   2.785  1.00  0.00     0.006 C 
BRANCH   8   9
ATOM      9  C   UNL     1     -21.019 -29.639   2.566  1.00  0.00     0.053 C 
BRANCH   9  10
ATOM     10  C   UNL     1     -20.953 -30.853   3.443  1.00  0.00     0.041 C 
ATOM     11  O   UNL     1     -21.379 -31.961   3.023  1.00  0.00    -0.550 OA
ATOM     12  O   UNL     1     -20.396 -30.768   4.715  1.00  0.00    -0.550 OA
ENDBRANCH   9  10
ENDBRANCH   8   9
ENDBRANCH   7   8
ENDBRANCH   6   7
ENDBRANCH   5   6
ENDBRANCH   4   5
ENDBRANCH   3   4
ENDBRANCH   1   3
BRANCH   2  13
ATOM     13  C   UNL     1     -23.224 -26.263   3.972  1.00  0.00     0.027 C 
BRANCH  13  14
ATOM     14  C   UNL     1     -23.171 -27.674   4.578  1.00  0.00     0.004 C 
BRANCH  14  15
ATOM     15  C   UNL     1     -24.318 -28.602   4.132  1.00  0.00     0.000 C 
BRANCH  15  16
ATOM     16  C   UNL     1     -25.588 -28.477   5.001  1.00  0.00     0.000 C 
BRANCH  16  17
ATOM     17  C   UNL     1     -25.518 -29.359   6.260  1.00  0.00    -0.000 C 
BRANCH  17  18
ATOM     18  C   UNL     1     -26.759 -29.222   7.158  1.00  0.00    -0.000 C 
BRANCH  18  19
ATOM     19  C   UNL     1     -26.459 -28.841   8.620  1.00  0.00    -0.003 C 
ATOM     20  C   UNL     1     -27.147 -27.544   9.051  1.00  0.00     0.004 C 
ENDBRANCH  18  19
ENDBRANCH  17  18
ENDBRANCH  16  17
ENDBRANCH  15  16
ENDBRANCH  14  15
ENDBRANCH  13  14
ENDBRANCH   2  13
TORSDOF 15
ENDMDL
MODEL 8
REMARK VINA RESULT:    -5.129      4.652      6.686
REMARK INTER + INTRA:         -11.174
REMARK INTER:                  -9.024
REMARK INTRA:                  -2.150
REMARK UNBOUND:                -1.547
REMARK SMILES CCCCCCCCC=CCCCCCCCC(=O)[O-]
REMARK SMILES IDX 10 1 9 2 11 3 12 4 13 5 14 6 15 7 16 8 17 9 18 10 19 11
REMARK SMILES IDX 20 12 8 13 7 14 6 15 5 16 4 17 3 18 2 19 1 20
REMARK H PARENT
REMARK Flexibility Score: inf
ROOT
ATOM      1  C   UNL     1     -20.908 -28.447  14.909  1.00  0.00    -0.031 C 
ATOM      2  C   UNL     1     -20.588 -28.470  16.212  1.00  0.00    -0.031 C 
ENDROOT
BRANCH   1   3
ATOM      3  C   UNL     1     -20.216 -27.519  13.947  1.00  0.00     0.027 C 
BRANCH   3   4
ATOM      4  C   UNL     1     -18.721 -27.430  14.267  1.00  0.00     0.004 C 
BRANCH   4   5
ATOM      5  C   UNL     1     -18.278 -25.974  14.453  1.00  0.00     0.000 C 
BRANCH   5   6
ATOM      6  C   UNL     1     -19.420 -25.120  15.017  1.00  0.00     0.000 C 
BRANCH   6   7
ATOM      7  C   UNL     1     -19.492 -23.757  14.313  1.00  0.00     0.000 C 
BRANCH   7   8
ATOM      8  C   UNL     1     -19.130 -23.828  12.819  1.00  0.00     0.006 C 
BRANCH   8   9
ATOM      9  C   UNL     1     -20.093 -23.055  11.903  1.00  0.00     0.053 C 
BRANCH   9  10
ATOM     10  C   UNL     1     -19.565 -21.706  11.518  1.00  0.00     0.041 C 
ATOM     11  O   UNL     1     -19.537 -20.774  12.364  1.00  0.00    -0.550 OA
ATOM     12  O   UNL     1     -19.077 -21.487  10.235  1.00  0.00    -0.550 OA
ENDBRANCH   9  10
ENDBRANCH   8   9
ENDBRANCH   7   8
ENDBRANCH   6   7
ENDBRANCH   5   6
ENDBRANCH   4   5
ENDBRANCH   3   4
ENDBRANCH   1   3
BRANCH   2  13
ATOM     13  C   UNL     1     -21.264 -29.436  17.148  1.00  0.00     0.027 C 
BRANCH  13  14
ATOM     14  C   UNL     1     -22.742 -29.091  17.386  1.00  0.00     0.004 C 
BRANCH  14  15
ATOM     15  C   UNL     1     -23.020 -28.373  18.722  1.00  0.00     0.000 C 
BRANCH  15  16
ATOM     16  C   UNL     1     -23.203 -26.848  18.577  1.00  0.00     0.000 C 
BRANCH  16  17
ATOM     17  C   UNL     1     -24.583 -26.481  18.005  1.00  0.00    -0.000 C 
BRANCH  17  18
ATOM     18  C   UNL     1     -24.509 -25.902  16.582  1.00  0.00    -0.000 C 
BRANCH  18  19
ATOM     19  C   UNL     1     -23.081 -25.690  16.045  1.00  0.00    -0.003 C 
ATOM     20  C   UNL     1     -23.054 -24.998  14.680  1.00  0.00     0.004 C 
ENDBRANCH  18  19
ENDBRANCH  17  18
ENDBRANCH  16  17
ENDBRANCH  15  16
ENDBRANCH  14  15
ENDBRANCH  13  14
ENDBRANCH   2  13
TORSDOF 15
ENDMDL
MODEL 9
REMARK VINA RESULT:    -5.075      3.875      6.702
REMARK INTER + INTRA:         -11.073
REMARK INTER:                  -8.919
REMARK INTRA:                  -2.154
REMARK UNBOUND:                -1.547
REMARK SMILES CCCCCCCCC=CCCCCCCCC(=O)[O-]
REMARK SMILES IDX 10 1 9 2 11 3 12 4 13 5 14 6 15 7 16 8 17 9 18 10 19 11
REMARK SMILES IDX 20 12 8 13 7 14 6 15 5 16 4 17 3 18 2 19 1 20
REMARK H PARENT
REMARK Flexibility Score: inf
ROOT
ATOM      1  C   UNL     1     -19.609 -26.826  15.689  1.00  0.00    -0.031 C 
ATOM      2  C   UNL     1     -20.601 -26.355  14.916  1.00  0.00    -0.031 C 
ENDROOT
BRANCH   1   3
ATOM      3  C   UNL     1     -18.289 -27.246  15.101  1.00  0.00     0.027 C 
BRANCH   3   4
ATOM      4  C   UNL     1     -17.237 -26.151  15.302  1.00  0.00     0.004 C 
BRANCH   4   5
ATOM      5  C   UNL     1     -16.592 -25.749  13.970  1.00  0.00     0.000 C 
BRANCH   5   6
ATOM      6  C   UNL     1     -17.470 -26.168  12.785  1.00  0.00     0.000 C 
BRANCH   6   7
ATOM      7  C   UNL     1     -17.869 -24.953  11.934  1.00  0.00     0.000 C 
BRANCH   7   8
ATOM      8  C   UNL     1     -18.774 -23.960  12.684  1.00  0.00     0.006 C 
BRANCH   8   9
ATOM      9  C   UNL     1     -19.095 -22.682  11.890  1.00  0.00     0.053 C 
BRANCH   9  10
ATOM     10  C   UNL     1     -19.918 -22.955  10.668  1.00  0.00     0.041 C 
ATOM     11  O   UNL     1     -21.043 -23.510  10.775  1.00  0.00    -0.550 OA
ATOM     12  O   UNL     1     -19.456 -22.572   9.414  1.00  0.00    -0.550 OA
ENDBRANCH   9  10
ENDBRANCH   8   9
ENDBRANCH   7   8
ENDBRANCH   6   7
ENDBRANCH   5   6
ENDBRANCH   4   5
ENDBRANCH   3   4
ENDBRANCH   1   3
BRANCH   2  13
ATOM     13  C   UNL     1     -21.898 -25.901  15.530  1.00  0.00     0.027 C 
BRANCH  13  14
ATOM     14  C   UNL     1     -22.121 -26.482  16.935  1.00  0.00     0.004 C 
BRANCH  14  15
ATOM     15  C   UNL     1     -22.919 -27.800  16.960  1.00  0.00     0.000 C 
BRANCH  15  16
ATOM     16  C   UNL     1     -22.239 -28.918  17.778  1.00  0.00     0.000 C 
BRANCH  16  17
ATOM     17  C   UNL     1     -21.331 -29.804  16.907  1.00  0.00    -0.000 C 
BRANCH  17  18
ATOM     18  C   UNL     1     -22.033 -30.321  15.640  1.00  0.00    -0.000 C 
BRANCH  18  19
ATOM     19  C   UNL     1     -21.370 -29.898  14.316  1.00  0.00    -0.003 C 
ATOM     20  C   UNL     1     -21.244 -31.050  13.318  1.00  0.00     0.004 C 
ENDBRANCH  18  19
ENDBRANCH  17  18
ENDBRANCH  16  17
ENDBRANCH  15  16
ENDBRANCH  14  15
ENDBRANCH  13  14
ENDBRANCH   2  13
TORSDOF 15
ENDMDL
