MODEL 1
REMARK VINA RESULT:    -6.629      0.000      0.000
REMARK INTER + INTRA:          -8.322
REMARK INTER:                  -7.985
REMARK INTRA:                  -0.337
REMARK UNBOUND:                -0.337
REMARK SMILES Oc1cc(O)c2cc(O)c(-c3ccc(O)c(O)c3)[o+]c2c1
REMARK SMILES IDX 10 1 19 2 20 3 21 4 2 5 3 6 4 7 6 8 7 9 8 10 11 11 12 12
REMARK SMILES IDX 13 13 14 14 18 15 16 16 15 17 17 19 9 21 1 23 5 25
REMARK H PARENT 15 18 17 20 9 22 1 24 5 26
REMARK Flexibility Score: inf
ROOT
ATOM      1  C   UNL     1      22.812   0.583 103.059  1.00  0.00     0.402 A 
ATOM      2  O   UNL     1      23.792  -0.014 103.733  1.00  0.00    -0.202 OA
ATOM      3  C   UNL     1      24.308  -1.188 103.384  1.00  0.00     0.368 A 
ATOM      4  C   UNL     1      25.335  -1.736 104.158  1.00  0.00     0.162 A 
ATOM      5  C   UNL     1      25.893  -2.968 103.818  1.00  0.00     0.128 A 
ATOM      6  C   UNL     1      25.422  -3.661 102.697  1.00  0.00     0.093 A 
ATOM      7  C   UNL     1      24.394  -3.134 101.906  1.00  0.00     0.136 A 
ATOM      8  C   UNL     1      23.825  -1.879 102.247  1.00  0.00     0.125 A 
ATOM      9  C   UNL     1      22.802  -1.268 101.505  1.00  0.00     0.078 A 
ATOM     10  C   UNL     1      22.295  -0.026 101.900  1.00  0.00     0.223 A 
ENDROOT
BRANCH   1  11
ATOM     11  C   UNL     1      22.315   1.886 103.553  1.00  0.00     0.087 A 
ATOM     12  C   UNL     1      22.797   3.100 103.032  1.00  0.00     0.022 A 
ATOM     13  C   UNL     1      22.296   4.319 103.498  1.00  0.00     0.051 A 
ATOM     14  C   UNL     1      21.298   4.341 104.481  1.00  0.00     0.157 A 
ATOM     15  C   UNL     1      21.300   1.916 104.524  1.00  0.00     0.068 A 
ATOM     16  C   UNL     1      20.796   3.138 104.992  1.00  0.00     0.158 A 
BRANCH  14  17
ATOM     17  O   UNL     1      20.797   5.554 104.949  1.00  0.00    -0.504 OA
ATOM     18  H   UNL     1      19.802   5.744 104.975  1.00  0.00     0.293 HD
ENDBRANCH  14  17
BRANCH  16  19
ATOM     19  O   UNL     1      19.799   3.164 105.965  1.00  0.00    -0.504 OA
ATOM     20  H   UNL     1      19.195   2.366 106.127  1.00  0.00     0.293 HD
ENDBRANCH  16  19
ENDBRANCH   1  11
BRANCH  10  21
ATOM     21  O   UNL     1      21.313   0.604 101.136  1.00  0.00    -0.500 OA
ATOM     22  H   UNL     1      21.525   1.404 100.550  1.00  0.00     0.294 HD
ENDBRANCH  10  21
BRANCH   5  23
ATOM     23  O   UNL     1      26.915  -3.498 104.602  1.00  0.00    -0.507 OA
ATOM     24  H   UNL     1      27.857  -3.605 104.244  1.00  0.00     0.293 HD
ENDBRANCH   5  23
BRANCH   7  25
ATOM     25  O   UNL     1      23.978  -3.888 100.805  1.00  0.00    -0.507 OA
ATOM     26  H   UNL     1      23.489  -3.510 100.007  1.00  0.00     0.293 HD
ENDBRANCH   7  25
TORSDOF 6
ENDMDL
MODEL 2
REMARK VINA RESULT:    -6.596      4.384      5.678
REMARK INTER + INTRA:          -8.283
REMARK INTER:                  -7.933
REMARK INTRA:                  -0.349
REMARK UNBOUND:                -0.337
REMARK SMILES Oc1cc(O)c2cc(O)c(-c3ccc(O)c(O)c3)[o+]c2c1
REMARK SMILES IDX 10 1 19 2 20 3 21 4 2 5 3 6 4 7 6 8 7 9 8 10 11 11 12 12
REMARK SMILES IDX 13 13 14 14 18 15 16 16 15 17 17 19 9 21 1 23 5 25
REMARK H PARENT 15 18 17 20 9 22 1 24 5 26
REMARK Flexibility Score: inf
ROOT
ATOM      1  C   UNL     1      25.772   3.721 102.928  1.00  0.00     0.402 A 
ATOM      2  O   UNL     1      26.305   2.744 102.198  1.00  0.00    -0.202 OA
ATOM      3  C   UNL     1      27.512   2.237 102.427  1.00  0.00     0.368 A 
ATOM      4  C   UNL     1      27.987   1.214 101.602  1.00  0.00     0.162 A 
ATOM      5  C   UNL     1      29.251   0.664 101.816  1.00  0.00     0.128 A 
ATOM      6  C   UNL     1      30.050   1.140 102.862  1.00  0.00     0.093 A 
ATOM      7  C   UNL     1      29.597   2.166 103.702  1.00  0.00     0.136 A 
ATOM      8  C   UNL     1      28.310   2.725 103.489  1.00  0.00     0.125 A 
ATOM      9  C   UNL     1      27.769   3.745 104.289  1.00  0.00     0.078 A 
ATOM     10  C   UNL     1      26.491   4.243 104.020  1.00  0.00     0.223 A 
ENDROOT
BRANCH   1  11
ATOM     11  C   UNL     1      24.422   4.208 102.567  1.00  0.00     0.087 A 
ATOM     12  C   UNL     1      23.263   3.629 103.114  1.00  0.00     0.022 A 
ATOM     13  C   UNL     1      22.000   4.122 102.775  1.00  0.00     0.051 A 
ATOM     14  C   UNL     1      21.877   5.207 101.898  1.00  0.00     0.157 A 
ATOM     15  C   UNL     1      24.293   5.309 101.704  1.00  0.00     0.068 A 
ATOM     16  C   UNL     1      23.026   5.804 101.364  1.00  0.00     0.158 A 
BRANCH  14  17
ATOM     17  O   UNL     1      20.619   5.700 101.557  1.00  0.00    -0.504 OA
ATOM     18  H   UNL     1      19.942   5.962 102.264  1.00  0.00     0.293 HD
ENDBRANCH  14  17
BRANCH  16  19
ATOM     19  O   UNL     1      22.901   6.887 100.496  1.00  0.00    -0.504 OA
ATOM     20  H   UNL     1      21.999   7.303 100.294  1.00  0.00     0.293 HD
ENDBRANCH  16  19
ENDBRANCH   1  11
BRANCH  10  21
ATOM     21  O   UNL     1      25.934   5.221 104.844  1.00  0.00    -0.500 OA
ATOM     22  H   UNL     1      25.062   5.682 104.609  1.00  0.00     0.294 HD
ENDBRANCH  10  21
BRANCH   5  23
ATOM     23  O   UNL     1      29.707  -0.355 100.983  1.00  0.00    -0.507 OA
ATOM     24  H   UNL     1      29.217  -1.238 100.908  1.00  0.00     0.293 HD
ENDBRANCH   5  23
BRANCH   7  25
ATOM     25  O   UNL     1      30.455   2.587 104.723  1.00  0.00    -0.507 OA
ATOM     26  H   UNL     1      31.079   3.378 104.652  1.00  0.00     0.293 HD
ENDBRANCH   7  25
TORSDOF 6
ENDMDL
MODEL 3
REMARK VINA RESULT:    -6.311      4.122      5.222
REMARK INTER + INTRA:          -7.939
REMARK INTER:                  -7.645
REMARK INTRA:                  -0.294
REMARK UNBOUND:                -0.337
REMARK SMILES Oc1cc(O)c2cc(O)c(-c3ccc(O)c(O)c3)[o+]c2c1
REMARK SMILES IDX 10 1 19 2 20 3 21 4 2 5 3 6 4 7 6 8 7 9 8 10 11 11 12 12
REMARK SMILES IDX 13 13 14 14 18 15 16 16 15 17 17 19 9 21 1 23 5 25
REMARK H PARENT 15 18 17 20 9 22 1 24 5 26
REMARK Flexibility Score: inf
ROOT
ATOM      1  C   UNL     1      25.755   3.750 102.962  1.00  0.00     0.402 A 
ATOM      2  O   UNL     1      26.131   2.719 102.209  1.00  0.00    -0.202 OA
ATOM      3  C   UNL     1      27.309   2.116 102.334  1.00  0.00     0.368 A 
ATOM      4  C   UNL     1      27.614   1.041 101.494  1.00  0.00     0.162 A 
ATOM      5  C   UNL     1      28.843   0.391 101.600  1.00  0.00     0.128 A 
ATOM      6  C   UNL     1      29.778   0.817 102.552  1.00  0.00     0.093 A 
ATOM      7  C   UNL     1      29.496   1.891 103.404  1.00  0.00     0.136 A 
ATOM      8  C   UNL     1      28.245   2.554 103.302  1.00  0.00     0.125 A 
ATOM      9  C   UNL     1      27.871   3.629 104.123  1.00  0.00     0.078 A 
ATOM     10  C   UNL     1      26.618   4.229 103.965  1.00  0.00     0.223 A 
ENDROOT
BRANCH   1  11
ATOM     11  C   UNL     1      24.421   4.343 102.720  1.00  0.00     0.087 A 
ATOM     12  C   UNL     1      24.175   5.167 101.607  1.00  0.00     0.022 A 
ATOM     13  C   UNL     1      22.901   5.697 101.386  1.00  0.00     0.051 A 
ATOM     14  C   UNL     1      21.852   5.402 102.267  1.00  0.00     0.157 A 
ATOM     15  C   UNL     1      23.359   4.036 103.588  1.00  0.00     0.068 A 
ATOM     16  C   UNL     1      22.081   4.567 103.368  1.00  0.00     0.158 A 
BRANCH  14  17
ATOM     17  O   UNL     1      20.581   5.931 102.052  1.00  0.00    -0.504 OA
ATOM     18  H   UNL     1      19.925   6.062 102.813  1.00  0.00     0.293 HD
ENDBRANCH  14  17
BRANCH  16  19
ATOM     19  O   UNL     1      21.034   4.271 104.238  1.00  0.00    -0.504 OA
ATOM     20  H   UNL     1      20.524   5.000 104.722  1.00  0.00     0.293 HD
ENDBRANCH  16  19
ENDBRANCH   1  11
BRANCH  10  21
ATOM     21  O   UNL     1      26.227   5.265 104.813  1.00  0.00    -0.500 OA
ATOM     22  H   UNL     1      26.351   6.238 104.559  1.00  0.00     0.294 HD
ENDBRANCH  10  21
BRANCH   5  23
ATOM     23  O   UNL     1      29.130  -0.678 100.753  1.00  0.00    -0.507 OA
ATOM     24  H   UNL     1      28.738  -1.599 100.910  1.00  0.00     0.293 HD
ENDBRANCH   5  23
BRANCH   7  25
ATOM     25  O   UNL     1      30.482   2.257 104.325  1.00  0.00    -0.507 OA
ATOM     26  H   UNL     1      30.925   1.619 104.970  1.00  0.00     0.293 HD
ENDBRANCH   7  25
TORSDOF 6
ENDMDL
MODEL 4
REMARK VINA RESULT:    -6.054      2.173      3.067
REMARK INTER + INTRA:          -7.630
REMARK INTER:                  -7.342
REMARK INTRA:                  -0.288
REMARK UNBOUND:                -0.337
REMARK SMILES Oc1cc(O)c2cc(O)c(-c3ccc(O)c(O)c3)[o+]c2c1
REMARK SMILES IDX 10 1 19 2 20 3 21 4 2 5 3 6 4 7 6 8 7 9 8 10 11 11 12 12
REMARK SMILES IDX 13 13 14 14 18 15 16 16 15 17 17 19 9 21 1 23 5 25
REMARK H PARENT 15 18 17 20 9 22 1 24 5 26
REMARK Flexibility Score: inf
ROOT
ATOM      1  C   UNL     1      23.918   2.619 102.986  1.00  0.00     0.402 A 
ATOM      2  O   UNL     1      23.540   1.343 102.962  1.00  0.00    -0.202 OA
ATOM      3  C   UNL     1      24.397   0.329 102.911  1.00  0.00     0.368 A 
ATOM      4  C   UNL     1      23.903  -0.978 102.887  1.00  0.00     0.162 A 
ATOM      5  C   UNL     1      24.779  -2.062 102.830  1.00  0.00     0.128 A 
ATOM      6  C   UNL     1      26.161  -1.841 102.795  1.00  0.00     0.093 A 
ATOM      7  C   UNL     1      26.681  -0.540 102.817  1.00  0.00     0.136 A 
ATOM      8  C   UNL     1      25.793   0.565 102.879  1.00  0.00     0.125 A 
ATOM      9  C   UNL     1      26.224   1.901 102.919  1.00  0.00     0.078 A 
ATOM     10  C   UNL     1      25.289   2.938 102.983  1.00  0.00     0.223 A 
ENDROOT
BRANCH   1  11
ATOM     11  C   UNL     1      22.866   3.660 103.033  1.00  0.00     0.087 A 
ATOM     12  C   UNL     1      22.592   4.476 101.921  1.00  0.00     0.022 A 
ATOM     13  C   UNL     1      21.579   5.437 101.982  1.00  0.00     0.051 A 
ATOM     14  C   UNL     1      20.817   5.586 103.148  1.00  0.00     0.157 A 
ATOM     15  C   UNL     1      22.086   3.802 104.192  1.00  0.00     0.068 A 
ATOM     16  C   UNL     1      21.069   4.765 104.254  1.00  0.00     0.158 A 
BRANCH  14  17
ATOM     17  O   UNL     1      19.808   6.545 103.212  1.00  0.00    -0.504 OA
ATOM     18  H   UNL     1      20.015   7.525 103.362  1.00  0.00     0.293 HD
ENDBRANCH  14  17
BRANCH  16  19
ATOM     19  O   UNL     1      20.306   4.913 105.410  1.00  0.00    -0.504 OA
ATOM     20  H   UNL     1      19.294   4.955 105.376  1.00  0.00     0.293 HD
ENDBRANCH  16  19
ENDBRANCH   1  11
BRANCH  10  21
ATOM     21  O   UNL     1      25.717   4.262 103.073  1.00  0.00    -0.500 OA
ATOM     22  H   UNL     1      26.416   4.640 102.442  1.00  0.00     0.294 HD
ENDBRANCH  10  21
BRANCH   5  23
ATOM     23  O   UNL     1      24.268  -3.357 102.806  1.00  0.00    -0.507 OA
ATOM     24  H   UNL     1      23.927  -3.778 101.949  1.00  0.00     0.293 HD
ENDBRANCH   5  23
BRANCH   7  25
ATOM     25  O   UNL     1      28.072  -0.403 102.777  1.00  0.00    -0.507 OA
ATOM     26  H   UNL     1      28.722  -1.084 103.140  1.00  0.00     0.293 HD
ENDBRANCH   7  25
TORSDOF 6
ENDMDL
MODEL 5
REMARK VINA RESULT:    -6.038      2.907      3.480
REMARK INTER + INTRA:          -7.610
REMARK INTER:                  -7.369
REMARK INTRA:                  -0.241
REMARK UNBOUND:                -0.337
REMARK SMILES Oc1cc(O)c2cc(O)c(-c3ccc(O)c(O)c3)[o+]c2c1
REMARK SMILES IDX 10 1 19 2 20 3 21 4 2 5 3 6 4 7 6 8 7 9 8 10 11 11 12 12
REMARK SMILES IDX 13 13 14 14 18 15 16 16 15 17 17 19 9 21 1 23 5 25
REMARK H PARENT 15 18 17 20 9 22 1 24 5 26
REMARK Flexibility Score: inf
ROOT
ATOM      1  C   UNL     1      23.901   2.624 102.969  1.00  0.00     0.402 A 
ATOM      2  O   UNL     1      25.175   3.009 102.967  1.00  0.00    -0.202 OA
ATOM      3  C   UNL     1      26.195   2.158 102.944  1.00  0.00     0.368 A 
ATOM      4  C   UNL     1      27.499   2.660 102.947  1.00  0.00     0.162 A 
ATOM      5  C   UNL     1      28.590   1.791 102.927  1.00  0.00     0.128 A 
ATOM      6  C   UNL     1      28.378   0.407 102.903  1.00  0.00     0.093 A 
ATOM      7  C   UNL     1      27.081  -0.120 102.901  1.00  0.00     0.136 A 
ATOM      8  C   UNL     1      25.969   0.761 102.918  1.00  0.00     0.125 A 
ATOM      9  C   UNL     1      24.635   0.322 102.903  1.00  0.00     0.078 A 
ATOM     10  C   UNL     1      23.591   1.252 102.918  1.00  0.00     0.223 A 
ENDROOT
BRANCH   1  11
ATOM     11  C   UNL     1      22.853   3.668 103.006  1.00  0.00     0.087 A 
ATOM     12  C   UNL     1      22.608   4.501 101.899  1.00  0.00     0.022 A 
ATOM     13  C   UNL     1      21.598   5.465 101.950  1.00  0.00     0.051 A 
ATOM     14  C   UNL     1      20.810   5.601 103.100  1.00  0.00     0.157 A 
ATOM     15  C   UNL     1      22.047   3.798 104.149  1.00  0.00     0.068 A 
ATOM     16  C   UNL     1      21.033   4.764 104.200  1.00  0.00     0.158 A 
BRANCH  14  17
ATOM     17  O   UNL     1      19.803   6.563 103.155  1.00  0.00    -0.504 OA
ATOM     18  H   UNL     1      19.025   6.555 102.505  1.00  0.00     0.293 HD
ENDBRANCH  14  17
BRANCH  16  19
ATOM     19  O   UNL     1      20.243   4.899 105.340  1.00  0.00    -0.504 OA
ATOM     20  H   UNL     1      19.579   4.183 105.614  1.00  0.00     0.293 HD
ENDBRANCH  16  19
ENDBRANCH   1  11
BRANCH  10  21
ATOM     21  O   UNL     1      22.267   0.818 102.852  1.00  0.00    -0.500 OA
ATOM     22  H   UNL     1      22.025  -0.105 102.509  1.00  0.00     0.294 HD
ENDBRANCH  10  21
BRANCH   5  23
ATOM     23  O   UNL     1      29.883   2.310 102.931  1.00  0.00    -0.507 OA
ATOM     24  H   UNL     1      30.192   2.969 102.226  1.00  0.00     0.293 HD
ENDBRANCH   5  23
BRANCH   7  25
ATOM     25  O   UNL     1      26.953  -1.513 102.880  1.00  0.00    -0.507 OA
ATOM     26  H   UNL     1      27.414  -2.117 102.215  1.00  0.00     0.293 HD
ENDBRANCH   7  25
TORSDOF 6
ENDMDL
MODEL 6
REMARK VINA RESULT:    -5.599      5.987      7.293
REMARK INTER + INTRA:          -7.082
REMARK INTER:                  -6.735
REMARK INTRA:                  -0.346
REMARK UNBOUND:                -0.337
REMARK SMILES Oc1cc(O)c2cc(O)c(-c3ccc(O)c(O)c3)[o+]c2c1
REMARK SMILES IDX 10 1 19 2 20 3 21 4 2 5 3 6 4 7 6 8 7 9 8 10 11 11 12 12
REMARK SMILES IDX 13 13 14 14 18 15 16 16 15 17 17 19 9 21 1 23 5 25
REMARK H PARENT 15 18 17 20 9 22 1 24 5 26
REMARK Flexibility Score: inf
ROOT
ATOM      1  C   UNL     1      24.344  -4.791 101.484  1.00  0.00     0.402 A 
ATOM      2  O   UNL     1      24.753  -4.872 102.748  1.00  0.00    -0.202 OA
ATOM      3  C   UNL     1      24.010  -5.384 103.724  1.00  0.00     0.368 A 
ATOM      4  C   UNL     1      24.527  -5.423 105.022  1.00  0.00     0.162 A 
ATOM      5  C   UNL     1      23.769  -5.952 106.067  1.00  0.00     0.128 A 
ATOM      6  C   UNL     1      22.484  -6.446 105.815  1.00  0.00     0.093 A 
ATOM      7  C   UNL     1      21.943  -6.417 104.524  1.00  0.00     0.136 A 
ATOM      8  C   UNL     1      22.713  -5.883 103.457  1.00  0.00     0.125 A 
ATOM      9  C   UNL     1      22.258  -5.827 102.130  1.00  0.00     0.078 A 
ATOM     10  C   UNL     1      23.076  -5.289 101.131  1.00  0.00     0.223 A 
ENDROOT
BRANCH   1  11
ATOM     11  C   UNL     1      25.260  -4.190 100.489  1.00  0.00     0.087 A 
ATOM     12  C   UNL     1      26.143  -4.982  99.733  1.00  0.00     0.022 A 
ATOM     13  C   UNL     1      26.982  -4.394  98.782  1.00  0.00     0.051 A 
ATOM     14  C   UNL     1      26.942  -3.011  98.565  1.00  0.00     0.157 A 
ATOM     15  C   UNL     1      25.211  -2.806 100.252  1.00  0.00     0.068 A 
ATOM     16  C   UNL     1      26.053  -2.216  99.299  1.00  0.00     0.158 A 
BRANCH  14  17
ATOM     17  O   UNL     1      27.779  -2.421  97.619  1.00  0.00    -0.504 OA
ATOM     18  H   UNL     1      28.095  -1.463  97.714  1.00  0.00     0.293 HD
ENDBRANCH  14  17
BRANCH  16  19
ATOM     19  O   UNL     1      26.011  -0.841  99.075  1.00  0.00    -0.504 OA
ATOM     20  H   UNL     1      26.751  -0.362  98.574  1.00  0.00     0.293 HD
ENDBRANCH  16  19
ENDBRANCH   1  11
BRANCH  10  21
ATOM     21  O   UNL     1      22.645  -5.278  99.805  1.00  0.00    -0.500 OA
ATOM     22  H   UNL     1      22.667  -4.434  99.244  1.00  0.00     0.294 HD
ENDBRANCH  10  21
BRANCH   5  23
ATOM     23  O   UNL     1      24.301  -5.981 107.354  1.00  0.00    -0.507 OA
ATOM     24  H   UNL     1      24.027  -6.690 108.025  1.00  0.00     0.293 HD
ENDBRANCH   5  23
BRANCH   7  25
ATOM     25  O   UNL     1      20.652  -6.927 104.355  1.00  0.00    -0.507 OA
ATOM     26  H   UNL     1      19.968  -6.546 103.718  1.00  0.00     0.293 HD
ENDBRANCH   7  25
TORSDOF 6
ENDMDL
MODEL 7
REMARK VINA RESULT:    -5.516      6.367      7.920
REMARK INTER + INTRA:          -6.982
REMARK INTER:                  -6.694
REMARK INTRA:                  -0.289
REMARK UNBOUND:                -0.337
REMARK SMILES Oc1cc(O)c2cc(O)c(-c3ccc(O)c(O)c3)[o+]c2c1
REMARK SMILES IDX 10 1 19 2 20 3 21 4 2 5 3 6 4 7 6 8 7 9 8 10 11 11 12 12
REMARK SMILES IDX 13 13 14 14 18 15 16 16 15 17 17 19 9 21 1 23 5 25
REMARK H PARENT 15 18 17 20 9 22 1 24 5 26
REMARK Flexibility Score: inf
ROOT
ATOM      1  C   UNL     1      29.091   2.297 103.990  1.00  0.00     0.402 A 
ATOM      2  O   UNL     1      28.768   1.868 102.772  1.00  0.00    -0.202 OA
ATOM      3  C   UNL     1      27.798   0.990 102.540  1.00  0.00     0.368 A 
ATOM      4  C   UNL     1      27.535   0.599 101.225  1.00  0.00     0.162 A 
ATOM      5  C   UNL     1      26.525  -0.323 100.952  1.00  0.00     0.128 A 
ATOM      6  C   UNL     1      25.770  -0.862 102.001  1.00  0.00     0.093 A 
ATOM      7  C   UNL     1      26.015  -0.486 103.328  1.00  0.00     0.136 A 
ATOM      8  C   UNL     1      27.040   0.454 103.609  1.00  0.00     0.125 A 
ATOM      9  C   UNL     1      27.345   0.899 104.906  1.00  0.00     0.078 A 
ATOM     10  C   UNL     1      28.367   1.832 105.104  1.00  0.00     0.223 A 
ENDROOT
BRANCH   1  11
ATOM     11  C   UNL     1      30.198   3.270 104.119  1.00  0.00     0.087 A 
ATOM     12  C   UNL     1      29.953   4.630 104.379  1.00  0.00     0.022 A 
ATOM     13  C   UNL     1      31.016   5.526 104.520  1.00  0.00     0.051 A 
ATOM     14  C   UNL     1      32.338   5.074 104.417  1.00  0.00     0.157 A 
ATOM     15  C   UNL     1      31.527   2.820 104.037  1.00  0.00     0.068 A 
ATOM     16  C   UNL     1      32.594   3.718 104.178  1.00  0.00     0.158 A 
BRANCH  14  17
ATOM     17  O   UNL     1      33.401   5.965 104.555  1.00  0.00    -0.504 OA
ATOM     18  H   UNL     1      33.589   6.679 103.861  1.00  0.00     0.293 HD
ENDBRANCH  14  17
BRANCH  16  19
ATOM     19  O   UNL     1      33.910   3.271 104.083  1.00  0.00    -0.504 OA
ATOM     20  H   UNL     1      34.130   2.331 103.773  1.00  0.00     0.293 HD
ENDBRANCH  16  19
ENDBRANCH   1  11
BRANCH  10  21
ATOM     21  O   UNL     1      28.638   2.311 106.386  1.00  0.00    -0.500 OA
ATOM     22  H   UNL     1      29.052   3.224 106.538  1.00  0.00     0.294 HD
ENDBRANCH  10  21
BRANCH   5  23
ATOM     23  O   UNL     1      26.278  -0.702  99.634  1.00  0.00    -0.507 OA
ATOM     24  H   UNL     1      26.039  -0.021  98.923  1.00  0.00     0.293 HD
ENDBRANCH   5  23
BRANCH   7  25
ATOM     25  O   UNL     1      25.220  -1.071 104.319  1.00  0.00    -0.507 OA
ATOM     26  H   UNL     1      25.070  -0.676 105.236  1.00  0.00     0.293 HD
ENDBRANCH   7  25
TORSDOF 6
ENDMDL
MODEL 8
REMARK VINA RESULT:    -5.486     10.002     11.105
REMARK INTER + INTRA:          -6.945
REMARK INTER:                  -6.843
REMARK INTRA:                  -0.102
REMARK UNBOUND:                -0.337
REMARK SMILES Oc1cc(O)c2cc(O)c(-c3ccc(O)c(O)c3)[o+]c2c1
REMARK SMILES IDX 10 1 19 2 20 3 21 4 2 5 3 6 4 7 6 8 7 9 8 10 11 11 12 12
REMARK SMILES IDX 13 13 14 14 18 15 16 16 15 17 17 19 9 21 1 23 5 25
REMARK H PARENT 15 18 17 20 9 22 1 24 5 26
REMARK Flexibility Score: inf
ROOT
ATOM      1  C   UNL     1      32.731   2.879 102.699  1.00  0.00     0.402 A 
ATOM      2  O   UNL     1      32.177   3.436 103.774  1.00  0.00    -0.202 OA
ATOM      3  C   UNL     1      32.270   2.917 104.994  1.00  0.00     0.368 A 
ATOM      4  C   UNL     1      31.652   3.575 106.060  1.00  0.00     0.162 A 
ATOM      5  C   UNL     1      31.730   3.052 107.351  1.00  0.00     0.128 A 
ATOM      6  C   UNL     1      32.430   1.862 107.581  1.00  0.00     0.093 A 
ATOM      7  C   UNL     1      33.057   1.184 106.528  1.00  0.00     0.136 A 
ATOM      8  C   UNL     1      32.983   1.714 105.213  1.00  0.00     0.125 A 
ATOM      9  C   UNL     1      33.592   1.110 104.102  1.00  0.00     0.078 A 
ATOM     10  C   UNL     1      33.479   1.695 102.837  1.00  0.00     0.223 A 
ENDROOT
BRANCH   1  11
ATOM     11  C   UNL     1      32.548   3.548 101.391  1.00  0.00     0.087 A 
ATOM     12  C   UNL     1      32.057   2.851 100.273  1.00  0.00     0.022 A 
ATOM     13  C   UNL     1      31.871   3.510  99.054  1.00  0.00     0.051 A 
ATOM     14  C   UNL     1      32.160   4.875  98.940  1.00  0.00     0.157 A 
ATOM     15  C   UNL     1      32.817   4.922 101.274  1.00  0.00     0.068 A 
ATOM     16  C   UNL     1      32.631   5.584 100.052  1.00  0.00     0.158 A 
BRANCH  14  17
ATOM     17  O   UNL     1      31.978   5.535  97.725  1.00  0.00    -0.504 OA
ATOM     18  H   UNL     1      32.037   5.044  96.841  1.00  0.00     0.293 HD
ENDBRANCH  14  17
BRANCH  16  19
ATOM     19  O   UNL     1      32.911   6.943  99.936  1.00  0.00    -0.504 OA
ATOM     20  H   UNL     1      33.626   7.388 100.501  1.00  0.00     0.293 HD
ENDBRANCH  16  19
ENDBRANCH   1  11
BRANCH  10  21
ATOM     21  O   UNL     1      34.125   1.123 101.742  1.00  0.00    -0.500 OA
ATOM     22  H   UNL     1      34.067   1.531 100.815  1.00  0.00     0.294 HD
ENDBRANCH  10  21
BRANCH   5  23
ATOM     23  O   UNL     1      31.106   3.722 108.402  1.00  0.00    -0.507 OA
ATOM     24  H   UNL     1      30.376   4.405 108.237  1.00  0.00     0.293 HD
ENDBRANCH   5  23
BRANCH   7  25
ATOM     25  O   UNL     1      33.734   0.000 106.838  1.00  0.00    -0.507 OA
ATOM     26  H   UNL     1      33.290  -0.901 106.939  1.00  0.00     0.293 HD
ENDBRANCH   7  25
TORSDOF 6
ENDMDL
MODEL 9
REMARK VINA RESULT:    -5.397      4.442      6.690
REMARK INTER + INTRA:          -6.838
REMARK INTER:                  -6.495
REMARK INTRA:                  -0.344
REMARK UNBOUND:                -0.337
REMARK SMILES Oc1cc(O)c2cc(O)c(-c3ccc(O)c(O)c3)[o+]c2c1
REMARK SMILES IDX 10 1 19 2 20 3 21 4 2 5 3 6 4 7 6 8 7 9 8 10 11 11 12 12
REMARK SMILES IDX 13 13 14 14 18 15 16 16 15 17 17 19 9 21 1 23 5 25
REMARK H PARENT 15 18 17 20 9 22 1 24 5 26
REMARK Flexibility Score: inf
ROOT
ATOM      1  C   UNL     1      24.218  -2.457 101.642  1.00  0.00     0.402 A 
ATOM      2  O   UNL     1      24.720  -2.330 102.868  1.00  0.00    -0.202 OA
ATOM      3  C   UNL     1      25.579  -1.376 103.210  1.00  0.00     0.368 A 
ATOM      4  C   UNL     1      26.053  -1.326 104.524  1.00  0.00     0.162 A 
ATOM      5  C   UNL     1      26.958  -0.338 104.910  1.00  0.00     0.128 A 
ATOM      6  C   UNL     1      27.396   0.610 103.978  1.00  0.00     0.093 A 
ATOM      7  C   UNL     1      26.936   0.581 102.655  1.00  0.00     0.136 A 
ATOM      8  C   UNL     1      26.013  -0.422 102.259  1.00  0.00     0.125 A 
ATOM      9  C   UNL     1      25.489  -0.519 100.959  1.00  0.00     0.078 A 
ATOM     10  C   UNL     1      24.579  -1.532 100.645  1.00  0.00     0.223 A 
ENDROOT
BRANCH   1  11
ATOM     11  C   UNL     1      23.276  -3.569 101.383  1.00  0.00     0.087 A 
ATOM     12  C   UNL     1      21.885  -3.388 101.479  1.00  0.00     0.022 A 
ATOM     13  C   UNL     1      21.014  -4.447 101.207  1.00  0.00     0.051 A 
ATOM     14  C   UNL     1      21.520  -5.696 100.822  1.00  0.00     0.157 A 
ATOM     15  C   UNL     1      23.775  -4.818 100.977  1.00  0.00     0.068 A 
ATOM     16  C   UNL     1      22.903  -5.881 100.704  1.00  0.00     0.158 A 
BRANCH  14  17
ATOM     17  O   UNL     1      20.654  -6.754 100.552  1.00  0.00    -0.504 OA
ATOM     18  H   UNL     1      19.655  -6.674 100.701  1.00  0.00     0.293 HD
ENDBRANCH  14  17
BRANCH  16  19
ATOM     19  O   UNL     1      23.402  -7.121 100.315  1.00  0.00    -0.504 OA
ATOM     20  H   UNL     1      24.310  -7.449 100.625  1.00  0.00     0.293 HD
ENDBRANCH  16  19
ENDBRANCH   1  11
BRANCH  10  21
ATOM     21  O   UNL     1      24.021  -1.599  99.368  1.00  0.00    -0.500 OA
ATOM     22  H   UNL     1      24.331  -0.991  98.618  1.00  0.00     0.294 HD
ENDBRANCH  10  21
BRANCH   5  23
ATOM     23  O   UNL     1      27.419  -0.305 106.224  1.00  0.00    -0.507 OA
ATOM     24  H   UNL     1      27.688  -1.151 106.714  1.00  0.00     0.293 HD
ENDBRANCH   5  23
BRANCH   7  25
ATOM     25  O   UNL     1      27.423   1.560 101.784  1.00  0.00    -0.507 OA
ATOM     26  H   UNL     1      27.550   2.530 102.031  1.00  0.00     0.293 HD
ENDBRANCH   7  25
TORSDOF 6
ENDMDL
