MODEL 1
REMARK VINA RESULT:    10.381      0.000      0.000
REMARK INTER + INTRA:          18.596
REMARK INTER:                  19.484
REMARK INTRA:                  -0.888
REMARK UNBOUND:                -0.888
REMARK SMILES CCCCCCCCC=CCCCCCCCC(=O)[O-]
REMARK SMILES IDX 10 1 9 2 11 3 12 4 13 5 14 6 15 7 16 8 17 9 18 10 19 11
REMARK SMILES IDX 20 12 8 13 7 14 6 15 5 16 4 17 3 18 2 19 1 20
REMARK H PARENT
REMARK Flexibility Score: inf
ROOT
ATOM      1  C   UNL     1       4.132  41.977  11.907  1.00  0.00    -0.031 C 
ATOM      2  C   UNL     1       4.572  41.179  12.891  1.00  0.00    -0.031 C 
ENDROOT
BRANCH   1   3
ATOM      3  C   UNL     1       4.922  42.177  10.642  1.00  0.00     0.027 C 
BRANCH   3   4
ATOM      4  C   UNL     1       4.267  43.239   9.747  1.00  0.00     0.004 C 
BRANCH   4   5
ATOM      5  C   UNL     1       4.946  43.355   8.372  1.00  0.00     0.000 C 
BRANCH   5   6
ATOM      6  C   UNL     1       6.262  42.567   8.296  1.00  0.00     0.000 C 
BRANCH   6   7
ATOM      7  C   UNL     1       7.136  43.071   7.142  1.00  0.00     0.000 C 
BRANCH   7   8
ATOM      8  C   UNL     1       8.280  42.090   6.848  1.00  0.00     0.006 C 
BRANCH   8   9
ATOM      9  C   UNL     1       8.732  42.195   5.389  1.00  0.00     0.053 C 
BRANCH   9  10
ATOM     10  C   UNL     1       9.049  40.840   4.841  1.00  0.00     0.041 C 
ATOM     11  O   UNL     1       8.765  39.806   5.503  1.00  0.00    -0.550 OA
ATOM     12  O   UNL     1       9.703  40.717   3.622  1.00  0.00    -0.550 OA
ENDBRANCH   9  10
ENDBRANCH   8   9
ENDBRANCH   7   8
ENDBRANCH   6   7
ENDBRANCH   5   6
ENDBRANCH   4   5
ENDBRANCH   3   4
ENDBRANCH   1   3
BRANCH   2  13
ATOM     13  C   UNL     1       3.775  40.963  14.147  1.00  0.00     0.027 C 
BRANCH  13  14
ATOM     14  C   UNL     1       3.758  39.481  14.543  1.00  0.00     0.004 C 
BRANCH  14  15
ATOM     15  C   UNL     1       4.555  39.249  15.836  1.00  0.00     0.000 C 
BRANCH  15  16
ATOM     16  C   UNL     1       5.362  37.941  15.810  1.00  0.00     0.000 C 
BRANCH  16  17
ATOM     17  C   UNL     1       6.864  38.179  15.568  1.00  0.00    -0.000 C 
BRANCH  17  18
ATOM     18  C   UNL     1       7.223  39.674  15.524  1.00  0.00    -0.000 C 
BRANCH  18  19
ATOM     19  C   UNL     1       8.467  39.959  14.669  1.00  0.00    -0.003 C 
ATOM     20  C   UNL     1       9.570  38.941  14.948  1.00  0.00     0.004 C 
ENDBRANCH  18  19
ENDBRANCH  17  18
ENDBRANCH  16  17
ENDBRANCH  15  16
ENDBRANCH  14  15
ENDBRANCH  13  14
ENDBRANCH   2  13
TORSDOF 15
ENDMDL
MODEL 2
REMARK VINA RESULT:    10.453      0.644      1.245
REMARK INTER + INTRA:          18.731
REMARK INTER:                  18.981
REMARK INTRA:                  -0.250
REMARK UNBOUND:                -0.888
REMARK SMILES CCCCCCCCC=CCCCCCCCC(=O)[O-]
REMARK SMILES IDX 10 1 9 2 11 3 12 4 13 5 14 6 15 7 16 8 17 9 18 10 19 11
REMARK SMILES IDX 20 12 8 13 7 14 6 15 5 16 4 17 3 18 2 19 1 20
REMARK H PARENT
REMARK Flexibility Score: inf
ROOT
ATOM      1  C   UNL     1       4.079  41.857  12.023  1.00  0.00    -0.031 C 
ATOM      2  C   UNL     1       4.554  41.124  13.041  1.00  0.00    -0.031 C 
ENDROOT
BRANCH   1   3
ATOM      3  C   UNL     1       4.837  41.992  10.730  1.00  0.00     0.027 C 
BRANCH   3   4
ATOM      4  C   UNL     1       4.120  42.953   9.770  1.00  0.00     0.004 C 
BRANCH   4   5
ATOM      5  C   UNL     1       5.023  43.423   8.619  1.00  0.00     0.000 C 
BRANCH   5   6
ATOM      6  C   UNL     1       6.156  42.431   8.314  1.00  0.00     0.000 C 
BRANCH   6   7
ATOM      7  C   UNL     1       6.815  42.750   6.967  1.00  0.00     0.000 C 
BRANCH   7   8
ATOM      8  C   UNL     1       8.283  42.303   6.954  1.00  0.00     0.006 C 
BRANCH   8   9
ATOM      9  C   UNL     1       8.877  42.412   5.546  1.00  0.00     0.053 C 
BRANCH   9  10
ATOM     10  C   UNL     1       9.172  41.053   4.996  1.00  0.00     0.041 C 
ATOM     11  O   UNL     1       9.626  40.928   3.827  1.00  0.00    -0.550 OA
ATOM     12  O   UNL     1       8.900  39.921   5.753  1.00  0.00    -0.550 OA
ENDBRANCH   9  10
ENDBRANCH   8   9
ENDBRANCH   7   8
ENDBRANCH   6   7
ENDBRANCH   5   6
ENDBRANCH   4   5
ENDBRANCH   3   4
ENDBRANCH   1   3
BRANCH   2  13
ATOM     13  C   UNL     1       3.789  40.972  14.327  1.00  0.00     0.027 C 
BRANCH  13  14
ATOM     14  C   UNL     1       3.994  39.578  14.931  1.00  0.00     0.004 C 
BRANCH  14  15
ATOM     15  C   UNL     1       5.244  39.546  15.825  1.00  0.00     0.000 C 
BRANCH  15  16
ATOM     16  C   UNL     1       6.423  40.329  15.226  1.00  0.00     0.000 C 
BRANCH  16  17
ATOM     17  C   UNL     1       7.776  39.915  15.833  1.00  0.00    -0.000 C 
BRANCH  17  18
ATOM     18  C   UNL     1       7.939  38.389  15.920  1.00  0.00    -0.000 C 
BRANCH  18  19
ATOM     19  C   UNL     1       9.170  37.880  15.153  1.00  0.00    -0.003 C 
ATOM     20  C   UNL     1      10.106  39.031  14.793  1.00  0.00     0.004 C 
ENDBRANCH  18  19
ENDBRANCH  17  18
ENDBRANCH  16  17
ENDBRANCH  15  16
ENDBRANCH  14  15
ENDBRANCH  13  14
ENDBRANCH   2  13
TORSDOF 15
ENDMDL
MODEL 3
REMARK VINA RESULT:    11.192      1.618      1.958
REMARK INTER + INTRA:          20.119
REMARK INTER:                  20.844
REMARK INTRA:                  -0.725
REMARK UNBOUND:                -0.888
REMARK SMILES CCCCCCCCC=CCCCCCCCC(=O)[O-]
REMARK SMILES IDX 10 1 9 2 11 3 12 4 13 5 14 6 15 7 16 8 17 9 18 10 19 11
REMARK SMILES IDX 20 12 8 13 7 14 6 15 5 16 4 17 3 18 2 19 1 20
REMARK H PARENT
REMARK Flexibility Score: inf
ROOT
ATOM      1  C   UNL     1       4.670  41.438  12.637  1.00  0.00    -0.031 C 
ATOM      2  C   UNL     1       3.980  41.010  13.706  1.00  0.00    -0.031 C 
ENDROOT
BRANCH   1   3
ATOM      3  C   UNL     1       3.976  41.983  11.419  1.00  0.00     0.027 C 
BRANCH   3   4
ATOM      4  C   UNL     1       4.992  42.520  10.401  1.00  0.00     0.004 C 
BRANCH   4   5
ATOM      5  C   UNL     1       4.340  42.919   9.067  1.00  0.00     0.000 C 
BRANCH   5   6
ATOM      6  C   UNL     1       5.300  43.688   8.147  1.00  0.00     0.000 C 
BRANCH   6   7
ATOM      7  C   UNL     1       6.672  43.005   8.092  1.00  0.00     0.000 C 
BRANCH   7   8
ATOM      8  C   UNL     1       6.778  42.081   6.872  1.00  0.00     0.006 C 
BRANCH   8   9
ATOM      9  C   UNL     1       8.239  41.889   6.454  1.00  0.00     0.053 C 
BRANCH   9  10
ATOM     10  C   UNL     1       9.034  43.120   6.752  1.00  0.00     0.041 C 
ATOM     11  O   UNL     1       9.851  43.131   7.711  1.00  0.00    -0.550 OA
ATOM     12  O   UNL     1       8.839  44.274   6.003  1.00  0.00    -0.550 OA
ENDBRANCH   9  10
ENDBRANCH   8   9
ENDBRANCH   7   8
ENDBRANCH   6   7
ENDBRANCH   5   6
ENDBRANCH   4   5
ENDBRANCH   3   4
ENDBRANCH   1   3
BRANCH   2  13
ATOM     13  C   UNL     1       4.673  40.484  14.932  1.00  0.00     0.027 C 
BRANCH  13  14
ATOM     14  C   UNL     1       3.903  39.304  15.538  1.00  0.00     0.004 C 
BRANCH  14  15
ATOM     15  C   UNL     1       4.688  37.994  15.374  1.00  0.00     0.000 C 
BRANCH  15  16
ATOM     16  C   UNL     1       6.155  38.225  14.976  1.00  0.00     0.000 C 
BRANCH  16  17
ATOM     17  C   UNL     1       7.133  37.923  16.125  1.00  0.00    -0.000 C 
BRANCH  17  18
ATOM     18  C   UNL     1       8.385  38.813  16.081  1.00  0.00    -0.000 C 
BRANCH  18  19
ATOM     19  C   UNL     1       8.244  39.988  15.100  1.00  0.00    -0.003 C 
ATOM     20  C   UNL     1       7.724  41.235  15.809  1.00  0.00     0.004 C 
ENDBRANCH  18  19
ENDBRANCH  17  18
ENDBRANCH  16  17
ENDBRANCH  15  16
ENDBRANCH  14  15
ENDBRANCH  13  14
ENDBRANCH   2  13
TORSDOF 15
ENDMDL
MODEL 4
REMARK VINA RESULT:    11.203      0.875      1.583
REMARK INTER + INTRA:          20.139
REMARK INTER:                  20.926
REMARK INTRA:                  -0.787
REMARK UNBOUND:                -0.888
REMARK SMILES CCCCCCCCC=CCCCCCCCC(=O)[O-]
REMARK SMILES IDX 10 1 9 2 11 3 12 4 13 5 14 6 15 7 16 8 17 9 18 10 19 11
REMARK SMILES IDX 20 12 8 13 7 14 6 15 5 16 4 17 3 18 2 19 1 20
REMARK H PARENT
REMARK Flexibility Score: inf
ROOT
ATOM      1  C   UNL     1       4.849  42.215  10.890  1.00  0.00    -0.031 C 
ATOM      2  C   UNL     1       4.116  41.727  11.903  1.00  0.00    -0.031 C 
ENDROOT
BRANCH   1   3
ATOM      3  C   UNL     1       4.206  42.807   9.666  1.00  0.00     0.027 C 
BRANCH   3   4
ATOM      4  C   UNL     1       5.257  43.445   8.746  1.00  0.00     0.004 C 
BRANCH   4   5
ATOM      5  C   UNL     1       6.476  42.536   8.520  1.00  0.00     0.000 C 
BRANCH   5   6
ATOM      6  C   UNL     1       7.074  42.689   7.113  1.00  0.00     0.000 C 
BRANCH   6   7
ATOM      7  C   UNL     1       8.138  41.616   6.850  1.00  0.00     0.000 C 
BRANCH   7   8
ATOM      8  C   UNL     1       8.754  41.782   5.455  1.00  0.00     0.006 C 
BRANCH   8   9
ATOM      9  C   UNL     1       9.254  40.440   4.912  1.00  0.00     0.053 C 
BRANCH   9  10
ATOM     10  C   UNL     1       9.797  40.605   3.529  1.00  0.00     0.041 C 
ATOM     11  O   UNL     1       9.183  41.314   2.687  1.00  0.00    -0.550 OA
ATOM     12  O   UNL     1      10.955  39.938   3.151  1.00  0.00    -0.550 OA
ENDBRANCH   9  10
ENDBRANCH   8   9
ENDBRANCH   7   8
ENDBRANCH   6   7
ENDBRANCH   5   6
ENDBRANCH   4   5
ENDBRANCH   3   4
ENDBRANCH   1   3
BRANCH   2  13
ATOM     13  C   UNL     1       4.758  41.153  13.136  1.00  0.00     0.027 C 
BRANCH  13  14
ATOM     14  C   UNL     1       3.728  40.961  14.256  1.00  0.00     0.004 C 
BRANCH  14  15
ATOM     15  C   UNL     1       3.715  39.504  14.745  1.00  0.00     0.000 C 
BRANCH  15  16
ATOM     16  C   UNL     1       4.746  39.240  15.854  1.00  0.00     0.000 C 
BRANCH  16  17
ATOM     17  C   UNL     1       5.621  38.008  15.564  1.00  0.00    -0.000 C 
BRANCH  17  18
ATOM     18  C   UNL     1       7.120  38.294  15.753  1.00  0.00    -0.000 C 
BRANCH  18  19
ATOM     19  C   UNL     1       7.550  39.635  15.138  1.00  0.00    -0.003 C 
ATOM     20  C   UNL     1       9.064  39.691  14.948  1.00  0.00     0.004 C 
ENDBRANCH  18  19
ENDBRANCH  17  18
ENDBRANCH  16  17
ENDBRANCH  15  16
ENDBRANCH  14  15
ENDBRANCH  13  14
ENDBRANCH   2  13
TORSDOF 15
ENDMDL
MODEL 5
REMARK VINA RESULT:    11.831      3.302      8.649
REMARK INTER + INTRA:          21.318
REMARK INTER:                  22.169
REMARK INTRA:                  -0.852
REMARK UNBOUND:                -0.888
REMARK SMILES CCCCCCCCC=CCCCCCCCC(=O)[O-]
REMARK SMILES IDX 10 1 9 2 11 3 12 4 13 5 14 6 15 7 16 8 17 9 18 10 19 11
REMARK SMILES IDX 20 12 8 13 7 14 6 15 5 16 4 17 3 18 2 19 1 20
REMARK H PARENT
REMARK Flexibility Score: inf
ROOT
ATOM      1  C   UNL     1       4.196  41.989  11.596  1.00  0.00    -0.031 C 
ATOM      2  C   UNL     1       4.852  42.309  10.470  1.00  0.00    -0.031 C 
ENDROOT
BRANCH   1   3
ATOM      3  C   UNL     1       4.789  41.052  12.613  1.00  0.00     0.027 C 
BRANCH   3   4
ATOM      4  C   UNL     1       4.348  41.432  14.034  1.00  0.00     0.004 C 
BRANCH   4   5
ATOM      5  C   UNL     1       4.623  40.317  15.057  1.00  0.00     0.000 C 
BRANCH   5   6
ATOM      6  C   UNL     1       4.273  38.922  14.519  1.00  0.00     0.000 C 
BRANCH   6   7
ATOM      7  C   UNL     1       5.275  37.875  15.018  1.00  0.00     0.000 C 
BRANCH   7   8
ATOM      8  C   UNL     1       6.374  38.527  15.868  1.00  0.00     0.006 C 
BRANCH   8   9
ATOM      9  C   UNL     1       7.765  38.102  15.386  1.00  0.00     0.053 C 
BRANCH   9  10
ATOM     10  C   UNL     1       8.651  39.297  15.228  1.00  0.00     0.041 C 
ATOM     11  O   UNL     1       9.765  39.187  14.651  1.00  0.00    -0.550 OA
ATOM     12  O   UNL     1       8.270  40.521  15.761  1.00  0.00    -0.550 OA
ENDBRANCH   9  10
ENDBRANCH   8   9
ENDBRANCH   7   8
ENDBRANCH   6   7
ENDBRANCH   5   6
ENDBRANCH   4   5
ENDBRANCH   3   4
ENDBRANCH   1   3
BRANCH   2  13
ATOM     13  C   UNL     1       4.269  43.260   9.462  1.00  0.00     0.027 C 
BRANCH  13  14
ATOM     14  C   UNL     1       4.981  43.136   8.110  1.00  0.00     0.004 C 
BRANCH  14  15
ATOM     15  C   UNL     1       6.388  42.541   8.282  1.00  0.00     0.000 C 
BRANCH  15  16
ATOM     16  C   UNL     1       7.336  42.914   7.131  1.00  0.00     0.000 C 
BRANCH  16  17
ATOM     17  C   UNL     1       8.287  41.765   6.755  1.00  0.00    -0.000 C 
BRANCH  17  18
ATOM     18  C   UNL     1       8.776  41.856   5.300  1.00  0.00    -0.000 C 
BRANCH  18  19
ATOM     19  C   UNL     1       9.503  40.584   4.837  1.00  0.00    -0.003 C 
ATOM     20  C   UNL     1       9.662  40.565   3.319  1.00  0.00     0.004 C 
ENDBRANCH  18  19
ENDBRANCH  17  18
ENDBRANCH  16  17
ENDBRANCH  15  16
ENDBRANCH  14  15
ENDBRANCH  13  14
ENDBRANCH   2  13
TORSDOF 15
ENDMDL
MODEL 6
REMARK VINA RESULT:    11.969      1.258      2.973
REMARK INTER + INTRA:          21.576
REMARK INTER:                  21.925
REMARK INTRA:                  -0.349
REMARK UNBOUND:                -0.888
REMARK SMILES CCCCCCCCC=CCCCCCCCC(=O)[O-]
REMARK SMILES IDX 10 1 9 2 11 3 12 4 13 5 14 6 15 7 16 8 17 9 18 10 19 11
REMARK SMILES IDX 20 12 8 13 7 14 6 15 5 16 4 17 3 18 2 19 1 20
REMARK H PARENT
REMARK Flexibility Score: inf
ROOT
ATOM      1  C   UNL     1       6.422  41.545  12.107  1.00  0.00    -0.031 C 
ATOM      2  C   UNL     1       7.431  41.215  12.927  1.00  0.00    -0.031 C 
ENDROOT
BRANCH   1   3
ATOM      3  C   UNL     1       6.671  41.976  10.687  1.00  0.00     0.027 C 
BRANCH   3   4
ATOM      4  C   UNL     1       5.418  42.624  10.081  1.00  0.00     0.004 C 
BRANCH   4   5
ATOM      5  C   UNL     1       5.548  42.864   8.568  1.00  0.00     0.000 C 
BRANCH   5   6
ATOM      6  C   UNL     1       6.925  42.459   8.023  1.00  0.00     0.000 C 
BRANCH   6   7
ATOM      7  C   UNL     1       7.153  43.041   6.623  1.00  0.00     0.000 C 
BRANCH   7   8
ATOM      8  C   UNL     1       8.639  42.996   6.243  1.00  0.00     0.006 C 
BRANCH   8   9
ATOM      9  C   UNL     1       9.217  41.594   6.453  1.00  0.00     0.053 C 
BRANCH   9  10
ATOM     10  C   UNL     1       9.078  40.778   5.207  1.00  0.00     0.041 C 
ATOM     11  O   UNL     1       9.777  41.046   4.194  1.00  0.00    -0.550 OA
ATOM     12  O   UNL     1       8.142  39.754   5.146  1.00  0.00    -0.550 OA
ENDBRANCH   9  10
ENDBRANCH   8   9
ENDBRANCH   7   8
ENDBRANCH   6   7
ENDBRANCH   5   6
ENDBRANCH   4   5
ENDBRANCH   3   4
ENDBRANCH   1   3
BRANCH   2  13
ATOM     13  C   UNL     1       7.183  40.765  14.341  1.00  0.00     0.027 C 
BRANCH  13  14
ATOM     14  C   UNL     1       8.490  40.350  15.026  1.00  0.00     0.004 C 
BRANCH  14  15
ATOM     15  C   UNL     1       8.529  38.832  15.262  1.00  0.00     0.000 C 
BRANCH  15  16
ATOM     16  C   UNL     1       7.152  38.169  15.092  1.00  0.00     0.000 C 
BRANCH  16  17
ATOM     17  C   UNL     1       6.123  38.676  16.117  1.00  0.00    -0.000 C 
BRANCH  17  18
ATOM     18  C   UNL     1       4.811  37.876  16.079  1.00  0.00    -0.000 C 
BRANCH  18  19
ATOM     19  C   UNL     1       3.722  38.562  15.240  1.00  0.00    -0.003 C 
ATOM     20  C   UNL     1       2.357  38.449  15.914  1.00  0.00     0.004 C 
ENDBRANCH  18  19
ENDBRANCH  17  18
ENDBRANCH  16  17
ENDBRANCH  15  16
ENDBRANCH  14  15
ENDBRANCH  13  14
ENDBRANCH   2  13
TORSDOF 15
ENDMDL
MODEL 7
REMARK VINA RESULT:    11.981      3.247      8.410
REMARK INTER + INTRA:          21.599
REMARK INTER:                  22.604
REMARK INTRA:                  -1.004
REMARK UNBOUND:                -0.888
REMARK SMILES CCCCCCCCC=CCCCCCCCC(=O)[O-]
REMARK SMILES IDX 10 1 9 2 11 3 12 4 13 5 14 6 15 7 16 8 17 9 18 10 19 11
REMARK SMILES IDX 20 12 8 13 7 14 6 15 5 16 4 17 3 18 2 19 1 20
REMARK H PARENT
REMARK Flexibility Score: inf
ROOT
ATOM      1  C   UNL     1       3.977  41.913  12.312  1.00  0.00    -0.031 C 
ATOM      2  C   UNL     1       4.406  42.047  11.048  1.00  0.00    -0.031 C 
ENDROOT
BRANCH   1   3
ATOM      3  C   UNL     1       4.487  40.815  13.205  1.00  0.00     0.027 C 
BRANCH   3   4
ATOM      4  C   UNL     1       3.514  40.553  14.364  1.00  0.00     0.004 C 
BRANCH   4   5
ATOM      5  C   UNL     1       4.088  39.581  15.409  1.00  0.00     0.000 C 
BRANCH   5   6
ATOM      6  C   UNL     1       4.380  38.191  14.825  1.00  0.00     0.000 C 
BRANCH   6   7
ATOM      7  C   UNL     1       5.879  37.875  14.886  1.00  0.00     0.000 C 
BRANCH   7   8
ATOM      8  C   UNL     1       6.525  38.511  16.124  1.00  0.00     0.006 C 
BRANCH   8   9
ATOM      9  C   UNL     1       7.995  38.852  15.863  1.00  0.00     0.053 C 
BRANCH   9  10
ATOM     10  C   UNL     1       8.127  40.259  15.373  1.00  0.00     0.041 C 
ATOM     11  O   UNL     1       7.332  41.148  15.779  1.00  0.00    -0.550 OA
ATOM     12  O   UNL     1       9.094  40.580  14.429  1.00  0.00    -0.550 OA
ENDBRANCH   9  10
ENDBRANCH   8   9
ENDBRANCH   7   8
ENDBRANCH   6   7
ENDBRANCH   5   6
ENDBRANCH   4   5
ENDBRANCH   3   4
ENDBRANCH   1   3
BRANCH   2  13
ATOM     13  C   UNL     1       3.912  43.157  10.161  1.00  0.00     0.027 C 
BRANCH  13  14
ATOM     14  C   UNL     1       4.568  43.090   8.777  1.00  0.00     0.004 C 
BRANCH  14  15
ATOM     15  C   UNL     1       6.054  42.715   8.890  1.00  0.00     0.000 C 
BRANCH  15  16
ATOM     16  C   UNL     1       6.738  42.573   7.521  1.00  0.00     0.000 C 
BRANCH  16  17
ATOM     17  C   UNL     1       8.195  42.091   7.636  1.00  0.00    -0.000 C 
BRANCH  17  18
ATOM     18  C   UNL     1       9.003  42.348   6.353  1.00  0.00    -0.000 C 
BRANCH  18  19
ATOM     19  C   UNL     1       9.385  41.050   5.624  1.00  0.00    -0.003 C 
ATOM     20  C   UNL     1       8.319  40.659   4.604  1.00  0.00     0.004 C 
ENDBRANCH  18  19
ENDBRANCH  17  18
ENDBRANCH  16  17
ENDBRANCH  15  16
ENDBRANCH  14  15
ENDBRANCH  13  14
ENDBRANCH   2  13
TORSDOF 15
ENDMDL
