MODEL 1
REMARK VINA RESULT:    -4.667      0.000      0.000
REMARK INTER + INTRA:         -11.860
REMARK INTER:                  -9.032
REMARK INTRA:                  -2.828
REMARK UNBOUND:                -2.828
REMARK SMILES CCCCCCCCCCCCCCCCCC(=O)[O-]
REMARK SMILES IDX 10 1 11 2 12 3 13 4 14 5 15 6 16 7 17 8 18 9 19 10 20 11
REMARK SMILES IDX 9 12 8 13 7 14 6 15 5 16 4 17 3 18 2 19 1 20
REMARK H PARENT
REMARK Flexibility Score: inf
ROOT
ATOM      1  C   UNL     1      13.225  14.193   5.065  1.00  0.00     0.000 C 
ENDROOT
BRANCH   1   2
ATOM      2  C   UNL     1      11.970  15.072   5.195  1.00  0.00     0.000 C 
BRANCH   2   3
ATOM      3  C   UNL     1      11.342  15.407   3.830  1.00  0.00     0.000 C 
BRANCH   3   4
ATOM      4  C   UNL     1      12.391  15.548   2.714  1.00  0.00     0.000 C 
BRANCH   4   5
ATOM      5  C   UNL     1      12.150  14.645   1.490  1.00  0.00     0.000 C 
BRANCH   5   6
ATOM      6  C   UNL     1      13.309  13.661   1.208  1.00  0.00     0.000 C 
BRANCH   6   7
ATOM      7  C   UNL     1      14.702  14.246   1.514  1.00  0.00     0.006 C 
BRANCH   7   8
ATOM      8  C   UNL     1      15.587  13.318   2.360  1.00  0.00     0.053 C 
BRANCH   8   9
ATOM      9  C   UNL     1      16.582  14.087   3.175  1.00  0.00     0.041 C 
ATOM     10  O   UNL     1      17.541  13.492   3.731  1.00  0.00    -0.550 OA
ATOM     11  O   UNL     1      16.466  15.465   3.293  1.00  0.00    -0.550 OA
ENDBRANCH   8   9
ENDBRANCH   7   8
ENDBRANCH   6   7
ENDBRANCH   5   6
ENDBRANCH   4   5
ENDBRANCH   3   4
ENDBRANCH   2   3
ENDBRANCH   1   2
BRANCH   1  12
ATOM     12  C   UNL     1      12.956  12.726   5.449  1.00  0.00     0.000 C 
BRANCH  12  13
ATOM     13  C   UNL     1      12.782  11.821   4.218  1.00  0.00    -0.000 C 
BRANCH  13  14
ATOM     14  C   UNL     1      11.304  11.534   3.899  1.00  0.00    -0.000 C 
BRANCH  14  15
ATOM     15  C   UNL     1      10.776  10.272   4.605  1.00  0.00    -0.000 C 
BRANCH  15  16
ATOM     16  C   UNL     1       9.467  10.472   5.391  1.00  0.00    -0.000 C 
BRANCH  16  17
ATOM     17  C   UNL     1       9.650  11.353   6.639  1.00  0.00    -0.000 C 
BRANCH  17  18
ATOM     18  C   UNL     1       9.103  12.779   6.448  1.00  0.00    -0.000 C 
BRANCH  18  19
ATOM     19  C   UNL     1       7.856  12.875   5.551  1.00  0.00    -0.003 C 
ATOM     20  C   UNL     1       8.128  13.572   4.218  1.00  0.00     0.004 C 
ENDBRANCH  18  19
ENDBRANCH  17  18
ENDBRANCH  16  17
ENDBRANCH  15  16
ENDBRANCH  14  15
ENDBRANCH  13  14
ENDBRANCH  12  13
ENDBRANCH   1  12
TORSDOF 16
ENDMDL
MODEL 2
REMARK VINA RESULT:    -4.560      2.899      4.770
REMARK INTER + INTRA:         -11.653
REMARK INTER:                  -8.805
REMARK INTRA:                  -2.848
REMARK UNBOUND:                -2.828
REMARK SMILES CCCCCCCCCCCCCCCCCC(=O)[O-]
REMARK SMILES IDX 10 1 11 2 12 3 13 4 14 5 15 6 16 7 17 8 18 9 19 10 20 11
REMARK SMILES IDX 9 12 8 13 7 14 6 15 5 16 4 17 3 18 2 19 1 20
REMARK H PARENT
REMARK Flexibility Score: inf
ROOT
ATOM      1  C   UNL     1      12.059  12.286   3.078  1.00  0.00     0.000 C 
ENDROOT
BRANCH   1   2
ATOM      2  C   UNL     1      13.213  12.369   4.090  1.00  0.00     0.000 C 
BRANCH   2   3
ATOM      3  C   UNL     1      13.728  13.807   4.281  1.00  0.00     0.000 C 
BRANCH   3   4
ATOM      4  C   UNL     1      13.084  14.511   5.487  1.00  0.00     0.000 C 
BRANCH   4   5
ATOM      5  C   UNL     1      12.577  13.561   6.588  1.00  0.00     0.000 C 
BRANCH   5   6
ATOM      6  C   UNL     1      11.097  13.792   6.974  1.00  0.00     0.000 C 
BRANCH   6   7
ATOM      7  C   UNL     1      10.312  14.614   5.933  1.00  0.00     0.006 C 
BRANCH   7   8
ATOM      8  C   UNL     1       9.622  15.855   6.522  1.00  0.00     0.053 C 
BRANCH   8   9
ATOM      9  C   UNL     1      10.539  17.040   6.552  1.00  0.00     0.041 C 
ATOM     10  O   UNL     1      10.808  17.605   7.644  1.00  0.00    -0.550 OA
ATOM     11  O   UNL     1      11.120  17.499   5.378  1.00  0.00    -0.550 OA
ENDBRANCH   8   9
ENDBRANCH   7   8
ENDBRANCH   6   7
ENDBRANCH   5   6
ENDBRANCH   4   5
ENDBRANCH   3   4
ENDBRANCH   2   3
ENDBRANCH   1   2
BRANCH   1  12
ATOM     12  C   UNL     1      10.804  11.622   3.672  1.00  0.00     0.000 C 
BRANCH  12  13
ATOM     13  C   UNL     1      11.142  10.630   4.796  1.00  0.00    -0.000 C 
BRANCH  13  14
ATOM     14  C   UNL     1       9.888  10.000   5.428  1.00  0.00    -0.000 C 
BRANCH  14  15
ATOM     15  C   UNL     1       9.126  10.978   6.341  1.00  0.00    -0.000 C 
BRANCH  15  16
ATOM     16  C   UNL     1       7.863  11.596   5.713  1.00  0.00    -0.000 C 
BRANCH  16  17
ATOM     17  C   UNL     1       7.236  12.693   6.589  1.00  0.00    -0.000 C 
BRANCH  17  18
ATOM     18  C   UNL     1       7.204  12.318   8.082  1.00  0.00    -0.000 C 
BRANCH  18  19
ATOM     19  C   UNL     1       7.943  13.301   9.008  1.00  0.00    -0.003 C 
ATOM     20  C   UNL     1       7.208  14.629   9.183  1.00  0.00     0.004 C 
ENDBRANCH  18  19
ENDBRANCH  17  18
ENDBRANCH  16  17
ENDBRANCH  15  16
ENDBRANCH  14  15
ENDBRANCH  13  14
ENDBRANCH  12  13
ENDBRANCH   1  12
TORSDOF 16
ENDMDL
MODEL 3
REMARK VINA RESULT:    -4.519      1.311      2.977
REMARK INTER + INTRA:         -11.573
REMARK INTER:                  -8.892
REMARK INTRA:                  -2.681
REMARK UNBOUND:                -2.828
REMARK SMILES CCCCCCCCCCCCCCCCCC(=O)[O-]
REMARK SMILES IDX 10 1 11 2 12 3 13 4 14 5 15 6 16 7 17 8 18 9 19 10 20 11
REMARK SMILES IDX 9 12 8 13 7 14 6 15 5 16 4 17 3 18 2 19 1 20
REMARK H PARENT
REMARK Flexibility Score: inf
ROOT
ATOM      1  C   UNL     1      11.142  15.616   5.500  1.00  0.00     0.000 C 
ENDROOT
BRANCH   1   2
ATOM      2  C   UNL     1      12.262  14.880   6.252  1.00  0.00     0.000 C 
BRANCH   2   3
ATOM      3  C   UNL     1      12.185  13.353   6.078  1.00  0.00     0.000 C 
BRANCH   3   4
ATOM      4  C   UNL     1      13.468  12.760   5.473  1.00  0.00     0.000 C 
BRANCH   4   5
ATOM      5  C   UNL     1      13.273  12.068   4.111  1.00  0.00     0.000 C 
BRANCH   5   6
ATOM      6  C   UNL     1      12.768  13.017   2.999  1.00  0.00     0.000 C 
BRANCH   6   7
ATOM      7  C   UNL     1      13.903  13.719   2.227  1.00  0.00     0.006 C 
BRANCH   7   8
ATOM      8  C   UNL     1      15.293  13.120   2.496  1.00  0.00     0.053 C 
BRANCH   8   9
ATOM      9  C   UNL     1      16.189  14.088   3.205  1.00  0.00     0.041 C 
ATOM     10  O   UNL     1      15.731  15.181   3.632  1.00  0.00    -0.550 OA
ATOM     11  O   UNL     1      17.523  13.770   3.422  1.00  0.00    -0.550 OA
ENDBRANCH   8   9
ENDBRANCH   7   8
ENDBRANCH   6   7
ENDBRANCH   5   6
ENDBRANCH   4   5
ENDBRANCH   3   4
ENDBRANCH   2   3
ENDBRANCH   1   2
BRANCH   1  12
ATOM     12  C   UNL     1       9.826  15.654   6.298  1.00  0.00     0.000 C 
BRANCH  12  13
ATOM     13  C   UNL     1       8.658  15.013   5.533  1.00  0.00    -0.000 C 
BRANCH  13  14
ATOM     14  C   UNL     1       9.114  14.286   4.255  1.00  0.00    -0.000 C 
BRANCH  14  15
ATOM     15  C   UNL     1       8.313  13.000   3.981  1.00  0.00    -0.000 C 
BRANCH  15  16
ATOM     16  C   UNL     1       9.171  11.763   3.658  1.00  0.00    -0.000 C 
BRANCH  16  17
ATOM     17  C   UNL     1       9.645  11.020   4.919  1.00  0.00    -0.000 C 
BRANCH  17  18
ATOM     18  C   UNL     1       8.698  11.213   6.117  1.00  0.00    -0.000 C 
BRANCH  18  19
ATOM     19  C   UNL     1       9.396  11.260   7.488  1.00  0.00    -0.003 C 
ATOM     20  C   UNL     1       9.035  12.503   8.302  1.00  0.00     0.004 C 
ENDBRANCH  18  19
ENDBRANCH  17  18
ENDBRANCH  16  17
ENDBRANCH  15  16
ENDBRANCH  14  15
ENDBRANCH  13  14
ENDBRANCH  12  13
ENDBRANCH   1  12
TORSDOF 16
ENDMDL
MODEL 4
REMARK VINA RESULT:    -4.509      3.263      6.899
REMARK INTER + INTRA:         -11.554
REMARK INTER:                  -8.894
REMARK INTRA:                  -2.660
REMARK UNBOUND:                -2.828
REMARK SMILES CCCCCCCCCCCCCCCCCC(=O)[O-]
REMARK SMILES IDX 10 1 11 2 12 3 13 4 14 5 15 6 16 7 17 8 18 9 19 10 20 11
REMARK SMILES IDX 9 12 8 13 7 14 6 15 5 16 4 17 3 18 2 19 1 20
REMARK H PARENT
REMARK Flexibility Score: inf
ROOT
ATOM      1  C   UNL     1      12.548  12.758   5.263  1.00  0.00     0.000 C 
ENDROOT
BRANCH   1   2
ATOM      2  C   UNL     1      12.463  11.698   4.154  1.00  0.00     0.000 C 
BRANCH   2   3
ATOM      3  C   UNL     1      11.337  10.677   4.400  1.00  0.00     0.000 C 
BRANCH   3   4
ATOM      4  C   UNL     1       9.937  11.278   4.192  1.00  0.00     0.000 C 
BRANCH   4   5
ATOM      5  C   UNL     1       8.929  10.955   5.311  1.00  0.00     0.000 C 
BRANCH   5   6
ATOM      6  C   UNL     1       9.546  10.984   6.729  1.00  0.00     0.000 C 
BRANCH   6   7
ATOM      7  C   UNL     1       8.906  12.035   7.657  1.00  0.00     0.006 C 
BRANCH   7   8
ATOM      8  C   UNL     1       9.147  13.484   7.205  1.00  0.00     0.053 C 
BRANCH   8   9
ATOM      9  C   UNL     1       7.864  14.193   6.897  1.00  0.00     0.041 C 
ATOM     10  O   UNL     1       7.848  15.443   6.756  1.00  0.00    -0.550 OA
ATOM     11  O   UNL     1       6.691  13.467   6.736  1.00  0.00    -0.550 OA
ENDBRANCH   8   9
ENDBRANCH   7   8
ENDBRANCH   6   7
ENDBRANCH   5   6
ENDBRANCH   4   5
ENDBRANCH   3   4
ENDBRANCH   2   3
ENDBRANCH   1   2
BRANCH   1  12
ATOM     12  C   UNL     1      12.566  14.193   4.703  1.00  0.00     0.000 C 
BRANCH  12  13
ATOM     13  C   UNL     1      11.159  14.705   4.358  1.00  0.00    -0.000 C 
BRANCH  13  14
ATOM     14  C   UNL     1      10.853  14.625   2.851  1.00  0.00    -0.000 C 
BRANCH  14  15
ATOM     15  C   UNL     1      11.775  15.525   2.008  1.00  0.00    -0.000 C 
BRANCH  15  16
ATOM     16  C   UNL     1      12.365  14.850   0.756  1.00  0.00    -0.000 C 
BRANCH  16  17
ATOM     17  C   UNL     1      13.305  13.681   1.096  1.00  0.00    -0.000 C 
BRANCH  17  18
ATOM     18  C   UNL     1      14.664  14.148   1.647  1.00  0.00    -0.000 C 
BRANCH  18  19
ATOM     19  C   UNL     1      15.428  13.087   2.458  1.00  0.00    -0.003 C 
ATOM     20  C   UNL     1      16.254  13.684   3.598  1.00  0.00     0.004 C 
ENDBRANCH  18  19
ENDBRANCH  17  18
ENDBRANCH  16  17
ENDBRANCH  15  16
ENDBRANCH  14  15
ENDBRANCH  13  14
ENDBRANCH  12  13
ENDBRANCH   1  12
TORSDOF 16
ENDMDL
MODEL 5
REMARK VINA RESULT:    -4.407      3.338      6.728
REMARK INTER + INTRA:         -11.357
REMARK INTER:                  -8.629
REMARK INTRA:                  -2.727
REMARK UNBOUND:                -2.828
REMARK SMILES CCCCCCCCCCCCCCCCCC(=O)[O-]
REMARK SMILES IDX 10 1 11 2 12 3 13 4 14 5 15 6 16 7 17 8 18 9 19 10 20 11
REMARK SMILES IDX 9 12 8 13 7 14 6 15 5 16 4 17 3 18 2 19 1 20
REMARK H PARENT
REMARK Flexibility Score: inf
ROOT
ATOM      1  C   UNL     1      12.371  15.008   5.967  1.00  0.00     0.000 C 
ENDROOT
BRANCH   1   2
ATOM      2  C   UNL     1      12.602  13.522   6.286  1.00  0.00     0.000 C 
BRANCH   2   3
ATOM      3  C   UNL     1      13.425  12.807   5.200  1.00  0.00     0.000 C 
BRANCH   3   4
ATOM      4  C   UNL     1      12.683  11.607   4.589  1.00  0.00     0.000 C 
BRANCH   4   5
ATOM      5  C   UNL     1      11.755  11.960   3.412  1.00  0.00     0.000 C 
BRANCH   5   6
ATOM      6  C   UNL     1      10.298  12.257   3.838  1.00  0.00     0.000 C 
BRANCH   6   7
ATOM      7  C   UNL     1       9.721  11.219   4.822  1.00  0.00     0.006 C 
BRANCH   7   8
ATOM      8  C   UNL     1       8.209  11.363   5.052  1.00  0.00     0.053 C 
BRANCH   8   9
ATOM      9  C   UNL     1       7.899  11.839   6.437  1.00  0.00     0.041 C 
ATOM     10  O   UNL     1       6.706  12.033   6.789  1.00  0.00    -0.550 OA
ATOM     11  O   UNL     1       8.926  12.039   7.350  1.00  0.00    -0.550 OA
ENDBRANCH   8   9
ENDBRANCH   7   8
ENDBRANCH   6   7
ENDBRANCH   5   6
ENDBRANCH   4   5
ENDBRANCH   3   4
ENDBRANCH   2   3
ENDBRANCH   1   2
BRANCH   1  12
ATOM     12  C   UNL     1      12.872  15.390   4.562  1.00  0.00     0.000 C 
BRANCH  12  13
ATOM     13  C   UNL     1      11.722  15.746   3.606  1.00  0.00    -0.000 C 
BRANCH  13  14
ATOM     14  C   UNL     1      12.023  15.362   2.147  1.00  0.00    -0.000 C 
BRANCH  14  15
ATOM     15  C   UNL     1      13.202  16.154   1.553  1.00  0.00    -0.000 C 
BRANCH  15  16
ATOM     16  C   UNL     1      14.333  15.287   0.969  1.00  0.00    -0.000 C 
BRANCH  16  17
ATOM     17  C   UNL     1      14.099  13.782   1.177  1.00  0.00    -0.000 C 
BRANCH  17  18
ATOM     18  C   UNL     1      15.138  13.139   2.113  1.00  0.00    -0.000 C 
BRANCH  18  19
ATOM     19  C   UNL     1      16.069  14.138   2.823  1.00  0.00    -0.003 C 
ATOM     20  C   UNL     1      16.833  13.519   3.994  1.00  0.00     0.004 C 
ENDBRANCH  18  19
ENDBRANCH  17  18
ENDBRANCH  16  17
ENDBRANCH  15  16
ENDBRANCH  14  15
ENDBRANCH  13  14
ENDBRANCH  12  13
ENDBRANCH   1  12
TORSDOF 16
ENDMDL
MODEL 6
REMARK VINA RESULT:    -4.401      1.589      2.998
REMARK INTER + INTRA:         -11.346
REMARK INTER:                  -8.334
REMARK INTRA:                  -3.012
REMARK UNBOUND:                -2.828
REMARK SMILES CCCCCCCCCCCCCCCCCC(=O)[O-]
REMARK SMILES IDX 10 1 11 2 12 3 13 4 14 5 15 6 16 7 17 8 18 9 19 10 20 11
REMARK SMILES IDX 9 12 8 13 7 14 6 15 5 16 4 17 3 18 2 19 1 20
REMARK H PARENT
REMARK Flexibility Score: inf
ROOT
ATOM      1  C   UNL     1      12.420  14.019   5.355  1.00  0.00     0.000 C 
ENDROOT
BRANCH   1   2
ATOM      2  C   UNL     1      12.787  12.552   5.081  1.00  0.00     0.000 C 
BRANCH   2   3
ATOM      3  C   UNL     1      12.838  12.228   3.577  1.00  0.00     0.000 C 
BRANCH   3   4
ATOM      4  C   UNL     1      12.888  13.491   2.701  1.00  0.00     0.000 C 
BRANCH   4   5
ATOM      5  C   UNL     1      14.122  13.586   1.785  1.00  0.00     0.000 C 
BRANCH   5   6
ATOM      6  C   UNL     1      15.433  13.117   2.459  1.00  0.00     0.000 C 
BRANCH   6   7
ATOM      7  C   UNL     1      15.994  14.126   3.480  1.00  0.00     0.006 C 
BRANCH   7   8
ATOM      8  C   UNL     1      16.426  15.461   2.853  1.00  0.00     0.053 C 
BRANCH   8   9
ATOM      9  C   UNL     1      15.694  16.621   3.456  1.00  0.00     0.041 C 
ATOM     10  O   UNL     1      14.597  16.442   4.046  1.00  0.00    -0.550 OA
ATOM     11  O   UNL     1      16.241  17.896   3.391  1.00  0.00    -0.550 OA
ENDBRANCH   8   9
ENDBRANCH   7   8
ENDBRANCH   6   7
ENDBRANCH   5   6
ENDBRANCH   4   5
ENDBRANCH   3   4
ENDBRANCH   2   3
ENDBRANCH   1   2
BRANCH   1  12
ATOM     12  C   UNL     1      11.545  14.180   6.612  1.00  0.00     0.000 C 
BRANCH  12  13
ATOM     13  C   UNL     1      10.144  14.723   6.285  1.00  0.00    -0.000 C 
BRANCH  13  14
ATOM     14  C   UNL     1       9.944  14.976   4.780  1.00  0.00    -0.000 C 
BRANCH  14  15
ATOM     15  C   UNL     1       8.768  14.175   4.192  1.00  0.00    -0.000 C 
BRANCH  15  16
ATOM     16  C   UNL     1       9.149  12.801   3.613  1.00  0.00    -0.000 C 
BRANCH  16  17
ATOM     17  C   UNL     1       8.525  11.631   4.392  1.00  0.00    -0.000 C 
BRANCH  17  18
ATOM     18  C   UNL     1       9.577  10.744   5.081  1.00  0.00    -0.000 C 
BRANCH  18  19
ATOM     19  C   UNL     1       9.685  10.940   6.604  1.00  0.00    -0.003 C 
ATOM     20  C   UNL     1       8.420  11.531   7.225  1.00  0.00     0.004 C 
ENDBRANCH  18  19
ENDBRANCH  17  18
ENDBRANCH  16  17
ENDBRANCH  15  16
ENDBRANCH  14  15
ENDBRANCH  13  14
ENDBRANCH  12  13
ENDBRANCH   1  12
TORSDOF 16
ENDMDL
MODEL 7
REMARK VINA RESULT:    -4.390      3.681      6.906
REMARK INTER + INTRA:         -11.324
REMARK INTER:                  -9.052
REMARK INTRA:                  -2.272
REMARK UNBOUND:                -2.828
REMARK SMILES CCCCCCCCCCCCCCCCCC(=O)[O-]
REMARK SMILES IDX 10 1 11 2 12 3 13 4 14 5 15 6 16 7 17 8 18 9 19 10 20 11
REMARK SMILES IDX 9 12 8 13 7 14 6 15 5 16 4 17 3 18 2 19 1 20
REMARK H PARENT
REMARK Flexibility Score: inf
ROOT
ATOM      1  C   UNL     1      10.212  14.811   5.248  1.00  0.00     0.000 C 
ENDROOT
BRANCH   1   2
ATOM      2  C   UNL     1       9.771  14.242   3.890  1.00  0.00     0.000 C 
BRANCH   2   3
ATOM      3  C   UNL     1       8.500  13.381   3.997  1.00  0.00     0.000 C 
BRANCH   3   4
ATOM      4  C   UNL     1       8.741  11.916   3.596  1.00  0.00     0.000 C 
BRANCH   4   5
ATOM      5  C   UNL     1       9.905  11.232   4.338  1.00  0.00     0.000 C 
BRANCH   5   6
ATOM      6  C   UNL     1       9.484  10.560   5.666  1.00  0.00     0.000 C 
BRANCH   6   7
ATOM      7  C   UNL     1       9.634  11.479   6.894  1.00  0.00     0.006 C 
BRANCH   7   8
ATOM      8  C   UNL     1       8.403  11.481   7.815  1.00  0.00     0.053 C 
BRANCH   8   9
ATOM      9  C   UNL     1       7.364  12.456   7.354  1.00  0.00     0.041 C 
ATOM     10  O   UNL     1       6.439  12.082   6.587  1.00  0.00    -0.550 OA
ATOM     11  O   UNL     1       7.400  13.772   7.797  1.00  0.00    -0.550 OA
ENDBRANCH   8   9
ENDBRANCH   7   8
ENDBRANCH   6   7
ENDBRANCH   5   6
ENDBRANCH   4   5
ENDBRANCH   3   4
ENDBRANCH   2   3
ENDBRANCH   1   2
BRANCH   1  12
ATOM     12  C   UNL     1      11.638  14.373   5.631  1.00  0.00     0.000 C 
BRANCH  12  13
ATOM     13  C   UNL     1      12.696  14.899   4.649  1.00  0.00    -0.000 C 
BRANCH  13  14
ATOM     14  C   UNL     1      13.801  13.868   4.360  1.00  0.00    -0.000 C 
BRANCH  14  15
ATOM     15  C   UNL     1      13.299  12.672   3.530  1.00  0.00    -0.000 C 
BRANCH  15  16
ATOM     16  C   UNL     1      12.759  13.037   2.134  1.00  0.00    -0.000 C 
BRANCH  16  17
ATOM     17  C   UNL     1      13.834  13.651   1.221  1.00  0.00    -0.000 C 
BRANCH  17  18
ATOM     18  C   UNL     1      13.389  14.980   0.585  1.00  0.00    -0.000 C 
BRANCH  18  19
ATOM     19  C   UNL     1      14.528  15.979   0.318  1.00  0.00    -0.003 C 
ATOM     20  C   UNL     1      14.641  16.381  -1.153  1.00  0.00     0.004 C 
ENDBRANCH  18  19
ENDBRANCH  17  18
ENDBRANCH  16  17
ENDBRANCH  15  16
ENDBRANCH  14  15
ENDBRANCH  13  14
ENDBRANCH  12  13
ENDBRANCH   1  12
TORSDOF 16
ENDMDL
MODEL 8
REMARK VINA RESULT:    -4.377      3.705      6.857
REMARK INTER + INTRA:         -11.299
REMARK INTER:                  -8.720
REMARK INTRA:                  -2.579
REMARK UNBOUND:                -2.828
REMARK SMILES CCCCCCCCCCCCCCCCCC(=O)[O-]
REMARK SMILES IDX 10 1 11 2 12 3 13 4 14 5 15 6 16 7 17 8 18 9 19 10 20 11
REMARK SMILES IDX 9 12 8 13 7 14 6 15 5 16 4 17 3 18 2 19 1 20
REMARK H PARENT
REMARK Flexibility Score: inf
ROOT
ATOM      1  C   UNL     1       9.853  14.912   5.583  1.00  0.00     0.000 C 
ENDROOT
BRANCH   1   2
ATOM      2  C   UNL     1       9.539  14.337   4.192  1.00  0.00     0.000 C 
BRANCH   2   3
ATOM      3  C   UNL     1       8.316  13.403   4.203  1.00  0.00     0.000 C 
BRANCH   3   4
ATOM      4  C   UNL     1       8.626  12.013   3.623  1.00  0.00     0.000 C 
BRANCH   4   5
ATOM      5  C   UNL     1       9.817  11.294   4.284  1.00  0.00     0.000 C 
BRANCH   5   6
ATOM      6  C   UNL     1       9.420  10.434   5.507  1.00  0.00     0.000 C 
BRANCH   6   7
ATOM      7  C   UNL     1       9.484  11.200   6.844  1.00  0.00     0.006 C 
BRANCH   7   8
ATOM      8  C   UNL     1       8.103  11.560   7.414  1.00  0.00     0.053 C 
BRANCH   8   9
ATOM      9  C   UNL     1       8.150  11.766   8.897  1.00  0.00     0.041 C 
ATOM     10  O   UNL     1       7.095  11.696   9.581  1.00  0.00    -0.550 OA
ATOM     11  O   UNL     1       9.364  12.004   9.528  1.00  0.00    -0.550 OA
ENDBRANCH   8   9
ENDBRANCH   7   8
ENDBRANCH   6   7
ENDBRANCH   5   6
ENDBRANCH   4   5
ENDBRANCH   3   4
ENDBRANCH   2   3
ENDBRANCH   1   2
BRANCH   1  12
ATOM     12  C   UNL     1      11.190  14.394   6.144  1.00  0.00     0.000 C 
BRANCH  12  13
ATOM     13  C   UNL     1      12.248  14.196   5.047  1.00  0.00    -0.000 C 
BRANCH  13  14
ATOM     14  C   UNL     1      13.002  12.862   5.185  1.00  0.00    -0.000 C 
BRANCH  14  15
ATOM     15  C   UNL     1      13.226  12.161   3.833  1.00  0.00    -0.000 C 
BRANCH  15  16
ATOM     16  C   UNL     1      12.660  12.913   2.615  1.00  0.00    -0.000 C 
BRANCH  16  17
ATOM     17  C   UNL     1      13.735  13.700   1.847  1.00  0.00    -0.000 C 
BRANCH  17  18
ATOM     18  C   UNL     1      15.153  13.146   2.070  1.00  0.00    -0.000 C 
BRANCH  18  19
ATOM     19  C   UNL     1      16.126  14.122   2.755  1.00  0.00    -0.003 C 
ATOM     20  C   UNL     1      16.642  13.609   4.100  1.00  0.00     0.004 C 
ENDBRANCH  18  19
ENDBRANCH  17  18
ENDBRANCH  16  17
ENDBRANCH  15  16
ENDBRANCH  14  15
ENDBRANCH  13  14
ENDBRANCH  12  13
ENDBRANCH   1  12
TORSDOF 16
ENDMDL
MODEL 9
REMARK VINA RESULT:    -4.367      1.229      2.358
REMARK INTER + INTRA:         -11.280
REMARK INTER:                  -8.424
REMARK INTRA:                  -2.856
REMARK UNBOUND:                -2.828
REMARK SMILES CCCCCCCCCCCCCCCCCC(=O)[O-]
REMARK SMILES IDX 10 1 11 2 12 3 13 4 14 5 15 6 16 7 17 8 18 9 19 10 20 11
REMARK SMILES IDX 9 12 8 13 7 14 6 15 5 16 4 17 3 18 2 19 1 20
REMARK H PARENT
REMARK Flexibility Score: inf
ROOT
ATOM      1  C   UNL     1       9.496  15.086   5.816  1.00  0.00     0.000 C 
ENDROOT
BRANCH   1   2
ATOM      2  C   UNL     1       9.350  14.902   4.297  1.00  0.00     0.000 C 
BRANCH   2   3
ATOM      3  C   UNL     1      10.336  15.776   3.500  1.00  0.00     0.000 C 
BRANCH   3   4
ATOM      4  C   UNL     1      11.013  15.008   2.353  1.00  0.00     0.000 C 
BRANCH   4   5
ATOM      5  C   UNL     1      12.544  14.894   2.475  1.00  0.00     0.000 C 
BRANCH   5   6
ATOM      6  C   UNL     1      13.179  13.936   1.439  1.00  0.00     0.000 C 
BRANCH   6   7
ATOM      7  C   UNL     1      14.624  13.526   1.786  1.00  0.00     0.006 C 
BRANCH   7   8
ATOM      8  C   UNL     1      15.395  14.597   2.574  1.00  0.00     0.053 C 
BRANCH   8   9
ATOM      9  C   UNL     1      16.404  13.987   3.499  1.00  0.00     0.041 C 
ATOM     10  O   UNL     1      17.635  14.164   3.300  1.00  0.00    -0.550 OA
ATOM     11  O   UNL     1      15.984  13.250   4.598  1.00  0.00    -0.550 OA
ENDBRANCH   8   9
ENDBRANCH   7   8
ENDBRANCH   6   7
ENDBRANCH   5   6
ENDBRANCH   4   5
ENDBRANCH   3   4
ENDBRANCH   2   3
ENDBRANCH   1   2
BRANCH   1  12
ATOM     12  C   UNL     1      10.968  15.194   6.255  1.00  0.00     0.000 C 
BRANCH  12  13
ATOM     13  C   UNL     1      11.596  13.820   6.540  1.00  0.00    -0.000 C 
BRANCH  13  14
ATOM     14  C   UNL     1      12.638  13.414   5.483  1.00  0.00    -0.000 C 
BRANCH  14  15
ATOM     15  C   UNL     1      12.446  11.972   4.980  1.00  0.00    -0.000 C 
BRANCH  15  16
ATOM     16  C   UNL     1      11.223  11.765   4.067  1.00  0.00    -0.000 C 
BRANCH  16  17
ATOM     17  C   UNL     1      10.464  10.463   4.373  1.00  0.00    -0.000 C 
BRANCH  17  18
ATOM     18  C   UNL     1       9.947  10.401   5.822  1.00  0.00    -0.000 C 
BRANCH  18  19
ATOM     19  C   UNL     1       8.773  11.349   6.127  1.00  0.00    -0.003 C 
ATOM     20  C   UNL     1       8.728  11.796   7.589  1.00  0.00     0.004 C 
ENDBRANCH  18  19
ENDBRANCH  17  18
ENDBRANCH  16  17
ENDBRANCH  15  16
ENDBRANCH  14  15
ENDBRANCH  13  14
ENDBRANCH  12  13
ENDBRANCH   1  12
TORSDOF 16
ENDMDL
