MODEL 1
REMARK VINA RESULT:    -0.978      0.000      0.000
REMARK INTER + INTRA:          -8.615
REMARK INTER:                  -2.465
REMARK INTRA:                  -6.150
REMARK UNBOUND:                -6.150
REMARK SMILES CCCCCCCCCCCCCCCCCCCCCCCCCCCC(=O)[O-]
REMARK SMILES IDX 15 1 16 2 17 3 18 4 19 5 20 6 21 7 22 8 23 9 24 10 25 11
REMARK SMILES IDX 26 12 27 13 28 14 29 15 30 16 14 17 13 18 12 19 11 20 10 21
REMARK SMILES IDX 9 22 8 23 7 24 6 25 5 26 4 27 3 28 2 29 1 30
REMARK H PARENT
REMARK Flexibility Score: inf
ROOT
ATOM      1  C   UNL     1      28.177  -7.045  20.192  1.00  0.00     0.000 C 
ENDROOT
BRANCH   1   2
ATOM      2  C   UNL     1      29.343  -6.625  21.112  1.00  0.00     0.000 C 
BRANCH   2   3
ATOM      3  C   UNL     1      29.606  -7.633  22.245  1.00  0.00     0.000 C 
BRANCH   3   4
ATOM      4  C   UNL     1      30.945  -8.380  22.060  1.00  0.00     0.000 C 
BRANCH   4   5
ATOM      5  C   UNL     1      30.781  -9.789  21.465  1.00  0.00     0.000 C 
BRANCH   5   6
ATOM      6  C   UNL     1      29.464 -10.460  21.890  1.00  0.00     0.000 C 
BRANCH   6   7
ATOM      7  C   UNL     1      28.621 -10.918  20.689  1.00  0.00     0.000 C 
BRANCH   7   8
ATOM      8  C   UNL     1      27.127 -10.597  20.854  1.00  0.00     0.000 C 
BRANCH   8   9
ATOM      9  C   UNL     1      26.794 -10.282  22.320  1.00  0.00     0.000 C 
BRANCH   9  10
ATOM     10  C   UNL     1      25.956  -9.000  22.477  1.00  0.00     0.000 C 
BRANCH  10  11
ATOM     11  C   UNL     1      26.403  -8.065  23.618  1.00  0.00     0.000 C 
BRANCH  11  12
ATOM     12  C   UNL     1      26.714  -8.766  24.956  1.00  0.00     0.006 C 
BRANCH  12  13
ATOM     13  C   UNL     1      28.123  -8.491  25.504  1.00  0.00     0.053 C 
BRANCH  13  14
ATOM     14  C   UNL     1      29.014  -9.690  25.382  1.00  0.00     0.041 C 
ATOM     15  O   UNL     1      30.264  -9.548  25.323  1.00  0.00    -0.550 OA
ATOM     16  O   UNL     1      28.464 -10.964  25.353  1.00  0.00    -0.550 OA
ENDBRANCH  13  14
ENDBRANCH  12  13
ENDBRANCH  11  12
ENDBRANCH  10  11
ENDBRANCH   9  10
ENDBRANCH   8   9
ENDBRANCH   7   8
ENDBRANCH   6   7
ENDBRANCH   5   6
ENDBRANCH   4   5
ENDBRANCH   3   4
ENDBRANCH   2   3
ENDBRANCH   1   2
BRANCH   1  17
ATOM     17  C   UNL     1      28.621  -7.632  18.838  1.00  0.00     0.000 C 
BRANCH  17  18
ATOM     18  C   UNL     1      30.130  -7.533  18.539  1.00  0.00     0.000 C 
BRANCH  18  19
ATOM     19  C   UNL     1      30.643  -8.471  17.429  1.00  0.00     0.000 C 
BRANCH  19  20
ATOM     20  C   UNL     1      30.630  -9.970  17.782  1.00  0.00     0.000 C 
BRANCH  20  21
ATOM     21  C   UNL     1      29.523 -10.771  17.064  1.00  0.00     0.000 C 
BRANCH  21  22
ATOM     22  C   UNL     1      28.970 -10.041  15.827  1.00  0.00    -0.000 C 
BRANCH  22  23
ATOM     23  C   UNL     1      27.440  -9.899  15.863  1.00  0.00    -0.000 C 
BRANCH  23  24
ATOM     24  C   UNL     1      26.850 -10.230  17.245  1.00  0.00    -0.000 C 
BRANCH  24  25
ATOM     25  C   UNL     1      25.389 -10.702  17.163  1.00  0.00    -0.000 C 
BRANCH  25  26
ATOM     26  C   UNL     1      24.403  -9.674  17.747  1.00  0.00    -0.000 C 
BRANCH  26  27
ATOM     27  C   UNL     1      25.101  -8.601  18.600  1.00  0.00    -0.000 C 
BRANCH  27  28
ATOM     28  C   UNL     1      24.985  -7.193  17.990  1.00  0.00    -0.000 C 
BRANCH  28  29
ATOM     29  C   UNL     1      24.386  -6.175  18.973  1.00  0.00    -0.003 C 
ATOM     30  C   UNL     1      23.956  -6.812  20.295  1.00  0.00     0.004 C 
ENDBRANCH  28  29
ENDBRANCH  27  28
ENDBRANCH  26  27
ENDBRANCH  25  26
ENDBRANCH  24  25
ENDBRANCH  23  24
ENDBRANCH  22  23
ENDBRANCH  21  22
ENDBRANCH  20  21
ENDBRANCH  19  20
ENDBRANCH  18  19
ENDBRANCH  17  18
ENDBRANCH   1  17
TORSDOF 26
ENDMDL
MODEL 2
REMARK VINA RESULT:    -0.857      3.563      6.838
REMARK INTER + INTRA:          -8.310
REMARK INTER:                  -2.159
REMARK INTRA:                  -6.150
REMARK UNBOUND:                -6.150
REMARK SMILES CCCCCCCCCCCCCCCCCCCCCCCCCCCC(=O)[O-]
REMARK SMILES IDX 15 1 16 2 17 3 18 4 19 5 20 6 21 7 22 8 23 9 24 10 25 11
REMARK SMILES IDX 26 12 27 13 28 14 29 15 30 16 14 17 13 18 12 19 11 20 10 21
REMARK SMILES IDX 9 22 8 23 7 24 6 25 5 26 4 27 3 28 2 29 1 30
REMARK H PARENT
REMARK Flexibility Score: inf
ROOT
ATOM      1  C   UNL     1      28.149  -6.548  12.966  1.00  0.00     0.000 C 
ENDROOT
BRANCH   1   2
ATOM      2  C   UNL     1      29.305  -6.436  11.950  1.00  0.00     0.000 C 
BRANCH   2   3
ATOM      3  C   UNL     1      29.658  -7.783  11.293  1.00  0.00     0.000 C 
BRANCH   3   4
ATOM      4  C   UNL     1      31.058  -8.284  11.712  1.00  0.00     0.000 C 
BRANCH   4   5
ATOM      5  C   UNL     1      31.021  -9.589  12.525  1.00  0.00     0.000 C 
BRANCH   5   6
ATOM      6  C   UNL     1      29.821 -10.479  12.161  1.00  0.00     0.000 C 
BRANCH   6   7
ATOM      7  C   UNL     1      28.927 -10.791  13.373  1.00  0.00     0.000 C 
BRANCH   7   8
ATOM      8  C   UNL     1      27.563 -10.087  13.304  1.00  0.00     0.000 C 
BRANCH   8   9
ATOM      9  C   UNL     1      26.736 -10.370  14.566  1.00  0.00     0.000 C 
BRANCH   9  10
ATOM     10  C   UNL     1      26.518  -9.114  15.429  1.00  0.00     0.000 C 
BRANCH  10  11
ATOM     11  C   UNL     1      25.220  -8.336  15.132  1.00  0.00     0.000 C 
BRANCH  11  12
ATOM     12  C   UNL     1      24.434  -7.873  16.375  1.00  0.00     0.006 C 
BRANCH  12  13
ATOM     13  C   UNL     1      23.522  -8.948  16.985  1.00  0.00     0.053 C 
BRANCH  13  14
ATOM     14  C   UNL     1      24.115  -9.547  18.224  1.00  0.00     0.041 C 
ATOM     15  O   UNL     1      23.850  -9.058  19.354  1.00  0.00    -0.550 OA
ATOM     16  O   UNL     1      24.947 -10.655  18.132  1.00  0.00    -0.550 OA
ENDBRANCH  13  14
ENDBRANCH  12  13
ENDBRANCH  11  12
ENDBRANCH  10  11
ENDBRANCH   9  10
ENDBRANCH   8   9
ENDBRANCH   7   8
ENDBRANCH   6   7
ENDBRANCH   5   6
ENDBRANCH   4   5
ENDBRANCH   3   4
ENDBRANCH   2   3
ENDBRANCH   1   2
BRANCH   1  17
ATOM     17  C   UNL     1      28.579  -6.358  14.434  1.00  0.00     0.000 C 
BRANCH  17  18
ATOM     18  C   UNL     1      30.094  -6.192  14.662  1.00  0.00     0.000 C 
BRANCH  18  19
ATOM     19  C   UNL     1      30.678  -7.019  15.825  1.00  0.00     0.000 C 
BRANCH  19  20
ATOM     20  C   UNL     1      30.073  -8.425  15.996  1.00  0.00     0.000 C 
BRANCH  20  21
ATOM     21  C   UNL     1      31.125  -9.542  16.160  1.00  0.00     0.000 C 
BRANCH  21  22
ATOM     22  C   UNL     1      30.724 -10.585  17.219  1.00  0.00    -0.000 C 
BRANCH  22  23
ATOM     23  C   UNL     1      29.216 -10.881  17.210  1.00  0.00    -0.000 C 
BRANCH  23  24
ATOM     24  C   UNL     1      28.552 -10.601  18.569  1.00  0.00    -0.000 C 
BRANCH  24  25
ATOM     25  C   UNL     1      29.457  -9.790  19.511  1.00  0.00    -0.000 C 
BRANCH  25  26
ATOM     26  C   UNL     1      28.905  -8.381  19.791  1.00  0.00    -0.000 C 
BRANCH  26  27
ATOM     27  C   UNL     1      27.552  -8.127  19.108  1.00  0.00    -0.000 C 
BRANCH  27  28
ATOM     28  C   UNL     1      27.600  -6.952  18.116  1.00  0.00    -0.000 C 
BRANCH  28  29
ATOM     29  C   UNL     1      28.382  -5.749  18.669  1.00  0.00    -0.003 C 
ATOM     30  C   UNL     1      28.366  -4.549  17.723  1.00  0.00     0.004 C 
ENDBRANCH  28  29
ENDBRANCH  27  28
ENDBRANCH  26  27
ENDBRANCH  25  26
ENDBRANCH  24  25
ENDBRANCH  23  24
ENDBRANCH  22  23
ENDBRANCH  21  22
ENDBRANCH  20  21
ENDBRANCH  19  20
ENDBRANCH  18  19
ENDBRANCH  17  18
ENDBRANCH   1  17
TORSDOF 26
ENDMDL
MODEL 3
REMARK VINA RESULT:    -0.737      3.572      6.844
REMARK INTER + INTRA:          -8.008
REMARK INTER:                  -1.962
REMARK INTRA:                  -6.046
REMARK UNBOUND:                -6.150
REMARK SMILES CCCCCCCCCCCCCCCCCCCCCCCCCCCC(=O)[O-]
REMARK SMILES IDX 15 1 16 2 17 3 18 4 19 5 20 6 21 7 22 8 23 9 24 10 25 11
REMARK SMILES IDX 26 12 27 13 28 14 29 15 30 16 14 17 13 18 12 19 11 20 10 21
REMARK SMILES IDX 9 22 8 23 7 24 6 25 5 26 4 27 3 28 2 29 1 30
REMARK H PARENT
REMARK Flexibility Score: inf
ROOT
ATOM      1  C   UNL     1      26.915  -7.945  17.205  1.00  0.00     0.000 C 
ENDROOT
BRANCH   1   2
ATOM      2  C   UNL     1      26.564  -9.160  16.320  1.00  0.00     0.000 C 
BRANCH   2   3
ATOM      3  C   UNL     1      25.952 -10.326  17.118  1.00  0.00     0.000 C 
BRANCH   3   4
ATOM      4  C   UNL     1      24.857 -11.066  16.317  1.00  0.00     0.000 C 
BRANCH   4   5
ATOM      5  C   UNL     1      25.137 -11.119  14.806  1.00  0.00     0.000 C 
BRANCH   5   6
ATOM      6  C   UNL     1      24.187 -10.222  13.996  1.00  0.00     0.000 C 
BRANCH   6   7
ATOM      7  C   UNL     1      22.787 -10.124  14.625  1.00  0.00     0.000 C 
BRANCH   7   8
ATOM      8  C   UNL     1      22.301  -8.674  14.772  1.00  0.00     0.000 C 
BRANCH   8   9
ATOM      9  C   UNL     1      23.425  -7.771  15.301  1.00  0.00     0.000 C 
BRANCH   9  10
ATOM     10  C   UNL     1      23.083  -7.126  16.657  1.00  0.00     0.000 C 
BRANCH  10  11
ATOM     11  C   UNL     1      23.258  -8.048  17.880  1.00  0.00     0.000 C 
BRANCH  11  12
ATOM     12  C   UNL     1      21.984  -8.795  18.325  1.00  0.00     0.006 C 
BRANCH  12  13
ATOM     13  C   UNL     1      22.228 -10.235  18.801  1.00  0.00     0.053 C 
BRANCH  13  14
ATOM     14  C   UNL     1      22.333 -10.321  20.294  1.00  0.00     0.041 C 
ATOM     15  O   UNL     1      23.381  -9.939  20.878  1.00  0.00    -0.550 OA
ATOM     16  O   UNL     1      21.267 -10.805  21.039  1.00  0.00    -0.550 OA
ENDBRANCH  13  14
ENDBRANCH  12  13
ENDBRANCH  11  12
ENDBRANCH  10  11
ENDBRANCH   9  10
ENDBRANCH   8   9
ENDBRANCH   7   8
ENDBRANCH   6   7
ENDBRANCH   5   6
ENDBRANCH   4   5
ENDBRANCH   3   4
ENDBRANCH   2   3
ENDBRANCH   1   2
BRANCH   1  17
ATOM     17  C   UNL     1      26.800  -6.587  16.486  1.00  0.00     0.000 C 
BRANCH  17  18
ATOM     18  C   UNL     1      27.585  -6.472  15.164  1.00  0.00     0.000 C 
BRANCH  18  19
ATOM     19  C   UNL     1      26.729  -6.196  13.913  1.00  0.00     0.000 C 
BRANCH  19  20
ATOM     20  C   UNL     1      26.383  -7.440  13.071  1.00  0.00     0.000 C 
BRANCH  20  21
ATOM     21  C   UNL     1      27.245  -7.593  11.801  1.00  0.00     0.000 C 
BRANCH  21  22
ATOM     22  C   UNL     1      28.396  -8.600  11.983  1.00  0.00    -0.000 C 
BRANCH  22  23
ATOM     23  C   UNL     1      27.925  -9.928  12.596  1.00  0.00    -0.000 C 
BRANCH  23  24
ATOM     24  C   UNL     1      28.878 -10.444  13.688  1.00  0.00    -0.000 C 
BRANCH  24  25
ATOM     25  C   UNL     1      29.792  -9.339  14.241  1.00  0.00    -0.000 C 
BRANCH  25  26
ATOM     26  C   UNL     1      30.152  -9.559  15.722  1.00  0.00    -0.000 C 
BRANCH  26  27
ATOM     27  C   UNL     1      29.940 -11.012  16.175  1.00  0.00    -0.000 C 
BRANCH  27  28
ATOM     28  C   UNL     1      29.628 -11.125  17.678  1.00  0.00    -0.000 C 
BRANCH  28  29
ATOM     29  C   UNL     1      30.055  -9.873  18.461  1.00  0.00    -0.003 C 
ATOM     30  C   UNL     1      29.102  -9.539  19.609  1.00  0.00     0.004 C 
ENDBRANCH  28  29
ENDBRANCH  27  28
ENDBRANCH  26  27
ENDBRANCH  25  26
ENDBRANCH  24  25
ENDBRANCH  23  24
ENDBRANCH  22  23
ENDBRANCH  21  22
ENDBRANCH  20  21
ENDBRANCH  19  20
ENDBRANCH  18  19
ENDBRANCH  17  18
ENDBRANCH   1  17
TORSDOF 26
ENDMDL
MODEL 4
REMARK VINA RESULT:    -0.735      3.557      7.137
REMARK INTER + INTRA:          -8.002
REMARK INTER:                  -1.948
REMARK INTRA:                  -6.054
REMARK UNBOUND:                -6.150
REMARK SMILES CCCCCCCCCCCCCCCCCCCCCCCCCCCC(=O)[O-]
REMARK SMILES IDX 15 1 16 2 17 3 18 4 19 5 20 6 21 7 22 8 23 9 24 10 25 11
REMARK SMILES IDX 26 12 27 13 28 14 29 15 30 16 14 17 13 18 12 19 11 20 10 21
REMARK SMILES IDX 9 22 8 23 7 24 6 25 5 26 4 27 3 28 2 29 1 30
REMARK H PARENT
REMARK Flexibility Score: inf
ROOT
ATOM      1  C   UNL     1      25.152  -7.931  20.360  1.00  0.00     0.000 C 
ENDROOT
BRANCH   1   2
ATOM      2  C   UNL     1      26.454  -8.704  20.659  1.00  0.00     0.000 C 
BRANCH   2   3
ATOM      3  C   UNL     1      27.364  -8.846  19.425  1.00  0.00     0.000 C 
BRANCH   3   4
ATOM      4  C   UNL     1      26.904  -9.989  18.493  1.00  0.00     0.000 C 
BRANCH   4   5
ATOM      5  C   UNL     1      27.979 -10.423  17.483  1.00  0.00     0.000 C 
BRANCH   5   6
ATOM      6  C   UNL     1      29.216 -11.036  18.161  1.00  0.00     0.000 C 
BRANCH   6   7
ATOM      7  C   UNL     1      30.518 -10.314  17.778  1.00  0.00     0.000 C 
BRANCH   7   8
ATOM      8  C   UNL     1      31.121  -9.515  18.944  1.00  0.00     0.000 C 
BRANCH   8   9
ATOM      9  C   UNL     1      31.073  -8.007  18.657  1.00  0.00     0.000 C 
BRANCH   9  10
ATOM     10  C   UNL     1      30.703  -7.691  17.196  1.00  0.00     0.000 C 
BRANCH  10  11
ATOM     11  C   UNL     1      29.657  -6.573  17.015  1.00  0.00     0.000 C 
BRANCH  11  12
ATOM     12  C   UNL     1      28.343  -7.008  16.336  1.00  0.00     0.006 C 
BRANCH  12  13
ATOM     13  C   UNL     1      27.700  -5.931  15.449  1.00  0.00     0.053 C 
BRANCH  13  14
ATOM     14  C   UNL     1      26.390  -6.384  14.879  1.00  0.00     0.041 C 
ATOM     15  O   UNL     1      26.353  -6.972  13.766  1.00  0.00    -0.550 OA
ATOM     16  O   UNL     1      25.214  -6.174  15.586  1.00  0.00    -0.550 OA
ENDBRANCH  13  14
ENDBRANCH  12  13
ENDBRANCH  11  12
ENDBRANCH  10  11
ENDBRANCH   9  10
ENDBRANCH   8   9
ENDBRANCH   7   8
ENDBRANCH   6   7
ENDBRANCH   5   6
ENDBRANCH   4   5
ENDBRANCH   3   4
ENDBRANCH   2   3
ENDBRANCH   1   2
BRANCH   1  17
ATOM     17  C   UNL     1      24.929  -6.699  21.259  1.00  0.00     0.000 C 
BRANCH  17  18
ATOM     18  C   UNL     1      24.914  -5.342  20.529  1.00  0.00     0.000 C 
BRANCH  18  19
ATOM     19  C   UNL     1      25.405  -5.377  19.068  1.00  0.00     0.000 C 
BRANCH  19  20
ATOM     20  C   UNL     1      26.816  -4.804  18.839  1.00  0.00     0.000 C 
BRANCH  20  21
ATOM     21  C   UNL     1      27.455  -4.194  20.105  1.00  0.00     0.000 C 
BRANCH  21  22
ATOM     22  C   UNL     1      28.929  -4.604  20.283  1.00  0.00    -0.000 C 
BRANCH  22  23
ATOM     23  C   UNL     1      29.079  -6.026  20.846  1.00  0.00    -0.000 C 
BRANCH  23  24
ATOM     24  C   UNL     1      28.496  -6.165  22.262  1.00  0.00    -0.000 C 
BRANCH  24  25
ATOM     25  C   UNL     1      29.231  -7.225  23.100  1.00  0.00    -0.000 C 
BRANCH  25  26
ATOM     26  C   UNL     1      30.134  -8.131  22.243  1.00  0.00    -0.000 C 
BRANCH  26  27
ATOM     27  C   UNL     1      30.229  -9.564  22.792  1.00  0.00    -0.000 C 
BRANCH  27  28
ATOM     28  C   UNL     1      29.425 -10.573  21.954  1.00  0.00    -0.000 C 
BRANCH  28  29
ATOM     29  C   UNL     1      28.187 -11.098  22.698  1.00  0.00    -0.003 C 
ATOM     30  C   UNL     1      28.183 -10.720  24.179  1.00  0.00     0.004 C 
ENDBRANCH  28  29
ENDBRANCH  27  28
ENDBRANCH  26  27
ENDBRANCH  25  26
ENDBRANCH  24  25
ENDBRANCH  23  24
ENDBRANCH  22  23
ENDBRANCH  21  22
ENDBRANCH  20  21
ENDBRANCH  19  20
ENDBRANCH  18  19
ENDBRANCH  17  18
ENDBRANCH   1  17
TORSDOF 26
ENDMDL
MODEL 5
REMARK VINA RESULT:    -0.699      3.688      7.026
REMARK INTER + INTRA:          -7.911
REMARK INTER:                  -2.100
REMARK INTRA:                  -5.812
REMARK UNBOUND:                -6.150
REMARK SMILES CCCCCCCCCCCCCCCCCCCCCCCCCCCC(=O)[O-]
REMARK SMILES IDX 15 1 16 2 17 3 18 4 19 5 20 6 21 7 22 8 23 9 24 10 25 11
REMARK SMILES IDX 26 12 27 13 28 14 29 15 30 16 14 17 13 18 12 19 11 20 10 21
REMARK SMILES IDX 9 22 8 23 7 24 6 25 5 26 4 27 3 28 2 29 1 30
REMARK H PARENT
REMARK Flexibility Score: inf
ROOT
ATOM      1  C   UNL     1      25.794  -7.410  20.125  1.00  0.00     0.000 C 
ENDROOT
BRANCH   1   2
ATOM      2  C   UNL     1      26.984  -8.174  19.507  1.00  0.00     0.000 C 
BRANCH   2   3
ATOM      3  C   UNL     1      27.083  -9.630  19.997  1.00  0.00     0.000 C 
BRANCH   3   4
ATOM      4  C   UNL     1      27.435 -10.606  18.853  1.00  0.00     0.000 C 
BRANCH   4   5
ATOM      5  C   UNL     1      27.706  -9.902  17.513  1.00  0.00     0.000 C 
BRANCH   5   6
ATOM      6  C   UNL     1      28.999 -10.390  16.838  1.00  0.00     0.000 C 
BRANCH   6   7
ATOM      7  C   UNL     1      30.213 -10.335  17.781  1.00  0.00     0.000 C 
BRANCH   7   8
ATOM      8  C   UNL     1      30.840  -8.934  17.862  1.00  0.00     0.000 C 
BRANCH   8   9
ATOM      9  C   UNL     1      30.987  -8.318  16.462  1.00  0.00     0.000 C 
BRANCH   9  10
ATOM     10  C   UNL     1      30.599  -6.829  16.424  1.00  0.00     0.000 C 
BRANCH  10  11
ATOM     11  C   UNL     1      29.366  -6.454  17.270  1.00  0.00     0.000 C 
BRANCH  11  12
ATOM     12  C   UNL     1      28.035  -6.381  16.494  1.00  0.00     0.006 C 
BRANCH  12  13
ATOM     13  C   UNL     1      27.348  -5.008  16.540  1.00  0.00     0.053 C 
BRANCH  13  14
ATOM     14  C   UNL     1      26.892  -4.565  15.183  1.00  0.00     0.041 C 
ATOM     15  O   UNL     1      27.050  -5.317  14.184  1.00  0.00    -0.550 OA
ATOM     16  O   UNL     1      26.277  -3.331  15.024  1.00  0.00    -0.550 OA
ENDBRANCH  13  14
ENDBRANCH  12  13
ENDBRANCH  11  12
ENDBRANCH  10  11
ENDBRANCH   9  10
ENDBRANCH   8   9
ENDBRANCH   7   8
ENDBRANCH   6   7
ENDBRANCH   5   6
ENDBRANCH   4   5
ENDBRANCH   3   4
ENDBRANCH   2   3
ENDBRANCH   1   2
BRANCH   1  17
ATOM     17  C   UNL     1      26.199  -6.177  20.956  1.00  0.00     0.000 C 
BRANCH  17  18
ATOM     18  C   UNL     1      26.740  -4.983  20.145  1.00  0.00     0.000 C 
BRANCH  18  19
ATOM     19  C   UNL     1      28.220  -4.635  20.396  1.00  0.00     0.000 C 
BRANCH  19  20
ATOM     20  C   UNL     1      28.981  -5.625  21.299  1.00  0.00     0.000 C 
BRANCH  20  21
ATOM     21  C   UNL     1      30.350  -6.059  20.735  1.00  0.00     0.000 C 
BRANCH  21  22
ATOM     22  C   UNL     1      30.969  -7.233  21.515  1.00  0.00    -0.000 C 
BRANCH  22  23
ATOM     23  C   UNL     1      30.220  -8.555  21.280  1.00  0.00    -0.000 C 
BRANCH  23  24
ATOM     24  C   UNL     1      31.125  -9.785  21.462  1.00  0.00    -0.000 C 
BRANCH  24  25
ATOM     25  C   UNL     1      30.816 -10.557  22.755  1.00  0.00    -0.000 C 
BRANCH  25  26
ATOM     26  C   UNL     1      29.353 -11.033  22.822  1.00  0.00    -0.000 C 
BRANCH  26  27
ATOM     27  C   UNL     1      28.590 -10.438  24.017  1.00  0.00    -0.000 C 
BRANCH  27  28
ATOM     28  C   UNL     1      27.401  -9.562  23.583  1.00  0.00    -0.000 C 
BRANCH  28  29
ATOM     29  C   UNL     1      27.664  -8.064  23.807  1.00  0.00    -0.003 C 
ATOM     30  C   UNL     1      28.929  -7.802  24.624  1.00  0.00     0.004 C 
ENDBRANCH  28  29
ENDBRANCH  27  28
ENDBRANCH  26  27
ENDBRANCH  25  26
ENDBRANCH  24  25
ENDBRANCH  23  24
ENDBRANCH  22  23
ENDBRANCH  21  22
ENDBRANCH  20  21
ENDBRANCH  19  20
ENDBRANCH  18  19
ENDBRANCH  17  18
ENDBRANCH   1  17
TORSDOF 26
ENDMDL
MODEL 6
REMARK VINA RESULT:    -0.654      3.932      7.722
REMARK INTER + INTRA:          -7.798
REMARK INTER:                  -1.638
REMARK INTRA:                  -6.160
REMARK UNBOUND:                -6.150
REMARK SMILES CCCCCCCCCCCCCCCCCCCCCCCCCCCC(=O)[O-]
REMARK SMILES IDX 15 1 16 2 17 3 18 4 19 5 20 6 21 7 22 8 23 9 24 10 25 11
REMARK SMILES IDX 26 12 27 13 28 14 29 15 30 16 14 17 13 18 12 19 11 20 10 21
REMARK SMILES IDX 9 22 8 23 7 24 6 25 5 26 4 27 3 28 2 29 1 30
REMARK H PARENT
REMARK Flexibility Score: inf
ROOT
ATOM      1  C   UNL     1      24.400  -7.038  15.743  1.00  0.00     0.000 C 
ENDROOT
BRANCH   1   2
ATOM      2  C   UNL     1      22.911  -7.348  15.480  1.00  0.00     0.000 C 
BRANCH   2   3
ATOM      3  C   UNL     1      22.644  -8.844  15.231  1.00  0.00     0.000 C 
BRANCH   3   4
ATOM      4  C   UNL     1      23.588  -9.747  16.055  1.00  0.00     0.000 C 
BRANCH   4   5
ATOM      5  C   UNL     1      24.249 -10.859  15.224  1.00  0.00     0.000 C 
BRANCH   5   6
ATOM      6  C   UNL     1      25.596 -10.427  14.621  1.00  0.00     0.000 C 
BRANCH   6   7
ATOM      7  C   UNL     1      25.476 -10.010  13.146  1.00  0.00     0.000 C 
BRANCH   7   8
ATOM      8  C   UNL     1      26.085  -8.626  12.868  1.00  0.00     0.000 C 
BRANCH   8   9
ATOM      9  C   UNL     1      27.384  -8.430  13.665  1.00  0.00     0.000 C 
BRANCH   9  10
ATOM     10  C   UNL     1      27.572  -6.980  14.148  1.00  0.00     0.000 C 
BRANCH  10  11
ATOM     11  C   UNL     1      28.761  -6.761  15.105  1.00  0.00     0.000 C 
BRANCH  11  12
ATOM     12  C   UNL     1      29.326  -5.326  15.130  1.00  0.00     0.006 C 
BRANCH  12  13
ATOM     13  C   UNL     1      28.750  -4.437  16.242  1.00  0.00     0.053 C 
BRANCH  13  14
ATOM     14  C   UNL     1      27.586  -3.625  15.762  1.00  0.00     0.041 C 
ATOM     15  O   UNL     1      26.610  -3.401  16.527  1.00  0.00    -0.550 OA
ATOM     16  O   UNL     1      27.586  -3.101  14.477  1.00  0.00    -0.550 OA
ENDBRANCH  13  14
ENDBRANCH  12  13
ENDBRANCH  11  12
ENDBRANCH  10  11
ENDBRANCH   9  10
ENDBRANCH   8   9
ENDBRANCH   7   8
ENDBRANCH   6   7
ENDBRANCH   5   6
ENDBRANCH   4   5
ENDBRANCH   3   4
ENDBRANCH   2   3
ENDBRANCH   1   2
BRANCH   1  17
ATOM     17  C   UNL     1      24.659  -6.234  17.032  1.00  0.00     0.000 C 
BRANCH  17  18
ATOM     18  C   UNL     1      25.701  -6.841  17.991  1.00  0.00     0.000 C 
BRANCH  18  19
ATOM     19  C   UNL     1      26.436  -8.088  17.460  1.00  0.00     0.000 C 
BRANCH  19  20
ATOM     20  C   UNL     1      26.389  -9.318  18.386  1.00  0.00     0.000 C 
BRANCH  20  21
ATOM     21  C   UNL     1      27.407 -10.417  18.015  1.00  0.00     0.000 C 
BRANCH  21  22
ATOM     22  C   UNL     1      28.374  -9.980  16.899  1.00  0.00    -0.000 C 
BRANCH  22  23
ATOM     23  C   UNL     1      29.661 -10.820  16.873  1.00  0.00    -0.000 C 
BRANCH  23  24
ATOM     24  C   UNL     1      30.799 -10.180  17.686  1.00  0.00    -0.000 C 
BRANCH  24  25
ATOM     25  C   UNL     1      31.004  -8.695  17.345  1.00  0.00    -0.000 C 
BRANCH  25  26
ATOM     26  C   UNL     1      30.999  -7.797  18.595  1.00  0.00    -0.000 C 
BRANCH  26  27
ATOM     27  C   UNL     1      29.694  -6.998  18.747  1.00  0.00    -0.000 C 
BRANCH  27  28
ATOM     28  C   UNL     1      29.025  -7.211  20.117  1.00  0.00    -0.000 C 
BRANCH  28  29
ATOM     29  C   UNL     1      29.307  -8.607  20.696  1.00  0.00    -0.003 C 
ATOM     30  C   UNL     1      29.874  -8.555  22.114  1.00  0.00     0.004 C 
ENDBRANCH  28  29
ENDBRANCH  27  28
ENDBRANCH  26  27
ENDBRANCH  25  26
ENDBRANCH  24  25
ENDBRANCH  23  24
ENDBRANCH  22  23
ENDBRANCH  21  22
ENDBRANCH  20  21
ENDBRANCH  19  20
ENDBRANCH  18  19
ENDBRANCH  17  18
ENDBRANCH   1  17
TORSDOF 26
ENDMDL
MODEL 7
REMARK VINA RESULT:    -0.628      3.844      7.231
REMARK INTER + INTRA:          -7.733
REMARK INTER:                  -1.564
REMARK INTRA:                  -6.169
REMARK UNBOUND:                -6.150
REMARK SMILES CCCCCCCCCCCCCCCCCCCCCCCCCCCC(=O)[O-]
REMARK SMILES IDX 15 1 16 2 17 3 18 4 19 5 20 6 21 7 22 8 23 9 24 10 25 11
REMARK SMILES IDX 26 12 27 13 28 14 29 15 30 16 14 17 13 18 12 19 11 20 10 21
REMARK SMILES IDX 9 22 8 23 7 24 6 25 5 26 4 27 3 28 2 29 1 30
REMARK H PARENT
REMARK Flexibility Score: inf
ROOT
ATOM      1  C   UNL     1      26.873  -5.837  18.093  1.00  0.00     0.000 C 
ENDROOT
BRANCH   1   2
ATOM      2  C   UNL     1      27.125  -6.802  16.915  1.00  0.00     0.000 C 
BRANCH   2   3
ATOM      3  C   UNL     1      28.036  -6.199  15.830  1.00  0.00     0.000 C 
BRANCH   3   4
ATOM      4  C   UNL     1      27.441  -6.367  14.414  1.00  0.00     0.000 C 
BRANCH   4   5
ATOM      5  C   UNL     1      26.292  -7.387  14.352  1.00  0.00     0.000 C 
BRANCH   5   6
ATOM      6  C   UNL     1      25.328  -7.121  13.184  1.00  0.00     0.000 C 
BRANCH   6   7
ATOM      7  C   UNL     1      24.823  -8.418  12.529  1.00  0.00     0.000 C 
BRANCH   7   8
ATOM      8  C   UNL     1      24.921  -9.634  13.464  1.00  0.00     0.000 C 
BRANCH   8   9
ATOM      9  C   UNL     1      25.689 -10.781  12.792  1.00  0.00     0.000 C 
BRANCH   9  10
ATOM     10  C   UNL     1      27.160 -10.855  13.240  1.00  0.00     0.000 C 
BRANCH  10  11
ATOM     11  C   UNL     1      28.172 -10.225  12.263  1.00  0.00     0.000 C 
BRANCH  11  12
ATOM     12  C   UNL     1      29.163  -9.227  12.897  1.00  0.00     0.006 C 
BRANCH  12  13
ATOM     13  C   UNL     1      30.460  -9.865  13.417  1.00  0.00     0.053 C 
BRANCH  13  14
ATOM     14  C   UNL     1      30.427 -10.068  14.901  1.00  0.00     0.041 C 
ATOM     15  O   UNL     1      29.758  -9.291  15.633  1.00  0.00    -0.550 OA
ATOM     16  O   UNL     1      31.121 -11.125  15.475  1.00  0.00    -0.550 OA
ENDBRANCH  13  14
ENDBRANCH  12  13
ENDBRANCH  11  12
ENDBRANCH  10  11
ENDBRANCH   9  10
ENDBRANCH   8   9
ENDBRANCH   7   8
ENDBRANCH   6   7
ENDBRANCH   5   6
ENDBRANCH   4   5
ENDBRANCH   3   4
ENDBRANCH   2   3
ENDBRANCH   1   2
BRANCH   1  17
ATOM     17  C   UNL     1      27.028  -6.485  19.483  1.00  0.00     0.000 C 
BRANCH  17  18
ATOM     18  C   UNL     1      27.579  -7.924  19.482  1.00  0.00     0.000 C 
BRANCH  18  19
ATOM     19  C   UNL     1      26.637  -8.988  20.079  1.00  0.00     0.000 C 
BRANCH  19  20
ATOM     20  C   UNL     1      26.671 -10.359  19.375  1.00  0.00     0.000 C 
BRANCH  20  21
ATOM     21  C   UNL     1      27.297 -10.321  17.965  1.00  0.00     0.000 C 
BRANCH  21  22
ATOM     22  C   UNL     1      26.246 -10.439  16.846  1.00  0.00    -0.000 C 
BRANCH  22  23
ATOM     23  C   UNL     1      24.927 -11.053  17.340  1.00  0.00    -0.000 C 
BRANCH  23  24
ATOM     24  C   UNL     1      23.703 -10.199  16.967  1.00  0.00    -0.000 C 
BRANCH  24  25
ATOM     25  C   UNL     1      24.053  -8.712  16.797  1.00  0.00    -0.000 C 
BRANCH  25  26
ATOM     26  C   UNL     1      23.725  -7.882  18.052  1.00  0.00    -0.000 C 
BRANCH  26  27
ATOM     27  C   UNL     1      22.944  -6.599  17.728  1.00  0.00    -0.000 C 
BRANCH  27  28
ATOM     28  C   UNL     1      23.366  -5.971  16.387  1.00  0.00    -0.000 C 
BRANCH  28  29
ATOM     29  C   UNL     1      23.790  -4.501  16.536  1.00  0.00    -0.003 C 
ATOM     30  C   UNL     1      24.767  -4.055  15.448  1.00  0.00     0.004 C 
ENDBRANCH  28  29
ENDBRANCH  27  28
ENDBRANCH  26  27
ENDBRANCH  25  26
ENDBRANCH  24  25
ENDBRANCH  23  24
ENDBRANCH  22  23
ENDBRANCH  21  22
ENDBRANCH  20  21
ENDBRANCH  19  20
ENDBRANCH  18  19
ENDBRANCH  17  18
ENDBRANCH   1  17
TORSDOF 26
ENDMDL
MODEL 8
REMARK VINA RESULT:    -0.625      2.635      5.364
REMARK INTER + INTRA:          -7.724
REMARK INTER:                  -2.285
REMARK INTRA:                  -5.439
REMARK UNBOUND:                -6.150
REMARK SMILES CCCCCCCCCCCCCCCCCCCCCCCCCCCC(=O)[O-]
REMARK SMILES IDX 15 1 16 2 17 3 18 4 19 5 20 6 21 7 22 8 23 9 24 10 25 11
REMARK SMILES IDX 26 12 27 13 28 14 29 15 30 16 14 17 13 18 12 19 11 20 10 21
REMARK SMILES IDX 9 22 8 23 7 24 6 25 5 26 4 27 3 28 2 29 1 30
REMARK H PARENT
REMARK Flexibility Score: inf
ROOT
ATOM      1  C   UNL     1      26.512  -6.750  16.364  1.00  0.00     0.000 C 
ENDROOT
BRANCH   1   2
ATOM      2  C   UNL     1      27.341  -6.260  17.571  1.00  0.00     0.000 C 
BRANCH   2   3
ATOM      3  C   UNL     1      28.659  -5.581  17.156  1.00  0.00     0.000 C 
BRANCH   3   4
ATOM      4  C   UNL     1      29.752  -5.723  18.240  1.00  0.00     0.000 C 
BRANCH   4   5
ATOM      5  C   UNL     1      29.770  -7.107  18.910  1.00  0.00     0.000 C 
BRANCH   5   6
ATOM      6  C   UNL     1      30.846  -8.035  18.322  1.00  0.00     0.000 C 
BRANCH   6   7
ATOM      7  C   UNL     1      30.488  -9.523  18.471  1.00  0.00     0.000 C 
BRANCH   7   8
ATOM      8  C   UNL     1      29.059  -9.840  18.002  1.00  0.00     0.000 C 
BRANCH   8   9
ATOM      9  C   UNL     1      28.431 -10.942  18.868  1.00  0.00     0.000 C 
BRANCH   9  10
ATOM     10  C   UNL     1      28.104 -10.464  20.295  1.00  0.00     0.000 C 
BRANCH  10  11
ATOM     11  C   UNL     1      28.956 -11.104  21.409  1.00  0.00     0.000 C 
BRANCH  11  12
ATOM     12  C   UNL     1      29.850 -10.123  22.196  1.00  0.00     0.006 C 
BRANCH  12  13
ATOM     13  C   UNL     1      29.337  -8.676  22.218  1.00  0.00     0.053 C 
BRANCH  13  14
ATOM     14  C   UNL     1      29.989  -7.868  23.298  1.00  0.00     0.041 C 
ATOM     15  O   UNL     1      30.400  -6.702  23.058  1.00  0.00    -0.550 OA
ATOM     16  O   UNL     1      30.126  -8.396  24.575  1.00  0.00    -0.550 OA
ENDBRANCH  13  14
ENDBRANCH  12  13
ENDBRANCH  11  12
ENDBRANCH  10  11
ENDBRANCH   9  10
ENDBRANCH   8   9
ENDBRANCH   7   8
ENDBRANCH   6   7
ENDBRANCH   5   6
ENDBRANCH   4   5
ENDBRANCH   3   4
ENDBRANCH   2   3
ENDBRANCH   1   2
BRANCH   1  17
ATOM     17  C   UNL     1      26.325  -8.278  16.306  1.00  0.00     0.000 C 
BRANCH  17  18
ATOM     18  C   UNL     1      25.305  -8.779  15.265  1.00  0.00     0.000 C 
BRANCH  18  19
ATOM     19  C   UNL     1      25.674 -10.104  14.568  1.00  0.00     0.000 C 
BRANCH  19  20
ATOM     20  C   UNL     1      25.875 -10.006  13.044  1.00  0.00     0.000 C 
BRANCH  20  21
ATOM     21  C   UNL     1      26.009  -8.559  12.523  1.00  0.00     0.000 C 
BRANCH  21  22
ATOM     22  C   UNL     1      26.920  -8.455  11.287  1.00  0.00    -0.000 C 
BRANCH  22  23
ATOM     23  C   UNL     1      28.206  -7.663  11.570  1.00  0.00    -0.000 C 
BRANCH  23  24
ATOM     24  C   UNL     1      28.202  -7.009  12.962  1.00  0.00    -0.000 C 
BRANCH  24  25
ATOM     25  C   UNL     1      29.501  -6.240  13.255  1.00  0.00    -0.000 C 
BRANCH  25  26
ATOM     26  C   UNL     1      30.397  -6.963  14.276  1.00  0.00    -0.000 C 
BRANCH  26  27
ATOM     27  C   UNL     1      29.712  -8.188  14.905  1.00  0.00    -0.000 C 
BRANCH  27  28
ATOM     28  C   UNL     1      30.358  -9.515  14.472  1.00  0.00    -0.000 C 
BRANCH  28  29
ATOM     29  C   UNL     1      29.321 -10.630  14.261  1.00  0.00    -0.003 C 
ATOM     30  C   UNL     1      29.270 -11.125  12.815  1.00  0.00     0.004 C 
ENDBRANCH  28  29
ENDBRANCH  27  28
ENDBRANCH  26  27
ENDBRANCH  25  26
ENDBRANCH  24  25
ENDBRANCH  23  24
ENDBRANCH  22  23
ENDBRANCH  21  22
ENDBRANCH  20  21
ENDBRANCH  19  20
ENDBRANCH  18  19
ENDBRANCH  17  18
ENDBRANCH   1  17
TORSDOF 26
ENDMDL
