MODEL 1
REMARK VINA RESULT:    -4.341      0.000      0.000
REMARK INTER + INTRA:          -9.283
REMARK INTER:                  -7.894
REMARK INTRA:                  -1.389
REMARK UNBOUND:                -1.389
REMARK SMILES CCCCCCCCCCCCCCCC(=O)[O-]
REMARK SMILES IDX 9 1 10 2 11 3 12 4 13 5 14 6 15 7 16 8 17 9 18 10 8 11 7 12
REMARK SMILES IDX 6 13 5 14 4 15 3 16 2 17 1 18
REMARK H PARENT
REMARK Flexibility Score: inf
ROOT
ATOM      1  C   UNL     1      -1.485  -7.512   4.220  1.00  0.00     0.000 C 
ENDROOT
BRANCH   1   2
ATOM      2  C   UNL     1      -0.748  -6.977   5.460  1.00  0.00     0.000 C 
BRANCH   2   3
ATOM      3  C   UNL     1      -1.703  -6.630   6.613  1.00  0.00     0.000 C 
BRANCH   3   4
ATOM      4  C   UNL     1      -1.628  -5.149   7.024  1.00  0.00     0.000 C 
BRANCH   4   5
ATOM      5  C   UNL     1      -2.492  -4.248   6.113  1.00  0.00     0.000 C 
BRANCH   5   6
ATOM      6  C   UNL     1      -3.996  -4.299   6.445  1.00  0.00     0.006 C 
BRANCH   6   7
ATOM      7  C   UNL     1      -4.909  -3.972   5.255  1.00  0.00     0.053 C 
BRANCH   7   8
ATOM      8  C   UNL     1      -6.199  -3.353   5.697  1.00  0.00     0.041 C 
ATOM      9  O   UNL     1      -6.417  -3.138   6.918  1.00  0.00    -0.550 OA
ATOM     10  O   UNL     1      -7.170  -3.028   4.759  1.00  0.00    -0.550 OA
ENDBRANCH   7   8
ENDBRANCH   6   7
ENDBRANCH   5   6
ENDBRANCH   4   5
ENDBRANCH   3   4
ENDBRANCH   2   3
ENDBRANCH   1   2
BRANCH   1  11
ATOM     11  C   UNL     1      -1.503  -6.501   3.061  1.00  0.00     0.000 C 
BRANCH  11  12
ATOM     12  C   UNL     1      -2.901  -5.918   2.803  1.00  0.00    -0.000 C 
BRANCH  12  13
ATOM     13  C   UNL     1      -2.810  -4.445   2.378  1.00  0.00    -0.000 C 
BRANCH  13  14
ATOM     14  C   UNL     1      -2.400  -4.273   0.903  1.00  0.00    -0.000 C 
BRANCH  14  15
ATOM     15  C   UNL     1      -3.119  -5.208  -0.091  1.00  0.00    -0.000 C 
BRANCH  15  16
ATOM     16  C   UNL     1      -2.327  -5.534  -1.370  1.00  0.00    -0.000 C 
BRANCH  16  17
ATOM     17  C   UNL     1      -3.195  -6.176  -2.461  1.00  0.00    -0.003 C 
ATOM     18  C   UNL     1      -4.595  -6.484  -1.937  1.00  0.00     0.004 C 
ENDBRANCH  16  17
ENDBRANCH  15  16
ENDBRANCH  14  15
ENDBRANCH  13  14
ENDBRANCH  12  13
ENDBRANCH  11  12
ENDBRANCH   1  11
TORSDOF 14
ENDMDL
MODEL 2
REMARK VINA RESULT:    -4.300     12.398     13.761
REMARK INTER + INTRA:          -9.209
REMARK INTER:                  -8.219
REMARK INTRA:                  -0.990
REMARK UNBOUND:                -1.389
REMARK SMILES CCCCCCCCCCCCCCCC(=O)[O-]
REMARK SMILES IDX 9 1 10 2 11 3 12 4 13 5 14 6 15 7 16 8 17 9 18 10 8 11 7 12
REMARK SMILES IDX 6 13 5 14 4 15 3 16 2 17 1 18
REMARK H PARENT
REMARK Flexibility Score: inf
ROOT
ATOM      1  C   UNL     1       2.717   4.724   0.775  1.00  0.00     0.000 C 
ENDROOT
BRANCH   1   2
ATOM      2  C   UNL     1       1.356   5.409   0.989  1.00  0.00     0.000 C 
BRANCH   2   3
ATOM      3  C   UNL     1       1.139   5.851   2.445  1.00  0.00     0.000 C 
BRANCH   3   4
ATOM      4  C   UNL     1       2.451   6.219   3.158  1.00  0.00     0.000 C 
BRANCH   4   5
ATOM      5  C   UNL     1       2.708   5.331   4.397  1.00  0.00     0.000 C 
BRANCH   5   6
ATOM      6  C   UNL     1       4.122   4.720   4.432  1.00  0.00     0.006 C 
BRANCH   6   7
ATOM      7  C   UNL     1       4.375   3.805   5.639  1.00  0.00     0.053 C 
BRANCH   7   8
ATOM      8  C   UNL     1       5.822   3.781   6.026  1.00  0.00     0.041 C 
ATOM      9  O   UNL     1       6.177   4.128   7.182  1.00  0.00    -0.550 OA
ATOM     10  O   UNL     1       6.782   3.392   5.100  1.00  0.00    -0.550 OA
ENDBRANCH   7   8
ENDBRANCH   6   7
ENDBRANCH   5   6
ENDBRANCH   4   5
ENDBRANCH   3   4
ENDBRANCH   2   3
ENDBRANCH   1   2
BRANCH   1  11
ATOM     11  C   UNL     1       3.080   4.585  -0.713  1.00  0.00     0.000 C 
BRANCH  11  12
ATOM     12  C   UNL     1       2.263   5.525  -1.614  1.00  0.00    -0.000 C 
BRANCH  12  13
ATOM     13  C   UNL     1       3.187   6.392  -2.481  1.00  0.00    -0.000 C 
BRANCH  13  14
ATOM     14  C   UNL     1       4.473   6.816  -1.746  1.00  0.00    -0.000 C 
BRANCH  14  15
ATOM     15  C   UNL     1       5.781   6.587  -2.530  1.00  0.00    -0.000 C 
BRANCH  15  16
ATOM     16  C   UNL     1       6.502   5.261  -2.223  1.00  0.00    -0.000 C 
BRANCH  16  17
ATOM     17  C   UNL     1       7.833   5.119  -2.974  1.00  0.00    -0.003 C 
ATOM     18  C   UNL     1       7.608   5.050  -4.482  1.00  0.00     0.004 C 
ENDBRANCH  16  17
ENDBRANCH  15  16
ENDBRANCH  14  15
ENDBRANCH  13  14
ENDBRANCH  12  13
ENDBRANCH  11  12
ENDBRANCH   1  11
TORSDOF 14
ENDMDL
MODEL 3
REMARK VINA RESULT:    -4.276      3.832      7.594
REMARK INTER + INTRA:          -9.166
REMARK INTER:                  -7.993
REMARK INTRA:                  -1.173
REMARK UNBOUND:                -1.389
REMARK SMILES CCCCCCCCCCCCCCCC(=O)[O-]
REMARK SMILES IDX 9 1 10 2 11 3 12 4 13 5 14 6 15 7 16 8 17 9 18 10 8 11 7 12
REMARK SMILES IDX 6 13 5 14 4 15 3 16 2 17 1 18
REMARK H PARENT
REMARK Flexibility Score: inf
ROOT
ATOM      1  C   UNL     1      -2.089  -3.610  -0.609  1.00  0.00     0.000 C 
ENDROOT
BRANCH   1   2
ATOM      2  C   UNL     1      -1.561  -4.939  -1.174  1.00  0.00     0.000 C 
BRANCH   2   3
ATOM      3  C   UNL     1      -2.208  -5.309  -2.519  1.00  0.00     0.000 C 
BRANCH   3   4
ATOM      4  C   UNL     1      -3.081  -6.573  -2.433  1.00  0.00     0.000 C 
BRANCH   4   5
ATOM      5  C   UNL     1      -4.495  -6.267  -1.891  1.00  0.00     0.000 C 
BRANCH   5   6
ATOM      6  C   UNL     1      -5.490  -5.830  -2.984  1.00  0.00     0.006 C 
BRANCH   6   7
ATOM      7  C   UNL     1      -6.852  -5.375  -2.440  1.00  0.00     0.053 C 
BRANCH   7   8
ATOM      8  C   UNL     1      -7.866  -5.227  -3.532  1.00  0.00     0.041 C 
ATOM      9  O   UNL     1      -8.877  -4.495  -3.368  1.00  0.00    -0.550 OA
ATOM     10  O   UNL     1      -7.703  -5.913  -4.729  1.00  0.00    -0.550 OA
ENDBRANCH   7   8
ENDBRANCH   6   7
ENDBRANCH   5   6
ENDBRANCH   4   5
ENDBRANCH   3   4
ENDBRANCH   2   3
ENDBRANCH   1   2
BRANCH   1  11
ATOM     11  C   UNL     1      -2.447  -3.704   0.884  1.00  0.00     0.000 C 
BRANCH  11  12
ATOM     12  C   UNL     1      -3.011  -5.079   1.274  1.00  0.00    -0.000 C 
BRANCH  12  13
ATOM     13  C   UNL     1      -2.303  -5.629   2.520  1.00  0.00    -0.000 C 
BRANCH  13  14
ATOM     14  C   UNL     1      -0.804  -5.896   2.287  1.00  0.00    -0.000 C 
BRANCH  14  15
ATOM     15  C   UNL     1      -0.153  -6.884   3.277  1.00  0.00    -0.000 C 
BRANCH  15  16
ATOM     16  C   UNL     1      -1.140  -7.760   4.070  1.00  0.00    -0.000 C 
BRANCH  16  17
ATOM     17  C   UNL     1      -0.761  -7.893   5.551  1.00  0.00    -0.003 C 
ATOM     18  C   UNL     1      -1.351  -6.750   6.373  1.00  0.00     0.004 C 
ENDBRANCH  16  17
ENDBRANCH  15  16
ENDBRANCH  14  15
ENDBRANCH  13  14
ENDBRANCH  12  13
ENDBRANCH  11  12
ENDBRANCH   1  11
TORSDOF 14
ENDMDL
MODEL 4
REMARK VINA RESULT:    -4.273     12.852     15.312
REMARK INTER + INTRA:          -9.160
REMARK INTER:                  -8.085
REMARK INTRA:                  -1.074
REMARK UNBOUND:                -1.389
REMARK SMILES CCCCCCCCCCCCCCCC(=O)[O-]
REMARK SMILES IDX 9 1 10 2 11 3 12 4 13 5 14 6 15 7 16 8 17 9 18 10 8 11 7 12
REMARK SMILES IDX 6 13 5 14 4 15 3 16 2 17 1 18
REMARK H PARENT
REMARK Flexibility Score: inf
ROOT
ATOM      1  C   UNL     1       1.099   5.212   0.025  1.00  0.00     0.000 C 
ENDROOT
BRANCH   1   2
ATOM      2  C   UNL     1       2.409   4.976  -0.746  1.00  0.00     0.000 C 
BRANCH   2   3
ATOM      3  C   UNL     1       2.330   5.447  -2.206  1.00  0.00     0.000 C 
BRANCH   3   4
ATOM      4  C   UNL     1       3.135   6.732  -2.462  1.00  0.00     0.000 C 
BRANCH   4   5
ATOM      5  C   UNL     1       4.490   6.728  -1.720  1.00  0.00     0.000 C 
BRANCH   5   6
ATOM      6  C   UNL     1       5.698   6.494  -2.647  1.00  0.00     0.006 C 
BRANCH   6   7
ATOM      7  C   UNL     1       5.912   5.024  -3.033  1.00  0.00     0.053 C 
BRANCH   7   8
ATOM      8  C   UNL     1       5.397   4.728  -4.407  1.00  0.00     0.041 C 
ATOM      9  O   UNL     1       5.849   5.348  -5.404  1.00  0.00    -0.550 OA
ATOM     10  O   UNL     1       4.400   3.776  -4.585  1.00  0.00    -0.550 OA
ENDBRANCH   7   8
ENDBRANCH   6   7
ENDBRANCH   5   6
ENDBRANCH   4   5
ENDBRANCH   3   4
ENDBRANCH   2   3
ENDBRANCH   1   2
BRANCH   1  11
ATOM     11  C   UNL     1       1.300   5.203   1.549  1.00  0.00     0.000 C 
BRANCH  11  12
ATOM     12  C   UNL     1       2.783   5.244   1.952  1.00  0.00    -0.000 C 
BRANCH  12  13
ATOM     13  C   UNL     1       3.018   6.271   3.070  1.00  0.00    -0.000 C 
BRANCH  13  14
ATOM     14  C   UNL     1       1.712   6.901   3.588  1.00  0.00    -0.000 C 
BRANCH  14  15
ATOM     15  C   UNL     1       1.379   6.599   5.064  1.00  0.00    -0.000 C 
BRANCH  15  16
ATOM     16  C   UNL     1       0.896   7.809   5.884  1.00  0.00    -0.000 C 
BRANCH  16  17
ATOM     17  C   UNL     1      -0.047   8.726   5.094  1.00  0.00    -0.003 C 
ATOM     18  C   UNL     1      -1.472   8.645   5.634  1.00  0.00     0.004 C 
ENDBRANCH  16  17
ENDBRANCH  15  16
ENDBRANCH  14  15
ENDBRANCH  13  14
ENDBRANCH  12  13
ENDBRANCH  11  12
ENDBRANCH   1  11
TORSDOF 14
ENDMDL
MODEL 5
REMARK VINA RESULT:    -4.239     12.134     13.401
REMARK INTER + INTRA:          -9.098
REMARK INTER:                  -7.741
REMARK INTRA:                  -1.357
REMARK UNBOUND:                -1.389
REMARK SMILES CCCCCCCCCCCCCCCC(=O)[O-]
REMARK SMILES IDX 9 1 10 2 11 3 12 4 13 5 14 6 15 7 16 8 17 9 18 10 8 11 7 12
REMARK SMILES IDX 6 13 5 14 4 15 3 16 2 17 1 18
REMARK H PARENT
REMARK Flexibility Score: inf
ROOT
ATOM      1  C   UNL     1       2.403   4.599  -1.182  1.00  0.00     0.000 C 
ENDROOT
BRANCH   1   2
ATOM      2  C   UNL     1       1.470   5.238  -0.139  1.00  0.00     0.000 C 
BRANCH   2   3
ATOM      3  C   UNL     1       2.083   5.257   1.270  1.00  0.00     0.000 C 
BRANCH   3   4
ATOM      4  C   UNL     1       1.174   5.940   2.306  1.00  0.00     0.000 C 
BRANCH   4   5
ATOM      5  C   UNL     1       1.981   6.558   3.470  1.00  0.00     0.000 C 
BRANCH   5   6
ATOM      6  C   UNL     1       1.438   7.923   3.937  1.00  0.00     0.006 C 
BRANCH   6   7
ATOM      7  C   UNL     1       0.580   7.850   5.208  1.00  0.00     0.053 C 
BRANCH   7   8
ATOM      8  C   UNL     1      -0.881   7.971   4.903  1.00  0.00     0.041 C 
ATOM      9  O   UNL     1      -1.496   9.041   5.151  1.00  0.00    -0.550 OA
ATOM     10  O   UNL     1      -1.568   6.894   4.359  1.00  0.00    -0.550 OA
ENDBRANCH   7   8
ENDBRANCH   6   7
ENDBRANCH   5   6
ENDBRANCH   4   5
ENDBRANCH   3   4
ENDBRANCH   2   3
ENDBRANCH   1   2
BRANCH   1  11
ATOM     11  C   UNL     1       2.438   5.385  -2.503  1.00  0.00     0.000 C 
BRANCH  11  12
ATOM     12  C   UNL     1       3.152   6.739  -2.369  1.00  0.00    -0.000 C 
BRANCH  12  13
ATOM     13  C   UNL     1       4.481   6.585  -1.615  1.00  0.00    -0.000 C 
BRANCH  13  14
ATOM     14  C   UNL     1       5.710   6.794  -2.519  1.00  0.00    -0.000 C 
BRANCH  14  15
ATOM     15  C   UNL     1       6.406   5.499  -2.987  1.00  0.00    -0.000 C 
BRANCH  15  16
ATOM     16  C   UNL     1       6.677   4.466  -1.879  1.00  0.00    -0.000 C 
BRANCH  16  17
ATOM     17  C   UNL     1       5.803   3.211  -2.008  1.00  0.00    -0.003 C 
ATOM     18  C   UNL     1       5.272   3.056  -3.431  1.00  0.00     0.004 C 
ENDBRANCH  16  17
ENDBRANCH  15  16
ENDBRANCH  14  15
ENDBRANCH  13  14
ENDBRANCH  12  13
ENDBRANCH  11  12
ENDBRANCH   1  11
TORSDOF 14
ENDMDL
MODEL 6
REMARK VINA RESULT:    -4.236      2.115      5.047
REMARK INTER + INTRA:          -9.091
REMARK INTER:                  -6.742
REMARK INTRA:                  -2.350
REMARK UNBOUND:                -1.389
REMARK SMILES CCCCCCCCCCCCCCCC(=O)[O-]
REMARK SMILES IDX 9 1 10 2 11 3 12 4 13 5 14 6 15 7 16 8 17 9 18 10 8 11 7 12
REMARK SMILES IDX 6 13 5 14 4 15 3 16 2 17 1 18
REMARK H PARENT
REMARK Flexibility Score: inf
ROOT
ATOM      1  C   UNL     1      -0.040  -4.337   3.353  1.00  0.00     0.000 C 
ENDROOT
BRANCH   1   2
ATOM      2  C   UNL     1      -0.412  -5.260   2.179  1.00  0.00     0.000 C 
BRANCH   2   3
ATOM      3  C   UNL     1      -1.910  -5.208   1.839  1.00  0.00     0.000 C 
BRANCH   3   4
ATOM      4  C   UNL     1      -2.808  -5.472   3.060  1.00  0.00     0.000 C 
BRANCH   4   5
ATOM      5  C   UNL     1      -3.519  -4.189   3.547  1.00  0.00     0.000 C 
BRANCH   5   6
ATOM      6  C   UNL     1      -4.510  -4.436   4.700  1.00  0.00     0.006 C 
BRANCH   6   7
ATOM      7  C   UNL     1      -4.501  -3.339   5.775  1.00  0.00     0.053 C 
BRANCH   7   8
ATOM      8  C   UNL     1      -5.629  -3.503   6.747  1.00  0.00     0.041 C 
ATOM      9  O   UNL     1      -6.657  -2.783   6.657  1.00  0.00    -0.550 OA
ATOM     10  O   UNL     1      -5.536  -4.443   7.766  1.00  0.00    -0.550 OA
ENDBRANCH   7   8
ENDBRANCH   6   7
ENDBRANCH   5   6
ENDBRANCH   4   5
ENDBRANCH   3   4
ENDBRANCH   2   3
ENDBRANCH   1   2
BRANCH   1  11
ATOM     11  C   UNL     1       0.933  -5.003   4.341  1.00  0.00     0.000 C 
BRANCH  11  12
ATOM     12  C   UNL     1       0.721  -4.534   5.789  1.00  0.00    -0.000 C 
BRANCH  12  13
ATOM     13  C   UNL     1      -0.753  -4.183   6.041  1.00  0.00    -0.000 C 
BRANCH  13  14
ATOM     14  C   UNL     1      -1.431  -5.133   7.046  1.00  0.00    -0.000 C 
BRANCH  14  15
ATOM     15  C   UNL     1      -1.719  -6.552   6.514  1.00  0.00    -0.000 C 
BRANCH  15  16
ATOM     16  C   UNL     1      -0.802  -7.657   7.070  1.00  0.00    -0.000 C 
BRANCH  16  17
ATOM     17  C   UNL     1      -0.176  -8.522   5.968  1.00  0.00    -0.003 C 
ATOM     18  C   UNL     1      -0.721  -8.140   4.594  1.00  0.00     0.004 C 
ENDBRANCH  16  17
ENDBRANCH  15  16
ENDBRANCH  14  15
ENDBRANCH  13  14
ENDBRANCH  12  13
ENDBRANCH  11  12
ENDBRANCH   1  11
TORSDOF 14
ENDMDL
MODEL 7
REMARK VINA RESULT:    -4.228      3.770      5.864
REMARK INTER + INTRA:          -9.077
REMARK INTER:                  -7.522
REMARK INTRA:                  -1.555
REMARK UNBOUND:                -1.389
REMARK SMILES CCCCCCCCCCCCCCCC(=O)[O-]
REMARK SMILES IDX 9 1 10 2 11 3 12 4 13 5 14 6 15 7 16 8 17 9 18 10 8 11 7 12
REMARK SMILES IDX 6 13 5 14 4 15 3 16 2 17 1 18
REMARK H PARENT
REMARK Flexibility Score: inf
ROOT
ATOM      1  C   UNL     1      -2.450  -4.252  -1.393  1.00  0.00     0.000 C 
ENDROOT
BRANCH   1   2
ATOM      2  C   UNL     1      -1.568  -4.026  -0.153  1.00  0.00     0.000 C 
BRANCH   2   3
ATOM      3  C   UNL     1      -1.638  -5.194   0.844  1.00  0.00     0.000 C 
BRANCH   3   4
ATOM      4  C   UNL     1      -2.977  -5.252   1.600  1.00  0.00     0.000 C 
BRANCH   4   5
ATOM      5  C   UNL     1      -2.810  -5.787   3.040  1.00  0.00     0.000 C 
BRANCH   5   6
ATOM      6  C   UNL     1      -1.390  -6.303   3.342  1.00  0.00     0.006 C 
BRANCH   6   7
ATOM      7  C   UNL     1      -1.354  -7.718   3.937  1.00  0.00     0.053 C 
BRANCH   7   8
ATOM      8  C   UNL     1      -0.072  -7.984   4.663  1.00  0.00     0.041 C 
ATOM      9  O   UNL     1       1.004  -7.468   4.265  1.00  0.00    -0.550 OA
ATOM     10  O   UNL     1      -0.063  -8.820   5.773  1.00  0.00    -0.550 OA
ENDBRANCH   7   8
ENDBRANCH   6   7
ENDBRANCH   5   6
ENDBRANCH   4   5
ENDBRANCH   3   4
ENDBRANCH   2   3
ENDBRANCH   1   2
BRANCH   1  11
ATOM     11  C   UNL     1      -1.951  -5.413  -2.269  1.00  0.00     0.000 C 
BRANCH  11  12
ATOM     12  C   UNL     1      -3.042  -6.461  -2.542  1.00  0.00    -0.000 C 
BRANCH  12  13
ATOM     13  C   UNL     1      -4.291  -6.187  -1.692  1.00  0.00    -0.000 C 
BRANCH  13  14
ATOM     14  C   UNL     1      -5.593  -6.225  -2.513  1.00  0.00    -0.000 C 
BRANCH  14  15
ATOM     15  C   UNL     1      -6.038  -4.869  -3.098  1.00  0.00    -0.000 C 
BRANCH  15  16
ATOM     16  C   UNL     1      -6.045  -4.793  -4.636  1.00  0.00    -0.000 C 
BRANCH  16  17
ATOM     17  C   UNL     1      -4.890  -3.951  -5.196  1.00  0.00    -0.003 C 
ATOM     18  C   UNL     1      -4.395  -2.942  -4.163  1.00  0.00     0.004 C 
ENDBRANCH  16  17
ENDBRANCH  15  16
ENDBRANCH  14  15
ENDBRANCH  13  14
ENDBRANCH  12  13
ENDBRANCH  11  12
ENDBRANCH   1  11
TORSDOF 14
ENDMDL
MODEL 8
REMARK VINA RESULT:    -4.154     12.705     15.105
REMARK INTER + INTRA:          -8.942
REMARK INTER:                  -7.726
REMARK INTRA:                  -1.216
REMARK UNBOUND:                -1.389
REMARK SMILES CCCCCCCCCCCCCCCC(=O)[O-]
REMARK SMILES IDX 9 1 10 2 11 3 12 4 13 5 14 6 15 7 16 8 17 9 18 10 8 11 7 12
REMARK SMILES IDX 6 13 5 14 4 15 3 16 2 17 1 18
REMARK H PARENT
REMARK Flexibility Score: inf
ROOT
ATOM      1  C   UNL     1       2.182   4.922   2.500  1.00  0.00     0.000 C 
ENDROOT
BRANCH   1   2
ATOM      2  C   UNL     1       2.958   5.244   1.211  1.00  0.00     0.000 C 
BRANCH   2   3
ATOM      3  C   UNL     1       3.183   4.004   0.331  1.00  0.00     0.000 C 
BRANCH   3   4
ATOM      4  C   UNL     1       2.663   4.189  -1.105  1.00  0.00     0.000 C 
BRANCH   4   5
ATOM      5  C   UNL     1       2.153   5.626  -1.358  1.00  0.00     0.000 C 
BRANCH   5   6
ATOM      6  C   UNL     1       2.987   6.400  -2.397  1.00  0.00     0.006 C 
BRANCH   6   7
ATOM      7  C   UNL     1       4.406   6.747  -1.924  1.00  0.00     0.053 C 
BRANCH   7   8
ATOM      8  C   UNL     1       5.448   6.244  -2.875  1.00  0.00     0.041 C 
ATOM      9  O   UNL     1       5.258   5.183  -3.524  1.00  0.00    -0.550 OA
ATOM     10  O   UNL     1       6.640   6.941  -3.030  1.00  0.00    -0.550 OA
ENDBRANCH   7   8
ENDBRANCH   6   7
ENDBRANCH   5   6
ENDBRANCH   4   5
ENDBRANCH   3   4
ENDBRANCH   2   3
ENDBRANCH   1   2
BRANCH   1  11
ATOM     11  C   UNL     1       2.195   6.088   3.503  1.00  0.00     0.000 C 
BRANCH  11  12
ATOM     12  C   UNL     1       0.962   6.995   3.374  1.00  0.00    -0.000 C 
BRANCH  12  13
ATOM     13  C   UNL     1       1.086   8.221   4.291  1.00  0.00    -0.000 C 
BRANCH  13  14
ATOM     14  C   UNL     1      -0.215   8.532   5.053  1.00  0.00    -0.000 C 
BRANCH  14  15
ATOM     15  C   UNL     1      -0.105   8.467   6.590  1.00  0.00    -0.000 C 
BRANCH  15  16
ATOM     16  C   UNL     1       1.186   7.821   7.126  1.00  0.00    -0.000 C 
BRANCH  16  17
ATOM     17  C   UNL     1       1.036   6.315   7.382  1.00  0.00    -0.003 C 
ATOM     18  C   UNL     1       2.358   5.586   7.160  1.00  0.00     0.004 C 
ENDBRANCH  16  17
ENDBRANCH  15  16
ENDBRANCH  14  15
ENDBRANCH  13  14
ENDBRANCH  12  13
ENDBRANCH  11  12
ENDBRANCH   1  11
TORSDOF 14
ENDMDL
MODEL 9
REMARK VINA RESULT:    -4.097      5.080      7.942
REMARK INTER + INTRA:          -8.838
REMARK INTER:                  -6.462
REMARK INTRA:                  -2.377
REMARK UNBOUND:                -1.389
REMARK SMILES CCCCCCCCCCCCCCCC(=O)[O-]
REMARK SMILES IDX 9 1 10 2 11 3 12 4 13 5 14 6 15 7 16 8 17 9 18 10 8 11 7 12
REMARK SMILES IDX 6 13 5 14 4 15 3 16 2 17 1 18
REMARK H PARENT
REMARK Flexibility Score: inf
ROOT
ATOM      1  C   UNL     1      -2.781  -4.075  -3.071  1.00  0.00     0.000 C 
ENDROOT
BRANCH   1   2
ATOM      2  C   UNL     1      -2.128  -5.343  -2.493  1.00  0.00     0.000 C 
BRANCH   2   3
ATOM      3  C   UNL     1      -3.077  -6.552  -2.497  1.00  0.00     0.000 C 
BRANCH   3   4
ATOM      4  C   UNL     1      -4.391  -6.281  -1.745  1.00  0.00     0.000 C 
BRANCH   4   5
ATOM      5  C   UNL     1      -5.627  -6.422  -2.662  1.00  0.00     0.000 C 
BRANCH   5   6
ATOM      6  C   UNL     1      -6.535  -5.178  -2.664  1.00  0.00     0.006 C 
BRANCH   6   7
ATOM      7  C   UNL     1      -6.311  -4.245  -3.863  1.00  0.00     0.053 C 
BRANCH   7   8
ATOM      8  C   UNL     1      -6.696  -4.897  -5.155  1.00  0.00     0.041 C 
ATOM      9  O   UNL     1      -5.965  -4.774  -6.173  1.00  0.00    -0.550 OA
ATOM     10  O   UNL     1      -7.874  -5.628  -5.240  1.00  0.00    -0.550 OA
ENDBRANCH   7   8
ENDBRANCH   6   7
ENDBRANCH   5   6
ENDBRANCH   4   5
ENDBRANCH   3   4
ENDBRANCH   2   3
ENDBRANCH   1   2
BRANCH   1  11
ATOM     11  C   UNL     1      -2.377  -2.803  -2.307  1.00  0.00     0.000 C 
BRANCH  11  12
ATOM     12  C   UNL     1      -3.588  -2.001  -1.808  1.00  0.00    -0.000 C 
BRANCH  12  13
ATOM     13  C   UNL     1      -4.381  -2.799  -0.762  1.00  0.00    -0.000 C 
BRANCH  13  14
ATOM     14  C   UNL     1      -4.134  -2.309   0.677  1.00  0.00    -0.000 C 
BRANCH  14  15
ATOM     15  C   UNL     1      -3.151  -3.165   1.501  1.00  0.00    -0.000 C 
BRANCH  15  16
ATOM     16  C   UNL     1      -2.998  -4.622   1.027  1.00  0.00    -0.000 C 
BRANCH  16  17
ATOM     17  C   UNL     1      -1.651  -5.240   1.428  1.00  0.00    -0.003 C 
ATOM     18  C   UNL     1      -0.501  -4.594   0.660  1.00  0.00     0.004 C 
ENDBRANCH  16  17
ENDBRANCH  15  16
ENDBRANCH  14  15
ENDBRANCH  13  14
ENDBRANCH  12  13
ENDBRANCH  11  12
ENDBRANCH   1  11
TORSDOF 14
ENDMDL
