MODEL 1
REMARK VINA RESULT:    -1.560      0.000      0.000
REMARK INTER + INTRA:          -2.202
REMARK INTER:                  -2.655
REMARK INTRA:                   0.453
REMARK UNBOUND:                 0.453
REMARK SMILES CCCCCCCCCCCCCC(=O)[O-]
REMARK SMILES IDX 8 1 9 2 10 3 11 4 12 5 13 6 14 7 15 8 16 9 7 10 6 11 5 12
REMARK SMILES IDX 4 13 3 14 2 15 1 16
REMARK H PARENT
REMARK Flexibility Score: inf
ROOT
ATOM      1  C   UNL     1     -13.263  -4.329 -12.398  1.00  0.00     0.000 C 
ENDROOT
BRANCH   1   2
ATOM      2  C   UNL     1     -11.909  -3.642 -12.147  1.00  0.00     0.000 C 
BRANCH   2   3
ATOM      3  C   UNL     1     -11.960  -2.623 -11.000  1.00  0.00     0.000 C 
BRANCH   3   4
ATOM      4  C   UNL     1     -12.027  -3.329  -9.641  1.00  0.00     0.000 C 
BRANCH   4   5
ATOM      5  C   UNL     1     -13.317  -2.969  -8.895  1.00  0.00     0.006 C 
BRANCH   5   6
ATOM      6  C   UNL     1     -14.303  -4.140  -8.905  1.00  0.00     0.053 C 
BRANCH   6   7
ATOM      7  C   UNL     1     -13.577  -5.437  -9.069  1.00  0.00     0.041 C 
ATOM      8  O   UNL     1     -14.213  -6.491  -9.335  1.00  0.00    -0.550 OA
ATOM      9  O   UNL     1     -12.202  -5.493  -8.877  1.00  0.00    -0.550 OA
ENDBRANCH   6   7
ENDBRANCH   5   6
ENDBRANCH   4   5
ENDBRANCH   3   4
ENDBRANCH   2   3
ENDBRANCH   1   2
BRANCH   1  10
ATOM     10  C   UNL     1     -13.982  -3.903 -13.695  1.00  0.00     0.000 C 
BRANCH  10  11
ATOM     11  C   UNL     1     -14.771  -2.585 -13.599  1.00  0.00    -0.000 C 
BRANCH  11  12
ATOM     12  C   UNL     1     -14.049  -1.409 -14.280  1.00  0.00    -0.000 C 
BRANCH  12  13
ATOM     13  C   UNL     1     -12.819  -1.855 -15.084  1.00  0.00    -0.000 C 
BRANCH  13  14
ATOM     14  C   UNL     1     -13.088  -1.894 -16.599  1.00  0.00    -0.000 C 
BRANCH  14  15
ATOM     15  C   UNL     1     -14.399  -2.617 -16.945  1.00  0.00    -0.003 C 
ATOM     16  C   UNL     1     -14.233  -4.133 -17.044  1.00  0.00     0.004 C 
ENDBRANCH  14  15
ENDBRANCH  13  14
ENDBRANCH  12  13
ENDBRANCH  11  12
ENDBRANCH  10  11
ENDBRANCH   1  10
TORSDOF 12
ENDMDL
MODEL 2
REMARK VINA RESULT:    -0.404     21.974     23.681
REMARK INTER + INTRA:          -0.235
REMARK INTER:                   0.444
REMARK INTRA:                  -0.679
REMARK UNBOUND:                 0.453
REMARK SMILES CCCCCCCCCCCCCC(=O)[O-]
REMARK SMILES IDX 8 1 9 2 10 3 11 4 12 5 13 6 14 7 15 8 16 9 7 10 6 11 5 12
REMARK SMILES IDX 4 13 3 14 2 15 1 16
REMARK H PARENT
REMARK Flexibility Score: inf
ROOT
ATOM      1  C   UNL     1     -30.455  -0.469 -25.541  1.00  0.00     0.000 C 
ENDROOT
BRANCH   1   2
ATOM      2  C   UNL     1     -30.645  -0.024 -24.080  1.00  0.00     0.000 C 
BRANCH   2   3
ATOM      3  C   UNL     1     -31.012   1.462 -23.951  1.00  0.00     0.000 C 
BRANCH   3   4
ATOM      4  C   UNL     1     -32.059   1.861 -24.997  1.00  0.00     0.000 C 
BRANCH   4   5
ATOM      5  C   UNL     1     -31.813   3.286 -25.507  1.00  0.00     0.006 C 
BRANCH   5   6
ATOM      6  C   UNL     1     -30.440   3.403 -26.174  1.00  0.00     0.053 C 
BRANCH   6   7
ATOM      7  C   UNL     1     -30.581   3.872 -27.587  1.00  0.00     0.041 C 
ATOM      8  O   UNL     1     -29.878   4.827 -28.011  1.00  0.00    -0.550 OA
ATOM      9  O   UNL     1     -31.526   3.289 -28.423  1.00  0.00    -0.550 OA
ENDBRANCH   6   7
ENDBRANCH   5   6
ENDBRANCH   4   5
ENDBRANCH   3   4
ENDBRANCH   2   3
ENDBRANCH   1   2
BRANCH   1  10
ATOM     10  C   UNL     1     -31.719  -1.036 -26.222  1.00  0.00     0.000 C 
BRANCH  10  11
ATOM     11  C   UNL     1     -32.059  -0.411 -27.587  1.00  0.00    -0.000 C 
BRANCH  11  12
ATOM     12  C   UNL     1     -32.115  -1.452 -28.719  1.00  0.00    -0.000 C 
BRANCH  12  13
ATOM     13  C   UNL     1     -32.113  -2.897 -28.196  1.00  0.00    -0.000 C 
BRANCH  13  14
ATOM     14  C   UNL     1     -30.847  -3.669 -28.605  1.00  0.00    -0.000 C 
BRANCH  14  15
ATOM     15  C   UNL     1     -29.657  -2.739 -28.891  1.00  0.00    -0.003 C 
ATOM     16  C   UNL     1     -28.819  -2.446 -27.647  1.00  0.00     0.004 C 
ENDBRANCH  14  15
ENDBRANCH  13  14
ENDBRANCH  12  13
ENDBRANCH  11  12
ENDBRANCH  10  11
ENDBRANCH   1  10
TORSDOF 12
ENDMDL
MODEL 3
REMARK VINA RESULT:    -0.068      2.823      6.455
REMARK INTER + INTRA:           0.337
REMARK INTER:                   0.871
REMARK INTRA:                  -0.533
REMARK UNBOUND:                 0.453
REMARK SMILES CCCCCCCCCCCCCC(=O)[O-]
REMARK SMILES IDX 8 1 9 2 10 3 11 4 12 5 13 6 14 7 15 8 16 9 7 10 6 11 5 12
REMARK SMILES IDX 4 13 3 14 2 15 1 16
REMARK H PARENT
REMARK Flexibility Score: inf
ROOT
ATOM      1  C   UNL     1     -13.636  -4.210 -12.424  1.00  0.00     0.000 C 
ENDROOT
BRANCH   1   2
ATOM      2  C   UNL     1     -13.878  -5.391 -13.381  1.00  0.00     0.000 C 
BRANCH   2   3
ATOM      3  C   UNL     1     -14.096  -4.947 -14.834  1.00  0.00     0.000 C 
BRANCH   3   4
ATOM      4  C   UNL     1     -14.487  -3.466 -14.903  1.00  0.00     0.000 C 
BRANCH   4   5
ATOM      5  C   UNL     1     -14.333  -2.921 -16.327  1.00  0.00     0.006 C 
BRANCH   5   6
ATOM      6  C   UNL     1     -13.134  -1.973 -16.427  1.00  0.00     0.053 C 
BRANCH   6   7
ATOM      7  C   UNL     1     -12.944  -1.230 -15.143  1.00  0.00     0.041 C 
ATOM      8  O   UNL     1     -12.126  -1.650 -14.282  1.00  0.00    -0.550 OA
ATOM      9  O   UNL     1     -13.708  -0.101 -14.873  1.00  0.00    -0.550 OA
ENDBRANCH   6   7
ENDBRANCH   5   6
ENDBRANCH   4   5
ENDBRANCH   3   4
ENDBRANCH   2   3
ENDBRANCH   1   2
BRANCH   1  10
ATOM     10  C   UNL     1     -12.159  -3.958 -12.056  1.00  0.00     0.000 C 
BRANCH  10  11
ATOM     11  C   UNL     1     -11.937  -2.987 -10.883  1.00  0.00    -0.000 C 
BRANCH  11  12
ATOM     12  C   UNL     1     -13.244  -2.627 -10.154  1.00  0.00    -0.000 C 
BRANCH  12  13
ATOM     13  C   UNL     1     -13.497  -3.510  -8.921  1.00  0.00    -0.000 C 
BRANCH  13  14
ATOM     14  C   UNL     1     -12.658  -4.799  -8.938  1.00  0.00    -0.000 C 
BRANCH  14  15
ATOM     15  C   UNL     1     -13.526  -6.067  -8.897  1.00  0.00    -0.003 C 
ATOM     16  C   UNL     1     -12.697  -7.352  -8.875  1.00  0.00     0.004 C 
ENDBRANCH  14  15
ENDBRANCH  13  14
ENDBRANCH  12  13
ENDBRANCH  11  12
ENDBRANCH  10  11
ENDBRANCH   1  10
TORSDOF 12
ENDMDL
MODEL 4
REMARK VINA RESULT:    -0.002      1.802      2.818
REMARK INTER + INTRA:           0.449
REMARK INTER:                   1.471
REMARK INTRA:                  -1.021
REMARK UNBOUND:                 0.453
REMARK SMILES CCCCCCCCCCCCCC(=O)[O-]
REMARK SMILES IDX 8 1 9 2 10 3 11 4 12 5 13 6 14 7 15 8 16 9 7 10 6 11 5 12
REMARK SMILES IDX 4 13 3 14 2 15 1 16
REMARK H PARENT
REMARK Flexibility Score: inf
ROOT
ATOM      1  C   UNL     1     -12.267  -1.990 -14.125  1.00  0.00     0.000 C 
ENDROOT
BRANCH   1   2
ATOM      2  C   UNL     1     -11.918  -2.914 -12.944  1.00  0.00     0.000 C 
BRANCH   2   3
ATOM      3  C   UNL     1     -12.086  -2.229 -11.580  1.00  0.00     0.000 C 
BRANCH   3   4
ATOM      4  C   UNL     1     -12.218  -3.266 -10.459  1.00  0.00     0.000 C 
BRANCH   4   5
ATOM      5  C   UNL     1     -13.568  -3.989 -10.532  1.00  0.00     0.006 C 
BRANCH   5   6
ATOM      6  C   UNL     1     -14.013  -4.467  -9.147  1.00  0.00     0.053 C 
BRANCH   6   7
ATOM      7  C   UNL     1     -13.650  -5.904  -8.947  1.00  0.00     0.041 C 
ATOM      8  O   UNL     1     -12.441  -6.251  -8.888  1.00  0.00    -0.550 OA
ATOM      9  O   UNL     1     -14.647  -6.869  -8.875  1.00  0.00    -0.550 OA
ENDBRANCH   6   7
ENDBRANCH   5   6
ENDBRANCH   4   5
ENDBRANCH   3   4
ENDBRANCH   2   3
ENDBRANCH   1   2
BRANCH   1  10
ATOM     10  C   UNL     1     -13.604  -2.306 -14.830  1.00  0.00     0.000 C 
BRANCH  10  11
ATOM     11  C   UNL     1     -14.722  -2.816 -13.904  1.00  0.00    -0.000 C 
BRANCH  11  12
ATOM     12  C   UNL     1     -15.168  -4.250 -14.244  1.00  0.00    -0.000 C 
BRANCH  12  13
ATOM     13  C   UNL     1     -14.000  -5.142 -14.693  1.00  0.00    -0.000 C 
BRANCH  13  14
ATOM     14  C   UNL     1     -13.995  -6.507 -13.982  1.00  0.00    -0.000 C 
BRANCH  14  15
ATOM     15  C   UNL     1     -14.105  -7.683 -14.966  1.00  0.00    -0.003 C 
ATOM     16  C   UNL     1     -12.989  -7.691 -16.009  1.00  0.00     0.004 C 
ENDBRANCH  14  15
ENDBRANCH  13  14
ENDBRANCH  12  13
ENDBRANCH  11  12
ENDBRANCH  10  11
ENDBRANCH   1  10
TORSDOF 12
ENDMDL
MODEL 5
REMARK VINA RESULT:     0.165     22.098     23.947
REMARK INTER + INTRA:           0.734
REMARK INTER:                   1.245
REMARK INTRA:                  -0.511
REMARK UNBOUND:                 0.453
REMARK SMILES CCCCCCCCCCCCCC(=O)[O-]
REMARK SMILES IDX 8 1 9 2 10 3 11 4 12 5 13 6 14 7 15 8 16 9 7 10 6 11 5 12
REMARK SMILES IDX 4 13 3 14 2 15 1 16
REMARK H PARENT
REMARK Flexibility Score: inf
ROOT
ATOM      1  C   UNL     1     -30.848  -2.196 -26.657  1.00  0.00     0.000 C 
ENDROOT
BRANCH   1   2
ATOM      2  C   UNL     1     -31.254  -1.685 -25.264  1.00  0.00     0.000 C 
BRANCH   2   3
ATOM      3  C   UNL     1     -31.611  -0.191 -25.256  1.00  0.00     0.000 C 
BRANCH   3   4
ATOM      4  C   UNL     1     -30.608   0.609 -24.418  1.00  0.00     0.000 C 
BRANCH   4   5
ATOM      5  C   UNL     1     -30.902   2.111 -24.492  1.00  0.00     0.006 C 
BRANCH   5   6
ATOM      6  C   UNL     1     -30.635   2.656 -25.898  1.00  0.00     0.053 C 
BRANCH   6   7
ATOM      7  C   UNL     1     -31.233   4.018 -26.056  1.00  0.00     0.041 C 
ATOM      8  O   UNL     1     -31.890   4.535 -25.114  1.00  0.00    -0.550 OA
ATOM      9  O   UNL     1     -31.110   4.696 -27.262  1.00  0.00    -0.550 OA
ENDBRANCH   6   7
ENDBRANCH   5   6
ENDBRANCH   4   5
ENDBRANCH   3   4
ENDBRANCH   2   3
ENDBRANCH   1   2
BRANCH   1  10
ATOM     10  C   UNL     1     -31.654  -1.603 -27.832  1.00  0.00     0.000 C 
BRANCH  10  11
ATOM     11  C   UNL     1     -31.761  -2.510 -29.071  1.00  0.00    -0.000 C 
BRANCH  11  12
ATOM     12  C   UNL     1     -31.107  -3.887 -28.858  1.00  0.00    -0.000 C 
BRANCH  12  13
ATOM     13  C   UNL     1     -32.124  -4.971 -28.467  1.00  0.00    -0.000 C 
BRANCH  13  14
ATOM     14  C   UNL     1     -31.821  -6.328 -29.125  1.00  0.00    -0.000 C 
BRANCH  14  15
ATOM     15  C   UNL     1     -31.945  -7.502 -28.140  1.00  0.00    -0.003 C 
ATOM     16  C   UNL     1     -32.104  -8.850 -28.841  1.00  0.00     0.004 C 
ENDBRANCH  14  15
ENDBRANCH  13  14
ENDBRANCH  12  13
ENDBRANCH  11  12
ENDBRANCH  10  11
ENDBRANCH   1  10
TORSDOF 12
ENDMDL
MODEL 6
REMARK VINA RESULT:     0.802      0.944      2.226
REMARK INTER + INTRA:           1.817
REMARK INTER:                   2.038
REMARK INTRA:                  -0.221
REMARK UNBOUND:                 0.453
REMARK SMILES CCCCCCCCCCCCCC(=O)[O-]
REMARK SMILES IDX 8 1 9 2 10 3 11 4 12 5 13 6 14 7 15 8 16 9 7 10 6 11 5 12
REMARK SMILES IDX 4 13 3 14 2 15 1 16
REMARK H PARENT
REMARK Flexibility Score: inf
ROOT
ATOM      1  C   UNL     1     -14.404  -3.600 -13.566  1.00  0.00     0.000 C 
ENDROOT
BRANCH   1   2
ATOM      2  C   UNL     1     -13.752  -3.759 -12.181  1.00  0.00     0.000 C 
BRANCH   2   3
ATOM      3  C   UNL     1     -12.247  -3.453 -12.192  1.00  0.00     0.000 C 
BRANCH   3   4
ATOM      4  C   UNL     1     -11.875  -2.489 -11.060  1.00  0.00     0.000 C 
BRANCH   4   5
ATOM      5  C   UNL     1     -12.517  -2.918  -9.736  1.00  0.00     0.006 C 
BRANCH   5   6
ATOM      6  C   UNL     1     -12.003  -4.291  -9.294  1.00  0.00     0.053 C 
BRANCH   6   7
ATOM      7  C   UNL     1     -13.140  -5.242  -9.105  1.00  0.00     0.041 C 
ATOM      8  O   UNL     1     -12.917  -6.460  -8.875  1.00  0.00    -0.550 OA
ATOM      9  O   UNL     1     -14.450  -4.795  -9.234  1.00  0.00    -0.550 OA
ENDBRANCH   6   7
ENDBRANCH   5   6
ENDBRANCH   4   5
ENDBRANCH   3   4
ENDBRANCH   2   3
ENDBRANCH   1   2
BRANCH   1  10
ATOM     10  C   UNL     1     -14.078  -4.722 -14.575  1.00  0.00     0.000 C 
BRANCH  10  11
ATOM     11  C   UNL     1     -14.118  -4.298 -16.054  1.00  0.00    -0.000 C 
BRANCH  11  12
ATOM     12  C   UNL     1     -14.424  -2.800 -16.235  1.00  0.00    -0.000 C 
BRANCH  12  13
ATOM     13  C   UNL     1     -13.238  -2.020 -16.825  1.00  0.00    -0.000 C 
BRANCH  13  14
ATOM     14  C   UNL     1     -12.232  -1.577 -15.749  1.00  0.00    -0.000 C 
BRANCH  14  15
ATOM     15  C   UNL     1     -12.918  -0.971 -14.514  1.00  0.00    -0.003 C 
ATOM     16  C   UNL     1     -14.139  -0.122 -14.871  1.00  0.00     0.004 C 
ENDBRANCH  14  15
ENDBRANCH  13  14
ENDBRANCH  12  13
ENDBRANCH  11  12
ENDBRANCH  10  11
ENDBRANCH   1  10
TORSDOF 12
ENDMDL
MODEL 7
REMARK VINA RESULT:     1.164      1.830      2.958
REMARK INTER + INTRA:           2.433
REMARK INTER:                   2.760
REMARK INTRA:                  -0.327
REMARK UNBOUND:                 0.453
REMARK SMILES CCCCCCCCCCCCCC(=O)[O-]
REMARK SMILES IDX 8 1 9 2 10 3 11 4 12 5 13 6 14 7 15 8 16 9 7 10 6 11 5 12
REMARK SMILES IDX 4 13 3 14 2 15 1 16
REMARK H PARENT
REMARK Flexibility Score: inf
ROOT
ATOM      1  C   UNL     1     -14.354  -2.125 -13.830  1.00  0.00     0.000 C 
ENDROOT
BRANCH   1   2
ATOM      2  C   UNL     1     -13.842  -2.850 -12.572  1.00  0.00     0.000 C 
BRANCH   2   3
ATOM      3  C   UNL     1     -12.326  -3.089 -12.597  1.00  0.00     0.000 C 
BRANCH   3   4
ATOM      4  C   UNL     1     -11.875  -3.881 -11.364  1.00  0.00     0.000 C 
BRANCH   4   5
ATOM      5  C   UNL     1     -12.139  -3.093 -10.076  1.00  0.00     0.006 C 
BRANCH   5   6
ATOM      6  C   UNL     1     -12.415  -4.035  -8.900  1.00  0.00     0.053 C 
BRANCH   6   7
ATOM      7  C   UNL     1     -13.806  -4.578  -8.979  1.00  0.00     0.041 C 
ATOM      8  O   UNL     1     -14.796  -3.805  -8.882  1.00  0.00    -0.550 OA
ATOM      9  O   UNL     1     -14.012  -5.946  -9.108  1.00  0.00    -0.550 OA
ENDBRANCH   6   7
ENDBRANCH   5   6
ENDBRANCH   4   5
ENDBRANCH   3   4
ENDBRANCH   2   3
ENDBRANCH   1   2
BRANCH   1  10
ATOM     10  C   UNL     1     -13.410  -2.184 -15.049  1.00  0.00     0.000 C 
BRANCH  10  11
ATOM     11  C   UNL     1     -14.039  -2.756 -16.332  1.00  0.00    -0.000 C 
BRANCH  11  12
ATOM     12  C   UNL     1     -14.123  -4.293 -16.319  1.00  0.00    -0.000 C 
BRANCH  12  13
ATOM     13  C   UNL     1     -14.525  -4.853 -14.946  1.00  0.00    -0.000 C 
BRANCH  13  14
ATOM     14  C   UNL     1     -13.586  -5.974 -14.468  1.00  0.00    -0.000 C 
BRANCH  14  15
ATOM     15  C   UNL     1     -14.058  -7.368 -14.911  1.00  0.00    -0.003 C 
ATOM     16  C   UNL     1     -13.182  -7.969 -16.010  1.00  0.00     0.004 C 
ENDBRANCH  14  15
ENDBRANCH  13  14
ENDBRANCH  12  13
ENDBRANCH  11  12
ENDBRANCH  10  11
ENDBRANCH   1  10
TORSDOF 12
ENDMDL
MODEL 8
REMARK VINA RESULT:     1.413     19.424     22.109
REMARK INTER + INTRA:           2.856
REMARK INTER:                   3.556
REMARK INTRA:                  -0.699
REMARK UNBOUND:                 0.453
REMARK SMILES CCCCCCCCCCCCCC(=O)[O-]
REMARK SMILES IDX 8 1 9 2 10 3 11 4 12 5 13 6 14 7 15 8 16 9 7 10 6 11 5 12
REMARK SMILES IDX 4 13 3 14 2 15 1 16
REMARK H PARENT
REMARK Flexibility Score: inf
ROOT
ATOM      1  C   UNL     1     -31.048  -0.342 -26.924  1.00  0.00     0.000 C 
ENDROOT
BRANCH   1   2
ATOM      2  C   UNL     1     -31.540  -1.658 -26.295  1.00  0.00     0.000 C 
BRANCH   2   3
ATOM      3  C   UNL     1     -31.648  -1.584 -24.765  1.00  0.00     0.000 C 
BRANCH   3   4
ATOM      4  C   UNL     1     -30.405  -0.925 -24.158  1.00  0.00     0.000 C 
BRANCH   4   5
ATOM      5  C   UNL     1     -30.746  -0.205 -22.848  1.00  0.00     0.006 C 
BRANCH   5   6
ATOM      6  C   UNL     1     -30.717  -1.175 -21.663  1.00  0.00     0.053 C 
BRANCH   6   7
ATOM      7  C   UNL     1     -29.315  -1.611 -21.376  1.00  0.00     0.041 C 
ATOM      8  O   UNL     1     -28.457  -1.635 -22.297  1.00  0.00    -0.550 OA
ATOM      9  O   UNL     1     -28.968  -2.039 -20.100  1.00  0.00    -0.550 OA
ENDBRANCH   6   7
ENDBRANCH   5   6
ENDBRANCH   4   5
ENDBRANCH   3   4
ENDBRANCH   2   3
ENDBRANCH   1   2
BRANCH   1  10
ATOM     10  C   UNL     1     -32.125   0.754 -27.074  1.00  0.00     0.000 C 
BRANCH  10  11
ATOM     11  C   UNL     1     -32.123   1.823 -25.966  1.00  0.00    -0.000 C 
BRANCH  11  12
ATOM     12  C   UNL     1     -30.730   2.435 -25.734  1.00  0.00    -0.000 C 
BRANCH  12  13
ATOM     13  C   UNL     1     -30.592   3.840 -26.341  1.00  0.00    -0.000 C 
BRANCH  13  14
ATOM     14  C   UNL     1     -31.945   4.429 -26.775  1.00  0.00    -0.000 C 
BRANCH  14  15
ATOM     15  C   UNL     1     -32.055   4.590 -28.300  1.00  0.00    -0.003 C 
ATOM     16  C   UNL     1     -30.745   4.284 -29.025  1.00  0.00     0.004 C 
ENDBRANCH  14  15
ENDBRANCH  13  14
ENDBRANCH  12  13
ENDBRANCH  11  12
ENDBRANCH  10  11
ENDBRANCH   1  10
TORSDOF 12
ENDMDL
