MODEL 1
REMARK VINA RESULT:    -4.204      0.000      0.000
REMARK INTER + INTRA:         -11.863
REMARK INTER:                  -9.119
REMARK INTRA:                  -2.744
REMARK UNBOUND:                -2.744
REMARK SMILES CCCCCCCCCCCCCCCCCCCCCC(=O)[O-]
REMARK SMILES IDX 12 1 11 2 10 3 9 4 8 5 7 6 6 7 5 8 4 9 3 10 2 11 1 12 13 13
REMARK SMILES IDX 14 14 15 15 16 16 17 17 18 18 19 19 20 20 21 21 22 22 23 23
REMARK SMILES IDX 24 24
REMARK H PARENT
REMARK Flexibility Score: inf
ROOT
ATOM      1  C   UNL     1      -4.188   5.911  -8.000  1.00  0.00     0.000 C 
ENDROOT
BRANCH   1   2
ATOM      2  C   UNL     1      -4.326   7.357  -8.508  1.00  0.00     0.000 C 
BRANCH   2   3
ATOM      3  C   UNL     1      -3.170   8.258  -8.048  1.00  0.00     0.000 C 
BRANCH   3   4
ATOM      4  C   UNL     1      -3.676   9.348  -7.090  1.00  0.00    -0.000 C 
BRANCH   4   5
ATOM      5  C   UNL     1      -3.045   9.250  -5.692  1.00  0.00    -0.000 C 
BRANCH   5   6
ATOM      6  C   UNL     1      -2.010   8.116  -5.590  1.00  0.00    -0.000 C 
BRANCH   6   7
ATOM      7  C   UNL     1      -0.566   8.634  -5.473  1.00  0.00    -0.000 C 
BRANCH   7   8
ATOM      8  C   UNL     1      -0.215   9.819  -6.395  1.00  0.00    -0.000 C 
BRANCH   8   9
ATOM      9  C   UNL     1       0.695   9.478  -7.589  1.00  0.00    -0.000 C 
BRANCH   9  10
ATOM     10  C   UNL     1       1.455   8.155  -7.401  1.00  0.00    -0.000 C 
BRANCH  10  11
ATOM     11  C   UNL     1       2.407   7.853  -8.570  1.00  0.00    -0.003 C 
ATOM     12  C   UNL     1       3.618   7.020  -8.148  1.00  0.00     0.004 C 
ENDBRANCH  10  11
ENDBRANCH   9  10
ENDBRANCH   8   9
ENDBRANCH   7   8
ENDBRANCH   6   7
ENDBRANCH   5   6
ENDBRANCH   4   5
ENDBRANCH   3   4
ENDBRANCH   2   3
ENDBRANCH   1   2
BRANCH   1  13
ATOM     13  C   UNL     1      -4.411   5.798  -6.483  1.00  0.00     0.000 C 
BRANCH  13  14
ATOM     14  C   UNL     1      -5.845   6.164  -6.068  1.00  0.00     0.000 C 
BRANCH  14  15
ATOM     15  C   UNL     1      -5.911   6.864  -4.702  1.00  0.00     0.000 C 
BRANCH  15  16
ATOM     16  C   UNL     1      -6.480   8.282  -4.840  1.00  0.00     0.000 C 
BRANCH  16  17
ATOM     17  C   UNL     1      -7.580   8.333  -5.910  1.00  0.00     0.000 C 
BRANCH  17  18
ATOM     18  C   UNL     1      -8.991   8.464  -5.294  1.00  0.00     0.000 C 
BRANCH  18  19
ATOM     19  C   UNL     1      -9.905   7.255  -5.573  1.00  0.00     0.000 C 
BRANCH  19  20
ATOM     20  C   UNL     1      -9.558   6.457  -6.844  1.00  0.00     0.006 C 
BRANCH  20  21
ATOM     21  C   UNL     1      -9.945   4.970  -6.784  1.00  0.00     0.053 C 
BRANCH  21  22
ATOM     22  C   UNL     1      -9.079   4.130  -7.671  1.00  0.00     0.041 C 
ATOM     23  O   UNL     1      -9.246   2.883  -7.723  1.00  0.00    -0.550 OA
ATOM     24  O   UNL     1      -8.108   4.729  -8.465  1.00  0.00    -0.550 OA
ENDBRANCH  21  22
ENDBRANCH  20  21
ENDBRANCH  19  20
ENDBRANCH  18  19
ENDBRANCH  17  18
ENDBRANCH  16  17
ENDBRANCH  15  16
ENDBRANCH  14  15
ENDBRANCH  13  14
ENDBRANCH   1  13
TORSDOF 20
ENDMDL
MODEL 2
REMARK VINA RESULT:    -4.015      2.240      4.294
REMARK INTER + INTRA:         -11.453
REMARK INTER:                  -8.691
REMARK INTRA:                  -2.762
REMARK UNBOUND:                -2.744
REMARK SMILES CCCCCCCCCCCCCCCCCCCCCC(=O)[O-]
REMARK SMILES IDX 12 1 11 2 10 3 9 4 8 5 7 6 6 7 5 8 4 9 3 10 2 11 1 12 13 13
REMARK SMILES IDX 14 14 15 15 16 16 17 17 18 18 19 19 20 20 21 21 22 22 23 23
REMARK SMILES IDX 24 24
REMARK H PARENT
REMARK Flexibility Score: inf
ROOT
ATOM      1  C   UNL     1      -3.040   9.072  -3.281  1.00  0.00     0.000 C 
ENDROOT
BRANCH   1   2
ATOM      2  C   UNL     1      -1.873   9.646  -4.103  1.00  0.00     0.000 C 
BRANCH   2   3
ATOM      3  C   UNL     1      -1.320   8.642  -5.126  1.00  0.00     0.000 C 
BRANCH   3   4
ATOM      4  C   UNL     1      -0.185   9.271  -5.950  1.00  0.00    -0.000 C 
BRANCH   4   5
ATOM      5  C   UNL     1       0.763   8.222  -6.553  1.00  0.00    -0.000 C 
BRANCH   5   6
ATOM      6  C   UNL     1       1.453   8.718  -7.835  1.00  0.00    -0.000 C 
BRANCH   6   7
ATOM      7  C   UNL     1       0.669   9.839  -8.540  1.00  0.00    -0.000 C 
BRANCH   7   8
ATOM      8  C   UNL     1       0.026   9.448  -9.886  1.00  0.00    -0.000 C 
BRANCH   8   9
ATOM      9  C   UNL     1      -1.490   9.183  -9.839  1.00  0.00    -0.000 C 
BRANCH   9  10
ATOM     10  C   UNL     1      -2.199   9.967  -8.723  1.00  0.00    -0.000 C 
BRANCH  10  11
ATOM     11  C   UNL     1      -3.487   9.277  -8.245  1.00  0.00    -0.003 C 
ATOM     12  C   UNL     1      -3.334   7.761  -8.115  1.00  0.00     0.004 C 
ENDBRANCH  10  11
ENDBRANCH   9  10
ENDBRANCH   8   9
ENDBRANCH   7   8
ENDBRANCH   6   7
ENDBRANCH   5   6
ENDBRANCH   4   5
ENDBRANCH   3   4
ENDBRANCH   2   3
ENDBRANCH   1   2
BRANCH   1  13
ATOM     13  C   UNL     1      -4.251  10.020  -3.240  1.00  0.00     0.000 C 
BRANCH  13  14
ATOM     14  C   UNL     1      -5.036  10.033  -4.561  1.00  0.00     0.000 C 
BRANCH  14  15
ATOM     15  C   UNL     1      -6.071   8.901  -4.653  1.00  0.00     0.000 C 
BRANCH  15  16
ATOM     16  C   UNL     1      -5.523   7.721  -5.465  1.00  0.00     0.000 C 
BRANCH  16  17
ATOM     17  C   UNL     1      -6.307   6.435  -5.167  1.00  0.00     0.000 C 
BRANCH  17  18
ATOM     18  C   UNL     1      -7.188   5.996  -6.357  1.00  0.00     0.000 C 
BRANCH  18  19
ATOM     19  C   UNL     1      -7.206   7.006  -7.522  1.00  0.00     0.000 C 
BRANCH  19  20
ATOM     20  C   UNL     1      -8.597   7.569  -7.871  1.00  0.00     0.006 C 
BRANCH  20  21
ATOM     21  C   UNL     1      -9.659   7.357  -6.779  1.00  0.00     0.053 C 
BRANCH  21  22
ATOM     22  C   UNL     1      -9.548   8.376  -5.687  1.00  0.00     0.041 C 
ATOM     23  O   UNL     1      -9.601   8.019  -4.481  1.00  0.00    -0.550 OA
ATOM     24  O   UNL     1      -9.354   9.715  -6.001  1.00  0.00    -0.550 OA
ENDBRANCH  21  22
ENDBRANCH  20  21
ENDBRANCH  19  20
ENDBRANCH  18  19
ENDBRANCH  17  18
ENDBRANCH  16  17
ENDBRANCH  15  16
ENDBRANCH  14  15
ENDBRANCH  13  14
ENDBRANCH   1  13
TORSDOF 20
ENDMDL
MODEL 3
REMARK VINA RESULT:    -3.969      2.098      3.393
REMARK INTER + INTRA:         -11.354
REMARK INTER:                  -7.514
REMARK INTRA:                  -3.840
REMARK UNBOUND:                -2.744
REMARK SMILES CCCCCCCCCCCCCCCCCCCCCC(=O)[O-]
REMARK SMILES IDX 12 1 11 2 10 3 9 4 8 5 7 6 6 7 5 8 4 9 3 10 2 11 1 12 13 13
REMARK SMILES IDX 14 14 15 15 16 16 17 17 18 18 19 19 20 20 21 21 22 22 23 23
REMARK SMILES IDX 24 24
REMARK H PARENT
REMARK Flexibility Score: inf
ROOT
ATOM      1  C   UNL     1      -4.177   5.580  -7.809  1.00  0.00     0.000 C 
ENDROOT
BRANCH   1   2
ATOM      2  C   UNL     1      -5.382   6.028  -8.653  1.00  0.00     0.000 C 
BRANCH   2   3
ATOM      3  C   UNL     1      -5.135   7.362  -9.375  1.00  0.00     0.000 C 
BRANCH   3   4
ATOM      4  C   UNL     1      -3.640   7.551  -9.675  1.00  0.00    -0.000 C 
BRANCH   4   5
ATOM      5  C   UNL     1      -3.117   8.931  -9.243  1.00  0.00    -0.000 C 
BRANCH   5   6
ATOM      6  C   UNL     1      -3.970   9.563  -8.129  1.00  0.00    -0.000 C 
BRANCH   6   7
ATOM      7  C   UNL     1      -3.187   9.760  -6.818  1.00  0.00    -0.000 C 
BRANCH   7   8
ATOM      8  C   UNL     1      -1.915   8.901  -6.675  1.00  0.00    -0.000 C 
BRANCH   8   9
ATOM      9  C   UNL     1      -1.620   8.392  -5.252  1.00  0.00    -0.000 C 
BRANCH   9  10
ATOM     10  C   UNL     1      -1.925   9.439  -4.169  1.00  0.00    -0.000 C 
BRANCH  10  11
ATOM     11  C   UNL     1      -3.116   9.040  -3.283  1.00  0.00    -0.003 C 
ATOM     12  C   UNL     1      -4.191  10.125  -3.210  1.00  0.00     0.004 C 
ENDBRANCH  10  11
ENDBRANCH   9  10
ENDBRANCH   8   9
ENDBRANCH   7   8
ENDBRANCH   6   7
ENDBRANCH   5   6
ENDBRANCH   4   5
ENDBRANCH   3   4
ENDBRANCH   2   3
ENDBRANCH   1   2
BRANCH   1  13
ATOM     13  C   UNL     1      -4.253   6.089  -6.360  1.00  0.00     0.000 C 
BRANCH  13  14
ATOM     14  C   UNL     1      -5.699   6.295  -5.881  1.00  0.00     0.000 C 
BRANCH  14  15
ATOM     15  C   UNL     1      -5.884   7.594  -5.083  1.00  0.00     0.000 C 
BRANCH  15  16
ATOM     16  C   UNL     1      -7.285   8.179  -5.306  1.00  0.00     0.000 C 
BRANCH  16  17
ATOM     17  C   UNL     1      -7.355   8.952  -6.631  1.00  0.00     0.000 C 
BRANCH  17  18
ATOM     18  C   UNL     1      -8.742   8.841  -7.301  1.00  0.00     0.000 C 
BRANCH  18  19
ATOM     19  C   UNL     1      -8.731   8.054  -8.626  1.00  0.00     0.000 C 
BRANCH  19  20
ATOM     20  C   UNL     1      -9.604   6.785  -8.635  1.00  0.00     0.006 C 
BRANCH  20  21
ATOM     21  C   UNL     1      -9.814   6.151  -7.249  1.00  0.00     0.053 C 
BRANCH  21  22
ATOM     22  C   UNL     1      -9.197   4.790  -7.158  1.00  0.00     0.041 C 
ATOM     23  O   UNL     1      -9.556   3.990  -6.254  1.00  0.00    -0.550 OA
ATOM     24  O   UNL     1      -8.248   4.391  -8.092  1.00  0.00    -0.550 OA
ENDBRANCH  21  22
ENDBRANCH  20  21
ENDBRANCH  19  20
ENDBRANCH  18  19
ENDBRANCH  17  18
ENDBRANCH  16  17
ENDBRANCH  15  16
ENDBRANCH  14  15
ENDBRANCH  13  14
ENDBRANCH   1  13
TORSDOF 20
ENDMDL
MODEL 4
REMARK VINA RESULT:    -3.933      3.686      8.267
REMARK INTER + INTRA:         -11.276
REMARK INTER:                  -8.478
REMARK INTRA:                  -2.798
REMARK UNBOUND:                -2.744
REMARK SMILES CCCCCCCCCCCCCCCCCCCCCC(=O)[O-]
REMARK SMILES IDX 12 1 11 2 10 3 9 4 8 5 7 6 6 7 5 8 4 9 3 10 2 11 1 12 13 13
REMARK SMILES IDX 14 14 15 15 16 16 17 17 18 18 19 19 20 20 21 21 22 22 23 23
REMARK SMILES IDX 24 24
REMARK H PARENT
REMARK Flexibility Score: inf
ROOT
ATOM      1  C   UNL     1      -1.785   8.956  -3.827  1.00  0.00     0.000 C 
ENDROOT
BRANCH   1   2
ATOM      2  C   UNL     1      -2.778  10.124  -3.958  1.00  0.00     0.000 C 
BRANCH   2   3
ATOM      3  C   UNL     1      -4.099   9.864  -3.219  1.00  0.00     0.000 C 
BRANCH   3   4
ATOM      4  C   UNL     1      -5.298  10.047  -4.162  1.00  0.00    -0.000 C 
BRANCH   4   5
ATOM      5  C   UNL     1      -5.353   8.980  -5.267  1.00  0.00    -0.000 C 
BRANCH   5   6
ATOM      6  C   UNL     1      -6.291   7.812  -4.914  1.00  0.00    -0.000 C 
BRANCH   6   7
ATOM      7  C   UNL     1      -5.688   6.438  -5.254  1.00  0.00    -0.000 C 
BRANCH   7   8
ATOM      8  C   UNL     1      -4.820   6.396  -6.529  1.00  0.00    -0.000 C 
BRANCH   8   9
ATOM      9  C   UNL     1      -5.549   5.945  -7.807  1.00  0.00    -0.000 C 
BRANCH   9  10
ATOM     10  C   UNL     1      -6.283   7.096  -8.514  1.00  0.00    -0.000 C 
BRANCH  10  11
ATOM     11  C   UNL     1      -7.797   7.082  -8.245  1.00  0.00    -0.003 C 
ATOM     12  C   UNL     1      -8.322   5.695  -7.878  1.00  0.00     0.004 C 
ENDBRANCH  10  11
ENDBRANCH   9  10
ENDBRANCH   8   9
ENDBRANCH   7   8
ENDBRANCH   6   7
ENDBRANCH   5   6
ENDBRANCH   4   5
ENDBRANCH   3   4
ENDBRANCH   2   3
ENDBRANCH   1   2
BRANCH   1  13
ATOM     13  C   UNL     1      -0.970   8.731  -5.112  1.00  0.00     0.000 C 
BRANCH  13  14
ATOM     14  C   UNL     1      -1.837   8.239  -6.282  1.00  0.00     0.000 C 
BRANCH  14  15
ATOM     15  C   UNL     1      -2.354   9.385  -7.164  1.00  0.00     0.000 C 
BRANCH  15  16
ATOM     16  C   UNL     1      -2.832   8.858  -8.523  1.00  0.00     0.000 C 
BRANCH  16  17
ATOM     17  C   UNL     1      -1.660   8.725  -9.506  1.00  0.00     0.000 C 
BRANCH  17  18
ATOM     18  C   UNL     1      -0.684   9.919  -9.420  1.00  0.00     0.000 C 
BRANCH  18  19
ATOM     19  C   UNL     1       0.800   9.506  -9.389  1.00  0.00     0.000 C 
BRANCH  19  20
ATOM     20  C   UNL     1       1.264   8.845  -8.077  1.00  0.00     0.006 C 
BRANCH  20  21
ATOM     21  C   UNL     1       2.631   8.146  -8.168  1.00  0.00     0.053 C 
BRANCH  21  22
ATOM     22  C   UNL     1       2.686   6.915  -7.318  1.00  0.00     0.041 C 
ATOM     23  O   UNL     1       3.095   5.828  -7.804  1.00  0.00    -0.550 OA
ATOM     24  O   UNL     1       2.317   6.976  -5.980  1.00  0.00    -0.550 OA
ENDBRANCH  21  22
ENDBRANCH  20  21
ENDBRANCH  19  20
ENDBRANCH  18  19
ENDBRANCH  17  18
ENDBRANCH  16  17
ENDBRANCH  15  16
ENDBRANCH  14  15
ENDBRANCH  13  14
ENDBRANCH   1  13
TORSDOF 20
ENDMDL
MODEL 5
REMARK VINA RESULT:    -3.824      1.222      2.001
REMARK INTER + INTRA:         -11.039
REMARK INTER:                  -8.107
REMARK INTRA:                  -2.932
REMARK UNBOUND:                -2.744
REMARK SMILES CCCCCCCCCCCCCCCCCCCCCC(=O)[O-]
REMARK SMILES IDX 12 1 11 2 10 3 9 4 8 5 7 6 6 7 5 8 4 9 3 10 2 11 1 12 13 13
REMARK SMILES IDX 14 14 15 15 16 16 17 17 18 18 19 19 20 20 21 21 22 22 23 23
REMARK SMILES IDX 24 24
REMARK H PARENT
REMARK Flexibility Score: inf
ROOT
ATOM      1  C   UNL     1      -4.272   5.580  -7.763  1.00  0.00     0.000 C 
ENDROOT
BRANCH   1   2
ATOM      2  C   UNL     1      -5.652   6.111  -8.186  1.00  0.00     0.000 C 
BRANCH   2   3
ATOM      3  C   UNL     1      -5.564   7.437  -8.958  1.00  0.00     0.000 C 
BRANCH   3   4
ATOM      4  C   UNL     1      -4.338   7.449  -9.884  1.00  0.00    -0.000 C 
BRANCH   4   5
ATOM      5  C   UNL     1      -3.644   8.820  -9.934  1.00  0.00    -0.000 C 
BRANCH   5   6
ATOM      6  C   UNL     1      -3.400   9.409  -8.534  1.00  0.00    -0.000 C 
BRANCH   6   7
ATOM      7  C   UNL     1      -2.088   8.914  -7.899  1.00  0.00    -0.000 C 
BRANCH   7   8
ATOM      8  C   UNL     1      -1.594   9.730  -6.687  1.00  0.00    -0.000 C 
BRANCH   8   9
ATOM      9  C   UNL     1      -0.066   9.861  -6.560  1.00  0.00    -0.000 C 
BRANCH   9  10
ATOM     10  C   UNL     1       0.665   8.519  -6.724  1.00  0.00    -0.000 C 
BRANCH  10  11
ATOM     11  C   UNL     1       1.646   8.523  -7.907  1.00  0.00    -0.003 C 
ATOM     12  C   UNL     1       2.655   7.377  -7.846  1.00  0.00     0.004 C 
ENDBRANCH  10  11
ENDBRANCH   9  10
ENDBRANCH   8   9
ENDBRANCH   7   8
ENDBRANCH   6   7
ENDBRANCH   5   6
ENDBRANCH   4   5
ENDBRANCH   3   4
ENDBRANCH   2   3
ENDBRANCH   1   2
BRANCH   1  13
ATOM     13  C   UNL     1      -3.746   6.260  -6.487  1.00  0.00     0.000 C 
BRANCH  13  14
ATOM     14  C   UNL     1      -4.878   6.786  -5.589  1.00  0.00     0.000 C 
BRANCH  14  15
ATOM     15  C   UNL     1      -4.628   8.216  -5.089  1.00  0.00     0.000 C 
BRANCH  15  16
ATOM     16  C   UNL     1      -5.948   8.915  -4.743  1.00  0.00     0.000 C 
BRANCH  16  17
ATOM     17  C   UNL     1      -6.872   8.986  -5.967  1.00  0.00     0.000 C 
BRANCH  17  18
ATOM     18  C   UNL     1      -8.352   8.739  -5.601  1.00  0.00     0.000 C 
BRANCH  18  19
ATOM     19  C   UNL     1      -9.110   7.875  -6.627  1.00  0.00     0.000 C 
BRANCH  19  20
ATOM     20  C   UNL     1      -9.641   6.535  -6.083  1.00  0.00     0.006 C 
BRANCH  20  21
ATOM     21  C   UNL     1      -8.562   5.455  -5.897  1.00  0.00     0.053 C 
BRANCH  21  22
ATOM     22  C   UNL     1      -8.849   4.231  -6.711  1.00  0.00     0.041 C 
ATOM     23  O   UNL     1      -8.650   4.236  -7.954  1.00  0.00    -0.550 OA
ATOM     24  O   UNL     1      -9.308   3.075  -6.092  1.00  0.00    -0.550 OA
ENDBRANCH  21  22
ENDBRANCH  20  21
ENDBRANCH  19  20
ENDBRANCH  18  19
ENDBRANCH  17  18
ENDBRANCH  16  17
ENDBRANCH  15  16
ENDBRANCH  14  15
ENDBRANCH  13  14
ENDBRANCH   1  13
TORSDOF 20
ENDMDL
MODEL 6
REMARK VINA RESULT:    -3.758      1.668      3.926
REMARK INTER + INTRA:         -10.897
REMARK INTER:                  -8.045
REMARK INTRA:                  -2.852
REMARK UNBOUND:                -2.744
REMARK SMILES CCCCCCCCCCCCCCCCCCCCCC(=O)[O-]
REMARK SMILES IDX 12 1 11 2 10 3 9 4 8 5 7 6 6 7 5 8 4 9 3 10 2 11 1 12 13 13
REMARK SMILES IDX 14 14 15 15 16 16 17 17 18 18 19 19 20 20 21 21 22 22 23 23
REMARK SMILES IDX 24 24
REMARK H PARENT
REMARK Flexibility Score: inf
ROOT
ATOM      1  C   UNL     1      -3.359   9.061  -3.351  1.00  0.00     0.000 C 
ENDROOT
BRANCH   1   2
ATOM      2  C   UNL     1      -1.942   9.499  -3.757  1.00  0.00     0.000 C 
BRANCH   2   3
ATOM      3  C   UNL     1      -1.347   8.621  -4.869  1.00  0.00     0.000 C 
BRANCH   3   4
ATOM      4  C   UNL     1      -0.505   9.465  -5.839  1.00  0.00    -0.000 C 
BRANCH   4   5
ATOM      5  C   UNL     1       0.509   8.624  -6.631  1.00  0.00    -0.000 C 
BRANCH   5   6
ATOM      6  C   UNL     1       0.666   9.105  -8.084  1.00  0.00    -0.000 C 
BRANCH   6   7
ATOM      7  C   UNL     1      -0.623   9.726  -8.651  1.00  0.00    -0.000 C 
BRANCH   7   8
ATOM      8  C   UNL     1      -1.223   8.999  -9.871  1.00  0.00    -0.000 C 
BRANCH   8   9
ATOM      9  C   UNL     1      -2.600   8.351  -9.640  1.00  0.00    -0.000 C 
BRANCH   9  10
ATOM     10  C   UNL     1      -3.149   8.603  -8.226  1.00  0.00    -0.000 C 
BRANCH  10  11
ATOM     11  C   UNL     1      -4.218   7.577  -7.819  1.00  0.00    -0.003 C 
ATOM     12  C   UNL     1      -3.730   6.605  -6.744  1.00  0.00     0.004 C 
ENDBRANCH  10  11
ENDBRANCH   9  10
ENDBRANCH   8   9
ENDBRANCH   7   8
ENDBRANCH   6   7
ENDBRANCH   5   6
ENDBRANCH   4   5
ENDBRANCH   3   4
ENDBRANCH   2   3
ENDBRANCH   1   2
BRANCH   1  13
ATOM     13  C   UNL     1      -4.424  10.113  -3.705  1.00  0.00     0.000 C 
BRANCH  13  14
ATOM     14  C   UNL     1      -4.774  10.117  -5.201  1.00  0.00     0.000 C 
BRANCH  14  15
ATOM     15  C   UNL     1      -6.260   9.832  -5.467  1.00  0.00     0.000 C 
BRANCH  15  16
ATOM     16  C   UNL     1      -6.636   8.415  -5.017  1.00  0.00     0.000 C 
BRANCH  16  17
ATOM     17  C   UNL     1      -8.159   8.260  -4.896  1.00  0.00     0.000 C 
BRANCH  17  18
ATOM     18  C   UNL     1      -8.776   7.550  -6.120  1.00  0.00     0.000 C 
BRANCH  18  19
ATOM     19  C   UNL     1      -9.142   6.075  -5.863  1.00  0.00     0.000 C 
BRANCH  19  20
ATOM     20  C   UNL     1      -8.296   5.049  -6.642  1.00  0.00     0.006 C 
BRANCH  20  21
ATOM     21  C   UNL     1      -7.363   5.669  -7.696  1.00  0.00     0.053 C 
BRANCH  21  22
ATOM     22  C   UNL     1      -7.919   5.538  -9.080  1.00  0.00     0.041 C 
ATOM     23  O   UNL     1      -8.512   4.484  -9.427  1.00  0.00    -0.550 OA
ATOM     24  O   UNL     1      -7.809   6.594  -9.977  1.00  0.00    -0.550 OA
ENDBRANCH  21  22
ENDBRANCH  20  21
ENDBRANCH  19  20
ENDBRANCH  18  19
ENDBRANCH  17  18
ENDBRANCH  16  17
ENDBRANCH  15  16
ENDBRANCH  14  15
ENDBRANCH  13  14
ENDBRANCH   1  13
TORSDOF 20
ENDMDL
MODEL 7
REMARK VINA RESULT:    -3.718      3.801      8.653
REMARK INTER + INTRA:         -10.809
REMARK INTER:                  -8.074
REMARK INTRA:                  -2.735
REMARK UNBOUND:                -2.744
REMARK SMILES CCCCCCCCCCCCCCCCCCCCCC(=O)[O-]
REMARK SMILES IDX 12 1 11 2 10 3 9 4 8 5 7 6 6 7 5 8 4 9 3 10 2 11 1 12 13 13
REMARK SMILES IDX 14 14 15 15 16 16 17 17 18 18 19 19 20 20 21 21 22 22 23 23
REMARK SMILES IDX 24 24
REMARK H PARENT
REMARK Flexibility Score: inf
ROOT
ATOM      1  C   UNL     1      -4.325   6.806  -6.201  1.00  0.00     0.000 C 
ENDROOT
BRANCH   1   2
ATOM      2  C   UNL     1      -4.310   6.468  -7.701  1.00  0.00     0.000 C 
BRANCH   2   3
ATOM      3  C   UNL     1      -5.589   5.751  -8.159  1.00  0.00     0.000 C 
BRANCH   3   4
ATOM      4  C   UNL     1      -6.468   6.689  -9.002  1.00  0.00    -0.000 C 
BRANCH   4   5
ATOM      5  C   UNL     1      -5.836   8.076  -9.201  1.00  0.00    -0.000 C 
BRANCH   5   6
ATOM      6  C   UNL     1      -6.676   9.203  -8.575  1.00  0.00    -0.000 C 
BRANCH   6   7
ATOM      7  C   UNL     1      -7.763   8.677  -7.620  1.00  0.00    -0.000 C 
BRANCH   7   8
ATOM      8  C   UNL     1      -7.684   9.210  -6.175  1.00  0.00    -0.000 C 
BRANCH   8   9
ATOM      9  C   UNL     1      -7.924   8.163  -5.072  1.00  0.00    -0.000 C 
BRANCH   9  10
ATOM     10  C   UNL     1      -8.868   7.034  -5.517  1.00  0.00    -0.000 C 
BRANCH  10  11
ATOM     11  C   UNL     1      -8.173   5.663  -5.549  1.00  0.00    -0.003 C 
ATOM     12  C   UNL     1      -8.893   4.653  -6.443  1.00  0.00     0.004 C 
ENDBRANCH  10  11
ENDBRANCH   9  10
ENDBRANCH   8   9
ENDBRANCH   7   8
ENDBRANCH   6   7
ENDBRANCH   5   6
ENDBRANCH   4   5
ENDBRANCH   3   4
ENDBRANCH   2   3
ENDBRANCH   1   2
BRANCH   1  13
ATOM     13  C   UNL     1      -4.153   8.311  -5.935  1.00  0.00     0.000 C 
BRANCH  13  14
ATOM     14  C   UNL     1      -4.309   8.670  -4.449  1.00  0.00     0.000 C 
BRANCH  14  15
ATOM     15  C   UNL     1      -2.968   8.968  -3.762  1.00  0.00     0.000 C 
BRANCH  15  16
ATOM     16  C   UNL     1      -2.055   9.794  -4.677  1.00  0.00     0.000 C 
BRANCH  16  17
ATOM     17  C   UNL     1      -0.690   9.113  -4.855  1.00  0.00     0.000 C 
BRANCH  17  18
ATOM     18  C   UNL     1      -0.478   8.594  -6.294  1.00  0.00     0.000 C 
BRANCH  18  19
ATOM     19  C   UNL     1       1.004   8.485  -6.703  1.00  0.00     0.000 C 
BRANCH  19  20
ATOM     20  C   UNL     1       1.249   8.264  -8.208  1.00  0.00     0.006 C 
BRANCH  20  21
ATOM     21  C   UNL     1       2.698   8.515  -8.657  1.00  0.00     0.053 C 
BRANCH  21  22
ATOM     22  C   UNL     1       3.558   7.303  -8.474  1.00  0.00     0.041 C 
ATOM     23  O   UNL     1       4.729   7.282  -8.934  1.00  0.00    -0.550 OA
ATOM     24  O   UNL     1       3.076   6.208  -7.767  1.00  0.00    -0.550 OA
ENDBRANCH  21  22
ENDBRANCH  20  21
ENDBRANCH  19  20
ENDBRANCH  18  19
ENDBRANCH  17  18
ENDBRANCH  16  17
ENDBRANCH  15  16
ENDBRANCH  14  15
ENDBRANCH  13  14
ENDBRANCH   1  13
TORSDOF 20
ENDMDL
MODEL 8
REMARK VINA RESULT:    -3.586      4.065      8.170
REMARK INTER + INTRA:         -10.523
REMARK INTER:                  -7.655
REMARK INTRA:                  -2.867
REMARK UNBOUND:                -2.744
REMARK SMILES CCCCCCCCCCCCCCCCCCCCCC(=O)[O-]
REMARK SMILES IDX 12 1 11 2 10 3 9 4 8 5 7 6 6 7 5 8 4 9 3 10 2 11 1 12 13 13
REMARK SMILES IDX 14 14 15 15 16 16 17 17 18 18 19 19 20 20 21 21 22 22 23 23
REMARK SMILES IDX 24 24
REMARK H PARENT
REMARK Flexibility Score: inf
ROOT
ATOM      1  C   UNL     1      -4.602   9.878  -3.918  1.00  0.00     0.000 C 
ENDROOT
BRANCH   1   2
ATOM      2  C   UNL     1      -5.389   9.169  -5.033  1.00  0.00     0.000 C 
BRANCH   2   3
ATOM      3  C   UNL     1      -5.604   7.675  -4.747  1.00  0.00     0.000 C 
BRANCH   3   4
ATOM      4  C   UNL     1      -5.611   6.865  -6.053  1.00  0.00    -0.000 C 
BRANCH   4   5
ATOM      5  C   UNL     1      -4.276   6.149  -6.315  1.00  0.00    -0.000 C 
BRANCH   5   6
ATOM      6  C   UNL     1      -4.115   5.717  -7.783  1.00  0.00    -0.000 C 
BRANCH   6   7
ATOM      7  C   UNL     1      -4.476   6.835  -8.777  1.00  0.00    -0.000 C 
BRANCH   7   8
ATOM      8  C   UNL     1      -3.351   7.850  -9.063  1.00  0.00    -0.000 C 
BRANCH   8   9
ATOM      9  C   UNL     1      -3.636   9.294  -8.612  1.00  0.00    -0.000 C 
BRANCH   9  10
ATOM     10  C   UNL     1      -5.135   9.632  -8.605  1.00  0.00    -0.000 C 
BRANCH  10  11
ATOM     11  C   UNL     1      -5.724   9.722 -10.023  1.00  0.00    -0.003 C 
ATOM     12  C   UNL     1      -7.121   9.110 -10.125  1.00  0.00     0.004 C 
ENDBRANCH  10  11
ENDBRANCH   9  10
ENDBRANCH   8   9
ENDBRANCH   7   8
ENDBRANCH   6   7
ENDBRANCH   5   6
ENDBRANCH   4   5
ENDBRANCH   3   4
ENDBRANCH   2   3
ENDBRANCH   1   2
BRANCH   1  13
ATOM     13  C   UNL     1      -3.451   9.016  -3.371  1.00  0.00     0.000 C 
BRANCH  13  14
ATOM     14  C   UNL     1      -2.068   9.557  -3.769  1.00  0.00     0.000 C 
BRANCH  14  15
ATOM     15  C   UNL     1      -1.874   9.639  -5.291  1.00  0.00     0.000 C 
BRANCH  15  16
ATOM     16  C   UNL     1      -1.386   8.298  -5.854  1.00  0.00     0.000 C 
BRANCH  16  17
ATOM     17  C   UNL     1       0.147   8.267  -5.953  1.00  0.00     0.000 C 
BRANCH  17  18
ATOM     18  C   UNL     1       0.679   9.165  -7.091  1.00  0.00     0.000 C 
BRANCH  18  19
ATOM     19  C   UNL     1       0.208   8.735  -8.494  1.00  0.00     0.000 C 
BRANCH  19  20
ATOM     20  C   UNL     1       1.335   8.533  -9.524  1.00  0.00     0.006 C 
BRANCH  20  21
ATOM     21  C   UNL     1       2.749   8.791  -8.975  1.00  0.00     0.053 C 
BRANCH  21  22
ATOM     22  C   UNL     1       3.446   7.518  -8.609  1.00  0.00     0.041 C 
ATOM     23  O   UNL     1       2.830   6.614  -7.986  1.00  0.00    -0.550 OA
ATOM     24  O   UNL     1       4.769   7.316  -8.983  1.00  0.00    -0.550 OA
ENDBRANCH  21  22
ENDBRANCH  20  21
ENDBRANCH  19  20
ENDBRANCH  18  19
ENDBRANCH  17  18
ENDBRANCH  16  17
ENDBRANCH  15  16
ENDBRANCH  14  15
ENDBRANCH  13  14
ENDBRANCH   1  13
TORSDOF 20
ENDMDL
MODEL 9
REMARK VINA RESULT:    -3.579      3.887      9.194
REMARK INTER + INTRA:         -10.508
REMARK INTER:                  -8.367
REMARK INTRA:                  -2.140
REMARK UNBOUND:                -2.744
REMARK SMILES CCCCCCCCCCCCCCCCCCCCCC(=O)[O-]
REMARK SMILES IDX 12 1 11 2 10 3 9 4 8 5 7 6 6 7 5 8 4 9 3 10 2 11 1 12 13 13
REMARK SMILES IDX 14 14 15 15 16 16 17 17 18 18 19 19 20 20 21 21 22 22 23 23
REMARK SMILES IDX 24 24
REMARK H PARENT
REMARK Flexibility Score: inf
ROOT
ATOM      1  C   UNL     1      -4.584   9.780  -3.889  1.00  0.00     0.000 C 
ENDROOT
BRANCH   1   2
ATOM      2  C   UNL     1      -5.527   8.812  -4.623  1.00  0.00     0.000 C 
BRANCH   2   3
ATOM      3  C   UNL     1      -4.779   7.643  -5.281  1.00  0.00     0.000 C 
BRANCH   3   4
ATOM      4  C   UNL     1      -5.683   6.404  -5.382  1.00  0.00    -0.000 C 
BRANCH   4   5
ATOM      5  C   UNL     1      -6.322   6.246  -6.771  1.00  0.00    -0.000 C 
BRANCH   5   6
ATOM      6  C   UNL     1      -7.695   5.554  -6.714  1.00  0.00    -0.000 C 
BRANCH   6   7
ATOM      7  C   UNL     1      -8.557   6.033  -5.533  1.00  0.00    -0.000 C 
BRANCH   7   8
ATOM      8  C   UNL     1      -9.605   7.111  -5.877  1.00  0.00    -0.000 C 
BRANCH   8   9
ATOM      9  C   UNL     1      -9.477   8.429  -5.092  1.00  0.00    -0.000 C 
BRANCH   9  10
ATOM     10  C   UNL     1      -9.197   9.639  -5.998  1.00  0.00    -0.000 C 
BRANCH  10  11
ATOM     11  C   UNL     1      -8.155   9.331  -7.086  1.00  0.00    -0.003 C 
ATOM     12  C   UNL     1      -8.485   9.989  -8.426  1.00  0.00     0.004 C 
ENDBRANCH  10  11
ENDBRANCH   9  10
ENDBRANCH   8   9
ENDBRANCH   7   8
ENDBRANCH   6   7
ENDBRANCH   5   6
ENDBRANCH   4   5
ENDBRANCH   3   4
ENDBRANCH   2   3
ENDBRANCH   1   2
BRANCH   1  13
ATOM     13  C   UNL     1      -3.326   9.079  -3.349  1.00  0.00     0.000 C 
BRANCH  13  14
ATOM     14  C   UNL     1      -2.027   9.730  -3.848  1.00  0.00     0.000 C 
BRANCH  14  15
ATOM     15  C   UNL     1      -1.969   9.849  -5.379  1.00  0.00     0.000 C 
BRANCH  15  16
ATOM     16  C   UNL     1      -1.376   8.580  -6.006  1.00  0.00     0.000 C 
BRANCH  16  17
ATOM     17  C   UNL     1       0.150   8.690  -6.134  1.00  0.00     0.000 C 
BRANCH  17  18
ATOM     18  C   UNL     1       0.577   9.577  -7.324  1.00  0.00     0.000 C 
BRANCH  18  19
ATOM     19  C   UNL     1       0.154   9.020  -8.697  1.00  0.00     0.000 C 
BRANCH  19  20
ATOM     20  C   UNL     1       1.190   9.210  -9.822  1.00  0.00     0.006 C 
BRANCH  20  21
ATOM     21  C   UNL     1       2.613   9.517  -9.327  1.00  0.00     0.053 C 
BRANCH  21  22
ATOM     22  C   UNL     1       3.455   8.282  -9.243  1.00  0.00     0.041 C 
ATOM     23  O   UNL     1       4.649   8.300  -9.641  1.00  0.00    -0.550 OA
ATOM     24  O   UNL     1       2.930   7.118  -8.695  1.00  0.00    -0.550 OA
ENDBRANCH  21  22
ENDBRANCH  20  21
ENDBRANCH  19  20
ENDBRANCH  18  19
ENDBRANCH  17  18
ENDBRANCH  16  17
ENDBRANCH  15  16
ENDBRANCH  14  15
ENDBRANCH  13  14
ENDBRANCH   1  13
TORSDOF 20
ENDMDL
