MODEL 1
REMARK VINA RESULT:    -3.989      0.000      0.000
REMARK INTER + INTRA:         -10.405
REMARK INTER:                  -7.721
REMARK INTRA:                  -2.684
REMARK UNBOUND:                -2.684
REMARK SMILES CCCCCCCCCCCCCCCCCC(=O)[O-]
REMARK SMILES IDX 10 1 11 2 12 3 13 4 14 5 15 6 16 7 17 8 18 9 19 10 20 11
REMARK SMILES IDX 9 12 8 13 7 14 6 15 5 16 4 17 3 18 2 19 1 20
REMARK H PARENT
REMARK Flexibility Score: inf
ROOT
ATOM      1  C   UNL     1     174.216 175.738 150.713  1.00  0.00     0.000 C 
ENDROOT
BRANCH   1   2
ATOM      2  C   UNL     1     174.999 174.587 151.362  1.00  0.00     0.000 C 
BRANCH   2   3
ATOM      3  C   UNL     1     176.510 174.644 151.068  1.00  0.00     0.000 C 
BRANCH   3   4
ATOM      4  C   UNL     1     177.082 173.418 150.333  1.00  0.00     0.000 C 
BRANCH   4   5
ATOM      5  C   UNL     1     176.021 172.343 150.044  1.00  0.00     0.000 C 
BRANCH   5   6
ATOM      6  C   UNL     1     176.460 170.939 150.494  1.00  0.00     0.000 C 
BRANCH   6   7
ATOM      7  C   UNL     1     175.815 170.484 151.821  1.00  0.00     0.006 C 
BRANCH   7   8
ATOM      8  C   UNL     1     176.801 170.549 152.995  1.00  0.00     0.053 C 
BRANCH   8   9
ATOM      9  C   UNL     1     176.744 171.891 153.653  1.00  0.00     0.041 C 
ATOM     10  O   UNL     1     177.788 172.585 153.771  1.00  0.00    -0.550 OA
ATOM     11  O   UNL     1     175.528 172.398 154.094  1.00  0.00    -0.550 OA
ENDBRANCH   8   9
ENDBRANCH   7   8
ENDBRANCH   6   7
ENDBRANCH   5   6
ENDBRANCH   4   5
ENDBRANCH   3   4
ENDBRANCH   2   3
ENDBRANCH   1   2
BRANCH   1  12
ATOM     12  C   UNL     1     175.035 177.037 150.733  1.00  0.00     0.000 C 
BRANCH  12  13
ATOM     13  C   UNL     1     174.398 178.125 151.612  1.00  0.00    -0.000 C 
BRANCH  13  14
ATOM     14  C   UNL     1     172.861 178.063 151.607  1.00  0.00    -0.000 C 
BRANCH  14  15
ATOM     15  C   UNL     1     172.266 177.897 153.016  1.00  0.00    -0.000 C 
BRANCH  15  16
ATOM     16  C   UNL     1     171.743 176.474 153.303  1.00  0.00    -0.000 C 
BRANCH  16  17
ATOM     17  C   UNL     1     172.309 175.896 154.612  1.00  0.00    -0.000 C 
BRANCH  17  18
ATOM     18  C   UNL     1     173.585 176.632 155.072  1.00  0.00    -0.000 C 
BRANCH  18  19
ATOM     19  C   UNL     1     174.886 175.892 154.719  1.00  0.00    -0.003 C 
ATOM     20  C   UNL     1     176.058 176.834 154.457  1.00  0.00     0.004 C 
ENDBRANCH  18  19
ENDBRANCH  17  18
ENDBRANCH  16  17
ENDBRANCH  15  16
ENDBRANCH  14  15
ENDBRANCH  13  14
ENDBRANCH  12  13
ENDBRANCH   1  12
TORSDOF 16
ENDMDL
MODEL 2
REMARK VINA RESULT:    -3.834      1.636      2.296
REMARK INTER + INTRA:         -10.104
REMARK INTER:                  -8.092
REMARK INTRA:                  -2.012
REMARK UNBOUND:                -2.684
REMARK SMILES CCCCCCCCCCCCCCCCCC(=O)[O-]
REMARK SMILES IDX 10 1 11 2 12 3 13 4 14 5 15 6 16 7 17 8 18 9 19 10 20 11
REMARK SMILES IDX 9 12 8 13 7 14 6 15 5 16 4 17 3 18 2 19 1 20
REMARK H PARENT
REMARK Flexibility Score: inf
ROOT
ATOM      1  C   UNL     1     173.724 175.771 150.756  1.00  0.00     0.000 C 
ENDROOT
BRANCH   1   2
ATOM      2  C   UNL     1     174.536 174.521 151.130  1.00  0.00     0.000 C 
BRANCH   2   3
ATOM      3  C   UNL     1     176.055 174.771 151.147  1.00  0.00     0.000 C 
BRANCH   3   4
ATOM      4  C   UNL     1     176.929 173.504 151.151  1.00  0.00     0.000 C 
BRANCH   4   5
ATOM      5  C   UNL     1     177.070 172.866 149.759  1.00  0.00     0.000 C 
BRANCH   5   6
ATOM      6  C   UNL     1     176.311 171.534 149.635  1.00  0.00     0.000 C 
BRANCH   6   7
ATOM      7  C   UNL     1     175.829 170.968 150.988  1.00  0.00     0.006 C 
BRANCH   7   8
ATOM      8  C   UNL     1     176.533 169.652 151.346  1.00  0.00     0.053 C 
BRANCH   8   9
ATOM      9  C   UNL     1     177.029 169.690 152.756  1.00  0.00     0.041 C 
ATOM     10  O   UNL     1     177.062 170.780 153.387  1.00  0.00    -0.550 OA
ATOM     11  O   UNL     1     177.410 168.515 153.391  1.00  0.00    -0.550 OA
ENDBRANCH   8   9
ENDBRANCH   7   8
ENDBRANCH   6   7
ENDBRANCH   5   6
ENDBRANCH   4   5
ENDBRANCH   3   4
ENDBRANCH   2   3
ENDBRANCH   1   2
BRANCH   1  12
ATOM     12  C   UNL     1     174.653 176.954 150.446  1.00  0.00     0.000 C 
BRANCH  12  13
ATOM     13  C   UNL     1     174.465 178.125 151.423  1.00  0.00    -0.000 C 
BRANCH  13  14
ATOM     14  C   UNL     1     174.211 177.657 152.865  1.00  0.00    -0.000 C 
BRANCH  14  15
ATOM     15  C   UNL     1     175.427 177.868 153.784  1.00  0.00    -0.000 C 
BRANCH  15  16
ATOM     16  C   UNL     1     175.895 176.582 154.497  1.00  0.00    -0.000 C 
BRANCH  16  17
ATOM     17  C   UNL     1     174.789 175.513 154.559  1.00  0.00    -0.000 C 
BRANCH  17  18
ATOM     18  C   UNL     1     175.104 174.404 155.585  1.00  0.00    -0.000 C 
BRANCH  18  19
ATOM     19  C   UNL     1     176.167 174.807 156.621  1.00  0.00    -0.003 C 
ATOM     20  C   UNL     1     177.413 173.927 156.573  1.00  0.00     0.004 C 
ENDBRANCH  18  19
ENDBRANCH  17  18
ENDBRANCH  16  17
ENDBRANCH  15  16
ENDBRANCH  14  15
ENDBRANCH  13  14
ENDBRANCH  12  13
ENDBRANCH   1  12
TORSDOF 16
ENDMDL
MODEL 3
REMARK VINA RESULT:    -3.826      1.646      5.456
REMARK INTER + INTRA:         -10.088
REMARK INTER:                  -7.364
REMARK INTRA:                  -2.724
REMARK UNBOUND:                -2.684
REMARK SMILES CCCCCCCCCCCCCCCCCC(=O)[O-]
REMARK SMILES IDX 10 1 11 2 12 3 13 4 14 5 15 6 16 7 17 8 18 9 19 10 20 11
REMARK SMILES IDX 9 12 8 13 7 14 6 15 5 16 4 17 3 18 2 19 1 20
REMARK H PARENT
REMARK Flexibility Score: inf
ROOT
ATOM      1  C   UNL     1     174.243 176.925 150.391  1.00  0.00     0.000 C 
ENDROOT
BRANCH   1   2
ATOM      2  C   UNL     1     174.263 178.112 151.365  1.00  0.00     0.000 C 
BRANCH   2   3
ATOM      3  C   UNL     1     173.399 177.880 152.619  1.00  0.00     0.000 C 
BRANCH   3   4
ATOM      4  C   UNL     1     174.164 177.897 153.955  1.00  0.00     0.000 C 
BRANCH   4   5
ATOM      5  C   UNL     1     175.664 177.597 153.792  1.00  0.00     0.000 C 
BRANCH   5   6
ATOM      6  C   UNL     1     176.111 176.353 154.579  1.00  0.00     0.000 C 
BRANCH   6   7
ATOM      7  C   UNL     1     174.987 175.316 154.788  1.00  0.00     0.006 C 
BRANCH   7   8
ATOM      8  C   UNL     1     175.517 173.877 154.758  1.00  0.00     0.053 C 
BRANCH   8   9
ATOM      9  C   UNL     1     175.589 173.315 156.143  1.00  0.00     0.041 C 
ATOM     10  O   UNL     1     176.044 172.157 156.334  1.00  0.00    -0.550 OA
ATOM     11  O   UNL     1     175.200 174.090 157.228  1.00  0.00    -0.550 OA
ENDBRANCH   8   9
ENDBRANCH   7   8
ENDBRANCH   6   7
ENDBRANCH   5   6
ENDBRANCH   4   5
ENDBRANCH   3   4
ENDBRANCH   2   3
ENDBRANCH   1   2
BRANCH   1  12
ATOM     12  C   UNL     1     173.529 175.717 151.016  1.00  0.00     0.000 C 
BRANCH  12  13
ATOM     13  C   UNL     1     174.451 174.496 151.162  1.00  0.00    -0.000 C 
BRANCH  13  14
ATOM     14  C   UNL     1     175.941 174.874 151.137  1.00  0.00    -0.000 C 
BRANCH  14  15
ATOM     15  C   UNL     1     176.869 173.652 151.240  1.00  0.00    -0.000 C 
BRANCH  15  16
ATOM     16  C   UNL     1     177.048 172.896 149.906  1.00  0.00    -0.000 C 
BRANCH  16  17
ATOM     17  C   UNL     1     176.529 171.450 149.979  1.00  0.00    -0.000 C 
BRANCH  17  18
ATOM     18  C   UNL     1     175.120 171.302 149.366  1.00  0.00    -0.000 C 
BRANCH  18  19
ATOM     19  C   UNL     1     174.098 170.657 150.316  1.00  0.00    -0.003 C 
ATOM     20  C   UNL     1     174.467 170.817 151.789  1.00  0.00     0.004 C 
ENDBRANCH  18  19
ENDBRANCH  17  18
ENDBRANCH  16  17
ENDBRANCH  15  16
ENDBRANCH  14  15
ENDBRANCH  13  14
ENDBRANCH  12  13
ENDBRANCH   1  12
TORSDOF 16
ENDMDL
MODEL 4
REMARK VINA RESULT:    -3.744      8.323     10.894
REMARK INTER + INTRA:          -9.930
REMARK INTER:                  -7.733
REMARK INTRA:                  -2.197
REMARK UNBOUND:                -2.684
REMARK SMILES CCCCCCCCCCCCCCCCCC(=O)[O-]
REMARK SMILES IDX 10 1 11 2 12 3 13 4 14 5 15 6 16 7 17 8 18 9 19 10 20 11
REMARK SMILES IDX 9 12 8 13 7 14 6 15 5 16 4 17 3 18 2 19 1 20
REMARK H PARENT
REMARK Flexibility Score: inf
ROOT
ATOM      1  C   UNL     1     163.879 178.072 151.193  1.00  0.00     0.000 C 
ENDROOT
BRANCH   1   2
ATOM      2  C   UNL     1     165.181 177.267 151.072  1.00  0.00     0.000 C 
BRANCH   2   3
ATOM      3  C   UNL     1     166.194 177.899 150.099  1.00  0.00     0.000 C 
BRANCH   3   4
ATOM      4  C   UNL     1     167.324 176.965 149.630  1.00  0.00     0.000 C 
BRANCH   4   5
ATOM      5  C   UNL     1     166.990 175.475 149.821  1.00  0.00     0.000 C 
BRANCH   5   6
ATOM      6  C   UNL     1     168.005 174.749 150.719  1.00  0.00     0.000 C 
BRANCH   6   7
ATOM      7  C   UNL     1     167.732 174.922 152.229  1.00  0.00     0.006 C 
BRANCH   7   8
ATOM      8  C   UNL     1     168.938 175.511 152.971  1.00  0.00     0.053 C 
BRANCH   8   9
ATOM      9  C   UNL     1     168.949 177.002 152.853  1.00  0.00     0.041 C 
ATOM     10  O   UNL     1     169.886 177.583 152.243  1.00  0.00    -0.550 OA
ATOM     11  O   UNL     1     167.899 177.749 153.373  1.00  0.00    -0.550 OA
ENDBRANCH   8   9
ENDBRANCH   7   8
ENDBRANCH   6   7
ENDBRANCH   5   6
ENDBRANCH   4   5
ENDBRANCH   3   4
ENDBRANCH   2   3
ENDBRANCH   1   2
BRANCH   1  12
ATOM     12  C   UNL     1     162.672 177.232 150.750  1.00  0.00     0.000 C 
BRANCH  12  13
ATOM     13  C   UNL     1     162.946 175.721 150.823  1.00  0.00    -0.000 C 
BRANCH  13  14
ATOM     14  C   UNL     1     161.865 174.963 151.611  1.00  0.00    -0.000 C 
BRANCH  14  15
ATOM     15  C   UNL     1     160.515 175.700 151.634  1.00  0.00    -0.000 C 
BRANCH  15  16
ATOM     16  C   UNL     1     160.122 176.227 153.031  1.00  0.00    -0.000 C 
BRANCH  16  17
ATOM     17  C   UNL     1     160.319 177.748 153.157  1.00  0.00    -0.000 C 
BRANCH  17  18
ATOM     18  C   UNL     1     161.268 178.121 154.316  1.00  0.00    -0.000 C 
BRANCH  18  19
ATOM     19  C   UNL     1     162.424 177.126 154.511  1.00  0.00    -0.003 C 
ATOM     20  C   UNL     1     163.639 177.746 155.196  1.00  0.00     0.004 C 
ENDBRANCH  18  19
ENDBRANCH  17  18
ENDBRANCH  16  17
ENDBRANCH  15  16
ENDBRANCH  14  15
ENDBRANCH  13  14
ENDBRANCH  12  13
ENDBRANCH   1  12
TORSDOF 16
ENDMDL
MODEL 5
REMARK VINA RESULT:    -3.739      2.572      6.438
REMARK INTER + INTRA:          -9.920
REMARK INTER:                  -7.206
REMARK INTRA:                  -2.714
REMARK UNBOUND:                -2.684
REMARK SMILES CCCCCCCCCCCCCCCCCC(=O)[O-]
REMARK SMILES IDX 10 1 11 2 12 3 13 4 14 5 15 6 16 7 17 8 18 9 19 10 20 11
REMARK SMILES IDX 9 12 8 13 7 14 6 15 5 16 4 17 3 18 2 19 1 20
REMARK H PARENT
REMARK Flexibility Score: inf
ROOT
ATOM      1  C   UNL     1     174.677 175.257 155.253  1.00  0.00     0.000 C 
ENDROOT
BRANCH   1   2
ATOM      2  C   UNL     1     175.817 175.981 154.522  1.00  0.00     0.000 C 
BRANCH   2   3
ATOM      3  C   UNL     1     175.682 177.515 154.563  1.00  0.00     0.000 C 
BRANCH   3   4
ATOM      4  C   UNL     1     174.800 178.125 153.458  1.00  0.00     0.000 C 
BRANCH   4   5
ATOM      5  C   UNL     1     175.089 177.538 152.066  1.00  0.00     0.000 C 
BRANCH   5   6
ATOM      6  C   UNL     1     173.869 177.596 151.132  1.00  0.00     0.000 C 
BRANCH   6   7
ATOM      7  C   UNL     1     172.548 177.935 151.857  1.00  0.00     0.006 C 
BRANCH   7   8
ATOM      8  C   UNL     1     171.643 176.707 152.013  1.00  0.00     0.053 C 
BRANCH   8   9
ATOM      9  C   UNL     1     170.586 176.961 153.039  1.00  0.00     0.041 C 
ATOM     10  O   UNL     1     169.509 177.528 152.713  1.00  0.00    -0.550 OA
ATOM     11  O   UNL     1     170.766 176.528 154.347  1.00  0.00    -0.550 OA
ENDBRANCH   8   9
ENDBRANCH   7   8
ENDBRANCH   6   7
ENDBRANCH   5   6
ENDBRANCH   4   5
ENDBRANCH   3   4
ENDBRANCH   2   3
ENDBRANCH   1   2
BRANCH   1  12
ATOM     12  C   UNL     1     173.727 174.582 154.253  1.00  0.00     0.000 C 
BRANCH  12  13
ATOM     13  C   UNL     1     174.460 173.637 153.287  1.00  0.00    -0.000 C 
BRANCH  13  14
ATOM     14  C   UNL     1     173.782 173.558 151.909  1.00  0.00    -0.000 C 
BRANCH  14  15
ATOM     15  C   UNL     1     174.679 174.080 150.773  1.00  0.00    -0.000 C 
BRANCH  15  16
ATOM     16  C   UNL     1     176.181 174.100 151.130  1.00  0.00    -0.000 C 
BRANCH  16  17
ATOM     17  C   UNL     1     177.006 173.158 150.236  1.00  0.00    -0.000 C 
BRANCH  17  18
ATOM     18  C   UNL     1     176.191 171.934 149.766  1.00  0.00    -0.000 C 
BRANCH  18  19
ATOM     19  C   UNL     1     176.639 170.612 150.409  1.00  0.00    -0.003 C 
ATOM     20  C   UNL     1     176.014 170.370 151.780  1.00  0.00     0.004 C 
ENDBRANCH  18  19
ENDBRANCH  17  18
ENDBRANCH  16  17
ENDBRANCH  15  16
ENDBRANCH  14  15
ENDBRANCH  13  14
ENDBRANCH  12  13
ENDBRANCH   1  12
TORSDOF 16
ENDMDL
MODEL 6
REMARK VINA RESULT:    -3.698      1.780      5.653
REMARK INTER + INTRA:          -9.842
REMARK INTER:                  -7.334
REMARK INTRA:                  -2.508
REMARK UNBOUND:                -2.684
REMARK SMILES CCCCCCCCCCCCCCCCCC(=O)[O-]
REMARK SMILES IDX 10 1 11 2 12 3 13 4 14 5 15 6 16 7 17 8 18 9 19 10 20 11
REMARK SMILES IDX 9 12 8 13 7 14 6 15 5 16 4 17 3 18 2 19 1 20
REMARK H PARENT
REMARK Flexibility Score: inf
ROOT
ATOM      1  C   UNL     1     175.629 174.019 151.583  1.00  0.00     0.000 C 
ENDROOT
BRANCH   1   2
ATOM      2  C   UNL     1     175.852 175.469 151.129  1.00  0.00     0.000 C 
BRANCH   2   3
ATOM      3  C   UNL     1     174.553 176.297 151.095  1.00  0.00     0.000 C 
BRANCH   3   4
ATOM      4  C   UNL     1     174.731 177.807 151.332  1.00  0.00     0.000 C 
BRANCH   4   5
ATOM      5  C   UNL     1     175.526 178.125 152.610  1.00  0.00     0.000 C 
BRANCH   5   6
ATOM      6  C   UNL     1     174.902 177.499 153.869  1.00  0.00     0.000 C 
BRANCH   6   7
ATOM      7  C   UNL     1     175.871 176.587 154.652  1.00  0.00     0.006 C 
BRANCH   7   8
ATOM      8  C   UNL     1     175.155 175.376 155.264  1.00  0.00     0.053 C 
BRANCH   8   9
ATOM      9  C   UNL     1     176.145 174.433 155.869  1.00  0.00     0.041 C 
ATOM     10  O   UNL     1     177.358 174.760 155.963  1.00  0.00    -0.550 OA
ATOM     11  O   UNL     1     175.722 173.210 156.375  1.00  0.00    -0.550 OA
ENDBRANCH   8   9
ENDBRANCH   7   8
ENDBRANCH   6   7
ENDBRANCH   5   6
ENDBRANCH   4   5
ENDBRANCH   3   4
ENDBRANCH   2   3
ENDBRANCH   1   2
BRANCH   1  12
ATOM     12  C   UNL     1     174.224 173.841 152.177  1.00  0.00     0.000 C 
BRANCH  12  13
ATOM     13  C   UNL     1     173.412 172.754 151.456  1.00  0.00    -0.000 C 
BRANCH  13  14
ATOM     14  C   UNL     1     173.784 172.626 149.970  1.00  0.00    -0.000 C 
BRANCH  14  15
ATOM     15  C   UNL     1     174.327 171.233 149.608  1.00  0.00    -0.000 C 
BRANCH  15  16
ATOM     16  C   UNL     1     175.854 171.203 149.382  1.00  0.00    -0.000 C 
BRANCH  16  17
ATOM     17  C   UNL     1     176.612 170.624 150.590  1.00  0.00    -0.000 C 
BRANCH  17  18
ATOM     18  C   UNL     1     175.709 169.744 151.480  1.00  0.00    -0.000 C 
BRANCH  18  19
ATOM     19  C   UNL     1     176.069 169.804 152.973  1.00  0.00    -0.003 C 
ATOM     20  C   UNL     1     176.624 171.160 153.401  1.00  0.00     0.004 C 
ENDBRANCH  18  19
ENDBRANCH  17  18
ENDBRANCH  16  17
ENDBRANCH  15  16
ENDBRANCH  14  15
ENDBRANCH  13  14
ENDBRANCH  12  13
ENDBRANCH   1  12
TORSDOF 16
ENDMDL
MODEL 7
REMARK VINA RESULT:    -3.682      9.585     12.800
REMARK INTER + INTRA:          -9.811
REMARK INTER:                  -7.331
REMARK INTRA:                  -2.480
REMARK UNBOUND:                -2.684
REMARK SMILES CCCCCCCCCCCCCCCCCC(=O)[O-]
REMARK SMILES IDX 10 1 11 2 12 3 13 4 14 5 15 6 16 7 17 8 18 9 19 10 20 11
REMARK SMILES IDX 9 12 8 13 7 14 6 15 5 16 4 17 3 18 2 19 1 20
REMARK H PARENT
REMARK Flexibility Score: inf
ROOT
ATOM      1  C   UNL     1     166.708 177.349 152.408  1.00  0.00     0.000 C 
ENDROOT
BRANCH   1   2
ATOM      2  C   UNL     1     165.339 177.861 151.937  1.00  0.00     0.000 C 
BRANCH   2   3
ATOM      3  C   UNL     1     164.189 177.468 152.884  1.00  0.00     0.000 C 
BRANCH   3   4
ATOM      4  C   UNL     1     162.774 177.774 152.360  1.00  0.00     0.000 C 
BRANCH   4   5
ATOM      5  C   UNL     1     162.579 177.374 150.888  1.00  0.00     0.000 C 
BRANCH   5   6
ATOM      6  C   UNL     1     161.148 176.898 150.586  1.00  0.00     0.000 C 
BRANCH   6   7
ATOM      7  C   UNL     1     160.230 176.870 151.827  1.00  0.00     0.006 C 
BRANCH   7   8
ATOM      8  C   UNL     1     159.875 175.438 152.250  1.00  0.00     0.053 C 
BRANCH   8   9
ATOM      9  C   UNL     1     160.240 175.209 153.682  1.00  0.00     0.041 C 
ATOM     10  O   UNL     1     160.198 176.160 154.507  1.00  0.00    -0.550 OA
ATOM     11  O   UNL     1     160.578 173.934 154.118  1.00  0.00    -0.550 OA
ENDBRANCH   8   9
ENDBRANCH   7   8
ENDBRANCH   6   7
ENDBRANCH   5   6
ENDBRANCH   4   5
ENDBRANCH   3   4
ENDBRANCH   2   3
ENDBRANCH   1   2
BRANCH   1  12
ATOM     12  C   UNL     1     167.611 177.019 151.211  1.00  0.00     0.000 C 
BRANCH  12  13
ATOM     13  C   UNL     1     166.827 176.899 149.894  1.00  0.00    -0.000 C 
BRANCH  13  14
ATOM     14  C   UNL     1     167.063 175.555 149.186  1.00  0.00    -0.000 C 
BRANCH  14  15
ATOM     15  C   UNL     1     166.309 174.390 149.848  1.00  0.00    -0.000 C 
BRANCH  15  16
ATOM     16  C   UNL     1     164.863 174.742 150.257  1.00  0.00    -0.000 C 
BRANCH  16  17
ATOM     17  C   UNL     1     164.485 174.158 151.630  1.00  0.00    -0.000 C 
BRANCH  17  18
ATOM     18  C   UNL     1     163.092 173.493 151.621  1.00  0.00    -0.000 C 
BRANCH  18  19
ATOM     19  C   UNL     1     163.111 172.017 152.048  1.00  0.00    -0.003 C 
ATOM     20  C   UNL     1     164.485 171.368 151.902  1.00  0.00     0.004 C 
ENDBRANCH  18  19
ENDBRANCH  17  18
ENDBRANCH  16  17
ENDBRANCH  15  16
ENDBRANCH  14  15
ENDBRANCH  13  14
ENDBRANCH  12  13
ENDBRANCH   1  12
TORSDOF 16
ENDMDL
MODEL 8
REMARK VINA RESULT:    -3.664      1.604      4.933
REMARK INTER + INTRA:          -9.774
REMARK INTER:                  -6.790
REMARK INTRA:                  -2.985
REMARK UNBOUND:                -2.684
REMARK SMILES CCCCCCCCCCCCCCCCCC(=O)[O-]
REMARK SMILES IDX 10 1 11 2 12 3 13 4 14 5 15 6 16 7 17 8 18 9 19 10 20 11
REMARK SMILES IDX 9 12 8 13 7 14 6 15 5 16 4 17 3 18 2 19 1 20
REMARK H PARENT
REMARK Flexibility Score: inf
ROOT
ATOM      1  C   UNL     1     171.554 177.052 152.226  1.00  0.00     0.000 C 
ENDROOT
BRANCH   1   2
ATOM      2  C   UNL     1     172.591 178.038 151.669  1.00  0.00     0.000 C 
BRANCH   2   3
ATOM      3  C   UNL     1     173.745 177.342 150.922  1.00  0.00     0.000 C 
BRANCH   3   4
ATOM      4  C   UNL     1     175.078 177.280 151.688  1.00  0.00     0.000 C 
BRANCH   4   5
ATOM      5  C   UNL     1     175.074 178.125 152.973  1.00  0.00     0.000 C 
BRANCH   5   6
ATOM      6  C   UNL     1     175.388 177.297 154.231  1.00  0.00     0.000 C 
BRANCH   6   7
ATOM      7  C   UNL     1     175.705 175.815 153.934  1.00  0.00     0.006 C 
BRANCH   7   8
ATOM      8  C   UNL     1     175.538 174.930 155.175  1.00  0.00     0.053 C 
BRANCH   8   9
ATOM      9  C   UNL     1     176.788 174.152 155.436  1.00  0.00     0.041 C 
ATOM     10  O   UNL     1     177.038 173.111 154.772  1.00  0.00    -0.550 OA
ATOM     11  O   UNL     1     177.704 174.602 156.378  1.00  0.00    -0.550 OA
ENDBRANCH   8   9
ENDBRANCH   7   8
ENDBRANCH   6   7
ENDBRANCH   5   6
ENDBRANCH   4   5
ENDBRANCH   3   4
ENDBRANCH   2   3
ENDBRANCH   1   2
BRANCH   1  12
ATOM     12  C   UNL     1     171.704 176.900 153.747  1.00  0.00     0.000 C 
BRANCH  12  13
ATOM     13  C   UNL     1     171.999 175.453 154.170  1.00  0.00    -0.000 C 
BRANCH  13  14
ATOM     14  C   UNL     1     171.803 174.449 153.021  1.00  0.00    -0.000 C 
BRANCH  14  15
ATOM     15  C   UNL     1     172.932 173.408 152.938  1.00  0.00    -0.000 C 
BRANCH  15  16
ATOM     16  C   UNL     1     173.814 173.552 151.679  1.00  0.00    -0.000 C 
BRANCH  16  17
ATOM     17  C   UNL     1     175.146 172.791 151.809  1.00  0.00    -0.000 C 
BRANCH  17  18
ATOM     18  C   UNL     1     176.300 173.502 151.072  1.00  0.00    -0.000 C 
BRANCH  18  19
ATOM     19  C   UNL     1     176.867 172.696 149.892  1.00  0.00    -0.003 C 
ATOM     20  C   UNL     1     176.418 171.237 149.892  1.00  0.00     0.004 C 
ENDBRANCH  18  19
ENDBRANCH  17  18
ENDBRANCH  16  17
ENDBRANCH  15  16
ENDBRANCH  14  15
ENDBRANCH  13  14
ENDBRANCH  12  13
ENDBRANCH   1  12
TORSDOF 16
ENDMDL
