MODEL 1
REMARK VINA RESULT:    -5.468      0.000      0.000
REMARK INTER + INTRA:          -9.375
REMARK INTER:                  -8.664
REMARK INTRA:                  -0.712
REMARK UNBOUND:                -0.712
REMARK SMILES CCCCCCCCCCCC(=O)[O-]
REMARK SMILES IDX 7 1 8 2 9 3 10 4 11 5 12 6 13 7 14 8 6 9 5 10 4 11 3 12 2 13
REMARK SMILES IDX 1 14
REMARK H PARENT
REMARK Flexibility Score: inf
ROOT
ATOM      1  C   UNL     1     -13.440  -0.564 -10.444  1.00  0.00     0.000 C 
ENDROOT
BRANCH   1   2
ATOM      2  C   UNL     1     -12.151   0.016  -9.841  1.00  0.00     0.000 C 
BRANCH   2   3
ATOM      3  C   UNL     1     -10.947  -0.881 -10.155  1.00  0.00     0.000 C 
BRANCH   3   4
ATOM      4  C   UNL     1     -11.118  -2.272  -9.526  1.00  0.00     0.006 C 
BRANCH   4   5
ATOM      5  C   UNL     1     -10.194  -2.481  -8.319  1.00  0.00     0.053 C 
BRANCH   5   6
ATOM      6  C   UNL     1     -10.161  -3.915  -7.888  1.00  0.00     0.041 C 
ATOM      7  O   UNL     1     -10.828  -4.295  -6.891  1.00  0.00    -0.550 OA
ATOM      8  O   UNL     1      -9.416  -4.840  -8.610  1.00  0.00    -0.550 OA
ENDBRANCH   5   6
ENDBRANCH   4   5
ENDBRANCH   3   4
ENDBRANCH   2   3
ENDBRANCH   1   2
BRANCH   1   9
ATOM      9  C   UNL     1     -14.700   0.188  -9.985  1.00  0.00     0.000 C 
BRANCH   9  10
ATOM     10  C   UNL     1     -14.522   1.714 -10.021  1.00  0.00    -0.000 C 
BRANCH  10  11
ATOM     11  C   UNL     1     -14.780   2.376  -8.657  1.00  0.00    -0.000 C 
BRANCH  11  12
ATOM     12  C   UNL     1     -14.010   3.699  -8.454  1.00  0.00    -0.000 C 
BRANCH  12  13
ATOM     13  C   UNL     1     -12.629   3.674  -9.124  1.00  0.00    -0.003 C 
ATOM     14  C   UNL     1     -11.513   3.663  -8.084  1.00  0.00     0.004 C 
ENDBRANCH  12  13
ENDBRANCH  11  12
ENDBRANCH  10  11
ENDBRANCH   9  10
ENDBRANCH   1   9
TORSDOF 10
ENDMDL
MODEL 2
REMARK VINA RESULT:    -5.373      0.867      1.579
REMARK INTER + INTRA:          -9.226
REMARK INTER:                  -8.686
REMARK INTRA:                  -0.540
REMARK UNBOUND:                -0.712
REMARK SMILES CCCCCCCCCCCC(=O)[O-]
REMARK SMILES IDX 7 1 8 2 9 3 10 4 11 5 12 6 13 7 14 8 6 9 5 10 4 11 3 12 2 13
REMARK SMILES IDX 1 14
REMARK H PARENT
REMARK Flexibility Score: inf
ROOT
ATOM      1  C   UNL     1     -11.683  -0.265  -9.924  1.00  0.00     0.000 C 
ENDROOT
BRANCH   1   2
ATOM      2  C   UNL     1     -10.649  -1.330 -10.321  1.00  0.00     0.000 C 
BRANCH   2   3
ATOM      3  C   UNL     1     -10.935  -2.663  -9.617  1.00  0.00     0.000 C 
BRANCH   3   4
ATOM      4  C   UNL     1     -10.172  -2.757  -8.288  1.00  0.00     0.006 C 
BRANCH   4   5
ATOM      5  C   UNL     1      -9.351  -4.049  -8.180  1.00  0.00     0.053 C 
BRANCH   5   6
ATOM      6  C   UNL     1     -10.226  -5.245  -7.961  1.00  0.00     0.041 C 
ATOM      7  O   UNL     1     -10.784  -5.429  -6.848  1.00  0.00    -0.550 OA
ATOM      8  O   UNL     1     -10.450  -6.141  -9.000  1.00  0.00    -0.550 OA
ENDBRANCH   5   6
ENDBRANCH   4   5
ENDBRANCH   3   4
ENDBRANCH   2   3
ENDBRANCH   1   2
BRANCH   1   9
ATOM      9  C   UNL     1     -13.108  -0.626 -10.373  1.00  0.00     0.000 C 
BRANCH   9  10
ATOM     10  C   UNL     1     -14.138   0.445  -9.982  1.00  0.00    -0.000 C 
BRANCH  10  11
ATOM     11  C   UNL     1     -13.488   1.786  -9.597  1.00  0.00    -0.000 C 
BRANCH  11  12
ATOM     12  C   UNL     1     -14.444   2.749  -8.860  1.00  0.00    -0.000 C 
BRANCH  12  13
ATOM     13  C   UNL     1     -13.707   3.964  -8.281  1.00  0.00    -0.003 C 
ATOM     14  C   UNL     1     -12.199   3.834  -8.467  1.00  0.00     0.004 C 
ENDBRANCH  12  13
ENDBRANCH  11  12
ENDBRANCH  10  11
ENDBRANCH   9  10
ENDBRANCH   1   9
TORSDOF 10
ENDMDL
MODEL 3
REMARK VINA RESULT:    -5.161      3.636      7.059
REMARK INTER + INTRA:          -8.889
REMARK INTER:                  -8.509
REMARK INTRA:                  -0.380
REMARK UNBOUND:                -0.712
REMARK SMILES CCCCCCCCCCCC(=O)[O-]
REMARK SMILES IDX 7 1 8 2 9 3 10 4 11 5 12 6 13 7 14 8 6 9 5 10 4 11 3 12 2 13
REMARK SMILES IDX 1 14
REMARK H PARENT
REMARK Flexibility Score: inf
ROOT
ATOM      1  C   UNL     1     -11.731  -0.515  -9.985  1.00  0.00     0.000 C 
ENDROOT
BRANCH   1   2
ATOM      2  C   UNL     1     -13.170  -0.875 -10.386  1.00  0.00     0.000 C 
BRANCH   2   3
ATOM      3  C   UNL     1     -14.129   0.284 -10.084  1.00  0.00     0.000 C 
BRANCH   3   4
ATOM      4  C   UNL     1     -13.360   1.524  -9.604  1.00  0.00     0.006 C 
BRANCH   4   5
ATOM      5  C   UNL     1     -14.295   2.611  -9.056  1.00  0.00     0.053 C 
BRANCH   5   6
ATOM      6  C   UNL     1     -13.530   3.726  -8.412  1.00  0.00     0.041 C 
ATOM      7  O   UNL     1     -13.904   4.198  -7.307  1.00  0.00    -0.550 OA
ATOM      8  O   UNL     1     -12.383   4.224  -9.020  1.00  0.00    -0.550 OA
ENDBRANCH   5   6
ENDBRANCH   4   5
ENDBRANCH   3   4
ENDBRANCH   2   3
ENDBRANCH   1   2
BRANCH   1   9
ATOM      9  C   UNL     1     -10.791  -1.731  -9.995  1.00  0.00     0.000 C 
BRANCH   9  10
ATOM     10  C   UNL     1     -10.485  -2.252  -8.582  1.00  0.00    -0.000 C 
BRANCH  10  11
ATOM     11  C   UNL     1     -10.912  -3.716  -8.381  1.00  0.00    -0.000 C 
BRANCH  11  12
ATOM     12  C   UNL     1     -10.586  -4.270  -6.977  1.00  0.00    -0.000 C 
BRANCH  12  13
ATOM     13  C   UNL     1     -11.108  -5.701  -6.783  1.00  0.00    -0.003 C 
ATOM     14  C   UNL     1     -11.902  -5.827  -5.487  1.00  0.00     0.004 C 
ENDBRANCH  12  13
ENDBRANCH  11  12
ENDBRANCH  10  11
ENDBRANCH   9  10
ENDBRANCH   1   9
TORSDOF 10
ENDMDL
MODEL 4
REMARK VINA RESULT:    -5.139      1.668      2.629
REMARK INTER + INTRA:          -8.855
REMARK INTER:                  -8.497
REMARK INTRA:                  -0.359
REMARK UNBOUND:                -0.712
REMARK SMILES CCCCCCCCCCCC(=O)[O-]
REMARK SMILES IDX 7 1 8 2 9 3 10 4 11 5 12 6 13 7 14 8 6 9 5 10 4 11 3 12 2 13
REMARK SMILES IDX 1 14
REMARK H PARENT
REMARK Flexibility Score: inf
ROOT
ATOM      1  C   UNL     1     -10.712  -1.306 -10.017  1.00  0.00     0.000 C 
ENDROOT
BRANCH   1   2
ATOM      2  C   UNL     1     -10.537  -1.982  -8.649  1.00  0.00     0.000 C 
BRANCH   2   3
ATOM      3  C   UNL     1     -10.604  -3.510  -8.779  1.00  0.00     0.000 C 
BRANCH   3   4
ATOM      4  C   UNL     1     -10.638  -4.178  -7.397  1.00  0.00     0.006 C 
BRANCH   4   5
ATOM      5  C   UNL     1     -11.438  -5.488  -7.405  1.00  0.00     0.053 C 
BRANCH   5   6
ATOM      6  C   UNL     1     -11.195  -6.294  -6.166  1.00  0.00     0.041 C 
ATOM      7  O   UNL     1     -11.648  -5.907  -5.057  1.00  0.00    -0.550 OA
ATOM      8  O   UNL     1     -10.493  -7.491  -6.242  1.00  0.00    -0.550 OA
ENDBRANCH   5   6
ENDBRANCH   4   5
ENDBRANCH   3   4
ENDBRANCH   2   3
ENDBRANCH   1   2
BRANCH   1   9
ATOM      9  C   UNL     1     -12.148  -0.813 -10.256  1.00  0.00     0.000 C 
BRANCH   9  10
ATOM     10  C   UNL     1     -12.406   0.571  -9.641  1.00  0.00    -0.000 C 
BRANCH  10  11
ATOM     11  C   UNL     1     -13.892   0.969  -9.670  1.00  0.00    -0.000 C 
BRANCH  11  12
ATOM     12  C   UNL     1     -14.145   2.446  -9.297  1.00  0.00    -0.000 C 
BRANCH  12  13
ATOM     13  C   UNL     1     -12.840   3.245  -9.178  1.00  0.00    -0.003 C 
ATOM     14  C   UNL     1     -12.798   4.039  -7.876  1.00  0.00     0.004 C 
ENDBRANCH  12  13
ENDBRANCH  11  12
ENDBRANCH  10  11
ENDBRANCH   9  10
ENDBRANCH   1   9
TORSDOF 10
ENDMDL
MODEL 5
REMARK VINA RESULT:    -4.748      1.832      3.691
REMARK INTER + INTRA:          -8.236
REMARK INTER:                  -7.777
REMARK INTRA:                  -0.459
REMARK UNBOUND:                -0.712
REMARK SMILES CCCCCCCCCCCC(=O)[O-]
REMARK SMILES IDX 7 1 8 2 9 3 10 4 11 5 12 6 13 7 14 8 6 9 5 10 4 11 3 12 2 13
REMARK SMILES IDX 1 14
REMARK H PARENT
REMARK Flexibility Score: inf
ROOT
ATOM      1  C   UNL     1     -10.573  -2.149  -8.562  1.00  0.00     0.000 C 
ENDROOT
BRANCH   1   2
ATOM      2  C   UNL     1      -9.595  -3.333  -8.523  1.00  0.00     0.000 C 
BRANCH   2   3
ATOM      3  C   UNL     1     -10.330  -4.659  -8.761  1.00  0.00     0.000 C 
BRANCH   3   4
ATOM      4  C   UNL     1     -10.147  -5.610  -7.569  1.00  0.00     0.006 C 
BRANCH   4   5
ATOM      5  C   UNL     1     -10.970  -5.176  -6.348  1.00  0.00     0.053 C 
BRANCH   5   6
ATOM      6  C   UNL     1     -12.112  -6.111  -6.088  1.00  0.00     0.041 C 
ATOM      7  O   UNL     1     -12.155  -6.779  -5.023  1.00  0.00    -0.550 OA
ATOM      8  O   UNL     1     -13.145  -6.218  -7.012  1.00  0.00    -0.550 OA
ENDBRANCH   5   6
ENDBRANCH   4   5
ENDBRANCH   3   4
ENDBRANCH   2   3
ENDBRANCH   1   2
BRANCH   1   9
ATOM      9  C   UNL     1     -10.875  -1.675  -9.992  1.00  0.00     0.000 C 
BRANCH   9  10
ATOM     10  C   UNL     1     -11.682  -0.368 -10.023  1.00  0.00    -0.000 C 
BRANCH  10  11
ATOM     11  C   UNL     1     -13.139  -0.577 -10.472  1.00  0.00    -0.000 C 
BRANCH  11  12
ATOM     12  C   UNL     1     -14.108   0.509  -9.957  1.00  0.00    -0.000 C 
BRANCH  12  13
ATOM     13  C   UNL     1     -13.379   1.810  -9.593  1.00  0.00    -0.003 C 
ATOM     14  C   UNL     1     -14.307   2.775  -8.861  1.00  0.00     0.004 C 
ENDBRANCH  12  13
ENDBRANCH  11  12
ENDBRANCH  10  11
ENDBRANCH   9  10
ENDBRANCH   1   9
TORSDOF 10
ENDMDL
MODEL 6
REMARK VINA RESULT:    -4.744      3.401      7.537
REMARK INTER + INTRA:          -8.228
REMARK INTER:                  -7.393
REMARK INTRA:                  -0.836
REMARK UNBOUND:                -0.712
REMARK SMILES CCCCCCCCCCCC(=O)[O-]
REMARK SMILES IDX 7 1 8 2 9 3 10 4 11 5 12 6 13 7 14 8 6 9 5 10 4 11 3 12 2 13
REMARK SMILES IDX 1 14
REMARK H PARENT
REMARK Flexibility Score: inf
ROOT
ATOM      1  C   UNL     1     -11.343  -4.710  -8.685  1.00  0.00     0.000 C 
ENDROOT
BRANCH   1   2
ATOM      2  C   UNL     1     -10.666  -3.824  -7.629  1.00  0.00     0.000 C 
BRANCH   2   3
ATOM      3  C   UNL     1     -10.289  -2.459  -8.218  1.00  0.00     0.000 C 
BRANCH   3   4
ATOM      4  C   UNL     1     -10.975  -2.236  -9.574  1.00  0.00     0.006 C 
BRANCH   4   5
ATOM      5  C   UNL     1     -10.983  -0.757  -9.984  1.00  0.00     0.053 C 
BRANCH   5   6
ATOM      6  C   UNL     1     -12.372  -0.194  -9.996  1.00  0.00     0.041 C 
ATOM      7  O   UNL     1     -12.583   0.983  -9.603  1.00  0.00    -0.550 OA
ATOM      8  O   UNL     1     -13.428  -0.961 -10.472  1.00  0.00    -0.550 OA
ENDBRANCH   5   6
ENDBRANCH   4   5
ENDBRANCH   3   4
ENDBRANCH   2   3
ENDBRANCH   1   2
BRANCH   1   9
ATOM      9  C   UNL     1     -10.585  -6.024  -8.931  1.00  0.00     0.000 C 
BRANCH   9  10
ATOM     10  C   UNL     1     -11.523  -7.238  -9.029  1.00  0.00    -0.000 C 
BRANCH  10  11
ATOM     11  C   UNL     1     -11.692  -7.970  -7.687  1.00  0.00    -0.000 C 
BRANCH  11  12
ATOM     12  C   UNL     1     -10.790  -7.418  -6.562  1.00  0.00    -0.000 C 
BRANCH  12  13
ATOM     13  C   UNL     1     -11.605  -6.892  -5.372  1.00  0.00    -0.003 C 
ATOM     14  C   UNL     1     -13.021  -6.517  -5.797  1.00  0.00     0.004 C 
ENDBRANCH  12  13
ENDBRANCH  11  12
ENDBRANCH  10  11
ENDBRANCH   9  10
ENDBRANCH   1   9
TORSDOF 10
ENDMDL
MODEL 7
REMARK VINA RESULT:    -4.331      4.041      7.422
REMARK INTER + INTRA:          -7.575
REMARK INTER:                  -6.422
REMARK INTRA:                  -1.154
REMARK UNBOUND:                -0.712
REMARK SMILES CCCCCCCCCCCC(=O)[O-]
REMARK SMILES IDX 7 1 8 2 9 3 10 4 11 5 12 6 13 7 14 8 6 9 5 10 4 11 3 12 2 13
REMARK SMILES IDX 1 14
REMARK H PARENT
REMARK Flexibility Score: inf
ROOT
ATOM      1  C   UNL     1     -10.775  -7.141  -8.447  1.00  0.00     0.000 C 
ENDROOT
BRANCH   1   2
ATOM      2  C   UNL     1     -10.216  -5.952  -9.243  1.00  0.00     0.000 C 
BRANCH   2   3
ATOM      3  C   UNL     1      -9.800  -4.811  -8.305  1.00  0.00     0.000 C 
BRANCH   3   4
ATOM      4  C   UNL     1     -10.910  -3.756  -8.196  1.00  0.00     0.006 C 
BRANCH   4   5
ATOM      5  C   UNL     1     -10.348  -2.332  -8.085  1.00  0.00     0.053 C 
BRANCH   5   6
ATOM      6  C   UNL     1     -10.612  -1.534  -9.326  1.00  0.00     0.041 C 
ATOM      7  O   UNL     1     -10.267  -1.978 -10.452  1.00  0.00    -0.550 OA
ATOM      8  O   UNL     1     -11.268  -0.312  -9.239  1.00  0.00    -0.550 OA
ENDBRANCH   5   6
ENDBRANCH   4   5
ENDBRANCH   3   4
ENDBRANCH   2   3
ENDBRANCH   1   2
BRANCH   1   9
ATOM      9  C   UNL     1     -12.005  -7.776  -9.114  1.00  0.00     0.000 C 
BRANCH   9  10
ATOM     10  C   UNL     1     -13.202  -7.890  -8.158  1.00  0.00    -0.000 C 
BRANCH  10  11
ATOM     11  C   UNL     1     -13.437  -6.608  -7.341  1.00  0.00    -0.000 C 
BRANCH  11  12
ATOM     12  C   UNL     1     -13.624  -6.862  -5.829  1.00  0.00    -0.000 C 
BRANCH  12  13
ATOM     13  C   UNL     1     -12.286  -7.083  -5.109  1.00  0.00    -0.003 C 
ATOM     14  C   UNL     1     -11.439  -5.814  -5.121  1.00  0.00     0.004 C 
ENDBRANCH  12  13
ENDBRANCH  11  12
ENDBRANCH  10  11
ENDBRANCH   9  10
ENDBRANCH   1   9
TORSDOF 10
ENDMDL
MODEL 8
REMARK VINA RESULT:    -4.289     16.081     17.864
REMARK INTER + INTRA:          -7.508
REMARK INTER:                  -6.419
REMARK INTRA:                  -1.088
REMARK UNBOUND:                -0.712
REMARK SMILES CCCCCCCCCCCC(=O)[O-]
REMARK SMILES IDX 7 1 8 2 9 3 10 4 11 5 12 6 13 7 14 8 6 9 5 10 4 11 3 12 2 13
REMARK SMILES IDX 1 14
REMARK H PARENT
REMARK Flexibility Score: inf
ROOT
ATOM      1  C   UNL     1     -10.204   5.989   7.988  1.00  0.00     0.000 C 
ENDROOT
BRANCH   1   2
ATOM      2  C   UNL     1      -9.181   5.867   6.848  1.00  0.00     0.000 C 
BRANCH   2   3
ATOM      3  C   UNL     1      -9.541   6.802   5.686  1.00  0.00     0.000 C 
BRANCH   3   4
ATOM      4  C   UNL     1      -9.071   8.236   5.968  1.00  0.00     0.006 C 
BRANCH   4   5
ATOM      5  C   UNL     1      -8.029   8.718   4.949  1.00  0.00     0.053 C 
BRANCH   5   6
ATOM      6  C   UNL     1      -7.276   9.912   5.449  1.00  0.00     0.041 C 
ATOM      7  O   UNL     1      -7.793  11.058   5.395  1.00  0.00    -0.550 OA
ATOM      8  O   UNL     1      -6.012   9.752   6.006  1.00  0.00    -0.550 OA
ENDBRANCH   5   6
ENDBRANCH   4   5
ENDBRANCH   3   4
ENDBRANCH   2   3
ENDBRANCH   1   2
BRANCH   1   9
ATOM      9  C   UNL     1     -10.546   4.633   8.626  1.00  0.00     0.000 C 
BRANCH   9  10
ATOM     10  C   UNL     1     -11.065   3.613   7.601  1.00  0.00    -0.000 C 
BRANCH  10  11
ATOM     11  C   UNL     1     -12.382   4.052   6.938  1.00  0.00    -0.000 C 
BRANCH  11  12
ATOM     12  C   UNL     1     -12.267   4.271   5.414  1.00  0.00    -0.000 C 
BRANCH  12  13
ATOM     13  C   UNL     1     -13.115   5.457   4.934  1.00  0.00    -0.003 C 
ATOM     14  C   UNL     1     -13.330   6.470   6.055  1.00  0.00     0.004 C 
ENDBRANCH  12  13
ENDBRANCH  11  12
ENDBRANCH  10  11
ENDBRANCH   9  10
ENDBRANCH   1   9
TORSDOF 10
ENDMDL
MODEL 9
REMARK VINA RESULT:    -4.200     16.348     18.194
REMARK INTER + INTRA:          -7.367
REMARK INTER:                  -6.326
REMARK INTRA:                  -1.041
REMARK UNBOUND:                -0.712
REMARK SMILES CCCCCCCCCCCC(=O)[O-]
REMARK SMILES IDX 7 1 8 2 9 3 10 4 11 5 12 6 13 7 14 8 6 9 5 10 4 11 3 12 2 13
REMARK SMILES IDX 1 14
REMARK H PARENT
REMARK Flexibility Score: inf
ROOT
ATOM      1  C   UNL     1     -11.131   4.752   5.386  1.00  0.00     0.000 C 
ENDROOT
BRANCH   1   2
ATOM      2  C   UNL     1      -9.891   5.420   5.998  1.00  0.00     0.000 C 
BRANCH   2   3
ATOM      3  C   UNL     1     -10.087   6.938   6.116  1.00  0.00     0.000 C 
BRANCH   3   4
ATOM      4  C   UNL     1      -8.746   7.650   6.342  1.00  0.00     0.006 C 
BRANCH   4   5
ATOM      5  C   UNL     1      -8.528   8.804   5.354  1.00  0.00     0.053 C 
BRANCH   5   6
ATOM      6  C   UNL     1      -7.448   9.734   5.818  1.00  0.00     0.041 C 
ATOM      7  O   UNL     1      -6.840   9.513   6.898  1.00  0.00    -0.550 OA
ATOM      8  O   UNL     1      -7.091  10.828   5.039  1.00  0.00    -0.550 OA
ENDBRANCH   5   6
ENDBRANCH   4   5
ENDBRANCH   3   4
ENDBRANCH   2   3
ENDBRANCH   1   2
BRANCH   1   9
ATOM      9  C   UNL     1     -11.719   3.654   6.287  1.00  0.00     0.000 C 
BRANCH   9  10
ATOM     10  C   UNL     1     -10.989   3.544   7.635  1.00  0.00    -0.000 C 
BRANCH  10  11
ATOM     11  C   UNL     1     -11.892   3.892   8.831  1.00  0.00    -0.000 C 
BRANCH  11  12
ATOM     12  C   UNL     1     -11.984   5.406   9.119  1.00  0.00    -0.000 C 
BRANCH  12  13
ATOM     13  C   UNL     1     -13.304   6.010   8.620  1.00  0.00    -0.003 C 
ATOM     14  C   UNL     1     -13.129   7.477   8.237  1.00  0.00     0.004 C 
ENDBRANCH  12  13
ENDBRANCH  11  12
ENDBRANCH  10  11
ENDBRANCH   9  10
ENDBRANCH   1   9
TORSDOF 10
ENDMDL
