MODEL 1
REMARK VINA RESULT:    -2.729      0.000      0.000
REMARK INTER + INTRA:          -8.186
REMARK INTER:                  -7.196
REMARK INTRA:                  -0.990
REMARK UNBOUND:                -0.990
REMARK SMILES CCCCCCCCCCCCCCCCCCCCCCCCCCCCCC(=O)[O-]
REMARK SMILES IDX 16 1 17 2 18 3 19 4 20 5 21 6 22 7 23 8 24 9 25 10 26 11
REMARK SMILES IDX 27 12 28 13 29 14 30 15 31 16 32 17 15 18 14 19 13 20 12 21
REMARK SMILES IDX 11 22 10 23 9 24 8 25 7 26 6 27 5 28 4 29 3 30 2 31 1 32
REMARK H PARENT
REMARK Flexibility Score: inf
ROOT
ATOM      1  C   UNL     1       5.999   3.469   8.652  1.00  0.00     0.000 C 
ENDROOT
BRANCH   1   2
ATOM      2  C   UNL     1       4.475   3.377   8.868  1.00  0.00     0.000 C 
BRANCH   2   3
ATOM      3  C   UNL     1       3.958   1.942   9.100  1.00  0.00     0.000 C 
BRANCH   3   4
ATOM      4  C   UNL     1       5.073   0.965   9.515  1.00  0.00     0.000 C 
BRANCH   4   5
ATOM      5  C   UNL     1       4.532  -0.398   9.982  1.00  0.00     0.000 C 
BRANCH   5   6
ATOM      6  C   UNL     1       5.593  -1.504  10.125  1.00  0.00     0.000 C 
BRANCH   6   7
ATOM      7  C   UNL     1       4.995  -2.919  10.084  1.00  0.00     0.000 C 
BRANCH   7   8
ATOM      8  C   UNL     1       6.103  -3.982  10.125  1.00  0.00     0.000 C 
BRANCH   8   9
ATOM      9  C   UNL     1       6.723  -4.246   8.744  1.00  0.00     0.000 C 
BRANCH   9  10
ATOM     10  C   UNL     1       7.593  -5.513   8.716  1.00  0.00     0.000 C 
BRANCH  10  11
ATOM     11  C   UNL     1       8.733  -5.416   9.739  1.00  0.00     0.000 C 
BRANCH  11  12
ATOM     12  C   UNL     1      10.083  -5.768   9.097  1.00  0.00     0.000 C 
BRANCH  12  13
ATOM     13  C   UNL     1      11.036  -4.560   9.003  1.00  0.00     0.006 C 
BRANCH  13  14
ATOM     14  C   UNL     1      10.649  -3.390   9.923  1.00  0.00     0.053 C 
BRANCH  14  15
ATOM     15  C   UNL     1      10.583  -2.085   9.192  1.00  0.00     0.041 C 
ATOM     16  O   UNL     1      10.973  -2.008   7.998  1.00  0.00    -0.550 OA
ATOM     17  O   UNL     1      10.100  -0.950   9.833  1.00  0.00    -0.550 OA
ENDBRANCH  14  15
ENDBRANCH  13  14
ENDBRANCH  12  13
ENDBRANCH  11  12
ENDBRANCH  10  11
ENDBRANCH   9  10
ENDBRANCH   8   9
ENDBRANCH   7   8
ENDBRANCH   6   7
ENDBRANCH   5   6
ENDBRANCH   4   5
ENDBRANCH   3   4
ENDBRANCH   2   3
ENDBRANCH   1   2
BRANCH   1  18
ATOM     18  C   UNL     1       6.844   3.551   9.938  1.00  0.00     0.000 C 
BRANCH  18  19
ATOM     19  C   UNL     1       8.279   3.002   9.816  1.00  0.00     0.000 C 
BRANCH  19  20
ATOM     20  C   UNL     1       9.353   4.076  10.042  1.00  0.00     0.000 C 
BRANCH  20  21
ATOM     21  C   UNL     1       8.730   5.480  10.048  1.00  0.00     0.000 C 
BRANCH  21  22
ATOM     22  C   UNL     1       8.413   5.990   8.633  1.00  0.00     0.000 C 
BRANCH  22  23
ATOM     23  C   UNL     1       9.276   7.203   8.241  1.00  0.00     0.000 C 
BRANCH  23  24
ATOM     24  C   UNL     1       9.001   8.433   9.120  1.00  0.00    -0.000 C 
BRANCH  24  25
ATOM     25  C   UNL     1       7.541   8.504   9.600  1.00  0.00    -0.000 C 
BRANCH  25  26
ATOM     26  C   UNL     1       7.048   9.960   9.748  1.00  0.00    -0.000 C 
BRANCH  26  27
ATOM     27  C   UNL     1       7.112  10.773   8.443  1.00  0.00    -0.000 C 
BRANCH  27  28
ATOM     28  C   UNL     1       6.239  12.038   8.483  1.00  0.00    -0.000 C 
BRANCH  28  29
ATOM     29  C   UNL     1       5.184  11.990   9.600  1.00  0.00    -0.000 C 
BRANCH  29  30
ATOM     30  C   UNL     1       3.829  11.451   9.109  1.00  0.00    -0.000 C 
BRANCH  30  31
ATOM     31  C   UNL     1       3.002  12.521   8.379  1.00  0.00    -0.003 C 
ATOM     32  C   UNL     1       1.601  12.687   8.967  1.00  0.00     0.004 C 
ENDBRANCH  30  31
ENDBRANCH  29  30
ENDBRANCH  28  29
ENDBRANCH  27  28
ENDBRANCH  26  27
ENDBRANCH  25  26
ENDBRANCH  24  25
ENDBRANCH  23  24
ENDBRANCH  22  23
ENDBRANCH  21  22
ENDBRANCH  20  21
ENDBRANCH  19  20
ENDBRANCH  18  19
ENDBRANCH   1  18
TORSDOF 28
ENDMDL
MODEL 2
REMARK VINA RESULT:    -2.215      4.689      8.856
REMARK INTER + INTRA:          -6.830
REMARK INTER:                  -5.193
REMARK INTRA:                  -1.637
REMARK UNBOUND:                -0.990
REMARK SMILES CCCCCCCCCCCCCCCCCCCCCCCCCCCCCC(=O)[O-]
REMARK SMILES IDX 16 1 17 2 18 3 19 4 20 5 21 6 22 7 23 8 24 9 25 10 26 11
REMARK SMILES IDX 27 12 28 13 29 14 30 15 31 16 32 17 15 18 14 19 13 20 12 21
REMARK SMILES IDX 11 22 10 23 9 24 8 25 7 26 6 27 5 28 4 29 3 30 2 31 1 32
REMARK H PARENT
REMARK Flexibility Score: inf
ROOT
ATOM      1  C   UNL     1       2.477   9.546   6.855  1.00  0.00     0.000 C 
ENDROOT
BRANCH   1   2
ATOM      2  C   UNL     1       1.860  10.267   8.071  1.00  0.00     0.000 C 
BRANCH   2   3
ATOM      3  C   UNL     1       0.869   9.404   8.878  1.00  0.00     0.000 C 
BRANCH   3   4
ATOM      4  C   UNL     1       1.570   8.472   9.883  1.00  0.00     0.000 C 
BRANCH   4   5
ATOM      5  C   UNL     1       1.004   7.041   9.868  1.00  0.00     0.000 C 
BRANCH   5   6
ATOM      6  C   UNL     1      -0.510   6.937  10.123  1.00  0.00     0.000 C 
BRANCH   6   7
ATOM      7  C   UNL     1      -1.307   6.550   8.867  1.00  0.00     0.000 C 
BRANCH   7   8
ATOM      8  C   UNL     1      -1.931   5.156   9.024  1.00  0.00     0.000 C 
BRANCH   8   9
ATOM      9  C   UNL     1      -0.979   4.027   8.599  1.00  0.00     0.000 C 
BRANCH   9  10
ATOM     10  C   UNL     1      -0.334   3.312   9.795  1.00  0.00     0.000 C 
BRANCH  10  11
ATOM     11  C   UNL     1       1.138   3.720   9.947  1.00  0.00     0.000 C 
BRANCH  11  12
ATOM     12  C   UNL     1       2.052   2.815   9.108  1.00  0.00     0.000 C 
BRANCH  12  13
ATOM     13  C   UNL     1       3.408   3.472   8.782  1.00  0.00     0.006 C 
BRANCH  13  14
ATOM     14  C   UNL     1       4.567   2.469   8.639  1.00  0.00     0.053 C 
BRANCH  14  15
ATOM     15  C   UNL     1       4.383   1.545   7.476  1.00  0.00     0.041 C 
ATOM     16  O   UNL     1       3.605   1.857   6.536  1.00  0.00    -0.550 OA
ATOM     17  O   UNL     1       5.063   0.333   7.433  1.00  0.00    -0.550 OA
ENDBRANCH  14  15
ENDBRANCH  13  14
ENDBRANCH  12  13
ENDBRANCH  11  12
ENDBRANCH  10  11
ENDBRANCH   9  10
ENDBRANCH   8   9
ENDBRANCH   7   8
ENDBRANCH   6   7
ENDBRANCH   5   6
ENDBRANCH   4   5
ENDBRANCH   3   4
ENDBRANCH   2   3
ENDBRANCH   1   2
BRANCH   1  18
ATOM     18  C   UNL     1       3.557  10.339   6.095  1.00  0.00     0.000 C 
BRANCH  18  19
ATOM     19  C   UNL     1       3.953  11.686   6.731  1.00  0.00     0.000 C 
BRANCH  19  20
ATOM     20  C   UNL     1       5.376  11.683   7.306  1.00  0.00     0.000 C 
BRANCH  20  21
ATOM     21  C   UNL     1       5.673  13.000   8.040  1.00  0.00     0.000 C 
BRANCH  21  22
ATOM     22  C   UNL     1       5.195  12.982   9.501  1.00  0.00     0.000 C 
BRANCH  22  23
ATOM     23  C   UNL     1       5.192  11.563  10.098  1.00  0.00     0.000 C 
BRANCH  23  24
ATOM     24  C   UNL     1       6.588  10.922  10.106  1.00  0.00    -0.000 C 
BRANCH  24  25
ATOM     25  C   UNL     1       6.544   9.400   9.878  1.00  0.00    -0.000 C 
BRANCH  25  26
ATOM     26  C   UNL     1       7.950   8.765   9.922  1.00  0.00    -0.000 C 
BRANCH  26  27
ATOM     27  C   UNL     1       8.660   8.732   8.557  1.00  0.00    -0.000 C 
BRANCH  27  28
ATOM     28  C   UNL     1       9.743   7.645   8.472  1.00  0.00    -0.000 C 
BRANCH  28  29
ATOM     29  C   UNL     1      10.021   6.983   9.832  1.00  0.00    -0.000 C 
BRANCH  29  30
ATOM     30  C   UNL     1      10.773   5.647   9.695  1.00  0.00    -0.000 C 
BRANCH  30  31
ATOM     31  C   UNL     1      12.006   5.758   8.786  1.00  0.00    -0.003 C 
ATOM     32  C   UNL     1      13.125   6.593   9.408  1.00  0.00     0.004 C 
ENDBRANCH  30  31
ENDBRANCH  29  30
ENDBRANCH  28  29
ENDBRANCH  27  28
ENDBRANCH  26  27
ENDBRANCH  25  26
ENDBRANCH  24  25
ENDBRANCH  23  24
ENDBRANCH  22  23
ENDBRANCH  21  22
ENDBRANCH  20  21
ENDBRANCH  19  20
ENDBRANCH  18  19
ENDBRANCH   1  18
TORSDOF 28
ENDMDL
MODEL 3
REMARK VINA RESULT:    -2.075      2.279      2.711
REMARK INTER + INTRA:          -6.461
REMARK INTER:                  -4.475
REMARK INTRA:                  -1.986
REMARK UNBOUND:                -0.990
REMARK SMILES CCCCCCCCCCCCCCCCCCCCCCCCCCCCCC(=O)[O-]
REMARK SMILES IDX 16 1 17 2 18 3 19 4 20 5 21 6 22 7 23 8 24 9 25 10 26 11
REMARK SMILES IDX 27 12 28 13 29 14 30 15 31 16 32 17 15 18 14 19 13 20 12 21
REMARK SMILES IDX 11 22 10 23 9 24 8 25 7 26 6 27 5 28 4 29 3 30 2 31 1 32
REMARK H PARENT
REMARK Flexibility Score: inf
ROOT
ATOM      1  C   UNL     1       5.300   3.356   8.150  1.00  0.00     0.000 C 
ENDROOT
BRANCH   1   2
ATOM      2  C   UNL     1       3.944   2.688   7.850  1.00  0.00     0.000 C 
BRANCH   2   3
ATOM      3  C   UNL     1       3.001   2.604   9.069  1.00  0.00     0.000 C 
BRANCH   3   4
ATOM      4  C   UNL     1       2.427   1.193   9.284  1.00  0.00     0.000 C 
BRANCH   4   5
ATOM      5  C   UNL     1       3.350   0.292  10.123  1.00  0.00     0.000 C 
BRANCH   5   6
ATOM      6  C   UNL     1       4.407  -0.486   9.318  1.00  0.00     0.000 C 
BRANCH   6   7
ATOM      7  C   UNL     1       5.683  -0.777  10.124  1.00  0.00     0.000 C 
BRANCH   7   8
ATOM      8  C   UNL     1       6.091  -2.251   9.988  1.00  0.00     0.000 C 
BRANCH   8   9
ATOM      9  C   UNL     1       5.005  -3.108   9.318  1.00  0.00     0.000 C 
BRANCH   9  10
ATOM     10  C   UNL     1       5.515  -4.498   8.907  1.00  0.00     0.000 C 
BRANCH  10  11
ATOM     11  C   UNL     1       6.607  -4.986   9.868  1.00  0.00     0.000 C 
BRANCH  11  12
ATOM     12  C   UNL     1       7.732  -5.704   9.109  1.00  0.00     0.000 C 
BRANCH  12  13
ATOM     13  C   UNL     1       7.346  -6.056   7.658  1.00  0.00     0.006 C 
BRANCH  13  14
ATOM     14  C   UNL     1       8.520  -5.985   6.667  1.00  0.00     0.053 C 
BRANCH  14  15
ATOM     15  C   UNL     1       8.080  -5.612   5.285  1.00  0.00     0.041 C 
ATOM     16  O   UNL     1       6.955  -5.076   5.102  1.00  0.00    -0.550 OA
ATOM     17  O   UNL     1       8.907  -5.865   4.198  1.00  0.00    -0.550 OA
ENDBRANCH  14  15
ENDBRANCH  13  14
ENDBRANCH  12  13
ENDBRANCH  11  12
ENDBRANCH  10  11
ENDBRANCH   9  10
ENDBRANCH   8   9
ENDBRANCH   7   8
ENDBRANCH   6   7
ENDBRANCH   5   6
ENDBRANCH   4   5
ENDBRANCH   3   4
ENDBRANCH   2   3
ENDBRANCH   1   2
BRANCH   1  18
ATOM     18  C   UNL     1       6.140   2.681   9.251  1.00  0.00     0.000 C 
BRANCH  18  19
ATOM     19  C   UNL     1       7.147   3.602   9.966  1.00  0.00     0.000 C 
BRANCH  19  20
ATOM     20  C   UNL     1       8.350   3.973   9.087  1.00  0.00     0.000 C 
BRANCH  20  21
ATOM     21  C   UNL     1       9.178   5.093   9.736  1.00  0.00     0.000 C 
BRANCH  21  22
ATOM     22  C   UNL     1       8.332   6.331  10.075  1.00  0.00     0.000 C 
BRANCH  22  23
ATOM     23  C   UNL     1       9.039   7.644   9.694  1.00  0.00     0.000 C 
BRANCH  23  24
ATOM     24  C   UNL     1       8.306   8.408   8.580  1.00  0.00    -0.000 C 
BRANCH  24  25
ATOM     25  C   UNL     1       8.294   9.929   8.813  1.00  0.00    -0.000 C 
BRANCH  25  26
ATOM     26  C   UNL     1       7.283  10.342   9.905  1.00  0.00    -0.000 C 
BRANCH  26  27
ATOM     27  C   UNL     1       5.926  10.809   9.351  1.00  0.00    -0.000 C 
BRANCH  27  28
ATOM     28  C   UNL     1       6.022  12.129   8.568  1.00  0.00    -0.000 C 
BRANCH  28  29
ATOM     29  C   UNL     1       4.725  12.952   8.642  1.00  0.00    -0.000 C 
BRANCH  29  30
ATOM     30  C   UNL     1       3.514  12.196   8.068  1.00  0.00    -0.000 C 
BRANCH  30  31
ATOM     31  C   UNL     1       2.462  11.870   9.140  1.00  0.00    -0.003 C 
ATOM     32  C   UNL     1       1.642  10.625   8.803  1.00  0.00     0.004 C 
ENDBRANCH  30  31
ENDBRANCH  29  30
ENDBRANCH  28  29
ENDBRANCH  27  28
ENDBRANCH  26  27
ENDBRANCH  25  26
ENDBRANCH  24  25
ENDBRANCH  23  24
ENDBRANCH  22  23
ENDBRANCH  21  22
ENDBRANCH  20  21
ENDBRANCH  19  20
ENDBRANCH  18  19
ENDBRANCH   1  18
TORSDOF 28
ENDMDL
MODEL 4
REMARK VINA RESULT:    -1.816      4.701     13.574
REMARK INTER + INTRA:          -5.779
REMARK INTER:                  -4.328
REMARK INTRA:                  -1.451
REMARK UNBOUND:                -0.990
REMARK SMILES CCCCCCCCCCCCCCCCCCCCCCCCCCCCCC(=O)[O-]
REMARK SMILES IDX 16 1 17 2 18 3 19 4 20 5 21 6 22 7 23 8 24 9 25 10 26 11
REMARK SMILES IDX 27 12 28 13 29 14 30 15 31 16 32 17 15 18 14 19 13 20 12 21
REMARK SMILES IDX 11 22 10 23 9 24 8 25 7 26 6 27 5 28 4 29 3 30 2 31 1 32
REMARK H PARENT
REMARK Flexibility Score: inf
ROOT
ATOM      1  C   UNL     1       5.733   4.275   9.398  1.00  0.00     0.000 C 
ENDROOT
BRANCH   1   2
ATOM      2  C   UNL     1       7.213   4.043   9.032  1.00  0.00     0.000 C 
BRANCH   2   3
ATOM      3  C   UNL     1       8.202   4.919   9.829  1.00  0.00     0.000 C 
BRANCH   3   4
ATOM      4  C   UNL     1       9.248   5.604   8.932  1.00  0.00     0.000 C 
BRANCH   4   5
ATOM      5  C   UNL     1       8.624   6.601   7.940  1.00  0.00     0.000 C 
BRANCH   5   6
ATOM      6  C   UNL     1       8.765   8.083   8.330  1.00  0.00     0.000 C 
BRANCH   6   7
ATOM      7  C   UNL     1       8.616   8.325   9.840  1.00  0.00     0.000 C 
BRANCH   7   8
ATOM      8  C   UNL     1       7.546   9.391  10.120  1.00  0.00     0.000 C 
BRANCH   8   9
ATOM      9  C   UNL     1       8.102  10.822  10.051  1.00  0.00     0.000 C 
BRANCH   9  10
ATOM     10  C   UNL     1       6.998  11.889  10.071  1.00  0.00     0.000 C 
BRANCH  10  11
ATOM     11  C   UNL     1       5.763  11.414   9.292  1.00  0.00     0.000 C 
BRANCH  11  12
ATOM     12  C   UNL     1       5.443  12.364   8.129  1.00  0.00     0.000 C 
BRANCH  12  13
ATOM     13  C   UNL     1       4.125  12.010   7.412  1.00  0.00     0.006 C 
BRANCH  13  14
ATOM     14  C   UNL     1       3.063  11.386   8.334  1.00  0.00     0.053 C 
BRANCH  14  15
ATOM     15  C   UNL     1       2.253  12.419   9.054  1.00  0.00     0.041 C 
ATOM     16  O   UNL     1       2.824  13.323   9.718  1.00  0.00    -0.550 OA
ATOM     17  O   UNL     1       0.864  12.379   8.999  1.00  0.00    -0.550 OA
ENDBRANCH  14  15
ENDBRANCH  13  14
ENDBRANCH  12  13
ENDBRANCH  11  12
ENDBRANCH  10  11
ENDBRANCH   9  10
ENDBRANCH   8   9
ENDBRANCH   7   8
ENDBRANCH   6   7
ENDBRANCH   5   6
ENDBRANCH   4   5
ENDBRANCH   3   4
ENDBRANCH   2   3
ENDBRANCH   1   2
BRANCH   1  18
ATOM     18  C   UNL     1       4.712   3.832   8.332  1.00  0.00     0.000 C 
BRANCH  18  19
ATOM     19  C   UNL     1       3.379   3.292   8.885  1.00  0.00     0.000 C 
BRANCH  19  20
ATOM     20  C   UNL     1       3.321   1.758   8.917  1.00  0.00     0.000 C 
BRANCH  20  21
ATOM     21  C   UNL     1       4.285   1.196   9.974  1.00  0.00     0.000 C 
BRANCH  21  22
ATOM     22  C   UNL     1       5.347   0.264   9.367  1.00  0.00     0.000 C 
BRANCH  22  23
ATOM     23  C   UNL     1       5.454  -1.072  10.125  1.00  0.00     0.000 C 
BRANCH  23  24
ATOM     24  C   UNL     1       5.682  -2.267   9.187  1.00  0.00    -0.000 C 
BRANCH  24  25
ATOM     25  C   UNL     1       5.788  -3.603   9.944  1.00  0.00    -0.000 C 
BRANCH  25  26
ATOM     26  C   UNL     1       4.443  -4.360   9.977  1.00  0.00    -0.000 C 
BRANCH  26  27
ATOM     27  C   UNL     1       4.566  -5.859   9.653  1.00  0.00    -0.000 C 
BRANCH  27  28
ATOM     28  C   UNL     1       5.168  -6.124   8.264  1.00  0.00    -0.000 C 
BRANCH  28  29
ATOM     29  C   UNL     1       4.159  -5.881   7.129  1.00  0.00    -0.000 C 
BRANCH  29  30
ATOM     30  C   UNL     1       4.801  -5.993   5.735  1.00  0.00    -0.000 C 
BRANCH  30  31
ATOM     31  C   UNL     1       3.856  -5.529   4.615  1.00  0.00    -0.003 C 
ATOM     32  C   UNL     1       4.577  -5.321   3.284  1.00  0.00     0.004 C 
ENDBRANCH  30  31
ENDBRANCH  29  30
ENDBRANCH  28  29
ENDBRANCH  27  28
ENDBRANCH  26  27
ENDBRANCH  25  26
ENDBRANCH  24  25
ENDBRANCH  23  24
ENDBRANCH  22  23
ENDBRANCH  21  22
ENDBRANCH  20  21
ENDBRANCH  19  20
ENDBRANCH  18  19
ENDBRANCH   1  18
TORSDOF 28
ENDMDL
MODEL 5
REMARK VINA RESULT:    -1.688      3.023      3.932
REMARK INTER + INTRA:          -5.441
REMARK INTER:                  -4.925
REMARK INTRA:                  -0.516
REMARK UNBOUND:                -0.990
REMARK SMILES CCCCCCCCCCCCCCCCCCCCCCCCCCCCCC(=O)[O-]
REMARK SMILES IDX 16 1 17 2 18 3 19 4 20 5 21 6 22 7 23 8 24 9 25 10 26 11
REMARK SMILES IDX 27 12 28 13 29 14 30 15 31 16 32 17 15 18 14 19 13 20 12 21
REMARK SMILES IDX 11 22 10 23 9 24 8 25 7 26 6 27 5 28 4 29 3 30 2 31 1 32
REMARK H PARENT
REMARK Flexibility Score: inf
ROOT
ATOM      1  C   UNL     1       5.378   3.335  10.121  1.00  0.00     0.000 C 
ENDROOT
BRANCH   1   2
ATOM      2  C   UNL     1       4.059   2.928   9.435  1.00  0.00     0.000 C 
BRANCH   2   3
ATOM      3  C   UNL     1       4.249   2.186   8.096  1.00  0.00     0.000 C 
BRANCH   3   4
ATOM      4  C   UNL     1       3.831   0.706   8.170  1.00  0.00     0.000 C 
BRANCH   4   5
ATOM      5  C   UNL     1       4.930  -0.198   8.755  1.00  0.00     0.000 C 
BRANCH   5   6
ATOM      6  C   UNL     1       4.542  -0.944  10.044  1.00  0.00     0.000 C 
BRANCH   6   7
ATOM      7  C   UNL     1       5.140  -2.357  10.125  1.00  0.00     0.000 C 
BRANCH   7   8
ATOM      8  C   UNL     1       5.285  -2.970   8.725  1.00  0.00     0.000 C 
BRANCH   8   9
ATOM      9  C   UNL     1       5.611  -4.471   8.765  1.00  0.00     0.000 C 
BRANCH   9  10
ATOM     10  C   UNL     1       7.058  -4.776   8.349  1.00  0.00     0.000 C 
BRANCH  10  11
ATOM     11  C   UNL     1       7.093  -5.739   7.154  1.00  0.00     0.000 C 
BRANCH  11  12
ATOM     12  C   UNL     1       6.353  -5.147   5.946  1.00  0.00     0.000 C 
BRANCH  12  13
ATOM     13  C   UNL     1       4.823  -5.124   6.133  1.00  0.00     0.006 C 
BRANCH  13  14
ATOM     14  C   UNL     1       4.063  -6.042   5.159  1.00  0.00     0.053 C 
BRANCH  14  15
ATOM     15  C   UNL     1       3.742  -5.362   3.865  1.00  0.00     0.041 C 
ATOM     16  O   UNL     1       2.703  -4.657   3.761  1.00  0.00    -0.550 OA
ATOM     17  O   UNL     1       4.583  -5.514   2.769  1.00  0.00    -0.550 OA
ENDBRANCH  14  15
ENDBRANCH  13  14
ENDBRANCH  12  13
ENDBRANCH  11  12
ENDBRANCH  10  11
ENDBRANCH   9  10
ENDBRANCH   8   9
ENDBRANCH   7   8
ENDBRANCH   6   7
ENDBRANCH   5   6
ENDBRANCH   4   5
ENDBRANCH   3   4
ENDBRANCH   2   3
ENDBRANCH   1   2
BRANCH   1  18
ATOM     18  C   UNL     1       6.537   2.330   9.973  1.00  0.00     0.000 C 
BRANCH  18  19
ATOM     19  C   UNL     1       7.723   2.817   9.118  1.00  0.00     0.000 C 
BRANCH  19  20
ATOM     20  C   UNL     1       7.584   4.282   8.679  1.00  0.00     0.000 C 
BRANCH  20  21
ATOM     21  C   UNL     1       8.297   5.219   9.665  1.00  0.00     0.000 C 
BRANCH  21  22
ATOM     22  C   UNL     1       9.307   6.147   8.972  1.00  0.00     0.000 C 
BRANCH  22  23
ATOM     23  C   UNL     1       9.818   7.258   9.907  1.00  0.00     0.000 C 
BRANCH  23  24
ATOM     24  C   UNL     1       9.917   8.621   9.207  1.00  0.00    -0.000 C 
BRANCH  24  25
ATOM     25  C   UNL     1       8.963   9.668   9.809  1.00  0.00    -0.000 C 
BRANCH  25  26
ATOM     26  C   UNL     1       7.490   9.211   9.754  1.00  0.00    -0.000 C 
BRANCH  26  27
ATOM     27  C   UNL     1       6.483  10.315  10.122  1.00  0.00    -0.000 C 
BRANCH  27  28
ATOM     28  C   UNL     1       5.965  11.085   8.896  1.00  0.00    -0.000 C 
BRANCH  28  29
ATOM     29  C   UNL     1       4.848  12.079   9.255  1.00  0.00    -0.000 C 
BRANCH  29  30
ATOM     30  C   UNL     1       5.063  13.464   8.618  1.00  0.00    -0.000 C 
BRANCH  30  31
ATOM     31  C   UNL     1       4.502  13.547   7.190  1.00  0.00    -0.003 C 
ATOM     32  C   UNL     1       3.956  12.209   6.692  1.00  0.00     0.004 C 
ENDBRANCH  30  31
ENDBRANCH  29  30
ENDBRANCH  28  29
ENDBRANCH  27  28
ENDBRANCH  26  27
ENDBRANCH  25  26
ENDBRANCH  24  25
ENDBRANCH  23  24
ENDBRANCH  22  23
ENDBRANCH  21  22
ENDBRANCH  20  21
ENDBRANCH  19  20
ENDBRANCH  18  19
ENDBRANCH   1  18
TORSDOF 28
ENDMDL
MODEL 6
REMARK VINA RESULT:    -1.614      5.174      8.092
REMARK INTER + INTRA:          -5.246
REMARK INTER:                  -3.428
REMARK INTRA:                  -1.818
REMARK UNBOUND:                -0.990
REMARK SMILES CCCCCCCCCCCCCCCCCCCCCCCCCCCCCC(=O)[O-]
REMARK SMILES IDX 16 1 17 2 18 3 19 4 20 5 21 6 22 7 23 8 24 9 25 10 26 11
REMARK SMILES IDX 27 12 28 13 29 14 30 15 31 16 32 17 15 18 14 19 13 20 12 21
REMARK SMILES IDX 11 22 10 23 9 24 8 25 7 26 6 27 5 28 4 29 3 30 2 31 1 32
REMARK H PARENT
REMARK Flexibility Score: inf
ROOT
ATOM      1  C   UNL     1       0.847   3.536   8.895  1.00  0.00     0.000 C 
ENDROOT
BRANCH   1   2
ATOM      2  C   UNL     1       1.298   2.130   9.339  1.00  0.00     0.000 C 
BRANCH   2   3
ATOM      3  C   UNL     1       2.802   1.856   9.127  1.00  0.00     0.000 C 
BRANCH   3   4
ATOM      4  C   UNL     1       3.617   3.142   8.900  1.00  0.00     0.000 C 
BRANCH   4   5
ATOM      5  C   UNL     1       4.871   3.221   9.787  1.00  0.00     0.000 C 
BRANCH   5   6
ATOM      6  C   UNL     1       5.694   4.513   9.638  1.00  0.00     0.000 C 
BRANCH   6   7
ATOM      7  C   UNL     1       7.078   4.276   9.013  1.00  0.00     0.000 C 
BRANCH   7   8
ATOM      8  C   UNL     1       8.083   3.806  10.074  1.00  0.00     0.000 C 
BRANCH   8   9
ATOM      9  C   UNL     1       9.538   3.873   9.584  1.00  0.00     0.000 C 
BRANCH   9  10
ATOM     10  C   UNL     1       9.901   5.240   8.984  1.00  0.00     0.000 C 
BRANCH  10  11
ATOM     11  C   UNL     1      11.245   5.738   9.532  1.00  0.00     0.000 C 
BRANCH  11  12
ATOM     12  C   UNL     1      11.317   7.271   9.510  1.00  0.00     0.000 C 
BRANCH  12  13
ATOM     13  C   UNL     1      10.068   7.939  10.119  1.00  0.00     0.006 C 
BRANCH  13  14
ATOM     14  C   UNL     1       9.772   9.338   9.552  1.00  0.00     0.053 C 
BRANCH  14  15
ATOM     15  C   UNL     1       8.754   9.306   8.454  1.00  0.00     0.041 C 
ATOM     16  O   UNL     1       9.119   9.168   7.257  1.00  0.00    -0.550 OA
ATOM     17  O   UNL     1       7.403   9.440   8.750  1.00  0.00    -0.550 OA
ENDBRANCH  14  15
ENDBRANCH  13  14
ENDBRANCH  12  13
ENDBRANCH  11  12
ENDBRANCH  10  11
ENDBRANCH   9  10
ENDBRANCH   8   9
ENDBRANCH   7   8
ENDBRANCH   6   7
ENDBRANCH   5   6
ENDBRANCH   4   5
ENDBRANCH   3   4
ENDBRANCH   2   3
ENDBRANCH   1   2
BRANCH   1  18
ATOM     18  C   UNL     1      -0.582   3.933   9.314  1.00  0.00     0.000 C 
BRANCH  18  19
ATOM     19  C   UNL     1      -0.884   5.443   9.263  1.00  0.00     0.000 C 
BRANCH  19  20
ATOM     20  C   UNL     1       0.256   6.303   9.827  1.00  0.00     0.000 C 
BRANCH  20  21
ATOM     21  C   UNL     1      -0.085   7.798   9.730  1.00  0.00     0.000 C 
BRANCH  21  22
ATOM     22  C   UNL     1       1.159   8.674   9.516  1.00  0.00     0.000 C 
BRANCH  22  23
ATOM     23  C   UNL     1       0.992  10.082  10.115  1.00  0.00     0.000 C 
BRANCH  23  24
ATOM     24  C   UNL     1       2.295  10.895  10.086  1.00  0.00    -0.000 C 
BRANCH  24  25
ATOM     25  C   UNL     1       2.625  11.438   8.684  1.00  0.00    -0.000 C 
BRANCH  25  26
ATOM     26  C   UNL     1       1.758  12.661   8.315  1.00  0.00    -0.000 C 
BRANCH  26  27
ATOM     27  C   UNL     1       2.572  13.887   7.867  1.00  0.00    -0.000 C 
BRANCH  27  28
ATOM     28  C   UNL     1       3.609  13.554   6.782  1.00  0.00    -0.000 C 
BRANCH  28  29
ATOM     29  C   UNL     1       5.049  13.842   7.236  1.00  0.00    -0.000 C 
BRANCH  29  30
ATOM     30  C   UNL     1       5.836  12.557   7.552  1.00  0.00    -0.000 C 
BRANCH  30  31
ATOM     31  C   UNL     1       5.874  12.246   9.056  1.00  0.00    -0.003 C 
ATOM     32  C   UNL     1       6.963  13.027   9.792  1.00  0.00     0.004 C 
ENDBRANCH  30  31
ENDBRANCH  29  30
ENDBRANCH  28  29
ENDBRANCH  27  28
ENDBRANCH  26  27
ENDBRANCH  25  26
ENDBRANCH  24  25
ENDBRANCH  23  24
ENDBRANCH  22  23
ENDBRANCH  21  22
ENDBRANCH  20  21
ENDBRANCH  19  20
ENDBRANCH  18  19
ENDBRANCH   1  18
TORSDOF 28
ENDMDL
MODEL 7
REMARK VINA RESULT:    -1.581      3.897     12.789
REMARK INTER + INTRA:          -5.158
REMARK INTER:                  -4.346
REMARK INTRA:                  -0.813
REMARK UNBOUND:                -0.990
REMARK SMILES CCCCCCCCCCCCCCCCCCCCCCCCCCCCCC(=O)[O-]
REMARK SMILES IDX 16 1 17 2 18 3 19 4 20 5 21 6 22 7 23 8 24 9 25 10 26 11
REMARK SMILES IDX 27 12 28 13 29 14 30 15 31 16 32 17 15 18 14 19 13 20 12 21
REMARK SMILES IDX 11 22 10 23 9 24 8 25 7 26 6 27 5 28 4 29 3 30 2 31 1 32
REMARK H PARENT
REMARK Flexibility Score: inf
ROOT
ATOM      1  C   UNL     1       5.444   3.436   7.855  1.00  0.00     0.000 C 
ENDROOT
BRANCH   1   2
ATOM      2  C   UNL     1       6.364   4.248   8.788  1.00  0.00     0.000 C 
BRANCH   2   3
ATOM      3  C   UNL     1       7.138   3.390   9.811  1.00  0.00     0.000 C 
BRANCH   3   4
ATOM      4  C   UNL     1       8.618   3.793   9.929  1.00  0.00     0.000 C 
BRANCH   4   5
ATOM      5  C   UNL     1       8.813   5.307  10.123  1.00  0.00     0.000 C 
BRANCH   5   6
ATOM      6  C   UNL     1       8.830   6.133   8.825  1.00  0.00     0.000 C 
BRANCH   6   7
ATOM      7  C   UNL     1      10.251   6.438   8.324  1.00  0.00     0.000 C 
BRANCH   7   8
ATOM      8  C   UNL     1      10.870   7.601   9.114  1.00  0.00     0.000 C 
BRANCH   8   9
ATOM      9  C   UNL     1       9.844   8.339   9.987  1.00  0.00     0.000 C 
BRANCH   9  10
ATOM     10  C   UNL     1       8.851   9.172   9.161  1.00  0.00     0.000 C 
BRANCH  10  11
ATOM     11  C   UNL     1       7.465   9.180   9.820  1.00  0.00     0.000 C 
BRANCH  11  12
ATOM     12  C   UNL     1       6.984  10.615  10.079  1.00  0.00     0.000 C 
BRANCH  12  13
ATOM     13  C   UNL     1       5.706  10.971   9.294  1.00  0.00     0.006 C 
BRANCH  13  14
ATOM     14  C   UNL     1       5.658  12.431   8.811  1.00  0.00     0.053 C 
BRANCH  14  15
ATOM     15  C   UNL     1       4.835  12.597   7.572  1.00  0.00     0.041 C 
ATOM     16  O   UNL     1       4.485  11.588   6.904  1.00  0.00    -0.550 OA
ATOM     17  O   UNL     1       4.461  13.866   7.147  1.00  0.00    -0.550 OA
ENDBRANCH  14  15
ENDBRANCH  13  14
ENDBRANCH  12  13
ENDBRANCH  11  12
ENDBRANCH  10  11
ENDBRANCH   9  10
ENDBRANCH   8   9
ENDBRANCH   7   8
ENDBRANCH   6   7
ENDBRANCH   5   6
ENDBRANCH   4   5
ENDBRANCH   3   4
ENDBRANCH   2   3
ENDBRANCH   1   2
BRANCH   1  18
ATOM     18  C   UNL     1       4.126   2.948   8.488  1.00  0.00     0.000 C 
BRANCH  18  19
ATOM     19  C   UNL     1       3.976   1.419   8.595  1.00  0.00     0.000 C 
BRANCH  19  20
ATOM     20  C   UNL     1       3.670   0.944  10.022  1.00  0.00     0.000 C 
BRANCH  20  21
ATOM     21  C   UNL     1       3.735  -0.589  10.115  1.00  0.00     0.000 C 
BRANCH  21  22
ATOM     22  C   UNL     1       5.001  -1.166   9.463  1.00  0.00     0.000 C 
BRANCH  22  23
ATOM     23  C   UNL     1       4.907  -2.688   9.250  1.00  0.00     0.000 C 
BRANCH  23  24
ATOM     24  C   UNL     1       6.278  -3.335   9.001  1.00  0.00    -0.000 C 
BRANCH  24  25
ATOM     25  C   UNL     1       6.166  -4.784   8.492  1.00  0.00    -0.000 C 
BRANCH  25  26
ATOM     26  C   UNL     1       6.855  -5.788   9.440  1.00  0.00    -0.000 C 
BRANCH  26  27
ATOM     27  C   UNL     1       8.160  -5.260  10.061  1.00  0.00    -0.000 C 
BRANCH  27  28
ATOM     28  C   UNL     1       9.396  -5.551   9.194  1.00  0.00    -0.000 C 
BRANCH  28  29
ATOM     29  C   UNL     1      10.337  -4.340   9.086  1.00  0.00    -0.000 C 
BRANCH  29  30
ATOM     30  C   UNL     1       9.801  -3.108   9.837  1.00  0.00    -0.000 C 
BRANCH  30  31
ATOM     31  C   UNL     1      10.874  -2.026  10.031  1.00  0.00    -0.003 C 
ATOM     32  C   UNL     1      12.247  -2.458   9.519  1.00  0.00     0.004 C 
ENDBRANCH  30  31
ENDBRANCH  29  30
ENDBRANCH  28  29
ENDBRANCH  27  28
ENDBRANCH  26  27
ENDBRANCH  25  26
ENDBRANCH  24  25
ENDBRANCH  23  24
ENDBRANCH  22  23
ENDBRANCH  21  22
ENDBRANCH  20  21
ENDBRANCH  19  20
ENDBRANCH  18  19
ENDBRANCH   1  18
TORSDOF 28
ENDMDL
MODEL 8
REMARK VINA RESULT:    -1.437      1.527      2.532
REMARK INTER + INTRA:          -4.778
REMARK INTER:                  -3.065
REMARK INTRA:                  -1.713
REMARK UNBOUND:                -0.990
REMARK SMILES CCCCCCCCCCCCCCCCCCCCCCCCCCCCCC(=O)[O-]
REMARK SMILES IDX 16 1 17 2 18 3 19 4 20 5 21 6 22 7 23 8 24 9 25 10 26 11
REMARK SMILES IDX 27 12 28 13 29 14 30 15 31 16 32 17 15 18 14 19 13 20 12 21
REMARK SMILES IDX 11 22 10 23 9 24 8 25 7 26 6 27 5 28 4 29 3 30 2 31 1 32
REMARK H PARENT
REMARK Flexibility Score: inf
ROOT
ATOM      1  C   UNL     1       7.827   4.841   8.494  1.00  0.00     0.000 C 
ENDROOT
BRANCH   1   2
ATOM      2  C   UNL     1       6.990   4.159   9.595  1.00  0.00     0.000 C 
BRANCH   2   3
ATOM      3  C   UNL     1       7.189   2.631   9.680  1.00  0.00     0.000 C 
BRANCH   3   4
ATOM      4  C   UNL     1       5.935   1.842   9.262  1.00  0.00     0.000 C 
BRANCH   4   5
ATOM      5  C   UNL     1       5.737   0.554  10.081  1.00  0.00     0.000 C 
BRANCH   5   6
ATOM      6  C   UNL     1       5.507  -0.718   9.246  1.00  0.00     0.000 C 
BRANCH   6   7
ATOM      7  C   UNL     1       4.748  -1.812  10.014  1.00  0.00     0.000 C 
BRANCH   7   8
ATOM      8  C   UNL     1       4.834  -3.157   9.278  1.00  0.00     0.000 C 
BRANCH   8   9
ATOM      9  C   UNL     1       5.504  -4.253  10.120  1.00  0.00     0.000 C 
BRANCH   9  10
ATOM     10  C   UNL     1       7.007  -4.387   9.834  1.00  0.00     0.000 C 
BRANCH  10  11
ATOM     11  C   UNL     1       7.350  -5.807   9.363  1.00  0.00     0.000 C 
BRANCH  11  12
ATOM     12  C   UNL     1       7.510  -5.861   7.837  1.00  0.00     0.000 C 
BRANCH  12  13
ATOM     13  C   UNL     1       8.885  -5.354   7.360  1.00  0.00     0.006 C 
BRANCH  13  14
ATOM     14  C   UNL     1      10.074  -6.125   7.959  1.00  0.00     0.053 C 
BRANCH  14  15
ATOM     15  C   UNL     1      10.997  -5.238   8.737  1.00  0.00     0.041 C 
ATOM     16  O   UNL     1      12.213  -5.541   8.857  1.00  0.00    -0.550 OA
ATOM     17  O   UNL     1      10.513  -4.082   9.337  1.00  0.00    -0.550 OA
ENDBRANCH  14  15
ENDBRANCH  13  14
ENDBRANCH  12  13
ENDBRANCH  11  12
ENDBRANCH  10  11
ENDBRANCH   9  10
ENDBRANCH   8   9
ENDBRANCH   7   8
ENDBRANCH   6   7
ENDBRANCH   5   6
ENDBRANCH   4   5
ENDBRANCH   3   4
ENDBRANCH   2   3
ENDBRANCH   1   2
BRANCH   1  18
ATOM     18  C   UNL     1       8.303   6.271   8.817  1.00  0.00     0.000 C 
BRANCH  18  19
ATOM     19  C   UNL     1       9.387   6.829   7.876  1.00  0.00     0.000 C 
BRANCH  19  20
ATOM     20  C   UNL     1      10.813   6.581   8.388  1.00  0.00     0.000 C 
BRANCH  20  21
ATOM     21  C   UNL     1      11.099   7.426   9.640  1.00  0.00     0.000 C 
BRANCH  21  22
ATOM     22  C   UNL     1      11.388   8.898   9.305  1.00  0.00     0.000 C 
BRANCH  22  23
ATOM     23  C   UNL     1      10.445   9.862  10.048  1.00  0.00     0.000 C 
BRANCH  23  24
ATOM     24  C   UNL     1       9.003   9.337  10.125  1.00  0.00    -0.000 C 
BRANCH  24  25
ATOM     25  C   UNL     1       7.958  10.466  10.074  1.00  0.00    -0.000 C 
BRANCH  25  26
ATOM     26  C   UNL     1       7.105  10.411   8.789  1.00  0.00    -0.000 C 
BRANCH  26  27
ATOM     27  C   UNL     1       6.794  11.793   8.189  1.00  0.00    -0.000 C 
BRANCH  27  28
ATOM     28  C   UNL     1       5.845  12.627   9.066  1.00  0.00    -0.000 C 
BRANCH  28  29
ATOM     29  C   UNL     1       4.731  13.303   8.250  1.00  0.00    -0.000 C 
BRANCH  29  30
ATOM     30  C   UNL     1       4.069  12.343   7.247  1.00  0.00    -0.000 C 
BRANCH  30  31
ATOM     31  C   UNL     1       3.050  11.406   7.915  1.00  0.00    -0.003 C 
ATOM     32  C   UNL     1       2.102  12.144   8.860  1.00  0.00     0.004 C 
ENDBRANCH  30  31
ENDBRANCH  29  30
ENDBRANCH  28  29
ENDBRANCH  27  28
ENDBRANCH  26  27
ENDBRANCH  25  26
ENDBRANCH  24  25
ENDBRANCH  23  24
ENDBRANCH  22  23
ENDBRANCH  21  22
ENDBRANCH  20  21
ENDBRANCH  19  20
ENDBRANCH  18  19
ENDBRANCH   1  18
TORSDOF 28
ENDMDL
