MODEL 1
REMARK VINA RESULT:    -3.376      0.000      0.000
REMARK INTER + INTRA:         -10.747
REMARK INTER:                  -7.323
REMARK INTRA:                  -3.424
REMARK UNBOUND:                -3.424
REMARK SMILES CCCCCCCCCCCCCCCCCCCCCC(=O)[O-]
REMARK SMILES IDX 12 1 11 2 10 3 9 4 8 5 7 6 6 7 5 8 4 9 3 10 2 11 1 12 13 13
REMARK SMILES IDX 14 14 15 15 16 16 17 17 18 18 19 19 20 20 21 21 22 22 23 23
REMARK SMILES IDX 24 24
REMARK H PARENT
REMARK Flexibility Score: inf
ROOT
ATOM      1  C   UNL     1     -93.621 147.236 242.193  1.00  0.00     0.000 C 
ENDROOT
BRANCH   1   2
ATOM      2  C   UNL     1     -94.040 145.853 242.718  1.00  0.00     0.000 C 
BRANCH   2   3
ATOM      3  C   UNL     1     -95.563 145.728 242.898  1.00  0.00     0.000 C 
BRANCH   3   4
ATOM      4  C   UNL     1     -96.278 145.333 241.592  1.00  0.00    -0.000 C 
BRANCH   4   5
ATOM      5  C   UNL     1     -97.378 146.341 241.198  1.00  0.00    -0.000 C 
BRANCH   5   6
ATOM      6  C   UNL     1     -96.873 147.788 241.039  1.00  0.00    -0.000 C 
BRANCH   6   7
ATOM      7  C   UNL     1     -97.532 148.813 241.977  1.00  0.00    -0.000 C 
BRANCH   7   8
ATOM      8  C   UNL     1     -96.646 149.174 243.180  1.00  0.00    -0.000 C 
BRANCH   8   9
ATOM      9  C   UNL     1     -97.302 148.739 244.501  1.00  0.00    -0.000 C 
BRANCH   9  10
ATOM     10  C   UNL     1     -98.685 148.092 244.295  1.00  0.00    -0.000 C 
BRANCH  10  11
ATOM     11  C   UNL     1     -98.796 146.638 244.789  1.00  0.00    -0.003 C 
ATOM     12  C   UNL     1     -97.680 146.251 245.761  1.00  0.00     0.004 C 
ENDBRANCH  10  11
ENDBRANCH   9  10
ENDBRANCH   8   9
ENDBRANCH   7   8
ENDBRANCH   6   7
ENDBRANCH   5   6
ENDBRANCH   4   5
ENDBRANCH   3   4
ENDBRANCH   2   3
ENDBRANCH   1   2
BRANCH   1  13
ATOM     13  C   UNL     1     -92.917 147.153 240.829  1.00  0.00     0.000 C 
BRANCH  13  14
ATOM     14  C   UNL     1     -92.756 145.700 240.342  1.00  0.00     0.000 C 
BRANCH  14  15
ATOM     15  C   UNL     1     -92.969 145.558 238.827  1.00  0.00     0.000 C 
BRANCH  15  16
ATOM     16  C   UNL     1     -94.399 145.916 238.397  1.00  0.00     0.000 C 
BRANCH  16  17
ATOM     17  C   UNL     1     -94.398 147.102 237.425  1.00  0.00     0.000 C 
BRANCH  17  18
ATOM     18  C   UNL     1     -95.449 148.146 237.827  1.00  0.00     0.000 C 
BRANCH  18  19
ATOM     19  C   UNL     1     -94.897 149.580 237.840  1.00  0.00     0.000 C 
BRANCH  19  20
ATOM     20  C   UNL     1     -94.719 150.228 236.452  1.00  0.00     0.006 C 
BRANCH  20  21
ATOM     21  C   UNL     1     -95.940 151.040 235.977  1.00  0.00     0.053 C 
BRANCH  21  22
ATOM     22  C   UNL     1     -96.524 151.892 237.064  1.00  0.00     0.041 C 
ATOM     23  O   UNL     1     -95.932 152.937 237.443  1.00  0.00    -0.550 OA
ATOM     24  O   UNL     1     -97.740 151.548 237.639  1.00  0.00    -0.550 OA
ENDBRANCH  21  22
ENDBRANCH  20  21
ENDBRANCH  19  20
ENDBRANCH  18  19
ENDBRANCH  17  18
ENDBRANCH  16  17
ENDBRANCH  15  16
ENDBRANCH  14  15
ENDBRANCH  13  14
ENDBRANCH   1  13
TORSDOF 20
ENDMDL
MODEL 2
REMARK VINA RESULT:    -3.331      2.180      6.408
REMARK INTER + INTRA:         -10.650
REMARK INTER:                  -6.665
REMARK INTRA:                  -3.985
REMARK UNBOUND:                -3.424
REMARK SMILES CCCCCCCCCCCCCCCCCCCCCC(=O)[O-]
REMARK SMILES IDX 12 1 11 2 10 3 9 4 8 5 7 6 6 7 5 8 4 9 3 10 2 11 1 12 13 13
REMARK SMILES IDX 14 14 15 15 16 16 17 17 18 18 19 19 20 20 21 21 22 22 23 23
REMARK SMILES IDX 24 24
REMARK H PARENT
REMARK Flexibility Score: inf
ROOT
ATOM      1  C   UNL     1     -96.010 146.877 238.570  1.00  0.00     0.000 C 
ENDROOT
BRANCH   1   2
ATOM      2  C   UNL     1     -96.672 148.098 239.229  1.00  0.00     0.000 C 
BRANCH   2   3
ATOM      3  C   UNL     1     -97.772 148.718 238.349  1.00  0.00     0.000 C 
BRANCH   3   4
ATOM      4  C   UNL     1     -98.187 147.794 237.189  1.00  0.00    -0.000 C 
BRANCH   4   5
ATOM      5  C   UNL     1     -98.149 148.512 235.824  1.00  0.00    -0.000 C 
BRANCH   5   6
ATOM      6  C   UNL     1     -97.244 147.827 234.782  1.00  0.00    -0.000 C 
BRANCH   6   7
ATOM      7  C   UNL     1     -95.734 147.978 235.032  1.00  0.00    -0.000 C 
BRANCH   7   8
ATOM      8  C   UNL     1     -95.295 149.445 235.152  1.00  0.00    -0.000 C 
BRANCH   8   9
ATOM      9  C   UNL     1     -94.494 149.680 236.443  1.00  0.00    -0.000 C 
BRANCH   9  10
ATOM     10  C   UNL     1     -95.019 150.877 237.261  1.00  0.00    -0.000 C 
BRANCH  10  11
ATOM     11  C   UNL     1     -96.068 151.742 236.537  1.00  0.00    -0.003 C 
ATOM     12  C   UNL     1     -96.365 153.054 237.265  1.00  0.00     0.004 C 
ENDBRANCH  10  11
ENDBRANCH   9  10
ENDBRANCH   8   9
ENDBRANCH   7   8
ENDBRANCH   6   7
ENDBRANCH   5   6
ENDBRANCH   4   5
ENDBRANCH   3   4
ENDBRANCH   2   3
ENDBRANCH   1   2
BRANCH   1  13
ATOM     13  C   UNL     1     -94.487 146.859 238.775  1.00  0.00     0.000 C 
BRANCH  13  14
ATOM     14  C   UNL     1     -94.025 147.894 239.819  1.00  0.00     0.000 C 
BRANCH  14  15
ATOM     15  C   UNL     1     -93.209 147.262 240.956  1.00  0.00     0.000 C 
BRANCH  15  16
ATOM     16  C   UNL     1     -93.652 145.826 241.273  1.00  0.00     0.000 C 
BRANCH  16  17
ATOM     17  C   UNL     1     -94.400 145.767 242.611  1.00  0.00     0.000 C 
BRANCH  17  18
ATOM     18  C   UNL     1     -95.879 146.139 242.432  1.00  0.00     0.000 C 
BRANCH  18  19
ATOM     19  C   UNL     1     -96.331 147.269 243.371  1.00  0.00     0.000 C 
BRANCH  19  20
ATOM     20  C   UNL     1     -96.237 148.690 242.782  1.00  0.00     0.006 C 
BRANCH  20  21
ATOM     21  C   UNL     1     -97.453 149.583 243.098  1.00  0.00     0.053 C 
BRANCH  21  22
ATOM     22  C   UNL     1     -98.501 149.529 242.026  1.00  0.00     0.041 C 
ATOM     23  O   UNL     1     -99.238 148.516 241.905  1.00  0.00    -0.550 OA
ATOM     24  O   UNL     1     -98.683 150.614 241.178  1.00  0.00    -0.550 OA
ENDBRANCH  21  22
ENDBRANCH  20  21
ENDBRANCH  19  20
ENDBRANCH  18  19
ENDBRANCH  17  18
ENDBRANCH  16  17
ENDBRANCH  15  16
ENDBRANCH  14  15
ENDBRANCH  13  14
ENDBRANCH   1  13
TORSDOF 20
ENDMDL
MODEL 3
REMARK VINA RESULT:    -3.302      2.995      6.743
REMARK INTER + INTRA:         -10.587
REMARK INTER:                  -7.337
REMARK INTRA:                  -3.250
REMARK UNBOUND:                -3.424
REMARK SMILES CCCCCCCCCCCCCCCCCCCCCC(=O)[O-]
REMARK SMILES IDX 12 1 11 2 10 3 9 4 8 5 7 6 6 7 5 8 4 9 3 10 2 11 1 12 13 13
REMARK SMILES IDX 14 14 15 15 16 16 17 17 18 18 19 19 20 20 21 21 22 22 23 23
REMARK SMILES IDX 24 24
REMARK H PARENT
REMARK Flexibility Score: inf
ROOT
ATOM      1  C   UNL     1     -92.885 145.672 240.290  1.00  0.00     0.000 C 
ENDROOT
BRANCH   1   2
ATOM      2  C   UNL     1     -93.847 145.256 239.164  1.00  0.00     0.000 C 
BRANCH   2   3
ATOM      3  C   UNL     1     -94.065 146.377 238.133  1.00  0.00     0.000 C 
BRANCH   3   4
ATOM      4  C   UNL     1     -95.558 146.650 237.869  1.00  0.00    -0.000 C 
BRANCH   4   5
ATOM      5  C   UNL     1     -95.817 148.103 237.417  1.00  0.00    -0.000 C 
BRANCH   5   6
ATOM      6  C   UNL     1     -95.100 149.163 238.275  1.00  0.00    -0.000 C 
BRANCH   6   7
ATOM      7  C   UNL     1     -94.611 150.402 237.504  1.00  0.00    -0.000 C 
BRANCH   7   8
ATOM      8  C   UNL     1     -95.102 150.427 236.048  1.00  0.00    -0.000 C 
BRANCH   8   9
ATOM      9  C   UNL     1     -96.149 151.533 235.836  1.00  0.00    -0.000 C 
BRANCH   9  10
ATOM     10  C   UNL     1     -96.233 152.510 237.024  1.00  0.00    -0.000 C 
BRANCH  10  11
ATOM     11  C   UNL     1     -97.561 152.464 237.804  1.00  0.00    -0.003 C 
ATOM     12  C   UNL     1     -98.399 151.225 237.483  1.00  0.00     0.004 C 
ENDBRANCH  10  11
ENDBRANCH   9  10
ENDBRANCH   8   9
ENDBRANCH   7   8
ENDBRANCH   6   7
ENDBRANCH   5   6
ENDBRANCH   4   5
ENDBRANCH   3   4
ENDBRANCH   2   3
ENDBRANCH   1   2
BRANCH   1  13
ATOM     13  C   UNL     1     -93.007 147.165 240.639  1.00  0.00     0.000 C 
BRANCH  13  14
ATOM     14  C   UNL     1     -93.690 147.392 242.001  1.00  0.00     0.000 C 
BRANCH  14  15
ATOM     15  C   UNL     1     -95.107 147.971 241.863  1.00  0.00     0.000 C 
BRANCH  15  16
ATOM     16  C   UNL     1     -96.172 146.882 241.668  1.00  0.00     0.000 C 
BRANCH  16  17
ATOM     17  C   UNL     1     -97.420 147.452 240.986  1.00  0.00     0.000 C 
BRANCH  17  18
ATOM     18  C   UNL     1     -97.610 148.936 241.334  1.00  0.00     0.000 C 
BRANCH  18  19
ATOM     19  C   UNL     1     -98.552 149.156 242.528  1.00  0.00     0.000 C 
BRANCH  19  20
ATOM     20  C   UNL     1     -97.854 149.457 243.869  1.00  0.00     0.006 C 
BRANCH  20  21
ATOM     21  C   UNL     1     -97.677 148.224 244.777  1.00  0.00     0.053 C 
BRANCH  21  22
ATOM     22  C   UNL     1     -98.007 148.512 246.211  1.00  0.00     0.041 C 
ATOM     23  O   UNL     1     -97.627 149.585 246.749  1.00  0.00    -0.550 OA
ATOM     24  O   UNL     1     -98.763 147.607 246.945  1.00  0.00    -0.550 OA
ENDBRANCH  21  22
ENDBRANCH  20  21
ENDBRANCH  19  20
ENDBRANCH  18  19
ENDBRANCH  17  18
ENDBRANCH  16  17
ENDBRANCH  15  16
ENDBRANCH  14  15
ENDBRANCH  13  14
ENDBRANCH   1  13
TORSDOF 20
ENDMDL
MODEL 4
REMARK VINA RESULT:    -3.297      1.309      1.828
REMARK INTER + INTRA:         -10.576
REMARK INTER:                  -7.643
REMARK INTRA:                  -2.933
REMARK UNBOUND:                -3.424
REMARK SMILES CCCCCCCCCCCCCCCCCCCCCC(=O)[O-]
REMARK SMILES IDX 12 1 11 2 10 3 9 4 8 5 7 6 6 7 5 8 4 9 3 10 2 11 1 12 13 13
REMARK SMILES IDX 14 14 15 15 16 16 17 17 18 18 19 19 20 20 21 21 22 22 23 23
REMARK SMILES IDX 24 24
REMARK H PARENT
REMARK Flexibility Score: inf
ROOT
ATOM      1  C   UNL     1     -94.082 146.966 242.055  1.00  0.00     0.000 C 
ENDROOT
BRANCH   1   2
ATOM      2  C   UNL     1     -95.391 147.647 241.620  1.00  0.00     0.000 C 
BRANCH   2   3
ATOM      3  C   UNL     1     -96.476 146.633 241.217  1.00  0.00     0.000 C 
BRANCH   3   4
ATOM      4  C   UNL     1     -97.813 147.312 240.865  1.00  0.00    -0.000 C 
BRANCH   4   5
ATOM      5  C   UNL     1     -97.652 148.823 240.600  1.00  0.00    -0.000 C 
BRANCH   5   6
ATOM      6  C   UNL     1     -98.562 149.712 241.470  1.00  0.00    -0.000 C 
BRANCH   6   7
ATOM      7  C   UNL     1     -98.811 149.189 242.896  1.00  0.00    -0.000 C 
BRANCH   7   8
ATOM      8  C   UNL     1     -97.622 149.437 243.836  1.00  0.00    -0.000 C 
BRANCH   8   9
ATOM      9  C   UNL     1     -97.347 148.208 244.718  1.00  0.00    -0.000 C 
BRANCH   9  10
ATOM     10  C   UNL     1     -97.862 148.383 246.160  1.00  0.00    -0.000 C 
BRANCH  10  11
ATOM     11  C   UNL     1     -98.233 149.828 246.541  1.00  0.00    -0.003 C 
ATOM     12  C   UNL     1     -97.603 150.277 247.861  1.00  0.00     0.004 C 
ENDBRANCH  10  11
ENDBRANCH   9  10
ENDBRANCH   8   9
ENDBRANCH   7   8
ENDBRANCH   6   7
ENDBRANCH   5   6
ENDBRANCH   4   5
ENDBRANCH   3   4
ENDBRANCH   2   3
ENDBRANCH   1   2
BRANCH   1  13
ATOM     13  C   UNL     1     -92.965 147.128 241.012  1.00  0.00     0.000 C 
BRANCH  13  14
ATOM     14  C   UNL     1     -92.650 145.807 240.284  1.00  0.00     0.000 C 
BRANCH  14  15
ATOM     15  C   UNL     1     -93.649 145.501 239.157  1.00  0.00     0.000 C 
BRANCH  15  16
ATOM     16  C   UNL     1     -93.066 145.771 237.763  1.00  0.00     0.000 C 
BRANCH  16  17
ATOM     17  C   UNL     1     -93.901 146.818 237.014  1.00  0.00     0.000 C 
BRANCH  17  18
ATOM     18  C   UNL     1     -95.015 147.378 237.909  1.00  0.00     0.000 C 
BRANCH  18  19
ATOM     19  C   UNL     1     -94.942 148.903 238.076  1.00  0.00     0.000 C 
BRANCH  19  20
ATOM     20  C   UNL     1     -94.639 149.692 236.787  1.00  0.00     0.006 C 
BRANCH  20  21
ATOM     21  C   UNL     1     -95.870 150.382 236.168  1.00  0.00     0.053 C 
BRANCH  21  22
ATOM     22  C   UNL     1     -96.492 151.387 237.092  1.00  0.00     0.041 C 
ATOM     23  O   UNL     1     -95.911 152.478 237.332  1.00  0.00    -0.550 OA
ATOM     24  O   UNL     1     -97.731 151.130 237.665  1.00  0.00    -0.550 OA
ENDBRANCH  21  22
ENDBRANCH  20  21
ENDBRANCH  19  20
ENDBRANCH  18  19
ENDBRANCH  17  18
ENDBRANCH  16  17
ENDBRANCH  15  16
ENDBRANCH  14  15
ENDBRANCH  13  14
ENDBRANCH   1  13
TORSDOF 20
ENDMDL
MODEL 5
REMARK VINA RESULT:    -3.278      1.704      3.259
REMARK INTER + INTRA:         -10.535
REMARK INTER:                  -7.138
REMARK INTRA:                  -3.397
REMARK UNBOUND:                -3.424
REMARK SMILES CCCCCCCCCCCCCCCCCCCCCC(=O)[O-]
REMARK SMILES IDX 12 1 11 2 10 3 9 4 8 5 7 6 6 7 5 8 4 9 3 10 2 11 1 12 13 13
REMARK SMILES IDX 14 14 15 15 16 16 17 17 18 18 19 19 20 20 21 21 22 22 23 23
REMARK SMILES IDX 24 24
REMARK H PARENT
REMARK Flexibility Score: inf
ROOT
ATOM      1  C   UNL     1     -94.149 145.769 238.650  1.00  0.00     0.000 C 
ENDROOT
BRANCH   1   2
ATOM      2  C   UNL     1     -92.796 145.484 239.324  1.00  0.00     0.000 C 
BRANCH   2   3
ATOM      3  C   UNL     1     -92.835 145.718 240.844  1.00  0.00     0.000 C 
BRANCH   3   4
ATOM      4  C   UNL     1     -92.829 147.214 241.209  1.00  0.00    -0.000 C 
BRANCH   4   5
ATOM      5  C   UNL     1     -93.823 147.545 242.342  1.00  0.00    -0.000 C 
BRANCH   5   6
ATOM      6  C   UNL     1     -95.044 146.607 242.397  1.00  0.00    -0.000 C 
BRANCH   6   7
ATOM      7  C   UNL     1     -96.377 147.294 242.745  1.00  0.00    -0.000 C 
BRANCH   7   8
ATOM      8  C   UNL     1     -96.216 148.797 243.018  1.00  0.00    -0.000 C 
BRANCH   8   9
ATOM      9  C   UNL     1     -97.585 149.479 243.182  1.00  0.00    -0.000 C 
BRANCH   9  10
ATOM     10  C   UNL     1     -98.191 149.929 241.838  1.00  0.00    -0.000 C 
BRANCH  10  11
ATOM     11  C   UNL     1     -99.661 149.522 241.626  1.00  0.00    -0.003 C 
ATOM     12  C   UNL     1     -99.837 148.019 241.401  1.00  0.00     0.004 C 
ENDBRANCH  10  11
ENDBRANCH   9  10
ENDBRANCH   8   9
ENDBRANCH   7   8
ENDBRANCH   6   7
ENDBRANCH   5   6
ENDBRANCH   4   5
ENDBRANCH   3   4
ENDBRANCH   2   3
ENDBRANCH   1   2
BRANCH   1  13
ATOM     13  C   UNL     1     -94.009 146.694 237.430  1.00  0.00     0.000 C 
BRANCH  13  14
ATOM     14  C   UNL     1     -94.853 147.976 237.569  1.00  0.00     0.000 C 
BRANCH  14  15
ATOM     15  C   UNL     1     -95.305 148.232 239.015  1.00  0.00     0.000 C 
BRANCH  15  16
ATOM     16  C   UNL     1     -96.823 148.080 239.194  1.00  0.00     0.000 C 
BRANCH  16  17
ATOM     17  C   UNL     1     -97.545 148.166 237.844  1.00  0.00     0.000 C 
BRANCH  17  18
ATOM     18  C   UNL     1     -98.537 149.337 237.823  1.00  0.00     0.000 C 
BRANCH  18  19
ATOM     19  C   UNL     1     -97.854 150.705 237.972  1.00  0.00     0.000 C 
BRANCH  19  20
ATOM     20  C   UNL     1     -96.867 151.074 236.846  1.00  0.00     0.006 C 
BRANCH  20  21
ATOM     21  C   UNL     1     -96.089 152.381 237.096  1.00  0.00     0.053 C 
BRANCH  21  22
ATOM     22  C   UNL     1     -96.885 153.602 236.742  1.00  0.00     0.041 C 
ATOM     23  O   UNL     1     -97.595 153.621 235.701  1.00  0.00    -0.550 OA
ATOM     24  O   UNL     1     -96.868 154.709 237.579  1.00  0.00    -0.550 OA
ENDBRANCH  21  22
ENDBRANCH  20  21
ENDBRANCH  19  20
ENDBRANCH  18  19
ENDBRANCH  17  18
ENDBRANCH  16  17
ENDBRANCH  15  16
ENDBRANCH  14  15
ENDBRANCH  13  14
ENDBRANCH   1  13
TORSDOF 20
ENDMDL
MODEL 6
REMARK VINA RESULT:    -3.268      3.014      6.472
REMARK INTER + INTRA:         -10.512
REMARK INTER:                  -7.207
REMARK INTRA:                  -3.305
REMARK UNBOUND:                -3.424
REMARK SMILES CCCCCCCCCCCCCCCCCCCCCC(=O)[O-]
REMARK SMILES IDX 12 1 11 2 10 3 9 4 8 5 7 6 6 7 5 8 4 9 3 10 2 11 1 12 13 13
REMARK SMILES IDX 14 14 15 15 16 16 17 17 18 18 19 19 20 20 21 21 22 22 23 23
REMARK SMILES IDX 24 24
REMARK H PARENT
REMARK Flexibility Score: inf
ROOT
ATOM      1  C   UNL     1     -95.931 146.828 238.069  1.00  0.00     0.000 C 
ENDROOT
BRANCH   1   2
ATOM      2  C   UNL     1     -95.135 147.902 237.309  1.00  0.00     0.000 C 
BRANCH   2   3
ATOM      3  C   UNL     1     -94.739 149.087 238.208  1.00  0.00     0.000 C 
BRANCH   3   4
ATOM      4  C   UNL     1     -94.691 150.420 237.437  1.00  0.00    -0.000 C 
BRANCH   4   5
ATOM      5  C   UNL     1     -95.185 150.274 235.983  1.00  0.00    -0.000 C 
BRANCH   5   6
ATOM      6  C   UNL     1     -96.057 151.449 235.498  1.00  0.00    -0.000 C 
BRANCH   6   7
ATOM      7  C   UNL     1     -96.453 152.458 236.589  1.00  0.00    -0.000 C 
BRANCH   7   8
ATOM      8  C   UNL     1     -97.898 152.960 236.438  1.00  0.00    -0.000 C 
BRANCH   8   9
ATOM      9  C   UNL     1     -98.885 152.034 237.167  1.00  0.00    -0.000 C 
BRANCH   9  10
ATOM     10  C   UNL     1     -98.319 151.484 238.491  1.00  0.00    -0.000 C 
BRANCH  10  11
ATOM     11  C   UNL     1     -98.276 149.947 238.584  1.00  0.00    -0.003 C 
ATOM     12  C   UNL     1     -98.661 149.259 237.273  1.00  0.00     0.004 C 
ENDBRANCH  10  11
ENDBRANCH   9  10
ENDBRANCH   8   9
ENDBRANCH   7   8
ENDBRANCH   6   7
ENDBRANCH   5   6
ENDBRANCH   4   5
ENDBRANCH   3   4
ENDBRANCH   2   3
ENDBRANCH   1   2
BRANCH   1  13
ATOM     13  C   UNL     1     -95.114 145.545 238.290  1.00  0.00     0.000 C 
BRANCH  13  14
ATOM     14  C   UNL     1     -93.632 145.722 237.904  1.00  0.00     0.000 C 
BRANCH  14  15
ATOM     15  C   UNL     1     -92.676 145.354 239.049  1.00  0.00     0.000 C 
BRANCH  15  16
ATOM     16  C   UNL     1     -93.277 145.638 240.433  1.00  0.00     0.000 C 
BRANCH  16  17
ATOM     17  C   UNL     1     -92.896 147.042 240.918  1.00  0.00     0.000 C 
BRANCH  17  18
ATOM     18  C   UNL     1     -93.804 147.493 242.071  1.00  0.00     0.000 C 
BRANCH  18  19
ATOM     19  C   UNL     1     -95.157 148.041 241.590  1.00  0.00     0.000 C 
BRANCH  19  20
ATOM     20  C   UNL     1     -95.991 148.767 242.664  1.00  0.00     0.006 C 
BRANCH  20  21
ATOM     21  C   UNL     1     -97.277 148.022 243.072  1.00  0.00     0.053 C 
BRANCH  21  22
ATOM     22  C   UNL     1     -97.092 147.183 244.301  1.00  0.00     0.041 C 
ATOM     23  O   UNL     1     -97.369 147.648 245.438  1.00  0.00    -0.550 OA
ATOM     24  O   UNL     1     -96.642 145.875 244.187  1.00  0.00    -0.550 OA
ENDBRANCH  21  22
ENDBRANCH  20  21
ENDBRANCH  19  20
ENDBRANCH  18  19
ENDBRANCH  17  18
ENDBRANCH  16  17
ENDBRANCH  15  16
ENDBRANCH  14  15
ENDBRANCH  13  14
ENDBRANCH   1  13
TORSDOF 20
ENDMDL
MODEL 7
REMARK VINA RESULT:    -3.252      1.244      2.395
REMARK INTER + INTRA:         -10.477
REMARK INTER:                  -7.277
REMARK INTRA:                  -3.200
REMARK UNBOUND:                -3.424
REMARK SMILES CCCCCCCCCCCCCCCCCCCCCC(=O)[O-]
REMARK SMILES IDX 12 1 11 2 10 3 9 4 8 5 7 6 6 7 5 8 4 9 3 10 2 11 1 12 13 13
REMARK SMILES IDX 14 14 15 15 16 16 17 17 18 18 19 19 20 20 21 21 22 22 23 23
REMARK SMILES IDX 24 24
REMARK H PARENT
REMARK Flexibility Score: inf
ROOT
ATOM      1  C   UNL     1     -92.414 145.235 239.183  1.00  0.00     0.000 C 
ENDROOT
BRANCH   1   2
ATOM      2  C   UNL     1     -92.502 145.711 240.643  1.00  0.00     0.000 C 
BRANCH   2   3
ATOM      3  C   UNL     1     -92.907 147.192 240.756  1.00  0.00     0.000 C 
BRANCH   3   4
ATOM      4  C   UNL     1     -93.659 147.498 242.064  1.00  0.00    -0.000 C 
BRANCH   4   5
ATOM      5  C   UNL     1     -94.695 146.409 242.413  1.00  0.00    -0.000 C 
BRANCH   5   6
ATOM      6  C   UNL     1     -96.095 146.962 242.748  1.00  0.00    -0.000 C 
BRANCH   6   7
ATOM      7  C   UNL     1     -96.296 148.455 242.434  1.00  0.00    -0.000 C 
BRANCH   7   8
ATOM      8  C   UNL     1     -97.664 148.748 241.797  1.00  0.00    -0.000 C 
BRANCH   8   9
ATOM      9  C   UNL     1     -98.524 149.632 242.716  1.00  0.00    -0.000 C 
BRANCH   9  10
ATOM     10  C   UNL     1     -99.098 148.859 243.920  1.00  0.00    -0.000 C 
BRANCH  10  11
ATOM     11  C   UNL     1     -98.569 149.318 245.291  1.00  0.00    -0.003 C 
ATOM     12  C   UNL     1     -97.655 148.285 245.954  1.00  0.00     0.004 C 
ENDBRANCH  10  11
ENDBRANCH   9  10
ENDBRANCH   8   9
ENDBRANCH   7   8
ENDBRANCH   6   7
ENDBRANCH   5   6
ENDBRANCH   4   5
ENDBRANCH   3   4
ENDBRANCH   2   3
ENDBRANCH   1   2
BRANCH   1  13
ATOM     13  C   UNL     1     -93.615 145.700 238.345  1.00  0.00     0.000 C 
BRANCH  13  14
ATOM     14  C   UNL     1     -94.933 145.043 238.799  1.00  0.00     0.000 C 
BRANCH  14  15
ATOM     15  C   UNL     1     -96.068 146.062 238.984  1.00  0.00     0.000 C 
BRANCH  15  16
ATOM     16  C   UNL     1     -96.018 147.194 237.948  1.00  0.00     0.000 C 
BRANCH  16  17
ATOM     17  C   UNL     1     -95.922 148.562 238.636  1.00  0.00     0.000 C 
BRANCH  17  18
ATOM     18  C   UNL     1     -94.688 149.337 238.152  1.00  0.00     0.000 C 
BRANCH  18  19
ATOM     19  C   UNL     1     -94.701 149.601 236.639  1.00  0.00     0.000 C 
BRANCH  19  20
ATOM     20  C   UNL     1     -95.705 150.672 236.167  1.00  0.00     0.006 C 
BRANCH  20  21
ATOM     21  C   UNL     1     -95.742 151.933 237.052  1.00  0.00     0.053 C 
BRANCH  21  22
ATOM     22  C   UNL     1     -97.133 152.295 237.481  1.00  0.00     0.041 C 
ATOM     23  O   UNL     1     -97.909 151.414 237.937  1.00  0.00    -0.550 OA
ATOM     24  O   UNL     1     -97.562 153.613 237.405  1.00  0.00    -0.550 OA
ENDBRANCH  21  22
ENDBRANCH  20  21
ENDBRANCH  19  20
ENDBRANCH  18  19
ENDBRANCH  17  18
ENDBRANCH  16  17
ENDBRANCH  15  16
ENDBRANCH  14  15
ENDBRANCH  13  14
ENDBRANCH   1  13
TORSDOF 20
ENDMDL
MODEL 8
REMARK VINA RESULT:    -3.235      2.471      6.595
REMARK INTER + INTRA:         -10.442
REMARK INTER:                  -7.382
REMARK INTRA:                  -3.060
REMARK UNBOUND:                -3.424
REMARK SMILES CCCCCCCCCCCCCCCCCCCCCC(=O)[O-]
REMARK SMILES IDX 12 1 11 2 10 3 9 4 8 5 7 6 6 7 5 8 4 9 3 10 2 11 1 12 13 13
REMARK SMILES IDX 14 14 15 15 16 16 17 17 18 18 19 19 20 20 21 21 22 22 23 23
REMARK SMILES IDX 24 24
REMARK H PARENT
REMARK Flexibility Score: inf
ROOT
ATOM      1  C   UNL     1     -93.389 146.644 236.100  1.00  0.00     0.000 C 
ENDROOT
BRANCH   1   2
ATOM      2  C   UNL     1     -94.699 147.395 236.392  1.00  0.00     0.000 C 
BRANCH   2   3
ATOM      3  C   UNL     1     -94.487 148.912 236.544  1.00  0.00     0.000 C 
BRANCH   3   4
ATOM      4  C   UNL     1     -94.948 149.435 237.917  1.00  0.00    -0.000 C 
BRANCH   4   5
ATOM      5  C   UNL     1     -96.119 148.612 238.495  1.00  0.00    -0.000 C 
BRANCH   5   6
ATOM      6  C   UNL     1     -97.451 149.384 238.568  1.00  0.00    -0.000 C 
BRANCH   6   7
ATOM      7  C   UNL     1     -98.347 149.255 237.324  1.00  0.00    -0.000 C 
BRANCH   7   8
ATOM      8  C   UNL     1     -98.530 150.588 236.583  1.00  0.00    -0.000 C 
BRANCH   8   9
ATOM      9  C   UNL     1     -97.457 150.769 235.496  1.00  0.00    -0.000 C 
BRANCH   9  10
ATOM     10  C   UNL     1     -96.795 152.160 235.539  1.00  0.00    -0.000 C 
BRANCH  10  11
ATOM     11  C   UNL     1     -96.205 152.552 236.906  1.00  0.00    -0.003 C 
ATOM     12  C   UNL     1     -96.812 153.837 237.472  1.00  0.00     0.004 C 
ENDBRANCH  10  11
ENDBRANCH   9  10
ENDBRANCH   8   9
ENDBRANCH   7   8
ENDBRANCH   6   7
ENDBRANCH   5   6
ENDBRANCH   4   5
ENDBRANCH   3   4
ENDBRANCH   2   3
ENDBRANCH   1   2
BRANCH   1  13
ATOM     13  C   UNL     1     -93.035 145.639 237.208  1.00  0.00     0.000 C 
BRANCH  13  14
ATOM     14  C   UNL     1     -94.088 145.613 238.332  1.00  0.00     0.000 C 
BRANCH  14  15
ATOM     15  C   UNL     1     -93.460 145.695 239.732  1.00  0.00     0.000 C 
BRANCH  15  16
ATOM     16  C   UNL     1     -93.247 147.142 240.199  1.00  0.00     0.000 C 
BRANCH  16  17
ATOM     17  C   UNL     1     -93.278 147.234 241.730  1.00  0.00     0.000 C 
BRANCH  17  18
ATOM     18  C   UNL     1     -94.099 146.086 242.334  1.00  0.00     0.000 C 
BRANCH  18  19
ATOM     19  C   UNL     1     -95.473 146.538 242.852  1.00  0.00     0.000 C 
BRANCH  19  20
ATOM     20  C   UNL     1     -96.089 147.745 242.116  1.00  0.00     0.006 C 
BRANCH  20  21
ATOM     21  C   UNL     1     -96.193 149.019 242.976  1.00  0.00     0.053 C 
BRANCH  21  22
ATOM     22  C   UNL     1     -97.427 149.041 243.827  1.00  0.00     0.041 C 
ATOM     23  O   UNL     1     -97.385 148.645 245.021  1.00  0.00    -0.550 OA
ATOM     24  O   UNL     1     -98.620 149.528 243.309  1.00  0.00    -0.550 OA
ENDBRANCH  21  22
ENDBRANCH  20  21
ENDBRANCH  19  20
ENDBRANCH  18  19
ENDBRANCH  17  18
ENDBRANCH  16  17
ENDBRANCH  15  16
ENDBRANCH  14  15
ENDBRANCH  13  14
ENDBRANCH   1  13
TORSDOF 20
ENDMDL
MODEL 9
REMARK VINA RESULT:    -3.190      2.172      5.299
REMARK INTER + INTRA:         -10.344
REMARK INTER:                  -6.530
REMARK INTRA:                  -3.814
REMARK UNBOUND:                -3.424
REMARK SMILES CCCCCCCCCCCCCCCCCCCCCC(=O)[O-]
REMARK SMILES IDX 12 1 11 2 10 3 9 4 8 5 7 6 6 7 5 8 4 9 3 10 2 11 1 12 13 13
REMARK SMILES IDX 14 14 15 15 16 16 17 17 18 18 19 19 20 20 21 21 22 22 23 23
REMARK SMILES IDX 24 24
REMARK H PARENT
REMARK Flexibility Score: inf
ROOT
ATOM      1  C   UNL     1     -94.886 149.711 236.021  1.00  0.00     0.000 C 
ENDROOT
BRANCH   1   2
ATOM      2  C   UNL     1     -94.750 150.097 237.504  1.00  0.00     0.000 C 
BRANCH   2   3
ATOM      3  C   UNL     1     -94.747 148.870 238.433  1.00  0.00     0.000 C 
BRANCH   3   4
ATOM      4  C   UNL     1     -94.599 147.546 237.658  1.00  0.00    -0.000 C 
BRANCH   4   5
ATOM      5  C   UNL     1     -95.459 146.416 238.260  1.00  0.00    -0.000 C 
BRANCH   5   6
ATOM      6  C   UNL     1     -94.652 145.369 239.052  1.00  0.00    -0.000 C 
BRANCH   6   7
ATOM      7  C   UNL     1     -93.141 145.647 239.145  1.00  0.00    -0.000 C 
BRANCH   7   8
ATOM      8  C   UNL     1     -92.637 145.710 240.595  1.00  0.00    -0.000 C 
BRANCH   8   9
ATOM      9  C   UNL     1     -92.899 147.093 241.213  1.00  0.00    -0.000 C 
BRANCH   9  10
ATOM     10  C   UNL     1     -94.078 147.088 242.206  1.00  0.00    -0.000 C 
BRANCH  10  11
ATOM     11  C   UNL     1     -95.071 148.252 242.033  1.00  0.00    -0.003 C 
ATOM     12  C   UNL     1     -96.462 147.790 241.593  1.00  0.00     0.004 C 
ENDBRANCH  10  11
ENDBRANCH   9  10
ENDBRANCH   8   9
ENDBRANCH   7   8
ENDBRANCH   6   7
ENDBRANCH   5   6
ENDBRANCH   4   5
ENDBRANCH   3   4
ENDBRANCH   2   3
ENDBRANCH   1   2
BRANCH   1  13
ATOM     13  C   UNL     1     -95.491 150.844 235.177  1.00  0.00     0.000 C 
BRANCH  13  14
ATOM     14  C   UNL     1     -96.939 150.541 234.744  1.00  0.00     0.000 C 
BRANCH  14  15
ATOM     15  C   UNL     1     -97.469 149.225 235.334  1.00  0.00     0.000 C 
BRANCH  15  16
ATOM     16  C   UNL     1     -98.657 149.441 236.283  1.00  0.00     0.000 C 
BRANCH  16  17
ATOM     17  C   UNL     1     -98.287 149.055 237.721  1.00  0.00     0.000 C 
BRANCH  17  18
ATOM     18  C   UNL     1     -98.326 150.278 238.647  1.00  0.00     0.000 C 
BRANCH  18  19
ATOM     19  C   UNL     1     -98.618 151.589 237.900  1.00  0.00     0.000 C 
BRANCH  19  20
ATOM     20  C   UNL     1     -97.427 152.561 237.787  1.00  0.00     0.006 C 
BRANCH  20  21
ATOM     21  C   UNL     1     -97.818 153.986 237.348  1.00  0.00     0.053 C 
BRANCH  21  22
ATOM     22  C   UNL     1     -98.291 154.040 235.925  1.00  0.00     0.041 C 
ATOM     23  O   UNL     1     -99.520 154.135 235.665  1.00  0.00    -0.550 OA
ATOM     24  O   UNL     1     -97.371 154.017 234.886  1.00  0.00    -0.550 OA
ENDBRANCH  21  22
ENDBRANCH  20  21
ENDBRANCH  19  20
ENDBRANCH  18  19
ENDBRANCH  17  18
ENDBRANCH  16  17
ENDBRANCH  15  16
ENDBRANCH  14  15
ENDBRANCH  13  14
ENDBRANCH   1  13
TORSDOF 20
ENDMDL
