MODEL 1
REMARK VINA RESULT:    -5.651      0.000      0.000
REMARK INTER + INTRA:          -7.307
REMARK INTER:                  -6.973
REMARK INTRA:                  -0.335
REMARK UNBOUND:                -0.335
REMARK SMILES Oc1cc(O)c2cc(O)c(-c3cc(O)c(O)c(O)c3)[o+]c2c1
REMARK SMILES IDX 10 1 20 2 21 3 22 4 2 5 3 6 4 7 6 8 7 9 8 10 11 11 12 12
REMARK SMILES IDX 13 13 19 14 15 15 17 16 14 17 16 19 18 21 9 23 1 25 5 27
REMARK H PARENT 14 18 16 20 18 22 9 24 1 26 5 28
REMARK Flexibility Score: inf
ROOT
ATOM      1  C   UNL     1      24.512   7.180 -21.867  1.00  0.00     0.402 A 
ATOM      2  O   UNL     1      23.999   6.702 -22.998  1.00  0.00    -0.202 OA
ATOM      3  C   UNL     1      24.624   6.769 -24.169  1.00  0.00     0.368 A 
ATOM      4  C   UNL     1      24.004   6.236 -25.301  1.00  0.00     0.162 A 
ATOM      5  C   UNL     1      24.640   6.290 -26.545  1.00  0.00     0.128 A 
ATOM      6  C   UNL     1      25.901   6.877 -26.655  1.00  0.00     0.093 A 
ATOM      7  C   UNL     1      26.545   7.419 -25.536  1.00  0.00     0.136 A 
ATOM      8  C   UNL     1      25.902   7.369 -24.271  1.00  0.00     0.125 A 
ATOM      9  C   UNL     1      26.464   7.896 -23.097  1.00  0.00     0.078 A 
ATOM     10  C   UNL     1      25.768   7.815 -21.888  1.00  0.00     0.223 A 
ENDROOT
BRANCH   1  11
ATOM     11  C   UNL     1      23.722   7.037 -20.623  1.00  0.00     0.091 A 
ATOM     12  C   UNL     1      22.993   8.134 -20.139  1.00  0.00     0.068 A 
ATOM     13  C   UNL     1      22.221   8.020 -18.975  1.00  0.00     0.162 A 
ATOM     14  C   UNL     1      23.638   5.808 -19.946  1.00  0.00     0.068 A 
ATOM     15  C   UNL     1      22.160   6.793 -18.293  1.00  0.00     0.200 A 
ATOM     16  C   UNL     1      22.866   5.688 -18.783  1.00  0.00     0.162 A 
BRANCH  13  17
ATOM     17  O   UNL     1      21.513   9.122 -18.495  1.00  0.00    -0.504 OA
ATOM     18  H   UNL     1      20.890   9.048 -17.700  1.00  0.00     0.293 HD
ENDBRANCH  13  17
BRANCH  15  19
ATOM     19  O   UNL     1      21.400   6.657 -17.131  1.00  0.00    -0.502 OA
ATOM     20  H   UNL     1      20.531   6.137 -17.112  1.00  0.00     0.293 HD
ENDBRANCH  15  19
BRANCH  16  21
ATOM     21  O   UNL     1      22.792   4.469 -18.110  1.00  0.00    -0.504 OA
ATOM     22  H   UNL     1      21.955   4.187 -17.614  1.00  0.00     0.293 HD
ENDBRANCH  16  21
ENDBRANCH   1  11
BRANCH  10  23
ATOM     23  O   UNL     1      26.304   8.383 -20.732  1.00  0.00    -0.500 OA
ATOM     24  H   UNL     1      27.304   8.422 -20.572  1.00  0.00     0.294 HD
ENDBRANCH  10  23
BRANCH   5  25
ATOM     25  O   UNL     1      24.027   5.761 -27.679  1.00  0.00    -0.507 OA
ATOM     26  H   UNL     1      24.511   5.709 -28.568  1.00  0.00     0.293 HD
ENDBRANCH   5  25
BRANCH   7  27
ATOM     27  O   UNL     1      27.808   7.986 -25.730  1.00  0.00    -0.507 OA
ATOM     28  H   UNL     1      27.975   8.852 -26.221  1.00  0.00     0.293 HD
ENDBRANCH   7  27
TORSDOF 7
ENDMDL
MODEL 2
REMARK VINA RESULT:    -5.534      1.310      7.284
REMARK INTER + INTRA:          -7.163
REMARK INTER:                  -6.940
REMARK INTRA:                  -0.224
REMARK UNBOUND:                -0.335
REMARK SMILES Oc1cc(O)c2cc(O)c(-c3cc(O)c(O)c(O)c3)[o+]c2c1
REMARK SMILES IDX 10 1 20 2 21 3 22 4 2 5 3 6 4 7 6 8 7 9 8 10 11 11 12 12
REMARK SMILES IDX 13 13 19 14 15 15 17 16 14 17 16 19 18 21 9 23 1 25 5 27
REMARK H PARENT 14 18 16 20 18 22 9 24 1 26 5 28
REMARK Flexibility Score: inf
ROOT
ATOM      1  C   UNL     1      24.260   5.834 -22.634  1.00  0.00     0.402 A 
ATOM      2  O   UNL     1      23.842   6.796 -21.817  1.00  0.00    -0.202 OA
ATOM      3  C   UNL     1      23.419   6.568 -20.577  1.00  0.00     0.368 A 
ATOM      4  C   UNL     1      23.001   7.646 -19.793  1.00  0.00     0.162 A 
ATOM      5  C   UNL     1      22.555   7.436 -18.485  1.00  0.00     0.128 A 
ATOM      6  C   UNL     1      22.529   6.143 -17.959  1.00  0.00     0.093 A 
ATOM      7  C   UNL     1      22.942   5.046 -18.724  1.00  0.00     0.136 A 
ATOM      8  C   UNL     1      23.393   5.253 -20.054  1.00  0.00     0.125 A 
ATOM      9  C   UNL     1      23.815   4.213 -20.898  1.00  0.00     0.078 A 
ATOM     10  C   UNL     1      24.241   4.495 -22.199  1.00  0.00     0.223 A 
ENDROOT
BRANCH   1  11
ATOM     11  C   UNL     1      24.716   6.215 -23.990  1.00  0.00     0.091 A 
ATOM     12  C   UNL     1      25.895   6.962 -24.137  1.00  0.00     0.068 A 
ATOM     13  C   UNL     1      26.360   7.319 -25.411  1.00  0.00     0.162 A 
ATOM     14  C   UNL     1      24.024   5.796 -25.140  1.00  0.00     0.068 A 
ATOM     15  C   UNL     1      25.650   6.914 -26.554  1.00  0.00     0.200 A 
ATOM     16  C   UNL     1      24.485   6.149 -26.415  1.00  0.00     0.162 A 
BRANCH  13  17
ATOM     17  O   UNL     1      27.525   8.074 -25.543  1.00  0.00    -0.504 OA
ATOM     18  H   UNL     1      27.567   8.883 -26.150  1.00  0.00     0.293 HD
ENDBRANCH  13  17
BRANCH  15  19
ATOM     19  O   UNL     1      26.092   7.260 -27.831  1.00  0.00    -0.502 OA
ATOM     20  H   UNL     1      25.500   7.745 -28.494  1.00  0.00     0.293 HD
ENDBRANCH  15  19
BRANCH  16  21
ATOM     21  O   UNL     1      23.791   5.738 -27.553  1.00  0.00    -0.504 OA
ATOM     22  H   UNL     1      24.175   5.865 -28.483  1.00  0.00     0.293 HD
ENDBRANCH  16  21
ENDBRANCH   1  11
BRANCH  10  23
ATOM     23  O   UNL     1      24.613   3.458 -23.054  1.00  0.00    -0.500 OA
ATOM     24  H   UNL     1      25.423   2.878 -22.868  1.00  0.00     0.294 HD
ENDBRANCH  10  23
BRANCH   5  25
ATOM     25  O   UNL     1      22.137   8.507 -17.697  1.00  0.00    -0.507 OA
ATOM     26  H   UNL     1      21.207   8.900 -17.787  1.00  0.00     0.293 HD
ENDBRANCH   5  25
BRANCH   7  27
ATOM     27  O   UNL     1      22.888   3.785 -18.123  1.00  0.00    -0.507 OA
ATOM     28  H   UNL     1      23.699   3.242 -17.862  1.00  0.00     0.293 HD
ENDBRANCH   7  27
TORSDOF 7
ENDMDL
MODEL 3
REMARK VINA RESULT:    -5.324      2.757      3.558
REMARK INTER + INTRA:          -6.904
REMARK INTER:                  -6.573
REMARK INTRA:                  -0.330
REMARK UNBOUND:                -0.335
REMARK SMILES Oc1cc(O)c2cc(O)c(-c3cc(O)c(O)c(O)c3)[o+]c2c1
REMARK SMILES IDX 10 1 20 2 21 3 22 4 2 5 3 6 4 7 6 8 7 9 8 10 11 11 12 12
REMARK SMILES IDX 13 13 19 14 15 15 17 16 14 17 16 19 18 21 9 23 1 25 5 27
REMARK H PARENT 14 18 16 20 18 22 9 24 1 26 5 28
REMARK Flexibility Score: inf
ROOT
ATOM      1  C   UNL     1      23.409   4.984 -22.656  1.00  0.00     0.402 A 
ATOM      2  O   UNL     1      22.353   4.392 -23.209  1.00  0.00    -0.202 OA
ATOM      3  C   UNL     1      22.399   3.761 -24.379  1.00  0.00     0.368 A 
ATOM      4  C   UNL     1      21.236   3.168 -24.876  1.00  0.00     0.162 A 
ATOM      5  C   UNL     1      21.256   2.495 -26.101  1.00  0.00     0.128 A 
ATOM      6  C   UNL     1      22.444   2.413 -26.829  1.00  0.00     0.093 A 
ATOM      7  C   UNL     1      23.624   2.998 -26.353  1.00  0.00     0.136 A 
ATOM      8  C   UNL     1      23.608   3.686 -25.111  1.00  0.00     0.125 A 
ATOM      9  C   UNL     1      24.737   4.313 -24.560  1.00  0.00     0.078 A 
ATOM     10  C   UNL     1      24.643   4.976 -23.334  1.00  0.00     0.223 A 
ENDROOT
BRANCH   1  11
ATOM     11  C   UNL     1      23.233   5.648 -21.345  1.00  0.00     0.091 A 
ATOM     12  C   UNL     1      23.100   7.043 -21.291  1.00  0.00     0.068 A 
ATOM     13  C   UNL     1      22.912   7.696 -20.064  1.00  0.00     0.162 A 
ATOM     14  C   UNL     1      23.139   4.905 -20.156  1.00  0.00     0.068 A 
ATOM     15  C   UNL     1      22.840   6.947 -18.878  1.00  0.00     0.200 A 
ATOM     16  C   UNL     1      22.950   5.552 -18.927  1.00  0.00     0.162 A 
BRANCH  13  17
ATOM     17  O   UNL     1      22.795   9.085 -20.022  1.00  0.00    -0.504 OA
ATOM     18  H   UNL     1      22.786   9.643 -20.866  1.00  0.00     0.293 HD
ENDBRANCH  13  17
BRANCH  15  19
ATOM     19  O   UNL     1      22.657   7.574 -17.645  1.00  0.00    -0.502 OA
ATOM     20  H   UNL     1      23.224   8.359 -17.349  1.00  0.00     0.293 HD
ENDBRANCH  15  19
BRANCH  16  21
ATOM     21  O   UNL     1      22.865   4.812 -17.747  1.00  0.00    -0.504 OA
ATOM     22  H   UNL     1      22.599   3.834 -17.753  1.00  0.00     0.293 HD
ENDBRANCH  16  21
ENDBRANCH   1  11
BRANCH  10  23
ATOM     23  O   UNL     1      25.751   5.642 -22.811  1.00  0.00    -0.500 OA
ATOM     24  H   UNL     1      25.676   6.250 -22.003  1.00  0.00     0.294 HD
ENDBRANCH  10  23
BRANCH   5  25
ATOM     25  O   UNL     1      20.100   1.901 -26.604  1.00  0.00    -0.507 OA
ATOM     26  H   UNL     1      19.925   0.909 -26.499  1.00  0.00     0.293 HD
ENDBRANCH   5  25
BRANCH   7  27
ATOM     27  O   UNL     1      24.771   2.869 -27.140  1.00  0.00    -0.507 OA
ATOM     28  H   UNL     1      24.779   2.913 -28.148  1.00  0.00     0.293 HD
ENDBRANCH   7  27
TORSDOF 7
ENDMDL
MODEL 4
REMARK VINA RESULT:    -5.233     16.213     17.672
REMARK INTER + INTRA:          -6.792
REMARK INTER:                  -6.478
REMARK INTRA:                  -0.314
REMARK UNBOUND:                -0.335
REMARK SMILES Oc1cc(O)c2cc(O)c(-c3cc(O)c(O)c(O)c3)[o+]c2c1
REMARK SMILES IDX 10 1 20 2 21 3 22 4 2 5 3 6 4 7 6 8 7 9 8 10 11 11 12 12
REMARK SMILES IDX 13 13 19 14 15 15 17 16 14 17 16 19 18 21 9 23 1 25 5 27
REMARK H PARENT 14 18 16 20 18 22 9 24 1 26 5 28
REMARK Flexibility Score: inf
ROOT
ATOM      1  C   UNL     1      31.708  -8.215 -27.262  1.00  0.00     0.402 A 
ATOM      2  O   UNL     1      30.528  -8.026 -27.850  1.00  0.00    -0.202 OA
ATOM      3  C   UNL     1      30.372  -7.959 -29.168  1.00  0.00     0.368 A 
ATOM      4  C   UNL     1      29.092  -7.761 -29.691  1.00  0.00     0.162 A 
ATOM      5  C   UNL     1      28.898  -7.690 -31.074  1.00  0.00     0.128 A 
ATOM      6  C   UNL     1      29.989  -7.818 -31.936  1.00  0.00     0.093 A 
ATOM      7  C   UNL     1      31.282  -8.017 -31.437  1.00  0.00     0.136 A 
ATOM      8  C   UNL     1      31.485  -8.087 -30.034  1.00  0.00     0.125 A 
ATOM      9  C   UNL     1      32.745  -8.272 -29.443  1.00  0.00     0.078 A 
ATOM     10  C   UNL     1      32.867  -8.326 -28.052  1.00  0.00     0.223 A 
ENDROOT
BRANCH   1  11
ATOM     11  C   UNL     1      31.751  -8.281 -25.784  1.00  0.00     0.091 A 
ATOM     12  C   UNL     1      31.476  -7.128 -25.033  1.00  0.00     0.068 A 
ATOM     13  C   UNL     1      31.490  -7.168 -23.632  1.00  0.00     0.162 A 
ATOM     14  C   UNL     1      32.006  -9.489 -25.113  1.00  0.00     0.068 A 
ATOM     15  C   UNL     1      31.767  -8.375 -22.969  1.00  0.00     0.200 A 
ATOM     16  C   UNL     1      32.021  -9.535 -23.712  1.00  0.00     0.162 A 
BRANCH  13  17
ATOM     17  O   UNL     1      31.229  -6.012 -22.897  1.00  0.00    -0.504 OA
ATOM     18  H   UNL     1      31.040  -6.046 -21.902  1.00  0.00     0.293 HD
ENDBRANCH  13  17
BRANCH  15  19
ATOM     19  O   UNL     1      31.790  -8.439 -21.576  1.00  0.00    -0.502 OA
ATOM     20  H   UNL     1      31.088  -8.941 -21.047  1.00  0.00     0.293 HD
ENDBRANCH  15  19
BRANCH  16  21
ATOM     21  O   UNL     1      32.282 -10.734 -23.050  1.00  0.00    -0.504 OA
ATOM     22  H   UNL     1      33.129 -11.263 -23.224  1.00  0.00     0.293 HD
ENDBRANCH  16  21
ENDBRANCH   1  11
BRANCH  10  23
ATOM     23  O   UNL     1      34.125  -8.459 -27.464  1.00  0.00    -0.500 OA
ATOM     24  H   UNL     1      34.233  -8.665 -26.477  1.00  0.00     0.294 HD
ENDBRANCH  10  23
BRANCH   5  25
ATOM     25  O   UNL     1      27.624  -7.493 -31.603  1.00  0.00    -0.507 OA
ATOM     26  H   UNL     1      27.098  -6.647 -31.417  1.00  0.00     0.293 HD
ENDBRANCH   5  25
BRANCH   7  27
ATOM     27  O   UNL     1      32.319  -8.139 -32.366  1.00  0.00    -0.507 OA
ATOM     28  H   UNL     1      33.127  -8.733 -32.245  1.00  0.00     0.293 HD
ENDBRANCH   7  27
TORSDOF 7
ENDMDL
MODEL 5
REMARK VINA RESULT:    -5.187     11.196     14.234
REMARK INTER + INTRA:          -6.735
REMARK INTER:                  -6.436
REMARK INTRA:                  -0.299
REMARK UNBOUND:                -0.335
REMARK SMILES Oc1cc(O)c2cc(O)c(-c3cc(O)c(O)c(O)c3)[o+]c2c1
REMARK SMILES IDX 10 1 20 2 21 3 22 4 2 5 3 6 4 7 6 8 7 9 8 10 11 11 12 12
REMARK SMILES IDX 13 13 19 14 15 15 17 16 14 17 16 19 18 21 9 23 1 25 5 27
REMARK H PARENT 14 18 16 20 18 22 9 24 1 26 5 28
REMARK Flexibility Score: inf
ROOT
ATOM      1  C   UNL     1      28.456  -3.704 -29.249  1.00  0.00     0.402 A 
ATOM      2  O   UNL     1      27.508  -2.798 -29.020  1.00  0.00    -0.202 OA
ATOM      3  C   UNL     1      27.757  -1.499 -28.890  1.00  0.00     0.368 A 
ATOM      4  C   UNL     1      26.694  -0.624 -28.652  1.00  0.00     0.162 A 
ATOM      5  C   UNL     1      26.925   0.748 -28.515  1.00  0.00     0.128 A 
ATOM      6  C   UNL     1      28.225   1.246 -28.617  1.00  0.00     0.093 A 
ATOM      7  C   UNL     1      29.309   0.391 -28.855  1.00  0.00     0.136 A 
ATOM      8  C   UNL     1      29.079  -1.003 -28.992  1.00  0.00     0.125 A 
ATOM      9  C   UNL     1      30.103  -1.936 -29.220  1.00  0.00     0.078 A 
ATOM     10  C   UNL     1      29.800  -3.295 -29.339  1.00  0.00     0.223 A 
ENDROOT
BRANCH   1  11
ATOM     11  C   UNL     1      28.052  -5.122 -29.384  1.00  0.00     0.091 A 
ATOM     12  C   UNL     1      27.521  -5.796 -28.274  1.00  0.00     0.068 A 
ATOM     13  C   UNL     1      27.112  -7.133 -28.380  1.00  0.00     0.162 A 
ATOM     14  C   UNL     1      28.136  -5.792 -30.616  1.00  0.00     0.068 A 
ATOM     15  C   UNL     1      27.218  -7.802 -29.610  1.00  0.00     0.200 A 
ATOM     16  C   UNL     1      27.727  -7.128 -30.728  1.00  0.00     0.162 A 
BRANCH  13  17
ATOM     17  O   UNL     1      26.599  -7.796 -27.266  1.00  0.00    -0.504 OA
ATOM     18  H   UNL     1      26.959  -8.696 -26.971  1.00  0.00     0.293 HD
ENDBRANCH  13  17
BRANCH  15  19
ATOM     19  O   UNL     1      26.820  -9.133 -29.739  1.00  0.00    -0.502 OA
ATOM     20  H   UNL     1      26.285  -9.607 -29.022  1.00  0.00     0.293 HD
ENDBRANCH  15  19
BRANCH  16  21
ATOM     21  O   UNL     1      27.818  -7.793 -31.951  1.00  0.00    -0.504 OA
ATOM     22  H   UNL     1      26.994  -8.010 -32.499  1.00  0.00     0.293 HD
ENDBRANCH  16  21
ENDBRANCH   1  11
BRANCH  10  23
ATOM     23  O   UNL     1      30.822  -4.228 -29.514  1.00  0.00    -0.500 OA
ATOM     24  H   UNL     1      30.887  -4.797 -30.350  1.00  0.00     0.294 HD
ENDBRANCH  10  23
BRANCH   5  25
ATOM     25  O   UNL     1      25.870   1.626 -28.278  1.00  0.00    -0.507 OA
ATOM     26  H   UNL     1      24.916   1.296 -28.191  1.00  0.00     0.293 HD
ENDBRANCH   5  25
BRANCH   7  27
ATOM     27  O   UNL     1      30.578   0.970 -28.947  1.00  0.00    -0.507 OA
ATOM     28  H   UNL     1      31.072   1.125 -29.813  1.00  0.00     0.293 HD
ENDBRANCH   7  27
TORSDOF 7
ENDMDL
MODEL 6
REMARK VINA RESULT:    -5.037     13.660     16.733
REMARK INTER + INTRA:          -6.550
REMARK INTER:                  -6.208
REMARK INTRA:                  -0.341
REMARK UNBOUND:                -0.335
REMARK SMILES Oc1cc(O)c2cc(O)c(-c3cc(O)c(O)c(O)c3)[o+]c2c1
REMARK SMILES IDX 10 1 20 2 21 3 22 4 2 5 3 6 4 7 6 8 7 9 8 10 11 11 12 12
REMARK SMILES IDX 13 13 19 14 15 15 17 16 14 17 16 19 18 21 9 23 1 25 5 27
REMARK H PARENT 14 18 16 20 18 22 9 24 1 26 5 28
REMARK Flexibility Score: inf
ROOT
ATOM      1  C   UNL     1      26.736  -6.534 -28.051  1.00  0.00     0.402 A 
ATOM      2  O   UNL     1      26.378  -7.372 -27.081  1.00  0.00    -0.202 OA
ATOM      3  C   UNL     1      25.424  -7.101 -26.197  1.00  0.00     0.368 A 
ATOM      4  C   UNL     1      25.118  -8.047 -25.216  1.00  0.00     0.162 A 
ATOM      5  C   UNL     1      24.116  -7.789 -24.275  1.00  0.00     0.128 A 
ATOM      6  C   UNL     1      23.418  -6.581 -24.317  1.00  0.00     0.093 A 
ATOM      7  C   UNL     1      23.706  -5.616 -25.290  1.00  0.00     0.136 A 
ATOM      8  C   UNL     1      24.723  -5.871 -26.245  1.00  0.00     0.125 A 
ATOM      9  C   UNL     1      25.088  -4.959 -27.249  1.00  0.00     0.078 A 
ATOM     10  C   UNL     1      26.105  -5.279 -28.152  1.00  0.00     0.223 A 
ENDROOT
BRANCH   1  11
ATOM     11  C   UNL     1      27.808  -6.955 -28.981  1.00  0.00     0.091 A 
ATOM     12  C   UNL     1      29.135  -6.999 -28.530  1.00  0.00     0.068 A 
ATOM     13  C   UNL     1      30.167  -7.414 -29.384  1.00  0.00     0.162 A 
ATOM     14  C   UNL     1      27.517  -7.367 -30.293  1.00  0.00     0.068 A 
ATOM     15  C   UNL     1      29.870  -7.804 -30.700  1.00  0.00     0.200 A 
ATOM     16  C   UNL     1      28.545  -7.784 -31.151  1.00  0.00     0.162 A 
BRANCH  13  17
ATOM     17  O   UNL     1      31.484  -7.440 -28.927  1.00  0.00    -0.504 OA
ATOM     18  H   UNL     1      32.258  -7.634 -29.551  1.00  0.00     0.293 HD
ENDBRANCH  13  17
BRANCH  15  19
ATOM     19  O   UNL     1      30.880  -8.218 -31.569  1.00  0.00    -0.502 OA
ATOM     20  H   UNL     1      31.708  -7.660 -31.739  1.00  0.00     0.293 HD
ENDBRANCH  15  19
BRANCH  16  21
ATOM     21  O   UNL     1      28.253  -8.186 -32.455  1.00  0.00    -0.504 OA
ATOM     22  H   UNL     1      28.366  -7.557 -33.241  1.00  0.00     0.293 HD
ENDBRANCH  16  21
ENDBRANCH   1  11
BRANCH  10  23
ATOM     23  O   UNL     1      26.502  -4.354 -29.117  1.00  0.00    -0.500 OA
ATOM     24  H   UNL     1      26.502  -3.357 -28.931  1.00  0.00     0.294 HD
ENDBRANCH  10  23
BRANCH   5  25
ATOM     25  O   UNL     1      23.806  -8.728 -23.293  1.00  0.00    -0.507 OA
ATOM     26  H   UNL     1      24.452  -9.467 -23.043  1.00  0.00     0.293 HD
ENDBRANCH   5  25
BRANCH   7  27
ATOM     27  O   UNL     1      22.959  -4.434 -25.265  1.00  0.00    -0.507 OA
ATOM     28  H   UNL     1      22.274  -4.178 -25.961  1.00  0.00     0.293 HD
ENDBRANCH   7  27
TORSDOF 7
ENDMDL
MODEL 7
REMARK VINA RESULT:    -5.001     13.681     16.734
REMARK INTER + INTRA:          -6.506
REMARK INTER:                  -6.191
REMARK INTRA:                  -0.315
REMARK UNBOUND:                -0.335
REMARK SMILES Oc1cc(O)c2cc(O)c(-c3cc(O)c(O)c(O)c3)[o+]c2c1
REMARK SMILES IDX 10 1 20 2 21 3 22 4 2 5 3 6 4 7 6 8 7 9 8 10 11 11 12 12
REMARK SMILES IDX 13 13 19 14 15 15 17 16 14 17 16 19 18 21 9 23 1 25 5 27
REMARK H PARENT 14 18 16 20 18 22 9 24 1 26 5 28
REMARK Flexibility Score: inf
ROOT
ATOM      1  C   UNL     1      26.735  -6.601 -27.987  1.00  0.00     0.402 A 
ATOM      2  O   UNL     1      26.350  -7.423 -27.014  1.00  0.00    -0.202 OA
ATOM      3  C   UNL     1      25.386  -7.127 -26.147  1.00  0.00     0.368 A 
ATOM      4  C   UNL     1      25.051  -8.058 -25.161  1.00  0.00     0.162 A 
ATOM      5  C   UNL     1      24.039  -7.775 -24.239  1.00  0.00     0.128 A 
ATOM      6  C   UNL     1      23.359  -6.558 -24.305  1.00  0.00     0.093 A 
ATOM      7  C   UNL     1      23.675  -5.608 -25.284  1.00  0.00     0.136 A 
ATOM      8  C   UNL     1      24.704  -5.889 -26.221  1.00  0.00     0.125 A 
ATOM      9  C   UNL     1      25.097  -4.994 -27.229  1.00  0.00     0.078 A 
ATOM     10  C   UNL     1      26.124  -5.339 -28.112  1.00  0.00     0.223 A 
ENDROOT
BRANCH   1  11
ATOM     11  C   UNL     1      27.815  -7.048 -28.895  1.00  0.00     0.091 A 
ATOM     12  C   UNL     1      27.502  -7.408 -30.214  1.00  0.00     0.068 A 
ATOM     13  C   UNL     1      28.508  -7.816 -31.101  1.00  0.00     0.162 A 
ATOM     14  C   UNL     1      29.158  -7.063 -28.482  1.00  0.00     0.068 A 
ATOM     15  C   UNL     1      29.846  -7.849 -30.673  1.00  0.00     0.200 A 
ATOM     16  C   UNL     1      30.169  -7.468 -29.365  1.00  0.00     0.162 A 
BRANCH  13  17
ATOM     17  O   UNL     1      28.183  -8.186 -32.406  1.00  0.00    -0.504 OA
ATOM     18  H   UNL     1      28.890  -8.273 -33.125  1.00  0.00     0.293 HD
ENDBRANCH  13  17
BRANCH  15  19
ATOM     19  O   UNL     1      30.864  -8.253 -31.537  1.00  0.00    -0.502 OA
ATOM     20  H   UNL     1      31.594  -7.622 -31.844  1.00  0.00     0.293 HD
ENDBRANCH  15  19
BRANCH  16  21
ATOM     21  O   UNL     1      31.500  -7.490 -28.949  1.00  0.00    -0.504 OA
ATOM     22  H   UNL     1      31.944  -6.672 -28.549  1.00  0.00     0.293 HD
ENDBRANCH  16  21
ENDBRANCH   1  11
BRANCH  10  23
ATOM     23  O   UNL     1      26.549  -4.430 -29.081  1.00  0.00    -0.500 OA
ATOM     24  H   UNL     1      27.232  -3.709 -28.873  1.00  0.00     0.294 HD
ENDBRANCH  10  23
BRANCH   5  25
ATOM     25  O   UNL     1      23.699  -8.699 -23.252  1.00  0.00    -0.507 OA
ATOM     26  H   UNL     1      22.900  -8.557 -22.645  1.00  0.00     0.293 HD
ENDBRANCH   5  25
BRANCH   7  27
ATOM     27  O   UNL     1      22.945  -4.416 -25.285  1.00  0.00    -0.507 OA
ATOM     28  H   UNL     1      21.972  -4.343 -25.544  1.00  0.00     0.293 HD
ENDBRANCH   7  27
TORSDOF 7
ENDMDL
MODEL 8
REMARK VINA RESULT:    -4.988     11.561     14.799
REMARK INTER + INTRA:          -6.489
REMARK INTER:                  -6.185
REMARK INTRA:                  -0.304
REMARK UNBOUND:                -0.335
REMARK SMILES Oc1cc(O)c2cc(O)c(-c3cc(O)c(O)c(O)c3)[o+]c2c1
REMARK SMILES IDX 10 1 20 2 21 3 22 4 2 5 3 6 4 7 6 8 7 9 8 10 11 11 12 12
REMARK SMILES IDX 13 13 19 14 15 15 17 16 14 17 16 19 18 21 9 23 1 25 5 27
REMARK H PARENT 14 18 16 20 18 22 9 24 1 26 5 28
REMARK Flexibility Score: inf
ROOT
ATOM      1  C   UNL     1      28.010  -4.340 -28.593  1.00  0.00     0.402 A 
ATOM      2  O   UNL     1      27.556  -3.192 -29.091  1.00  0.00    -0.202 OA
ATOM      3  C   UNL     1      27.397  -2.092 -28.361  1.00  0.00     0.368 A 
ATOM      4  C   UNL     1      26.917  -0.934 -28.975  1.00  0.00     0.162 A 
ATOM      5  C   UNL     1      26.743   0.239 -28.233  1.00  0.00     0.128 A 
ATOM      6  C   UNL     1      27.054   0.251 -26.872  1.00  0.00     0.093 A 
ATOM      7  C   UNL     1      27.537  -0.897 -26.232  1.00  0.00     0.136 A 
ATOM      8  C   UNL     1      27.712  -2.090 -26.981  1.00  0.00     0.125 A 
ATOM      9  C   UNL     1      28.179  -3.291 -26.423  1.00  0.00     0.078 A 
ATOM     10  C   UNL     1      28.321  -4.428 -27.223  1.00  0.00     0.223 A 
ENDROOT
BRANCH   1  11
ATOM     11  C   UNL     1      28.152  -5.494 -29.510  1.00  0.00     0.091 A 
ATOM     12  C   UNL     1      29.234  -5.537 -30.402  1.00  0.00     0.068 A 
ATOM     13  C   UNL     1      29.403  -6.628 -31.266  1.00  0.00     0.162 A 
ATOM     14  C   UNL     1      27.257  -6.576 -29.467  1.00  0.00     0.068 A 
ATOM     15  C   UNL     1      28.491  -7.696 -31.231  1.00  0.00     0.200 A 
ATOM     16  C   UNL     1      27.422  -7.670 -30.328  1.00  0.00     0.162 A 
BRANCH  13  17
ATOM     17  O   UNL     1      30.474  -6.652 -32.159  1.00  0.00    -0.504 OA
ATOM     18  H   UNL     1      31.152  -7.405 -32.154  1.00  0.00     0.293 HD
ENDBRANCH  13  17
BRANCH  15  19
ATOM     19  O   UNL     1      28.638  -8.791 -32.084  1.00  0.00    -0.502 OA
ATOM     20  H   UNL     1      29.179  -9.607 -31.827  1.00  0.00     0.293 HD
ENDBRANCH  15  19
BRANCH  16  21
ATOM     21  O   UNL     1      26.527  -8.739 -30.287  1.00  0.00    -0.504 OA
ATOM     22  H   UNL     1      25.608  -8.677 -30.707  1.00  0.00     0.293 HD
ENDBRANCH  16  21
ENDBRANCH   1  11
BRANCH  10  23
ATOM     23  O   UNL     1      28.737  -5.634 -26.659  1.00  0.00    -0.500 OA
ATOM     24  H   UNL     1      29.566  -5.693 -26.078  1.00  0.00     0.294 HD
ENDBRANCH  10  23
BRANCH   5  25
ATOM     25  O   UNL     1      26.264   1.398 -28.839  1.00  0.00    -0.507 OA
ATOM     26  H   UNL     1      25.990   1.412 -29.814  1.00  0.00     0.293 HD
ENDBRANCH   5  25
BRANCH   7  27
ATOM     27  O   UNL     1      27.827  -0.801 -24.868  1.00  0.00    -0.507 OA
ATOM     28  H   UNL     1      27.942   0.069 -24.369  1.00  0.00     0.293 HD
ENDBRANCH   7  27
TORSDOF 7
ENDMDL
MODEL 9
REMARK VINA RESULT:    -4.896     12.601     14.493
REMARK INTER + INTRA:          -6.376
REMARK INTER:                  -6.236
REMARK INTRA:                  -0.140
REMARK UNBOUND:                -0.335
REMARK SMILES Oc1cc(O)c2cc(O)c(-c3cc(O)c(O)c(O)c3)[o+]c2c1
REMARK SMILES IDX 10 1 20 2 21 3 22 4 2 5 3 6 4 7 6 8 7 9 8 10 11 11 12 12
REMARK SMILES IDX 13 13 19 14 15 15 17 16 14 17 16 19 18 21 9 23 1 25 5 27
REMARK H PARENT 14 18 16 20 18 22 9 24 1 26 5 28
REMARK Flexibility Score: inf
ROOT
ATOM      1  C   UNL     1      26.635  -5.219 -28.524  1.00  0.00     0.402 A 
ATOM      2  O   UNL     1      26.760  -6.342 -29.227  1.00  0.00    -0.202 OA
ATOM      3  C   UNL     1      27.753  -6.560 -30.084  1.00  0.00     0.368 A 
ATOM      4  C   UNL     1      27.799  -7.773 -30.774  1.00  0.00     0.162 A 
ATOM      5  C   UNL     1      28.834  -8.032 -31.679  1.00  0.00     0.128 A 
ATOM      6  C   UNL     1      29.826  -7.073 -31.890  1.00  0.00     0.093 A 
ATOM      7  C   UNL     1      29.803  -5.849 -31.210  1.00  0.00     0.136 A 
ATOM      8  C   UNL     1      28.753  -5.581 -30.294  1.00  0.00     0.125 A 
ATOM      9  C   UNL     1      28.642  -4.379 -29.577  1.00  0.00     0.078 A 
ATOM     10  C   UNL     1      27.575  -4.185 -28.695  1.00  0.00     0.223 A 
ENDROOT
BRANCH   1  11
ATOM     11  C   UNL     1      25.489  -5.097 -27.595  1.00  0.00     0.091 A 
ATOM     12  C   UNL     1      24.556  -4.066 -27.781  1.00  0.00     0.068 A 
ATOM     13  C   UNL     1      23.451  -3.940 -26.928  1.00  0.00     0.162 A 
ATOM     14  C   UNL     1      25.282  -6.028 -26.563  1.00  0.00     0.068 A 
ATOM     15  C   UNL     1      23.264  -4.863 -25.885  1.00  0.00     0.200 A 
ATOM     16  C   UNL     1      24.178  -5.909 -25.708  1.00  0.00     0.162 A 
BRANCH  13  17
ATOM     17  O   UNL     1      22.539  -2.902 -27.114  1.00  0.00    -0.504 OA
ATOM     18  H   UNL     1      21.595  -3.076 -27.439  1.00  0.00     0.293 HD
ENDBRANCH  13  17
BRANCH  15  19
ATOM     19  O   UNL     1      22.173  -4.757 -25.022  1.00  0.00    -0.502 OA
ATOM     20  H   UNL     1      21.749  -3.866 -24.795  1.00  0.00     0.293 HD
ENDBRANCH  15  19
BRANCH  16  21
ATOM     21  O   UNL     1      23.981  -6.830 -24.680  1.00  0.00    -0.504 OA
ATOM     22  H   UNL     1      24.721  -7.450 -24.374  1.00  0.00     0.293 HD
ENDBRANCH  16  21
ENDBRANCH   1  11
BRANCH  10  23
ATOM     23  O   UNL     1      27.436  -2.972 -28.020  1.00  0.00    -0.500 OA
ATOM     24  H   UNL     1      28.068  -2.196 -28.182  1.00  0.00     0.294 HD
ENDBRANCH  10  23
BRANCH   5  25
ATOM     25  O   UNL     1      28.886  -9.240 -32.371  1.00  0.00    -0.507 OA
ATOM     26  H   UNL     1      28.152  -9.515 -33.013  1.00  0.00     0.293 HD
ENDBRANCH   5  25
BRANCH   7  27
ATOM     27  O   UNL     1      30.836  -4.945 -31.476  1.00  0.00    -0.507 OA
ATOM     28  H   UNL     1      31.602  -4.754 -30.847  1.00  0.00     0.293 HD
ENDBRANCH   7  27
TORSDOF 7
ENDMDL
