MODEL 1
REMARK VINA RESULT:    -5.906      0.000      0.000
REMARK INTER + INTRA:          -6.468
REMARK INTER:                  -6.423
REMARK INTRA:                  -0.045
REMARK UNBOUND:                -0.045
REMARK SMILES COc1cc2ccc(=O)oc2cc1O
REMARK SMILES IDX 3 1 13 2 12 3 11 4 5 5 4 6 6 7 7 8 8 9 9 10 10 11 2 12 1 13
REMARK SMILES IDX 14 14
REMARK H PARENT 14 15
REMARK Flexibility Score: inf
ROOT
ATOM      1  C   UNL     1       4.841  12.605  16.972  1.00  0.00     0.161 A 
ATOM      2  C   UNL     1       4.572  13.494  15.912  1.00  0.00     0.161 A 
ATOM      3  C   UNL     1       5.367  14.632  15.729  1.00  0.00     0.098 A 
ATOM      4  C   UNL     1       6.433  14.896  16.591  1.00  0.00     0.142 A 
ATOM      5  C   UNL     1       6.710  14.013  17.654  1.00  0.00     0.022 A 
ATOM      6  C   UNL     1       5.917  12.872  17.843  1.00  0.00     0.062 A 
ATOM      7  C   UNL     1       7.784  14.305  18.501  1.00  0.00     0.019 A 
ATOM      8  C   UNL     1       8.545  15.451  18.272  1.00  0.00     0.094 A 
ATOM      9  C   UNL     1       8.210  16.282  17.197  1.00  0.00     0.336 A 
ATOM     10  O   UNL     1       8.884  17.322  16.973  1.00  0.00    -0.246 OA
ATOM     11  O   UNL     1       7.183  15.981  16.407  1.00  0.00    -0.423 OA
ENDROOT
BRANCH   1  12
ATOM     12  O   UNL     1       4.024  11.474  17.128  1.00  0.00    -0.493 OA
ATOM     13  C   UNL     1       4.431  10.262  17.755  1.00  0.00     0.278 C 
ENDBRANCH   1  12
BRANCH   2  14
ATOM     14  O   UNL     1       3.516  13.264  15.030  1.00  0.00    -0.504 OA
ATOM     15  H   UNL     1       3.090  12.351  14.925  1.00  0.00     0.293 HD
ENDBRANCH   2  14
TORSDOF 2
ENDMDL
MODEL 2
REMARK VINA RESULT:    -5.720      3.700      4.675
REMARK INTER + INTRA:          -6.266
REMARK INTER:                  -6.222
REMARK INTRA:                  -0.044
REMARK UNBOUND:                -0.045
REMARK SMILES COc1cc2ccc(=O)oc2cc1O
REMARK SMILES IDX 3 1 13 2 12 3 11 4 5 5 4 6 6 7 7 8 8 9 9 10 10 11 2 12 1 13
REMARK SMILES IDX 14 14
REMARK H PARENT 14 15
REMARK Flexibility Score: inf
ROOT
ATOM      1  C   UNL     1       7.693  15.495  19.801  1.00  0.00     0.161 A 
ATOM      2  C   UNL     1       8.277  14.974  18.630  1.00  0.00     0.161 A 
ATOM      3  C   UNL     1       8.793  15.837  17.657  1.00  0.00     0.098 A 
ATOM      4  C   UNL     1       8.735  17.220  17.836  1.00  0.00     0.142 A 
ATOM      5  C   UNL     1       8.153  17.752  19.004  1.00  0.00     0.022 A 
ATOM      6  C   UNL     1       7.634  16.892  19.982  1.00  0.00     0.062 A 
ATOM      7  C   UNL     1       8.109  19.142  19.155  1.00  0.00     0.019 A 
ATOM      8  C   UNL     1       8.638  19.956  18.154  1.00  0.00     0.094 A 
ATOM      9  C   UNL     1       9.201  19.357  17.021  1.00  0.00     0.336 A 
ATOM     10  O   UNL     1       9.684  20.075  16.106  1.00  0.00    -0.246 OA
ATOM     11  O   UNL     1       9.229  18.033  16.903  1.00  0.00    -0.423 OA
ENDROOT
BRANCH   1  12
ATOM     12  O   UNL     1       7.184  14.601  20.758  1.00  0.00    -0.493 OA
ATOM     13  C   UNL     1       6.953  14.925  22.125  1.00  0.00     0.278 C 
ENDBRANCH   1  12
BRANCH   2  14
ATOM     14  O   UNL     1       8.353  13.598  18.415  1.00  0.00    -0.504 OA
ATOM     15  H   UNL     1       7.693  12.949  18.826  1.00  0.00     0.293 HD
ENDBRANCH   2  14
TORSDOF 2
ENDMDL
MODEL 3
REMARK VINA RESULT:    -5.714      3.683      5.237
REMARK INTER + INTRA:          -6.260
REMARK INTER:                  -6.211
REMARK INTRA:                  -0.049
REMARK UNBOUND:                -0.045
REMARK SMILES COc1cc2ccc(=O)oc2cc1O
REMARK SMILES IDX 3 1 13 2 12 3 11 4 5 5 4 6 6 7 7 8 8 9 9 10 10 11 2 12 1 13
REMARK SMILES IDX 14 14
REMARK H PARENT 14 15
REMARK Flexibility Score: inf
ROOT
ATOM      1  C   UNL     1       7.684  15.279  19.267  1.00  0.00     0.161 A 
ATOM      2  C   UNL     1       7.377  15.314  20.642  1.00  0.00     0.161 A 
ATOM      3  C   UNL     1       7.317  16.537  21.319  1.00  0.00     0.098 A 
ATOM      4  C   UNL     1       7.559  17.733  20.642  1.00  0.00     0.142 A 
ATOM      5  C   UNL     1       7.867  17.710  19.266  1.00  0.00     0.022 A 
ATOM      6  C   UNL     1       7.929  16.487  18.583  1.00  0.00     0.062 A 
ATOM      7  C   UNL     1       8.106  18.925  18.615  1.00  0.00     0.019 A 
ATOM      8  C   UNL     1       8.032  20.115  19.338  1.00  0.00     0.094 A 
ATOM      9  C   UNL     1       7.721  20.061  20.701  1.00  0.00     0.336 A 
ATOM     10  O   UNL     1       7.649  21.125  21.372  1.00  0.00    -0.246 OA
ATOM     11  O   UNL     1       7.499  18.892  21.296  1.00  0.00    -0.423 OA
ENDROOT
BRANCH   1  12
ATOM     12  O   UNL     1       7.737  14.035  18.618  1.00  0.00    -0.493 OA
ATOM     13  C   UNL     1       6.624  13.398  17.999  1.00  0.00     0.278 C 
ENDBRANCH   1  12
BRANCH   2  14
ATOM     14  O   UNL     1       7.128  14.140  21.353  1.00  0.00    -0.504 OA
ATOM     15  H   UNL     1       6.229  13.674  21.329  1.00  0.00     0.293 HD
ENDBRANCH   2  14
TORSDOF 2
ENDMDL
MODEL 4
REMARK VINA RESULT:    -5.712      3.517      6.147
REMARK INTER + INTRA:          -6.258
REMARK INTER:                  -6.210
REMARK INTRA:                  -0.048
REMARK UNBOUND:                -0.045
REMARK SMILES COc1cc2ccc(=O)oc2cc1O
REMARK SMILES IDX 3 1 13 2 12 3 11 4 5 5 4 6 6 7 7 8 8 9 9 10 10 11 2 12 1 13
REMARK SMILES IDX 14 14
REMARK H PARENT 14 15
REMARK Flexibility Score: inf
ROOT
ATOM      1  C   UNL     1       8.214  19.148  18.698  1.00  0.00     0.161 A 
ATOM      2  C   UNL     1       8.742  18.742  17.456  1.00  0.00     0.161 A 
ATOM      3  C   UNL     1       8.869  17.381  17.156  1.00  0.00     0.098 A 
ATOM      4  C   UNL     1       8.473  16.413  18.080  1.00  0.00     0.142 A 
ATOM      5  C   UNL     1       7.942  16.808  19.326  1.00  0.00     0.022 A 
ATOM      6  C   UNL     1       7.814  18.170  19.632  1.00  0.00     0.062 A 
ATOM      7  C   UNL     1       7.555  15.815  20.231  1.00  0.00     0.019 A 
ATOM      8  C   UNL     1       7.702  14.474  19.881  1.00  0.00     0.094 A 
ATOM      9  C   UNL     1       8.236  14.156  18.627  1.00  0.00     0.336 A 
ATOM     10  O   UNL     1       8.377  12.950  18.292  1.00  0.00    -0.246 OA
ATOM     11  O   UNL     1       8.597  15.120  17.784  1.00  0.00    -0.423 OA
ENDROOT
BRANCH   1  12
ATOM     12  O   UNL     1       8.101  20.521  18.967  1.00  0.00    -0.493 OA
ATOM     13  C   UNL     1       7.013  21.122  19.663  1.00  0.00     0.278 C 
ENDBRANCH   1  12
BRANCH   2  14
ATOM     14  O   UNL     1       9.148  19.679  16.506  1.00  0.00    -0.504 OA
ATOM     15  H   UNL     1       9.180  19.467  15.517  1.00  0.00     0.293 HD
ENDBRANCH   2  14
TORSDOF 2
ENDMDL
MODEL 5
REMARK VINA RESULT:    -5.661      3.992      6.502
REMARK INTER + INTRA:          -6.203
REMARK INTER:                  -6.159
REMARK INTRA:                  -0.043
REMARK UNBOUND:                -0.045
REMARK SMILES COc1cc2ccc(=O)oc2cc1O
REMARK SMILES IDX 3 1 13 2 12 3 11 4 5 5 4 6 6 7 7 8 8 9 9 10 10 11 2 12 1 13
REMARK SMILES IDX 14 14
REMARK H PARENT 14 15
REMARK Flexibility Score: inf
ROOT
ATOM      1  C   UNL     1       8.666  18.938  18.214  1.00  0.00     0.161 A 
ATOM      2  C   UNL     1       7.982  19.193  19.419  1.00  0.00     0.161 A 
ATOM      3  C   UNL     1       7.551  18.131  20.223  1.00  0.00     0.098 A 
ATOM      4  C   UNL     1       7.796  16.811  19.841  1.00  0.00     0.142 A 
ATOM      5  C   UNL     1       8.480  16.545  18.638  1.00  0.00     0.022 A 
ATOM      6  C   UNL     1       8.913  17.604  17.828  1.00  0.00     0.062 A 
ATOM      7  C   UNL     1       8.710  15.211  18.282  1.00  0.00     0.019 A 
ATOM      8  C   UNL     1       8.260  14.192  19.120  1.00  0.00     0.094 A 
ATOM      9  C   UNL     1       7.588  14.532  20.299  1.00  0.00     0.336 A 
ATOM     10  O   UNL     1       7.174  13.626  21.070  1.00  0.00    -0.246 OA
ATOM     11  O   UNL     1       7.382  15.808  20.614  1.00  0.00    -0.423 OA
ENDROOT
BRANCH   1  12
ATOM     12  O   UNL     1       9.084  20.026  17.431  1.00  0.00    -0.493 OA
ATOM     13  C   UNL     1       9.744  19.912  16.174  1.00  0.00     0.278 C 
ENDBRANCH   1  12
BRANCH   2  14
ATOM     14  O   UNL     1       7.719  20.499  19.834  1.00  0.00    -0.504 OA
ATOM     15  H   UNL     1       8.458  21.153  20.061  1.00  0.00     0.293 HD
ENDBRANCH   2  14
TORSDOF 2
ENDMDL
MODEL 6
REMARK VINA RESULT:    -5.495      2.010      4.674
REMARK INTER + INTRA:          -6.022
REMARK INTER:                  -5.961
REMARK INTRA:                  -0.061
REMARK UNBOUND:                -0.045
REMARK SMILES COc1cc2ccc(=O)oc2cc1O
REMARK SMILES IDX 3 1 13 2 12 3 11 4 5 5 4 6 6 7 7 8 8 9 9 10 10 11 2 12 1 13
REMARK SMILES IDX 14 14
REMARK H PARENT 14 15
REMARK Flexibility Score: inf
ROOT
ATOM      1  C   UNL     1       7.295  14.882  19.641  1.00  0.00     0.161 A 
ATOM      2  C   UNL     1       7.343  15.908  18.677  1.00  0.00     0.161 A 
ATOM      3  C   UNL     1       6.728  15.734  17.432  1.00  0.00     0.098 A 
ATOM      4  C   UNL     1       6.061  14.545  17.133  1.00  0.00     0.142 A 
ATOM      5  C   UNL     1       6.007  13.511  18.091  1.00  0.00     0.022 A 
ATOM      6  C   UNL     1       6.622  13.680  19.340  1.00  0.00     0.062 A 
ATOM      7  C   UNL     1       5.332  12.331  17.762  1.00  0.00     0.019 A 
ATOM      8  C   UNL     1       4.736  12.210  16.508  1.00  0.00     0.094 A 
ATOM      9  C   UNL     1       4.830  13.278  15.607  1.00  0.00     0.336 A 
ATOM     10  O   UNL     1       4.298  13.188  14.469  1.00  0.00    -0.246 OA
ATOM     11  O   UNL     1       5.478  14.389  15.946  1.00  0.00    -0.423 OA
ENDROOT
BRANCH   1  12
ATOM     12  O   UNL     1       7.924  15.089  20.880  1.00  0.00    -0.493 OA
ATOM     13  C   UNL     1       7.241  15.197  22.125  1.00  0.00     0.278 C 
ENDBRANCH   1  12
BRANCH   2  14
ATOM     14  O   UNL     1       7.999  17.111  18.939  1.00  0.00    -0.504 OA
ATOM     15  H   UNL     1       9.007  17.171  19.017  1.00  0.00     0.293 HD
ENDBRANCH   2  14
TORSDOF 2
ENDMDL
MODEL 7
REMARK VINA RESULT:    -5.453      1.592      5.392
REMARK INTER + INTRA:          -5.976
REMARK INTER:                  -5.920
REMARK INTRA:                  -0.057
REMARK UNBOUND:                -0.045
REMARK SMILES COc1cc2ccc(=O)oc2cc1O
REMARK SMILES IDX 3 1 13 2 12 3 11 4 5 5 4 6 6 7 7 8 8 9 9 10 10 11 2 12 1 13
REMARK SMILES IDX 14 14
REMARK H PARENT 14 15
REMARK Flexibility Score: inf
ROOT
ATOM      1  C   UNL     1       6.970  16.255  17.985  1.00  0.00     0.161 A 
ATOM      2  C   UNL     1       7.098  15.490  19.161  1.00  0.00     0.161 A 
ATOM      3  C   UNL     1       6.581  14.191  19.216  1.00  0.00     0.098 A 
ATOM      4  C   UNL     1       5.936  13.639  18.109  1.00  0.00     0.142 A 
ATOM      5  C   UNL     1       5.802  14.396  16.926  1.00  0.00     0.022 A 
ATOM      6  C   UNL     1       6.318  15.698  16.866  1.00  0.00     0.062 A 
ATOM      7  C   UNL     1       5.150  13.816  15.834  1.00  0.00     0.019 A 
ATOM      8  C   UNL     1       4.654  12.517  15.942  1.00  0.00     0.094 A 
ATOM      9  C   UNL     1       4.823  11.826  17.147  1.00  0.00     0.336 A 
ATOM     10  O   UNL     1       4.383  10.652  17.266  1.00  0.00    -0.246 OA
ATOM     11  O   UNL     1       5.447  12.401  18.172  1.00  0.00    -0.423 OA
ENDROOT
BRANCH   1  12
ATOM     12  O   UNL     1       7.500  17.555  17.963  1.00  0.00    -0.493 OA
ATOM     13  C   UNL     1       8.815  17.886  17.528  1.00  0.00     0.278 C 
ENDBRANCH   1  12
BRANCH   2  14
ATOM     14  O   UNL     1       7.737  16.006  20.289  1.00  0.00    -0.504 OA
ATOM     15  H   UNL     1       8.236  16.888  20.271  1.00  0.00     0.293 HD
ENDBRANCH   2  14
TORSDOF 2
ENDMDL
MODEL 8
REMARK VINA RESULT:    -5.361      1.951      3.005
REMARK INTER + INTRA:          -5.876
REMARK INTER:                  -5.811
REMARK INTRA:                  -0.065
REMARK UNBOUND:                -0.045
REMARK SMILES COc1cc2ccc(=O)oc2cc1O
REMARK SMILES IDX 3 1 13 2 12 3 11 4 5 5 4 6 6 7 7 8 8 9 9 10 10 11 2 12 1 13
REMARK SMILES IDX 14 14
REMARK H PARENT 14 15
REMARK Flexibility Score: inf
ROOT
ATOM      1  C   UNL     1       4.090  14.687  16.373  1.00  0.00     0.161 A 
ATOM      2  C   UNL     1       4.200  13.459  17.054  1.00  0.00     0.161 A 
ATOM      3  C   UNL     1       5.283  13.223  17.908  1.00  0.00     0.098 A 
ATOM      4  C   UNL     1       6.262  14.200  18.096  1.00  0.00     0.142 A 
ATOM      5  C   UNL     1       6.161  15.432  17.419  1.00  0.00     0.022 A 
ATOM      6  C   UNL     1       5.079  15.674  16.561  1.00  0.00     0.062 A 
ATOM      7  C   UNL     1       7.158  16.391  17.627  1.00  0.00     0.019 A 
ATOM      8  C   UNL     1       8.215  16.104  18.489  1.00  0.00     0.094 A 
ATOM      9  C   UNL     1       8.250  14.858  19.127  1.00  0.00     0.336 A 
ATOM     10  O   UNL     1       9.196  14.580  19.910  1.00  0.00    -0.246 OA
ATOM     11  O   UNL     1       7.289  13.965  18.912  1.00  0.00    -0.423 OA
ENDROOT
BRANCH   1  12
ATOM     12  O   UNL     1       2.991  14.892  15.522  1.00  0.00    -0.493 OA
ATOM     13  C   UNL     1       1.855  15.686  15.846  1.00  0.00     0.278 C 
ENDBRANCH   1  12
BRANCH   2  14
ATOM     14  O   UNL     1       3.242  12.458  16.893  1.00  0.00    -0.504 OA
ATOM     15  H   UNL     1       2.257  12.667  16.777  1.00  0.00     0.293 HD
ENDBRANCH   2  14
TORSDOF 2
ENDMDL
