MODEL 1
REMARK VINA RESULT:    -4.087      0.000      0.000
REMARK INTER + INTRA:          -9.646
REMARK INTER:                  -7.432
REMARK INTRA:                  -2.214
REMARK UNBOUND:                -2.214
REMARK SMILES CCCCCCCCCCCCCCCC(=O)[O-]
REMARK SMILES IDX 9 1 10 2 11 3 12 4 13 5 14 6 15 7 16 8 17 9 18 10 8 11 7 12
REMARK SMILES IDX 6 13 5 14 4 15 3 16 2 17 1 18
REMARK H PARENT
REMARK Flexibility Score: inf
ROOT
ATOM      1  C   UNL     1      -9.043  -3.504   5.668  1.00  0.00     0.000 C 
ENDROOT
BRANCH   1   2
ATOM      2  C   UNL     1      -8.569  -3.466   4.204  1.00  0.00     0.000 C 
BRANCH   2   3
ATOM      3  C   UNL     1      -9.730  -3.460   3.196  1.00  0.00     0.000 C 
BRANCH   3   4
ATOM      4  C   UNL     1      -9.831  -2.142   2.405  1.00  0.00     0.000 C 
BRANCH   4   5
ATOM      5  C   UNL     1      -8.690  -1.134   2.654  1.00  0.00     0.000 C 
BRANCH   5   6
ATOM      6  C   UNL     1      -9.100   0.348   2.585  1.00  0.00     0.006 C 
BRANCH   6   7
ATOM      7  C   UNL     1     -10.594   0.539   2.294  1.00  0.00     0.053 C 
BRANCH   7   8
ATOM      8  C   UNL     1     -11.220   1.413   3.334  1.00  0.00     0.041 C 
ATOM      9  O   UNL     1     -12.431   1.261   3.643  1.00  0.00    -0.550 OA
ATOM     10  O   UNL     1     -10.454   2.362   3.998  1.00  0.00    -0.550 OA
ENDBRANCH   7   8
ENDBRANCH   6   7
ENDBRANCH   5   6
ENDBRANCH   4   5
ENDBRANCH   3   4
ENDBRANCH   2   3
ENDBRANCH   1   2
BRANCH   1  11
ATOM     11  C   UNL     1      -8.627  -4.755   6.464  1.00  0.00     0.000 C 
BRANCH  11  12
ATOM     12  C   UNL     1      -9.444  -6.003   6.092  1.00  0.00    -0.000 C 
BRANCH  12  13
ATOM     13  C   UNL     1     -10.953  -5.809   6.315  1.00  0.00    -0.000 C 
BRANCH  13  14
ATOM     14  C   UNL     1     -11.777  -6.051   5.042  1.00  0.00    -0.000 C 
BRANCH  14  15
ATOM     15  C   UNL     1     -12.634  -4.825   4.702  1.00  0.00    -0.000 C 
BRANCH  15  16
ATOM     16  C   UNL     1     -12.693  -3.848   5.883  1.00  0.00    -0.000 C 
BRANCH  16  17
ATOM     17  C   UNL     1     -12.525  -2.401   5.408  1.00  0.00    -0.003 C 
ATOM     18  C   UNL     1     -13.161  -2.194   4.036  1.00  0.00     0.004 C 
ENDBRANCH  16  17
ENDBRANCH  15  16
ENDBRANCH  14  15
ENDBRANCH  13  14
ENDBRANCH  12  13
ENDBRANCH  11  12
ENDBRANCH   1  11
TORSDOF 14
ENDMDL
MODEL 2
REMARK VINA RESULT:    -4.084      3.116      6.044
REMARK INTER + INTRA:          -9.640
REMARK INTER:                  -7.926
REMARK INTRA:                  -1.714
REMARK UNBOUND:                -2.214
REMARK SMILES CCCCCCCCCCCCCCCC(=O)[O-]
REMARK SMILES IDX 9 1 10 2 11 3 12 4 13 5 14 6 15 7 16 8 17 9 18 10 8 11 7 12
REMARK SMILES IDX 6 13 5 14 4 15 3 16 2 17 1 18
REMARK H PARENT
REMARK Flexibility Score: inf
ROOT
ATOM      1  C   UNL     1      -9.515  -3.290   5.176  1.00  0.00     0.000 C 
ENDROOT
BRANCH   1   2
ATOM      2  C   UNL     1      -8.562  -4.077   6.094  1.00  0.00     0.000 C 
BRANCH   2   3
ATOM      3  C   UNL     1      -9.214  -5.328   6.706  1.00  0.00     0.000 C 
BRANCH   3   4
ATOM      4  C   UNL     1      -9.022  -6.588   5.840  1.00  0.00     0.000 C 
BRANCH   4   5
ATOM      5  C   UNL     1     -10.228  -6.971   4.957  1.00  0.00     0.000 C 
BRANCH   5   6
ATOM      6  C   UNL     1     -11.600  -6.532   5.497  1.00  0.00     0.006 C 
BRANCH   6   7
ATOM      7  C   UNL     1     -12.382  -5.666   4.501  1.00  0.00     0.053 C 
BRANCH   7   8
ATOM      8  C   UNL     1     -13.532  -6.434   3.932  1.00  0.00     0.041 C 
ATOM      9  O   UNL     1     -13.892  -7.519   4.461  1.00  0.00    -0.550 OA
ATOM     10  O   UNL     1     -14.239  -5.928   2.849  1.00  0.00    -0.550 OA
ENDBRANCH   7   8
ENDBRANCH   6   7
ENDBRANCH   5   6
ENDBRANCH   4   5
ENDBRANCH   3   4
ENDBRANCH   2   3
ENDBRANCH   1   2
BRANCH   1  11
ATOM     11  C   UNL     1      -9.284  -3.485   3.665  1.00  0.00     0.000 C 
BRANCH  11  12
ATOM     12  C   UNL     1     -10.535  -3.182   2.823  1.00  0.00    -0.000 C 
BRANCH  12  13
ATOM     13  C   UNL     1     -10.478  -1.797   2.159  1.00  0.00    -0.000 C 
BRANCH  13  14
ATOM     14  C   UNL     1      -9.046  -1.256   2.035  1.00  0.00    -0.000 C 
BRANCH  14  15
ATOM     15  C   UNL     1      -8.929   0.137   2.664  1.00  0.00    -0.000 C 
BRANCH  15  16
ATOM     16  C   UNL     1      -9.971   0.332   3.772  1.00  0.00    -0.000 C 
BRANCH  16  17
ATOM     17  C   UNL     1     -10.575   1.740   3.719  1.00  0.00    -0.003 C 
ATOM     18  C   UNL     1     -11.207   2.016   2.357  1.00  0.00     0.004 C 
ENDBRANCH  16  17
ENDBRANCH  15  16
ENDBRANCH  14  15
ENDBRANCH  13  14
ENDBRANCH  12  13
ENDBRANCH  11  12
ENDBRANCH   1  11
TORSDOF 14
ENDMDL
MODEL 3
REMARK VINA RESULT:    -4.075      3.681      6.359
REMARK INTER + INTRA:          -9.623
REMARK INTER:                  -7.457
REMARK INTRA:                  -2.166
REMARK UNBOUND:                -2.214
REMARK SMILES CCCCCCCCCCCCCCCC(=O)[O-]
REMARK SMILES IDX 9 1 10 2 11 3 12 4 13 5 14 6 15 7 16 8 17 9 18 10 8 11 7 12
REMARK SMILES IDX 6 13 5 14 4 15 3 16 2 17 1 18
REMARK H PARENT
REMARK Flexibility Score: inf
ROOT
ATOM      1  C   UNL     1      -9.759  -2.012   2.101  1.00  0.00     0.000 C 
ENDROOT
BRANCH   1   2
ATOM      2  C   UNL     1      -9.799  -3.138   3.150  1.00  0.00     0.000 C 
BRANCH   2   3
ATOM      3  C   UNL     1      -8.606  -3.098   4.121  1.00  0.00     0.000 C 
BRANCH   3   4
ATOM      4  C   UNL     1      -8.977  -3.554   5.545  1.00  0.00     0.000 C 
BRANCH   4   5
ATOM      5  C   UNL     1     -10.349  -4.246   5.680  1.00  0.00     0.000 C 
BRANCH   5   6
ATOM      6  C   UNL     1     -10.304  -5.783   5.739  1.00  0.00     0.006 C 
BRANCH   6   7
ATOM      7  C   UNL     1      -8.959  -6.319   6.245  1.00  0.00     0.053 C 
BRANCH   7   8
ATOM      8  C   UNL     1      -8.849  -7.787   5.978  1.00  0.00     0.041 C 
ATOM      9  O   UNL     1      -8.947  -8.225   4.801  1.00  0.00    -0.550 OA
ATOM     10  O   UNL     1      -8.588  -8.666   7.021  1.00  0.00    -0.550 OA
ENDBRANCH   7   8
ENDBRANCH   6   7
ENDBRANCH   5   6
ENDBRANCH   4   5
ENDBRANCH   3   4
ENDBRANCH   2   3
ENDBRANCH   1   2
BRANCH   1  11
ATOM     11  C   UNL     1      -8.713  -0.910   2.357  1.00  0.00     0.000 C 
BRANCH  11  12
ATOM     12  C   UNL     1      -9.316   0.354   2.992  1.00  0.00    -0.000 C 
BRANCH  12  13
ATOM     13  C   UNL     1     -10.700   0.699   2.420  1.00  0.00    -0.000 C 
BRANCH  13  14
ATOM     14  C   UNL     1     -11.801   0.702   3.491  1.00  0.00    -0.000 C 
BRANCH  14  15
ATOM     15  C   UNL     1     -11.343  -0.044   4.750  1.00  0.00    -0.000 C 
BRANCH  15  16
ATOM     16  C   UNL     1     -12.367  -1.107   5.165  1.00  0.00    -0.000 C 
BRANCH  16  17
ATOM     17  C   UNL     1     -13.124  -1.648   3.948  1.00  0.00    -0.003 C 
ATOM     18  C   UNL     1     -13.477  -3.122   4.128  1.00  0.00     0.004 C 
ENDBRANCH  16  17
ENDBRANCH  15  16
ENDBRANCH  14  15
ENDBRANCH  13  14
ENDBRANCH  12  13
ENDBRANCH  11  12
ENDBRANCH   1  11
TORSDOF 14
ENDMDL
MODEL 4
REMARK VINA RESULT:    -4.047      2.798      5.723
REMARK INTER + INTRA:          -9.572
REMARK INTER:                  -7.165
REMARK INTRA:                  -2.407
REMARK UNBOUND:                -2.214
REMARK SMILES CCCCCCCCCCCCCCCC(=O)[O-]
REMARK SMILES IDX 9 1 10 2 11 3 12 4 13 5 14 6 15 7 16 8 17 9 18 10 8 11 7 12
REMARK SMILES IDX 6 13 5 14 4 15 3 16 2 17 1 18
REMARK H PARENT
REMARK Flexibility Score: inf
ROOT
ATOM      1  C   UNL     1     -10.308   0.457   4.128  1.00  0.00     0.000 C 
ENDROOT
BRANCH   1   2
ATOM      2  C   UNL     1     -11.819   0.576   4.396  1.00  0.00     0.000 C 
BRANCH   2   3
ATOM      3  C   UNL     1     -12.563  -0.761   4.246  1.00  0.00     0.000 C 
BRANCH   3   4
ATOM      4  C   UNL     1     -12.539  -1.608   5.532  1.00  0.00     0.000 C 
BRANCH   4   5
ATOM      5  C   UNL     1     -12.585  -3.135   5.318  1.00  0.00     0.000 C 
BRANCH   5   6
ATOM      6  C   UNL     1     -13.055  -3.586   3.924  1.00  0.00     0.006 C 
BRANCH   6   7
ATOM      7  C   UNL     1     -12.911  -5.097   3.706  1.00  0.00     0.053 C 
BRANCH   7   8
ATOM      8  C   UNL     1     -14.235  -5.704   3.364  1.00  0.00     0.041 C 
ATOM      9  O   UNL     1     -14.316  -6.930   3.089  1.00  0.00    -0.550 OA
ATOM     10  O   UNL     1     -15.385  -4.927   3.398  1.00  0.00    -0.550 OA
ENDBRANCH   7   8
ENDBRANCH   6   7
ENDBRANCH   5   6
ENDBRANCH   4   5
ENDBRANCH   3   4
ENDBRANCH   2   3
ENDBRANCH   1   2
BRANCH   1  11
ATOM     11  C   UNL     1      -9.919   0.168   2.665  1.00  0.00     0.000 C 
BRANCH  11  12
ATOM     12  C   UNL     1      -9.072  -1.106   2.509  1.00  0.00    -0.000 C 
BRANCH  12  13
ATOM     13  C   UNL     1      -9.932  -2.369   2.341  1.00  0.00    -0.000 C 
BRANCH  13  14
ATOM     14  C   UNL     1      -9.530  -3.493   3.307  1.00  0.00    -0.000 C 
BRANCH  14  15
ATOM     15  C   UNL     1      -8.862  -2.923   4.565  1.00  0.00    -0.000 C 
BRANCH  15  16
ATOM     16  C   UNL     1      -8.682  -4.008   5.634  1.00  0.00    -0.000 C 
BRANCH  16  17
ATOM     17  C   UNL     1      -9.489  -5.262   5.287  1.00  0.00    -0.003 C 
ATOM     18  C   UNL     1     -10.012  -5.947   6.547  1.00  0.00     0.004 C 
ENDBRANCH  16  17
ENDBRANCH  15  16
ENDBRANCH  14  15
ENDBRANCH  13  14
ENDBRANCH  12  13
ENDBRANCH  11  12
ENDBRANCH   1  11
TORSDOF 14
ENDMDL
MODEL 5
REMARK VINA RESULT:    -3.996      2.918      5.916
REMARK INTER + INTRA:          -9.480
REMARK INTER:                  -7.664
REMARK INTRA:                  -1.816
REMARK UNBOUND:                -2.214
REMARK SMILES CCCCCCCCCCCCCCCC(=O)[O-]
REMARK SMILES IDX 9 1 10 2 11 3 12 4 13 5 14 6 15 7 16 8 17 9 18 10 8 11 7 12
REMARK SMILES IDX 6 13 5 14 4 15 3 16 2 17 1 18
REMARK H PARENT
REMARK Flexibility Score: inf
ROOT
ATOM      1  C   UNL     1      -9.111  -3.432   5.743  1.00  0.00     0.000 C 
ENDROOT
BRANCH   1   2
ATOM      2  C   UNL     1      -8.296  -4.558   6.404  1.00  0.00     0.000 C 
BRANCH   2   3
ATOM      3  C   UNL     1      -9.154  -5.774   6.789  1.00  0.00     0.000 C 
BRANCH   3   4
ATOM      4  C   UNL     1      -9.335  -6.771   5.628  1.00  0.00     0.000 C 
BRANCH   4   5
ATOM      5  C   UNL     1     -10.792  -7.185   5.336  1.00  0.00     0.000 C 
BRANCH   5   6
ATOM      6  C   UNL     1     -11.789  -6.020   5.201  1.00  0.00     0.006 C 
BRANCH   6   7
ATOM      7  C   UNL     1     -13.251  -6.483   5.211  1.00  0.00     0.053 C 
BRANCH   7   8
ATOM      8  C   UNL     1     -13.770  -6.604   3.813  1.00  0.00     0.041 C 
ATOM      9  O   UNL     1     -14.335  -7.664   3.437  1.00  0.00    -0.550 OA
ATOM     10  O   UNL     1     -13.674  -5.527   2.940  1.00  0.00    -0.550 OA
ENDBRANCH   7   8
ENDBRANCH   6   7
ENDBRANCH   5   6
ENDBRANCH   4   5
ENDBRANCH   3   4
ENDBRANCH   2   3
ENDBRANCH   1   2
BRANCH   1  11
ATOM     11  C   UNL     1      -8.756  -3.137   4.273  1.00  0.00     0.000 C 
BRANCH  11  12
ATOM     12  C   UNL     1      -9.658  -3.882   3.276  1.00  0.00    -0.000 C 
BRANCH  12  13
ATOM     13  C   UNL     1     -10.528  -2.930   2.440  1.00  0.00    -0.000 C 
BRANCH  13  14
ATOM     14  C   UNL     1     -11.571  -2.183   3.286  1.00  0.00    -0.000 C 
BRANCH  14  15
ATOM     15  C   UNL     1     -11.302  -0.673   3.281  1.00  0.00    -0.000 C 
BRANCH  15  16
ATOM     16  C   UNL     1     -10.311  -0.292   2.174  1.00  0.00    -0.000 C 
BRANCH  16  17
ATOM     17  C   UNL     1      -9.023   0.291   2.765  1.00  0.00    -0.003 C 
ATOM     18  C   UNL     1      -7.790  -0.287   2.076  1.00  0.00     0.004 C 
ENDBRANCH  16  17
ENDBRANCH  15  16
ENDBRANCH  14  15
ENDBRANCH  13  14
ENDBRANCH  12  13
ENDBRANCH  11  12
ENDBRANCH   1  11
TORSDOF 14
ENDMDL
MODEL 6
REMARK VINA RESULT:    -3.964      2.828      5.834
REMARK INTER + INTRA:          -9.422
REMARK INTER:                  -7.275
REMARK INTRA:                  -2.147
REMARK UNBOUND:                -2.214
REMARK SMILES CCCCCCCCCCCCCCCC(=O)[O-]
REMARK SMILES IDX 9 1 10 2 11 3 12 4 13 5 14 6 15 7 16 8 17 9 18 10 8 11 7 12
REMARK SMILES IDX 6 13 5 14 4 15 3 16 2 17 1 18
REMARK H PARENT
REMARK Flexibility Score: inf
ROOT
ATOM      1  C   UNL     1      -9.732  -3.352   3.233  1.00  0.00     0.000 C 
ENDROOT
BRANCH   1   2
ATOM      2  C   UNL     1      -8.747  -3.229   4.409  1.00  0.00     0.000 C 
BRANCH   2   3
ATOM      3  C   UNL     1      -9.303  -3.807   5.721  1.00  0.00     0.000 C 
BRANCH   3   4
ATOM      4  C   UNL     1     -10.769  -4.265   5.600  1.00  0.00     0.000 C 
BRANCH   4   5
ATOM      5  C   UNL     1     -11.012  -5.769   5.840  1.00  0.00     0.000 C 
BRANCH   5   6
ATOM      6  C   UNL     1     -12.008  -6.433   4.872  1.00  0.00     0.006 C 
BRANCH   6   7
ATOM      7  C   UNL     1     -12.698  -5.425   3.944  1.00  0.00     0.053 C 
BRANCH   7   8
ATOM      8  C   UNL     1     -14.051  -5.924   3.547  1.00  0.00     0.041 C 
ATOM      9  O   UNL     1     -14.995  -5.112   3.359  1.00  0.00    -0.550 OA
ATOM     10  O   UNL     1     -14.257  -7.281   3.334  1.00  0.00    -0.550 OA
ENDBRANCH   7   8
ENDBRANCH   6   7
ENDBRANCH   5   6
ENDBRANCH   4   5
ENDBRANCH   3   4
ENDBRANCH   2   3
ENDBRANCH   1   2
BRANCH   1  11
ATOM     11  C   UNL     1      -9.740  -2.164   2.252  1.00  0.00     0.000 C 
BRANCH  11  12
ATOM     12  C   UNL     1      -8.560  -1.202   2.466  1.00  0.00    -0.000 C 
BRANCH  12  13
ATOM     13  C   UNL     1      -8.962   0.273   2.297  1.00  0.00    -0.000 C 
BRANCH  13  14
ATOM     14  C   UNL     1     -10.402   0.550   2.752  1.00  0.00    -0.000 C 
BRANCH  14  15
ATOM     15  C   UNL     1     -10.475   0.717   4.275  1.00  0.00    -0.000 C 
BRANCH  15  16
ATOM     16  C   UNL     1     -11.475  -0.269   4.891  1.00  0.00    -0.000 C 
BRANCH  16  17
ATOM     17  C   UNL     1     -12.715  -0.422   4.004  1.00  0.00    -0.003 C 
ATOM     18  C   UNL     1     -13.098  -1.890   3.841  1.00  0.00     0.004 C 
ENDBRANCH  16  17
ENDBRANCH  15  16
ENDBRANCH  14  15
ENDBRANCH  13  14
ENDBRANCH  12  13
ENDBRANCH  11  12
ENDBRANCH   1  11
TORSDOF 14
ENDMDL
MODEL 7
REMARK VINA RESULT:    -3.944      1.620      4.489
REMARK INTER + INTRA:          -9.385
REMARK INTER:                  -7.197
REMARK INTRA:                  -2.188
REMARK UNBOUND:                -2.214
REMARK SMILES CCCCCCCCCCCCCCCC(=O)[O-]
REMARK SMILES IDX 9 1 10 2 11 3 12 4 13 5 14 6 15 7 16 8 17 9 18 10 8 11 7 12
REMARK SMILES IDX 6 13 5 14 4 15 3 16 2 17 1 18
REMARK H PARENT
REMARK Flexibility Score: inf
ROOT
ATOM      1  C   UNL     1      -9.387  -5.057   6.206  1.00  0.00     0.000 C 
ENDROOT
BRANCH   1   2
ATOM      2  C   UNL     1      -9.708  -6.191   5.215  1.00  0.00     0.000 C 
BRANCH   2   3
ATOM      3  C   UNL     1     -11.212  -6.497   5.119  1.00  0.00     0.000 C 
BRANCH   3   4
ATOM      4  C   UNL     1     -12.091  -5.246   5.303  1.00  0.00     0.000 C 
BRANCH   4   5
ATOM      5  C   UNL     1     -12.580  -4.585   3.997  1.00  0.00     0.000 C 
BRANCH   5   6
ATOM      6  C   UNL     1     -12.625  -3.047   4.020  1.00  0.00     0.006 C 
BRANCH   6   7
ATOM      7  C   UNL     1     -12.271  -2.461   5.393  1.00  0.00     0.053 C 
BRANCH   7   8
ATOM      8  C   UNL     1     -13.404  -1.637   5.917  1.00  0.00     0.041 C 
ATOM      9  O   UNL     1     -14.576  -2.099   5.913  1.00  0.00    -0.550 OA
ATOM     10  O   UNL     1     -13.160  -0.381   6.455  1.00  0.00    -0.550 OA
ENDBRANCH   7   8
ENDBRANCH   6   7
ENDBRANCH   5   6
ENDBRANCH   4   5
ENDBRANCH   3   4
ENDBRANCH   2   3
ENDBRANCH   1   2
BRANCH   1  11
ATOM     11  C   UNL     1      -8.657  -3.842   5.604  1.00  0.00     0.000 C 
BRANCH  11  12
ATOM     12  C   UNL     1      -8.898  -3.685   4.094  1.00  0.00    -0.000 C 
BRANCH  12  13
ATOM     13  C   UNL     1      -8.887  -2.214   3.644  1.00  0.00    -0.000 C 
BRANCH  13  14
ATOM     14  C   UNL     1      -9.652  -1.990   2.331  1.00  0.00    -0.000 C 
BRANCH  14  15
ATOM     15  C   UNL     1     -10.028  -0.513   2.161  1.00  0.00    -0.000 C 
BRANCH  15  16
ATOM     16  C   UNL     1      -9.563   0.318   3.364  1.00  0.00    -0.000 C 
BRANCH  16  17
ATOM     17  C   UNL     1     -10.757   0.930   4.104  1.00  0.00    -0.003 C 
ATOM     18  C   UNL     1     -10.675   2.454   4.116  1.00  0.00     0.004 C 
ENDBRANCH  16  17
ENDBRANCH  15  16
ENDBRANCH  14  15
ENDBRANCH  13  14
ENDBRANCH  12  13
ENDBRANCH  11  12
ENDBRANCH   1  11
TORSDOF 14
ENDMDL
MODEL 8
REMARK VINA RESULT:    -3.943      2.180      4.668
REMARK INTER + INTRA:          -9.383
REMARK INTER:                  -7.772
REMARK INTRA:                  -1.611
REMARK UNBOUND:                -2.214
REMARK SMILES CCCCCCCCCCCCCCCC(=O)[O-]
REMARK SMILES IDX 9 1 10 2 11 3 12 4 13 5 14 6 15 7 16 8 17 9 18 10 8 11 7 12
REMARK SMILES IDX 6 13 5 14 4 15 3 16 2 17 1 18
REMARK H PARENT
REMARK Flexibility Score: inf
ROOT
ATOM      1  C   UNL     1      -9.333  -1.358   1.961  1.00  0.00     0.000 C 
ENDROOT
BRANCH   1   2
ATOM      2  C   UNL     1      -8.973  -0.112   2.791  1.00  0.00     0.000 C 
BRANCH   2   3
ATOM      3  C   UNL     1     -10.103   0.931   2.829  1.00  0.00     0.000 C 
BRANCH   3   4
ATOM      4  C   UNL     1     -10.691   1.126   4.239  1.00  0.00     0.000 C 
BRANCH   4   5
ATOM      5  C   UNL     1     -11.339  -0.128   4.862  1.00  0.00     0.000 C 
BRANCH   5   6
ATOM      6  C   UNL     1     -12.824  -0.338   4.516  1.00  0.00     0.006 C 
BRANCH   6   7
ATOM      7  C   UNL     1     -13.066  -1.590   3.665  1.00  0.00     0.053 C 
BRANCH   7   8
ATOM      8  C   UNL     1     -13.680  -2.674   4.493  1.00  0.00     0.041 C 
ATOM      9  O   UNL     1     -13.971  -3.782   3.970  1.00  0.00    -0.550 OA
ATOM     10  O   UNL     1     -13.884  -2.479   5.853  1.00  0.00    -0.550 OA
ENDBRANCH   7   8
ENDBRANCH   6   7
ENDBRANCH   5   6
ENDBRANCH   4   5
ENDBRANCH   3   4
ENDBRANCH   2   3
ENDBRANCH   1   2
BRANCH   1  11
ATOM     11  C   UNL     1      -9.630  -2.630   2.777  1.00  0.00     0.000 C 
BRANCH  11  12
ATOM     12  C   UNL     1      -8.813  -2.713   4.077  1.00  0.00    -0.000 C 
BRANCH  12  13
ATOM     13  C   UNL     1      -9.544  -3.490   5.184  1.00  0.00    -0.000 C 
BRANCH  13  14
ATOM     14  C   UNL     1      -8.585  -4.289   6.080  1.00  0.00    -0.000 C 
BRANCH  14  15
ATOM     15  C   UNL     1      -9.197  -5.639   6.472  1.00  0.00    -0.000 C 
BRANCH  15  16
ATOM     16  C   UNL     1      -9.777  -6.360   5.249  1.00  0.00    -0.000 C 
BRANCH  16  17
ATOM     17  C   UNL     1      -9.284  -7.809   5.179  1.00  0.00    -0.003 C 
ATOM     18  C   UNL     1      -8.224  -8.082   6.243  1.00  0.00     0.004 C 
ENDBRANCH  16  17
ENDBRANCH  15  16
ENDBRANCH  14  15
ENDBRANCH  13  14
ENDBRANCH  12  13
ENDBRANCH  11  12
ENDBRANCH   1  11
TORSDOF 14
ENDMDL
