MODEL 1
REMARK VINA RESULT:     0.000      0.000      0.000
REMARK INTER + INTRA:          -0.335
REMARK INTER:                   0.000
REMARK INTRA:                  -0.335
REMARK UNBOUND:                -0.335
REMARK SMILES O=c1c(O)c(-c2ccc(O)c(O)c2)oc2cc(O)cc(O)c12
REMARK SMILES IDX 5 1 3 2 2 3 1 4 22 5 20 6 19 7 17 8 16 9 15 10 14 11 6 12
REMARK SMILES IDX 7 13 8 14 9 15 13 16 11 17 10 18 12 20 4 22 21 24 18 26
REMARK H PARENT 10 19 12 21 4 23 21 25 18 27
REMARK Flexibility Score: inf
ROOT
ATOM      1  C   UNL     1     162.923 166.307 168.227  1.00  0.00     0.180 A 
ATOM      2  C   UNL     1     161.796 165.723 167.624  1.00  0.00     0.208 A 
ATOM      3  C   UNL     1     161.539 165.980 166.268  1.00  0.00     0.238 A 
ATOM      4  O   UNL     1     160.560 165.410 165.720  1.00  0.00    -0.285 OA
ATOM      5  C   UNL     1     162.402 166.833 165.537  1.00  0.00     0.111 A 
ATOM      6  C   UNL     1     162.214 167.195 164.169  1.00  0.00     0.134 A 
ATOM      7  C   UNL     1     163.201 167.938 163.510  1.00  0.00     0.093 A 
ATOM      8  C   UNL     1     164.334 168.388 164.186  1.00  0.00     0.123 A 
ATOM      9  C   UNL     1     164.499 168.090 165.539  1.00  0.00     0.094 A 
ATOM     10  C   UNL     1     163.550 167.319 166.213  1.00  0.00     0.146 A 
ATOM     11  O   UNL     1     163.749 167.048 167.499  1.00  0.00    -0.452 OA
ENDROOT
BRANCH   1  12
ATOM     12  C   UNL     1     163.246 166.103 169.658  1.00  0.00     0.025 A 
ATOM     13  C   UNL     1     164.122 165.073 170.027  1.00  0.00     0.016 A 
ATOM     14  C   UNL     1     164.455 164.876 171.369  1.00  0.00     0.051 A 
ATOM     15  C   UNL     1     163.935 165.710 172.364  1.00  0.00     0.157 A 
ATOM     16  C   UNL     1     162.738 166.957 170.652  1.00  0.00     0.062 A 
ATOM     17  C   UNL     1     163.070 166.769 172.000  1.00  0.00     0.158 A 
BRANCH  15  18
ATOM     18  O   UNL     1     164.301 165.455 173.687  1.00  0.00    -0.504 OA
ATOM     19  H   UNL     1     164.379 164.530 174.083  1.00  0.00     0.293 HD
ENDBRANCH  15  18
BRANCH  17  20
ATOM     20  O   UNL     1     162.527 167.654 172.935  1.00  0.00    -0.504 OA
ATOM     21  H   UNL     1     161.886 167.379 173.666  1.00  0.00     0.293 HD
ENDBRANCH  17  20
ENDBRANCH   1  12
BRANCH   2  22
ATOM     22  O   UNL     1     160.970 164.867 168.359  1.00  0.00    -0.502 OA
ATOM     23  H   UNL     1     160.985 164.836 169.372  1.00  0.00     0.293 HD
ENDBRANCH   2  22
BRANCH   6  24
ATOM     24  O   UNL     1     161.073 166.875 163.426  1.00  0.00    -0.507 OA
ATOM     25  H   UNL     1     161.065 166.276 162.614  1.00  0.00     0.293 HD
ENDBRANCH   6  24
BRANCH   8  26
ATOM     26  O   UNL     1     165.288 169.140 163.502  1.00  0.00    -0.508 OA
ATOM     27  H   UNL     1     165.202 169.330 162.510  1.00  0.00     0.293 HD
ENDBRANCH   8  26
TORSDOF 6
ENDMDL
MODEL 2
REMARK VINA RESULT:     0.000      4.928      7.293
REMARK INTER + INTRA:          -0.335
REMARK INTER:                   0.000
REMARK INTRA:                  -0.335
REMARK UNBOUND:                -0.335
REMARK SMILES O=c1c(O)c(-c2ccc(O)c(O)c2)oc2cc(O)cc(O)c12
REMARK SMILES IDX 5 1 3 2 2 3 1 4 22 5 20 6 19 7 17 8 16 9 15 10 14 11 6 12
REMARK SMILES IDX 7 13 8 14 9 15 13 16 11 17 10 18 12 20 4 22 21 24 18 26
REMARK H PARENT 10 19 12 21 4 23 21 25 18 27
REMARK Flexibility Score: inf
ROOT
ATOM      1  C   UNL     1     166.584 168.464 172.407  1.00  0.00     0.180 A 
ATOM      2  C   UNL     1     166.105 167.736 171.305  1.00  0.00     0.208 A 
ATOM      3  C   UNL     1     164.789 167.952 170.866  1.00  0.00     0.238 A 
ATOM      4  O   UNL     1     164.384 167.338 169.845  1.00  0.00    -0.285 OA
ATOM      5  C   UNL     1     163.963 168.880 171.545  1.00  0.00     0.111 A 
ATOM      6  C   UNL     1     162.601 169.148 171.211  1.00  0.00     0.134 A 
ATOM      7  C   UNL     1     161.921 170.181 171.867  1.00  0.00     0.093 A 
ATOM      8  C   UNL     1     162.530 170.910 172.888  1.00  0.00     0.123 A 
ATOM      9  C   UNL     1     163.841 170.617 173.263  1.00  0.00     0.094 A 
ATOM     10  C   UNL     1     164.558 169.616 172.602  1.00  0.00     0.146 A 
ATOM     11  O   UNL     1     165.808 169.375 172.982  1.00  0.00    -0.452 OA
ENDROOT
BRANCH   1  12
ATOM     12  C   UNL     1     167.952 168.274 172.944  1.00  0.00     0.025 A 
ATOM     13  C   UNL     1     168.990 169.102 172.497  1.00  0.00     0.016 A 
ATOM     14  C   UNL     1     170.282 168.952 173.004  1.00  0.00     0.051 A 
ATOM     15  C   UNL     1     170.559 167.986 173.976  1.00  0.00     0.157 A 
ATOM     16  C   UNL     1     168.221 167.317 173.937  1.00  0.00     0.062 A 
ATOM     17  C   UNL     1     169.514 167.161 174.454  1.00  0.00     0.158 A 
BRANCH  15  18
ATOM     18  O   UNL     1     171.873 167.882 174.437  1.00  0.00    -0.504 OA
ATOM     19  H   UNL     1     172.291 167.023 174.763  1.00  0.00     0.293 HD
ENDBRANCH  15  18
BRANCH  17  20
ATOM     20  O   UNL     1     169.710 166.188 175.437  1.00  0.00    -0.504 OA
ATOM     21  H   UNL     1     169.979 165.235 175.241  1.00  0.00     0.293 HD
ENDBRANCH  17  20
ENDBRANCH   1  12
BRANCH   2  22
ATOM     22  O   UNL     1     166.945 166.840 170.636  1.00  0.00    -0.502 OA
ATOM     23  H   UNL     1     166.603 165.982 170.220  1.00  0.00     0.293 HD
ENDBRANCH   2  22
BRANCH   6  24
ATOM     24  O   UNL     1     161.869 168.418 170.271  1.00  0.00    -0.507 OA
ATOM     25  H   UNL     1     161.440 168.810 169.446  1.00  0.00     0.293 HD
ENDBRANCH   6  24
BRANCH   8  26
ATOM     26  O   UNL     1     161.816 171.920 173.530  1.00  0.00    -0.508 OA
ATOM     27  H   UNL     1     162.273 172.581 174.149  1.00  0.00     0.293 HD
ENDBRANCH   8  26
TORSDOF 6
ENDMDL
MODEL 3
REMARK VINA RESULT:     0.000      6.414      8.521
REMARK INTER + INTRA:          -0.335
REMARK INTER:                   0.000
REMARK INTRA:                  -0.335
REMARK UNBOUND:                -0.335
REMARK SMILES O=c1c(O)c(-c2ccc(O)c(O)c2)oc2cc(O)cc(O)c12
REMARK SMILES IDX 5 1 3 2 2 3 1 4 22 5 20 6 19 7 17 8 16 9 15 10 14 11 6 12
REMARK SMILES IDX 7 13 8 14 9 15 13 16 11 17 10 18 12 20 4 22 21 24 18 26
REMARK H PARENT 10 19 12 21 4 23 21 25 18 27
REMARK Flexibility Score: inf
ROOT
ATOM      1  C   UNL     1     168.229 166.470 172.793  1.00  0.00     0.180 A 
ATOM      2  C   UNL     1     168.902 165.625 173.692  1.00  0.00     0.208 A 
ATOM      3  C   UNL     1     170.080 164.985 173.275  1.00  0.00     0.238 A 
ATOM      4  O   UNL     1     170.707 164.274 174.102  1.00  0.00    -0.285 OA
ATOM      5  C   UNL     1     170.562 165.185 171.958  1.00  0.00     0.111 A 
ATOM      6  C   UNL     1     171.723 164.556 171.416  1.00  0.00     0.134 A 
ATOM      7  C   UNL     1     172.180 164.928 170.146  1.00  0.00     0.093 A 
ATOM      8  C   UNL     1     171.483 165.856 169.373  1.00  0.00     0.123 A 
ATOM      9  C   UNL     1     170.314 166.433 169.870  1.00  0.00     0.094 A 
ATOM     10  C   UNL     1     169.853 166.109 171.148  1.00  0.00     0.146 A 
ATOM     11  O   UNL     1     168.742 166.689 171.587  1.00  0.00    -0.452 OA
ENDROOT
BRANCH   1  12
ATOM     12  C   UNL     1     166.968 167.159 173.151  1.00  0.00     0.025 A 
ATOM     13  C   UNL     1     167.017 168.463 173.664  1.00  0.00     0.016 A 
ATOM     14  C   UNL     1     165.839 169.138 173.990  1.00  0.00     0.051 A 
ATOM     15  C   UNL     1     164.593 168.533 173.796  1.00  0.00     0.157 A 
ATOM     16  C   UNL     1     165.718 166.557 172.934  1.00  0.00     0.062 A 
ATOM     17  C   UNL     1     164.530 167.227 173.255  1.00  0.00     0.158 A 
BRANCH  15  18
ATOM     18  O   UNL     1     163.453 169.259 174.149  1.00  0.00    -0.504 OA
ATOM     19  H   UNL     1     162.898 169.791 173.495  1.00  0.00     0.293 HD
ENDBRANCH  15  18
BRANCH  17  20
ATOM     20  O   UNL     1     163.323 166.567 173.015  1.00  0.00    -0.504 OA
ATOM     21  H   UNL     1     162.415 166.993 173.128  1.00  0.00     0.293 HD
ENDBRANCH  17  20
ENDBRANCH   1  12
BRANCH   2  22
ATOM     22  O   UNL     1     168.420 165.459 174.994  1.00  0.00    -0.502 OA
ATOM     23  H   UNL     1     168.260 164.546 175.402  1.00  0.00     0.293 HD
ENDBRANCH   2  22
BRANCH   6  24
ATOM     24  O   UNL     1     172.441 163.548 172.068  1.00  0.00    -0.507 OA
ATOM     25  H   UNL     1     173.093 162.925 171.617  1.00  0.00     0.293 HD
ENDBRANCH   6  24
BRANCH   8  26
ATOM     26  O   UNL     1     171.959 166.190 168.107  1.00  0.00    -0.508 OA
ATOM     27  H   UNL     1     172.610 166.955 167.970  1.00  0.00     0.293 HD
ENDBRANCH   8  26
TORSDOF 6
ENDMDL
MODEL 4
REMARK VINA RESULT:     0.000      4.582      7.759
REMARK INTER + INTRA:          -0.335
REMARK INTER:                   0.000
REMARK INTRA:                  -0.335
REMARK UNBOUND:                -0.335
REMARK SMILES O=c1c(O)c(-c2ccc(O)c(O)c2)oc2cc(O)cc(O)c12
REMARK SMILES IDX 5 1 3 2 2 3 1 4 22 5 20 6 19 7 17 8 16 9 15 10 14 11 6 12
REMARK SMILES IDX 7 13 8 14 9 15 13 16 11 17 10 18 12 20 4 22 21 24 18 26
REMARK H PARENT 10 19 12 21 4 23 21 25 18 27
REMARK Flexibility Score: inf
ROOT
ATOM      1  C   UNL     1     163.461 162.428 167.658  1.00  0.00     0.180 A 
ATOM      2  C   UNL     1     163.724 161.404 166.731  1.00  0.00     0.208 A 
ATOM      3  C   UNL     1     164.038 160.121 167.205  1.00  0.00     0.238 A 
ATOM      4  O   UNL     1     164.218 159.196 166.371  1.00  0.00    -0.285 OA
ATOM      5  C   UNL     1     164.104 159.881 168.599  1.00  0.00     0.111 A 
ATOM      6  C   UNL     1     164.454 158.629 169.190  1.00  0.00     0.134 A 
ATOM      7  C   UNL     1     164.359 158.471 170.578  1.00  0.00     0.093 A 
ATOM      8  C   UNL     1     163.991 159.535 171.401  1.00  0.00     0.123 A 
ATOM      9  C   UNL     1     163.705 160.780 170.838  1.00  0.00     0.094 A 
ATOM     10  C   UNL     1     163.756 160.958 169.454  1.00  0.00     0.146 A 
ATOM     11  O   UNL     1     163.465 162.156 168.958  1.00  0.00    -0.452 OA
ENDROOT
BRANCH   1  12
ATOM     12  C   UNL     1     163.146 163.812 167.236  1.00  0.00     0.025 A 
ATOM     13  C   UNL     1     161.807 164.200 167.085  1.00  0.00     0.016 A 
ATOM     14  C   UNL     1     161.489 165.505 166.706  1.00  0.00     0.051 A 
ATOM     15  C   UNL     1     162.495 166.451 166.487  1.00  0.00     0.157 A 
ATOM     16  C   UNL     1     164.160 164.765 167.039  1.00  0.00     0.062 A 
ATOM     17  C   UNL     1     163.849 166.078 166.662  1.00  0.00     0.158 A 
BRANCH  15  18
ATOM     18  O   UNL     1     162.110 167.737 166.104  1.00  0.00    -0.504 OA
ATOM     19  H   UNL     1     161.297 167.940 165.541  1.00  0.00     0.293 HD
ENDBRANCH  15  18
BRANCH  17  20
ATOM     20  O   UNL     1     164.907 166.972 166.481  1.00  0.00    -0.504 OA
ATOM     21  H   UNL     1     165.803 166.886 166.940  1.00  0.00     0.293 HD
ENDBRANCH  17  20
ENDBRANCH   1  12
BRANCH   2  22
ATOM     22  O   UNL     1     163.632 161.658 165.360  1.00  0.00    -0.502 OA
ATOM     23  H   UNL     1     162.743 161.755 164.883  1.00  0.00     0.293 HD
ENDBRANCH   2  22
BRANCH   6  24
ATOM     24  O   UNL     1     164.922 157.528 168.467  1.00  0.00    -0.507 OA
ATOM     25  H   UNL     1     165.896 157.299 168.337  1.00  0.00     0.293 HD
ENDBRANCH   6  24
BRANCH   8  26
ATOM     26  O   UNL     1     163.924 159.346 172.780  1.00  0.00    -0.508 OA
ATOM     27  H   UNL     1     164.193 160.076 173.429  1.00  0.00     0.293 HD
ENDBRANCH   8  26
TORSDOF 6
ENDMDL
MODEL 5
REMARK VINA RESULT:     0.000      4.027      6.262
REMARK INTER + INTRA:          -0.335
REMARK INTER:                   0.000
REMARK INTRA:                  -0.335
REMARK UNBOUND:                -0.335
REMARK SMILES O=c1c(O)c(-c2ccc(O)c(O)c2)oc2cc(O)cc(O)c12
REMARK SMILES IDX 5 1 3 2 2 3 1 4 22 5 20 6 19 7 17 8 16 9 15 10 14 11 6 12
REMARK SMILES IDX 7 13 8 14 9 15 13 16 11 17 10 18 12 20 4 22 21 24 18 26
REMARK H PARENT 10 19 12 21 4 23 21 25 18 27
REMARK Flexibility Score: inf
ROOT
ATOM      1  C   UNL     1     164.250 170.580 165.417  1.00  0.00     0.180 A 
ATOM      2  C   UNL     1     164.040 171.793 166.096  1.00  0.00     0.208 A 
ATOM      3  C   UNL     1     163.677 172.931 165.359  1.00  0.00     0.238 A 
ATOM      4  O   UNL     1     163.437 174.000 165.979  1.00  0.00    -0.285 OA
ATOM      5  C   UNL     1     163.545 172.848 163.952  1.00  0.00     0.111 A 
ATOM      6  C   UNL     1     163.222 173.948 163.102  1.00  0.00     0.134 A 
ATOM      7  C   UNL     1     162.989 173.722 161.739  1.00  0.00     0.093 A 
ATOM      8  C   UNL     1     163.132 172.451 161.186  1.00  0.00     0.123 A 
ATOM      9  C   UNL     1     163.506 171.379 161.997  1.00  0.00     0.094 A 
ATOM     10  C   UNL     1     163.710 171.566 163.366  1.00  0.00     0.146 A 
ATOM     11  O   UNL     1     164.054 170.518 164.105  1.00  0.00    -0.452 OA
ENDROOT
BRANCH   1  12
ATOM     12  C   UNL     1     164.659 169.343 166.122  1.00  0.00     0.025 A 
ATOM     13  C   UNL     1     163.679 168.434 166.546  1.00  0.00     0.016 A 
ATOM     14  C   UNL     1     164.045 167.253 167.194  1.00  0.00     0.051 A 
ATOM     15  C   UNL     1     165.391 166.948 167.417  1.00  0.00     0.157 A 
ATOM     16  C   UNL     1     166.014 169.030 166.324  1.00  0.00     0.062 A 
ATOM     17  C   UNL     1     166.390 167.845 166.970  1.00  0.00     0.158 A 
BRANCH  15  18
ATOM     18  O   UNL     1     165.689 165.754 168.077  1.00  0.00    -0.504 OA
ATOM     19  H   UNL     1     165.463 164.838 167.718  1.00  0.00     0.293 HD
ENDBRANCH  15  18
BRANCH  17  20
ATOM     20  O   UNL     1     167.755 167.600 167.139  1.00  0.00    -0.504 OA
ATOM     21  H   UNL     1     168.484 168.205 166.791  1.00  0.00     0.293 HD
ENDBRANCH  17  20
ENDBRANCH   1  12
BRANCH   2  22
ATOM     22  O   UNL     1     164.155 171.847 167.488  1.00  0.00    -0.502 OA
ATOM     23  H   UNL     1     164.686 171.166 168.017  1.00  0.00     0.293 HD
ENDBRANCH   2  22
BRANCH   6  24
ATOM     24  O   UNL     1     163.144 175.274 163.537  1.00  0.00    -0.507 OA
ATOM     25  H   UNL     1     163.849 175.976 163.368  1.00  0.00     0.293 HD
ENDBRANCH   6  24
BRANCH   8  26
ATOM     26  O   UNL     1     162.908 172.266 159.823  1.00  0.00    -0.508 OA
ATOM     27  H   UNL     1     163.527 172.664 159.125  1.00  0.00     0.293 HD
ENDBRANCH   8  26
TORSDOF 6
ENDMDL
MODEL 6
REMARK VINA RESULT:     0.000      4.194      8.048
REMARK INTER + INTRA:          -0.335
REMARK INTER:                   0.000
REMARK INTRA:                  -0.335
REMARK UNBOUND:                -0.335
REMARK SMILES O=c1c(O)c(-c2ccc(O)c(O)c2)oc2cc(O)cc(O)c12
REMARK SMILES IDX 5 1 3 2 2 3 1 4 22 5 20 6 19 7 17 8 16 9 15 10 14 11 6 12
REMARK SMILES IDX 7 13 8 14 9 15 13 16 11 17 10 18 12 20 4 22 21 24 18 26
REMARK H PARENT 10 19 12 21 4 23 21 25 18 27
REMARK Flexibility Score: inf
ROOT
ATOM      1  C   UNL     1     165.965 167.629 171.783  1.00  0.00     0.180 A 
ATOM      2  C   UNL     1     167.339 167.873 171.959  1.00  0.00     0.208 A 
ATOM      3  C   UNL     1     167.742 169.026 172.650  1.00  0.00     0.238 A 
ATOM      4  O   UNL     1     168.971 169.210 172.852  1.00  0.00    -0.285 OA
ATOM      5  C   UNL     1     166.769 169.930 173.141  1.00  0.00     0.111 A 
ATOM      6  C   UNL     1     167.067 171.150 173.820  1.00  0.00     0.134 A 
ATOM      7  C   UNL     1     166.025 171.901 174.378  1.00  0.00     0.093 A 
ATOM      8  C   UNL     1     164.695 171.512 174.225  1.00  0.00     0.123 A 
ATOM      9  C   UNL     1     164.389 170.352 173.512  1.00  0.00     0.094 A 
ATOM     10  C   UNL     1     165.409 169.563 172.975  1.00  0.00     0.146 A 
ATOM     11  O   UNL     1     165.076 168.461 172.313  1.00  0.00    -0.452 OA
ENDROOT
BRANCH   1  12
ATOM     12  C   UNL     1     165.463 166.448 171.044  1.00  0.00     0.025 A 
ATOM     13  C   UNL     1     165.136 165.281 171.748  1.00  0.00     0.016 A 
ATOM     14  C   UNL     1     164.643 164.163 171.073  1.00  0.00     0.051 A 
ATOM     15  C   UNL     1     164.450 164.193 169.688  1.00  0.00     0.157 A 
ATOM     16  C   UNL     1     165.249 166.490 169.656  1.00  0.00     0.062 A 
ATOM     17  C   UNL     1     164.751 165.375 168.970  1.00  0.00     0.158 A 
BRANCH  15  18
ATOM     18  O   UNL     1     163.960 163.040 169.072  1.00  0.00    -0.504 OA
ATOM     19  H   UNL     1     164.445 162.154 169.063  1.00  0.00     0.293 HD
ENDBRANCH  15  18
BRANCH  17  20
ATOM     20  O   UNL     1     164.566 165.486 167.590  1.00  0.00    -0.504 OA
ATOM     21  H   UNL     1     164.498 164.696 166.964  1.00  0.00     0.293 HD
ENDBRANCH  17  20
ENDBRANCH   1  12
BRANCH   2  22
ATOM     22  O   UNL     1     168.281 166.956 171.484  1.00  0.00    -0.502 OA
ATOM     23  H   UNL     1     168.022 166.038 171.144  1.00  0.00     0.293 HD
ENDBRANCH   2  22
BRANCH   6  24
ATOM     24  O   UNL     1     168.355 171.678 173.950  1.00  0.00    -0.507 OA
ATOM     25  H   UNL     1     168.563 172.616 174.255  1.00  0.00     0.293 HD
ENDBRANCH   6  24
BRANCH   8  26
ATOM     26  O   UNL     1     163.683 172.293 174.779  1.00  0.00    -0.508 OA
ATOM     27  H   UNL     1     163.806 172.770 175.666  1.00  0.00     0.293 HD
ENDBRANCH   8  26
TORSDOF 6
ENDMDL
MODEL 7
REMARK VINA RESULT:     0.000      2.296      2.485
REMARK INTER + INTRA:          -0.335
REMARK INTER:                   0.000
REMARK INTRA:                  -0.335
REMARK UNBOUND:                -0.335
REMARK SMILES O=c1c(O)c(-c2ccc(O)c(O)c2)oc2cc(O)cc(O)c12
REMARK SMILES IDX 5 1 3 2 2 3 1 4 22 5 20 6 19 7 17 8 16 9 15 10 14 11 6 12
REMARK SMILES IDX 7 13 8 14 9 15 13 16 11 17 10 18 12 20 4 22 21 24 18 26
REMARK H PARENT 10 19 12 21 4 23 21 25 18 27
REMARK Flexibility Score: inf
ROOT
ATOM      1  C   UNL     1     164.582 166.686 168.768  1.00  0.00     0.180 A 
ATOM      2  C   UNL     1     163.315 167.067 168.294  1.00  0.00     0.208 A 
ATOM      3  C   UNL     1     163.080 167.077 166.910  1.00  0.00     0.238 A 
ATOM      4  O   UNL     1     161.927 167.365 166.495  1.00  0.00    -0.285 OA
ATOM      5  C   UNL     1     164.120 166.724 166.016  1.00  0.00     0.111 A 
ATOM      6  C   UNL     1     164.005 166.740 164.593  1.00  0.00     0.134 A 
ATOM      7  C   UNL     1     165.056 166.246 163.811  1.00  0.00     0.093 A 
ATOM      8  C   UNL     1     166.241 165.799 164.395  1.00  0.00     0.123 A 
ATOM      9  C   UNL     1     166.386 165.835 165.783  1.00  0.00     0.094 A 
ATOM     10  C   UNL     1     165.341 166.288 166.591  1.00  0.00     0.146 A 
ATOM     11  O   UNL     1     165.516 166.297 167.908  1.00  0.00    -0.452 OA
ENDROOT
BRANCH   1  12
ATOM     12  C   UNL     1     164.913 166.673 170.211  1.00  0.00     0.025 A 
ATOM     13  C   UNL     1     164.763 165.487 170.943  1.00  0.00     0.016 A 
ATOM     14  C   UNL     1     165.088 165.449 172.301  1.00  0.00     0.051 A 
ATOM     15  C   UNL     1     165.583 166.586 172.949  1.00  0.00     0.157 A 
ATOM     16  C   UNL     1     165.431 167.811 170.853  1.00  0.00     0.062 A 
ATOM     17  C   UNL     1     165.763 167.782 172.214  1.00  0.00     0.158 A 
BRANCH  15  18
ATOM     18  O   UNL     1     165.882 166.483 174.309  1.00  0.00    -0.504 OA
ATOM     19  H   UNL     1     165.800 167.247 174.964  1.00  0.00     0.293 HD
ENDBRANCH  15  18
BRANCH  17  20
ATOM     20  O   UNL     1     166.270 168.950 172.787  1.00  0.00    -0.504 OA
ATOM     21  H   UNL     1     166.968 169.535 172.351  1.00  0.00     0.293 HD
ENDBRANCH  17  20
ENDBRANCH   1  12
BRANCH   2  22
ATOM     22  O   UNL     1     162.296 167.390 169.195  1.00  0.00    -0.502 OA
ATOM     23  H   UNL     1     162.486 167.708 170.138  1.00  0.00     0.293 HD
ENDBRANCH   2  22
BRANCH   6  24
ATOM     24  O   UNL     1     162.901 167.251 163.904  1.00  0.00    -0.507 OA
ATOM     25  H   UNL     1     162.368 168.058 164.191  1.00  0.00     0.293 HD
ENDBRANCH   6  24
BRANCH   8  26
ATOM     26  O   UNL     1     167.272 165.329 163.584  1.00  0.00    -0.508 OA
ATOM     27  H   UNL     1     167.484 164.340 163.515  1.00  0.00     0.293 HD
ENDBRANCH   8  26
TORSDOF 6
ENDMDL
MODEL 8
REMARK VINA RESULT:     0.000      3.008      4.386
REMARK INTER + INTRA:          -0.335
REMARK INTER:                   0.000
REMARK INTRA:                  -0.335
REMARK UNBOUND:                -0.335
REMARK SMILES O=c1c(O)c(-c2ccc(O)c(O)c2)oc2cc(O)cc(O)c12
REMARK SMILES IDX 5 1 3 2 2 3 1 4 22 5 20 6 19 7 17 8 16 9 15 10 14 11 6 12
REMARK SMILES IDX 7 13 8 14 9 15 13 16 11 17 10 18 12 20 4 22 21 24 18 26
REMARK H PARENT 10 19 12 21 4 23 21 25 18 27
REMARK Flexibility Score: inf
ROOT
ATOM      1  C   UNL     1     162.951 166.948 166.370  1.00  0.00     0.180 A 
ATOM      2  C   UNL     1     163.091 168.071 167.204  1.00  0.00     0.208 A 
ATOM      3  C   UNL     1     163.665 169.241 166.681  1.00  0.00     0.238 A 
ATOM      4  O   UNL     1     163.737 170.259 167.417  1.00  0.00    -0.285 OA
ATOM      5  C   UNL     1     164.107 169.269 165.336  1.00  0.00     0.111 A 
ATOM      6  C   UNL     1     164.739 170.387 164.714  1.00  0.00     0.134 A 
ATOM      7  C   UNL     1     165.015 170.349 163.342  1.00  0.00     0.093 A 
ATOM      8  C   UNL     1     164.743 169.210 162.584  1.00  0.00     0.123 A 
ATOM      9  C   UNL     1     164.180 168.089 163.195  1.00  0.00     0.094 A 
ATOM     10  C   UNL     1     163.859 168.111 164.554  1.00  0.00     0.146 A 
ATOM     11  O   UNL     1     163.314 167.027 165.095  1.00  0.00    -0.452 OA
ENDROOT
BRANCH   1  12
ATOM     12  C   UNL     1     162.379 165.672 166.856  1.00  0.00     0.025 A 
ATOM     13  C   UNL     1     161.010 165.422 166.692  1.00  0.00     0.016 A 
ATOM     14  C   UNL     1     160.454 164.217 167.125  1.00  0.00     0.051 A 
ATOM     15  C   UNL     1     161.254 163.233 167.714  1.00  0.00     0.157 A 
ATOM     16  C   UNL     1     163.191 164.677 167.426  1.00  0.00     0.062 A 
ATOM     17  C   UNL     1     162.643 163.463 167.861  1.00  0.00     0.158 A 
BRANCH  15  18
ATOM     18  O   UNL     1     160.636 162.053 168.132  1.00  0.00    -0.504 OA
ATOM     19  H   UNL     1     161.047 161.400 168.784  1.00  0.00     0.293 HD
ENDBRANCH  15  18
BRANCH  17  20
ATOM     20  O   UNL     1     163.508 162.520 168.421  1.00  0.00    -0.504 OA
ATOM     21  H   UNL     1     164.493 162.682 168.580  1.00  0.00     0.293 HD
ENDBRANCH  17  20
ENDBRANCH   1  12
BRANCH   2  22
ATOM     22  O   UNL     1     162.628 168.028 168.522  1.00  0.00    -0.502 OA
ATOM     23  H   UNL     1     161.747 167.597 168.775  1.00  0.00     0.293 HD
ENDBRANCH   2  22
BRANCH   6  24
ATOM     24  O   UNL     1     165.137 171.539 165.399  1.00  0.00    -0.507 OA
ATOM     25  H   UNL     1     165.883 171.576 166.077  1.00  0.00     0.293 HD
ENDBRANCH   6  24
BRANCH   8  26
ATOM     26  O   UNL     1     165.047 169.201 161.224  1.00  0.00    -0.508 OA
ATOM     27  H   UNL     1     165.025 170.050 160.671  1.00  0.00     0.293 HD
ENDBRANCH   8  26
TORSDOF 6
ENDMDL
MODEL 9
REMARK VINA RESULT:     0.000      4.241      5.136
REMARK INTER + INTRA:          -0.335
REMARK INTER:                   0.000
REMARK INTRA:                  -0.335
REMARK UNBOUND:                -0.335
REMARK SMILES O=c1c(O)c(-c2ccc(O)c(O)c2)oc2cc(O)cc(O)c12
REMARK SMILES IDX 5 1 3 2 2 3 1 4 22 5 20 6 19 7 17 8 16 9 15 10 14 11 6 12
REMARK SMILES IDX 7 13 8 14 9 15 13 16 11 17 10 18 12 20 4 22 21 24 18 26
REMARK H PARENT 10 19 12 21 4 23 21 25 18 27
REMARK Flexibility Score: inf
ROOT
ATOM      1  C   UNL     1     166.270 167.441 166.650  1.00  0.00     0.180 A 
ATOM      2  C   UNL     1     165.213 167.719 165.766  1.00  0.00     0.208 A 
ATOM      3  C   UNL     1     165.057 166.923 164.620  1.00  0.00     0.238 A 
ATOM      4  O   UNL     1     164.077 167.141 163.861  1.00  0.00    -0.285 OA
ATOM      5  C   UNL     1     165.970 165.870 164.363  1.00  0.00     0.111 A 
ATOM      6  C   UNL     1     165.930 165.027 163.212  1.00  0.00     0.134 A 
ATOM      7  C   UNL     1     166.803 163.935 163.127  1.00  0.00     0.093 A 
ATOM      8  C   UNL     1     167.755 163.695 164.117  1.00  0.00     0.123 A 
ATOM      9  C   UNL     1     167.842 164.549 165.217  1.00  0.00     0.094 A 
ATOM     10  C   UNL     1     166.961 165.624 165.348  1.00  0.00     0.146 A 
ATOM     11  O   UNL     1     167.069 166.407 166.416  1.00  0.00    -0.452 OA
ENDROOT
BRANCH   1  12
ATOM     12  C   UNL     1     166.514 168.251 167.866  1.00  0.00     0.025 A 
ATOM     13  C   UNL     1     165.961 167.845 169.088  1.00  0.00     0.016 A 
ATOM     14  C   UNL     1     166.195 168.584 170.249  1.00  0.00     0.051 A 
ATOM     15  C   UNL     1     166.996 169.729 170.218  1.00  0.00     0.157 A 
ATOM     16  C   UNL     1     167.338 169.389 167.834  1.00  0.00     0.062 A 
ATOM     17  C   UNL     1     167.582 170.134 168.995  1.00  0.00     0.158 A 
BRANCH  15  18
ATOM     18  O   UNL     1     167.185 170.427 171.412  1.00  0.00    -0.504 OA
ATOM     19  H   UNL     1     167.894 170.199 172.094  1.00  0.00     0.293 HD
ENDBRANCH  15  18
BRANCH  17  20
ATOM     20  O   UNL     1     168.408 171.255 168.889  1.00  0.00    -0.504 OA
ATOM     21  H   UNL     1     169.359 171.288 169.227  1.00  0.00     0.293 HD
ENDBRANCH  17  20
ENDBRANCH   1  12
BRANCH   2  22
ATOM     22  O   UNL     1     164.312 168.748 166.050  1.00  0.00    -0.502 OA
ATOM     23  H   UNL     1     163.456 168.881 165.525  1.00  0.00     0.293 HD
ENDBRANCH   2  22
BRANCH   6  24
ATOM     24  O   UNL     1     165.080 165.233 162.122  1.00  0.00    -0.507 OA
ATOM     25  H   UNL     1     164.839 164.529 161.440  1.00  0.00     0.293 HD
ENDBRANCH   6  24
BRANCH   8  26
ATOM     26  O   UNL     1     168.618 162.609 163.990  1.00  0.00    -0.508 OA
ATOM     27  H   UNL     1     168.755 162.140 163.101  1.00  0.00     0.293 HD
ENDBRANCH   8  26
TORSDOF 6
ENDMDL
