MODEL 1
REMARK VINA RESULT:    -6.045      0.000      0.000
REMARK INTER + INTRA:          -6.222
REMARK INTER:                  -6.222
REMARK INTRA:                   0.000
REMARK UNBOUND:                 0.000
REMARK SMILES O=c1ccc2ccc(O)cc2o1
REMARK SMILES IDX 6 1 7 2 8 3 10 4 11 5 5 6 4 7 3 8 2 9 1 10 12 11 9 12
REMARK H PARENT 9 13
REMARK Flexibility Score: inf
ROOT
ATOM      1  C   UNL     1     -33.368   9.811 -38.876  1.00  0.00     0.016 A 
ATOM      2  C   UNL     1     -33.915  10.833 -39.659  1.00  0.00     0.047 A 
ATOM      3  C   UNL     1     -34.096  12.116 -39.120  1.00  0.00     0.119 A 
ATOM      4  C   UNL     1     -33.728  12.376 -37.795  1.00  0.00     0.094 A 
ATOM      5  C   UNL     1     -33.179  11.359 -37.005  1.00  0.00     0.142 A 
ATOM      6  C   UNL     1     -32.998  10.069 -37.549  1.00  0.00     0.018 A 
ATOM      7  C   UNL     1     -32.447   9.074 -36.736  1.00  0.00     0.019 A 
ATOM      8  C   UNL     1     -32.096   9.381 -35.422  1.00  0.00     0.094 A 
ATOM      9  C   UNL     1     -32.304  10.682 -34.950  1.00  0.00     0.336 A 
ATOM     10  O   UNL     1     -31.993  10.979 -33.768  1.00  0.00    -0.246 OA
ATOM     11  O   UNL     1     -32.830  11.610 -35.746  1.00  0.00    -0.423 OA
ENDROOT
BRANCH   3  12
ATOM     12  O   UNL     1     -34.642  13.139 -39.893  1.00  0.00    -0.508 OA
ATOM     13  H   UNL     1     -35.541  13.036 -40.350  1.00  0.00     0.293 HD
ENDBRANCH   3  12
TORSDOF 1
ENDMDL
MODEL 2
REMARK VINA RESULT:    -6.031      1.080      4.251
REMARK INTER + INTRA:          -6.207
REMARK INTER:                  -6.207
REMARK INTRA:                   0.000
REMARK UNBOUND:                 0.000
REMARK SMILES O=c1ccc2ccc(O)cc2o1
REMARK SMILES IDX 6 1 7 2 8 3 10 4 11 5 5 6 4 7 3 8 2 9 1 10 12 11 9 12
REMARK H PARENT 9 13
REMARK Flexibility Score: inf
ROOT
ATOM      1  C   UNL     1     -32.223   9.693 -36.035  1.00  0.00     0.016 A 
ATOM      2  C   UNL     1     -32.113  10.162 -34.722  1.00  0.00     0.047 A 
ATOM      3  C   UNL     1     -32.587  11.439 -34.385  1.00  0.00     0.119 A 
ATOM      4  C   UNL     1     -33.173  12.248 -35.367  1.00  0.00     0.094 A 
ATOM      5  C   UNL     1     -33.287  11.786 -36.683  1.00  0.00     0.142 A 
ATOM      6  C   UNL     1     -32.809  10.501 -37.020  1.00  0.00     0.018 A 
ATOM      7  C   UNL     1     -32.938  10.067 -38.342  1.00  0.00     0.019 A 
ATOM      8  C   UNL     1     -33.529  10.909 -39.284  1.00  0.00     0.094 A 
ATOM      9  C   UNL     1     -33.980  12.170 -38.878  1.00  0.00     0.336 A 
ATOM     10  O   UNL     1     -34.516  12.944 -39.713  1.00  0.00    -0.246 OA
ATOM     11  O   UNL     1     -33.846  12.557 -37.612  1.00  0.00    -0.423 OA
ENDROOT
BRANCH   3  12
ATOM     12  O   UNL     1     -32.480  11.913 -33.080  1.00  0.00    -0.508 OA
ATOM     13  H   UNL     1     -32.876  11.405 -32.298  1.00  0.00     0.293 HD
ENDBRANCH   3  12
TORSDOF 1
ENDMDL
MODEL 3
REMARK VINA RESULT:    -5.894      1.671      2.258
REMARK INTER + INTRA:          -6.066
REMARK INTER:                  -6.066
REMARK INTRA:                   0.000
REMARK UNBOUND:                 0.000
REMARK SMILES O=c1ccc2ccc(O)cc2o1
REMARK SMILES IDX 6 1 7 2 8 3 10 4 11 5 5 6 4 7 3 8 2 9 1 10 12 11 9 12
REMARK H PARENT 9 13
REMARK Flexibility Score: inf
ROOT
ATOM      1  C   UNL     1     -31.584   9.091 -37.056  1.00  0.00     0.016 A 
ATOM      2  C   UNL     1     -31.792   9.103 -38.439  1.00  0.00     0.047 A 
ATOM      3  C   UNL     1     -32.563  10.116 -39.029  1.00  0.00     0.119 A 
ATOM      4  C   UNL     1     -33.125  11.120 -38.232  1.00  0.00     0.094 A 
ATOM      5  C   UNL     1     -32.921  11.116 -36.847  1.00  0.00     0.142 A 
ATOM      6  C   UNL     1     -32.146  10.095 -36.255  1.00  0.00     0.018 A 
ATOM      7  C   UNL     1     -31.959  10.118 -34.870  1.00  0.00     0.019 A 
ATOM      8  C   UNL     1     -32.540  11.139 -34.118  1.00  0.00     0.094 A 
ATOM      9  C   UNL     1     -33.296  12.118 -34.773  1.00  0.00     0.336 A 
ATOM     10  O   UNL     1     -33.828  13.047 -34.112  1.00  0.00    -0.246 OA
ATOM     11  O   UNL     1     -33.457  12.073 -36.093  1.00  0.00    -0.423 OA
ENDROOT
BRANCH   3  12
ATOM     12  O   UNL     1     -32.776  10.134 -40.406  1.00  0.00    -0.508 OA
ATOM     13  H   UNL     1     -32.015   9.999 -41.061  1.00  0.00     0.293 HD
ENDBRANCH   3  12
TORSDOF 1
ENDMDL
MODEL 4
REMARK VINA RESULT:    -5.783      1.761      3.938
REMARK INTER + INTRA:          -5.952
REMARK INTER:                  -5.952
REMARK INTRA:                   0.000
REMARK UNBOUND:                 0.000
REMARK SMILES O=c1ccc2ccc(O)cc2o1
REMARK SMILES IDX 6 1 7 2 8 3 10 4 11 5 5 6 4 7 3 8 2 9 1 10 12 11 9 12
REMARK H PARENT 9 13
REMARK Flexibility Score: inf
ROOT
ATOM      1  C   UNL     1     -31.975   9.969 -35.159  1.00  0.00     0.016 A 
ATOM      2  C   UNL     1     -32.545  10.994 -34.397  1.00  0.00     0.047 A 
ATOM      3  C   UNL     1     -33.360  11.959 -35.009  1.00  0.00     0.119 A 
ATOM      4  C   UNL     1     -33.603  11.897 -36.386  1.00  0.00     0.094 A 
ATOM      5  C   UNL     1     -33.035  10.875 -37.155  1.00  0.00     0.142 A 
ATOM      6  C   UNL     1     -32.216   9.905 -36.538  1.00  0.00     0.018 A 
ATOM      7  C   UNL     1     -31.665   8.895 -37.332  1.00  0.00     0.019 A 
ATOM      8  C   UNL     1     -31.936   8.876 -38.700  1.00  0.00     0.094 A 
ATOM      9  C   UNL     1     -32.757   9.870 -39.243  1.00  0.00     0.336 A 
ATOM     10  O   UNL     1     -33.013   9.870 -40.475  1.00  0.00    -0.246 OA
ATOM     11  O   UNL     1     -33.270  10.819 -38.464  1.00  0.00    -0.423 OA
ENDROOT
BRANCH   3  12
ATOM     12  O   UNL     1     -33.931  12.984 -34.257  1.00  0.00    -0.508 OA
ATOM     13  H   UNL     1     -34.848  13.354 -34.477  1.00  0.00     0.293 HD
ENDBRANCH   3  12
TORSDOF 1
ENDMDL
MODEL 5
REMARK VINA RESULT:    -5.657      1.717      4.626
REMARK INTER + INTRA:          -5.823
REMARK INTER:                  -5.823
REMARK INTRA:                   0.000
REMARK UNBOUND:                 0.000
REMARK SMILES O=c1ccc2ccc(O)cc2o1
REMARK SMILES IDX 6 1 7 2 8 3 10 4 11 5 5 6 4 7 3 8 2 9 1 10 12 11 9 12
REMARK H PARENT 9 13
REMARK Flexibility Score: inf
ROOT
ATOM      1  C   UNL     1     -33.554  12.549 -36.093  1.00  0.00     0.016 A 
ATOM      2  C   UNL     1     -33.193  11.947 -34.883  1.00  0.00     0.047 A 
ATOM      3  C   UNL     1     -32.855  10.586 -34.843  1.00  0.00     0.119 A 
ATOM      4  C   UNL     1     -32.880   9.825 -36.018  1.00  0.00     0.094 A 
ATOM      5  C   UNL     1     -33.241  10.419 -37.232  1.00  0.00     0.142 A 
ATOM      6  C   UNL     1     -33.580  11.789 -37.270  1.00  0.00     0.018 A 
ATOM      7  C   UNL     1     -33.935  12.355 -38.499  1.00  0.00     0.019 A 
ATOM      8  C   UNL     1     -33.946  11.556 -39.642  1.00  0.00     0.094 A 
ATOM      9  C   UNL     1     -33.598  10.205 -39.529  1.00  0.00     0.336 A 
ATOM     10  O   UNL     1     -33.600   9.469 -40.549  1.00  0.00    -0.246 OA
ATOM     11  O   UNL     1     -33.262   9.693 -38.347  1.00  0.00    -0.423 OA
ENDROOT
BRANCH   3  12
ATOM     12  O   UNL     1     -32.495   9.980 -33.641  1.00  0.00    -0.508 OA
ATOM     13  H   UNL     1     -31.555   9.637 -33.482  1.00  0.00     0.293 HD
ENDBRANCH   3  12
TORSDOF 1
ENDMDL
MODEL 6
REMARK VINA RESULT:    -5.343      2.188      4.463
REMARK INTER + INTRA:          -5.500
REMARK INTER:                  -5.500
REMARK INTRA:                   0.000
REMARK UNBOUND:                 0.000
REMARK SMILES O=c1ccc2ccc(O)cc2o1
REMARK SMILES IDX 6 1 7 2 8 3 10 4 11 5 5 6 4 7 3 8 2 9 1 10 12 11 9 12
REMARK H PARENT 9 13
REMARK Flexibility Score: inf
ROOT
ATOM      1  C   UNL     1     -33.844  12.638 -35.367  1.00  0.00     0.016 A 
ATOM      2  C   UNL     1     -33.519  12.834 -34.020  1.00  0.00     0.047 A 
ATOM      3  C   UNL     1     -32.507  12.071 -33.419  1.00  0.00     0.119 A 
ATOM      4  C   UNL     1     -31.820  11.108 -34.168  1.00  0.00     0.094 A 
ATOM      5  C   UNL     1     -32.139  10.905 -35.515  1.00  0.00     0.142 A 
ATOM      6  C   UNL     1     -33.158  11.674 -36.118  1.00  0.00     0.018 A 
ATOM      7  C   UNL     1     -33.454  11.449 -37.466  1.00  0.00     0.019 A 
ATOM      8  C   UNL     1     -32.741  10.479 -38.170  1.00  0.00     0.094 A 
ATOM      9  C   UNL     1     -31.745   9.754 -37.507  1.00  0.00     0.336 A 
ATOM     10  O   UNL     1     -31.090   8.875 -38.125  1.00  0.00    -0.246 OA
ATOM     11  O   UNL     1     -31.483   9.990 -36.223  1.00  0.00    -0.423 OA
ENDROOT
BRANCH   3  12
ATOM     12  O   UNL     1     -32.178  12.260 -32.078  1.00  0.00    -0.508 OA
ATOM     13  H   UNL     1     -31.221  12.192 -31.754  1.00  0.00     0.293 HD
ENDBRANCH   3  12
TORSDOF 1
ENDMDL
MODEL 7
REMARK VINA RESULT:    -5.290      1.754      2.551
REMARK INTER + INTRA:          -5.444
REMARK INTER:                  -5.444
REMARK INTRA:                   0.000
REMARK UNBOUND:                 0.000
REMARK SMILES O=c1ccc2ccc(O)cc2o1
REMARK SMILES IDX 6 1 7 2 8 3 10 4 11 5 5 6 4 7 3 8 2 9 1 10 12 11 9 12
REMARK H PARENT 9 13
REMARK Flexibility Score: inf
ROOT
ATOM      1  C   UNL     1     -33.764  11.909 -38.377  1.00  0.00     0.016 A 
ATOM      2  C   UNL     1     -33.339  11.015 -39.365  1.00  0.00     0.047 A 
ATOM      3  C   UNL     1     -32.497   9.942 -39.033  1.00  0.00     0.119 A 
ATOM      4  C   UNL     1     -32.080   9.765 -37.709  1.00  0.00     0.094 A 
ATOM      5  C   UNL     1     -32.500  10.656 -36.714  1.00  0.00     0.142 A 
ATOM      6  C   UNL     1     -33.347  11.734 -37.050  1.00  0.00     0.018 A 
ATOM      7  C   UNL     1     -33.751  12.606 -36.034  1.00  0.00     0.019 A 
ATOM      8  C   UNL     1     -33.308  12.388 -34.730  1.00  0.00     0.094 A 
ATOM      9  C   UNL     1     -32.469  11.299 -34.471  1.00  0.00     0.336 A 
ATOM     10  O   UNL     1     -32.060  11.085 -33.300  1.00  0.00    -0.246 OA
ATOM     11  O   UNL     1     -32.101  10.483 -35.456  1.00  0.00    -0.423 OA
ENDROOT
BRANCH   3  12
ATOM     12  O   UNL     1     -32.069   9.048 -40.013  1.00  0.00    -0.508 OA
ATOM     13  H   UNL     1     -32.532   8.158 -40.155  1.00  0.00     0.293 HD
ENDBRANCH   3  12
TORSDOF 1
ENDMDL
MODEL 8
REMARK VINA RESULT:    -5.277      1.662      2.440
REMARK INTER + INTRA:          -5.431
REMARK INTER:                  -5.431
REMARK INTRA:                   0.000
REMARK UNBOUND:                 0.000
REMARK SMILES O=c1ccc2ccc(O)cc2o1
REMARK SMILES IDX 6 1 7 2 8 3 10 4 11 5 5 6 4 7 3 8 2 9 1 10 12 11 9 12
REMARK H PARENT 9 13
REMARK Flexibility Score: inf
ROOT
ATOM      1  C   UNL     1     -34.224  12.622 -38.797  1.00  0.00     0.016 A 
ATOM      2  C   UNL     1     -34.747  12.199 -40.023  1.00  0.00     0.047 A 
ATOM      3  C   UNL     1     -34.718  10.840 -40.373  1.00  0.00     0.119 A 
ATOM      4  C   UNL     1     -34.164   9.904 -39.492  1.00  0.00     0.094 A 
ATOM      5  C   UNL     1     -33.638  10.319 -38.264  1.00  0.00     0.142 A 
ATOM      6  C   UNL     1     -33.668  11.687 -37.914  1.00  0.00     0.018 A 
ATOM      7  C   UNL     1     -33.136  12.071 -36.679  1.00  0.00     0.019 A 
ATOM      8  C   UNL     1     -32.594  11.102 -35.836  1.00  0.00     0.094 A 
ATOM      9  C   UNL     1     -32.598   9.765 -36.249  1.00  0.00     0.336 A 
ATOM     10  O   UNL     1     -32.114   8.875 -35.502  1.00  0.00    -0.246 OA
ATOM     11  O   UNL     1     -33.112   9.426 -37.429  1.00  0.00    -0.423 OA
ENDROOT
BRANCH   3  12
ATOM     12  O   UNL     1     -35.237  10.411 -41.593  1.00  0.00    -0.508 OA
ATOM     13  H   UNL     1     -35.709   9.519 -41.683  1.00  0.00     0.293 HD
ENDBRANCH   3  12
TORSDOF 1
ENDMDL
