MODEL 1
REMARK VINA RESULT:    10.376      0.000      0.000
REMARK INTER + INTRA:          12.869
REMARK INTER:                  12.803
REMARK INTRA:                   0.066
REMARK UNBOUND:                 0.066
REMARK SMILES Oc1cc(O)c2cc(O)c(-c3cc(O)c(O)c(O)c3)[o+]c2c1.[Cl-]
REMARK SMILES IDX 10 1 20 2 21 3 22 4 2 5 3 6 4 7 6 8 7 9 8 10 11 11 12 12
REMARK SMILES IDX 13 13 19 14 15 15 17 16 14 17 16 19 18 21 9 23 1 25 5 27
REMARK H PARENT 14 18 16 20 18 22 9 24 1 26 5 28
REMARK Flexibility Score: inf
ROOT
ATOM      1  C   UNL     1      18.779  22.543   9.999  1.00  0.00     0.402 A 
ATOM      2  O   UNL     1      17.688  21.832   9.715  1.00  0.00    -0.202 OA
ATOM      3  C   UNL     1      17.038  21.927   8.561  1.00  0.00     0.368 A 
ATOM      4  C   UNL     1      15.896  21.149   8.343  1.00  0.00     0.162 A 
ATOM      5  C   UNL     1      15.201  21.242   7.131  1.00  0.00     0.128 A 
ATOM      6  C   UNL     1      15.648  22.115   6.134  1.00  0.00     0.093 A 
ATOM      7  C   UNL     1      16.792  22.902   6.337  1.00  0.00     0.136 A 
ATOM      8  C   UNL     1      17.491  22.809   7.556  1.00  0.00     0.125 A 
ATOM      9  C   UNL     1      18.643  23.562   7.811  1.00  0.00     0.078 A 
ATOM     10  C   UNL     1      19.305  23.428   9.035  1.00  0.00     0.223 A 
ENDROOT
BRANCH   1  11
ATOM     11  C   UNL     1      19.411  22.358  11.324  1.00  0.00     0.091 A 
ATOM     12  C   UNL     1      19.980  23.436  12.022  1.00  0.00     0.068 A 
ATOM     13  C   UNL     1      20.554  23.254  13.285  1.00  0.00     0.162 A 
ATOM     14  C   UNL     1      19.394  21.092  11.925  1.00  0.00     0.068 A 
ATOM     15  C   UNL     1      20.555  21.967  13.873  1.00  0.00     0.200 A 
ATOM     16  C   UNL     1      19.968  20.895  13.187  1.00  0.00     0.162 A 
BRANCH  13  17
ATOM     17  O   UNL     1      21.101  24.372  13.917  1.00  0.00    -0.504 OA
ATOM     18  H   UNL     1      20.650  24.876  14.668  1.00  0.00     0.293 HD
ENDBRANCH  13  17
BRANCH  15  19
ATOM     19  O   UNL     1      21.121  21.714  15.125  1.00  0.00    -0.502 OA
ATOM     20  H   UNL     1      21.159  20.800  15.555  1.00  0.00     0.293 HD
ENDBRANCH  15  19
BRANCH  16  21
ATOM     21  O   UNL     1      19.959  19.628  13.770  1.00  0.00    -0.504 OA
ATOM     22  H   UNL     1      20.790  19.050  13.800  1.00  0.00     0.293 HD
ENDBRANCH  16  21
ENDBRANCH   1  11
BRANCH  10  23
ATOM     23  O   UNL     1      20.481  24.138   9.275  1.00  0.00    -0.500 OA
ATOM     24  H   UNL     1      20.466  25.090   9.622  1.00  0.00     0.294 HD
ENDBRANCH  10  23
BRANCH   5  25
ATOM     25  O   UNL     1      14.062  20.471   6.906  1.00  0.00    -0.507 OA
ATOM     26  H   UNL     1      13.277  20.487   7.545  1.00  0.00     0.293 HD
ENDBRANCH   5  25
BRANCH   7  27
ATOM     27  O   UNL     1      17.230  23.768   5.335  1.00  0.00    -0.507 OA
ATOM     28  H   UNL     1      18.170  24.147   5.335  1.00  0.00     0.293 HD
ENDBRANCH   7  27
TORSDOF 7
ENDMDL
MODEL 2
REMARK VINA RESULT:    11.765      8.691     11.935
REMARK INTER + INTRA:          14.582
REMARK INTER:                  14.616
REMARK INTRA:                  -0.034
REMARK UNBOUND:                 0.066
REMARK SMILES Oc1cc(O)c2cc(O)c(-c3cc(O)c(O)c(O)c3)[o+]c2c1.[Cl-]
REMARK SMILES IDX 10 1 20 2 21 3 22 4 2 5 3 6 4 7 6 8 7 9 8 10 11 11 12 12
REMARK SMILES IDX 13 13 19 14 15 15 17 16 14 17 16 19 18 21 9 23 1 25 5 27
REMARK H PARENT 14 18 16 20 18 22 9 24 1 26 5 28
REMARK Flexibility Score: inf
ROOT
ATOM      1  C   UNL     1      13.054  21.632  -0.200  1.00  0.00     0.402 A 
ATOM      2  O   UNL     1      12.329  20.762  -0.901  1.00  0.00    -0.202 OA
ATOM      3  C   UNL     1      12.263  20.771  -2.228  1.00  0.00     0.368 A 
ATOM      4  C   UNL     1      11.474  19.825  -2.889  1.00  0.00     0.162 A 
ATOM      5  C   UNL     1      11.394  19.826  -4.287  1.00  0.00     0.128 A 
ATOM      6  C   UNL     1      12.106  20.777  -5.026  1.00  0.00     0.093 A 
ATOM      7  C   UNL     1      12.903  21.732  -4.378  1.00  0.00     0.136 A 
ATOM      8  C   UNL     1      12.983  21.731  -2.972  1.00  0.00     0.125 A 
ATOM      9  C   UNL     1      13.769  22.653  -2.271  1.00  0.00     0.078 A 
ATOM     10  C   UNL     1      13.819  22.606  -0.876  1.00  0.00     0.223 A 
ENDROOT
BRANCH   1  11
ATOM     11  C   UNL     1      13.041  21.528   1.277  1.00  0.00     0.091 A 
ATOM     12  C   UNL     1      12.902  22.664   2.090  1.00  0.00     0.068 A 
ATOM     13  C   UNL     1      12.866  22.552   3.485  1.00  0.00     0.162 A 
ATOM     14  C   UNL     1      13.110  20.264   1.878  1.00  0.00     0.068 A 
ATOM     15  C   UNL     1      12.963  21.273   4.085  1.00  0.00     0.200 A 
ATOM     16  C   UNL     1      13.079  20.137   3.273  1.00  0.00     0.162 A 
BRANCH  13  17
ATOM     17  O   UNL     1      12.728  23.725   4.228  1.00  0.00    -0.504 OA
ATOM     18  H   UNL     1      12.611  23.750   5.231  1.00  0.00     0.293 HD
ENDBRANCH  13  17
BRANCH  15  19
ATOM     19  O   UNL     1      12.946  21.091   5.470  1.00  0.00    -0.502 OA
ATOM     20  H   UNL     1      13.164  20.218   5.929  1.00  0.00     0.293 HD
ENDBRANCH  15  19
BRANCH  16  21
ATOM     21  O   UNL     1      13.164  18.876   3.863  1.00  0.00    -0.504 OA
ATOM     22  H   UNL     1      13.794  18.691   4.634  1.00  0.00     0.293 HD
ENDBRANCH  16  21
ENDBRANCH   1  11
BRANCH  10  23
ATOM     23  O   UNL     1      14.639  23.490  -0.175  1.00  0.00    -0.500 OA
ATOM     24  H   UNL     1      14.739  24.458  -0.455  1.00  0.00     0.294 HD
ENDBRANCH  10  23
BRANCH   5  25
ATOM     25  O   UNL     1      10.609  18.887  -4.954  1.00  0.00    -0.507 OA
ATOM     26  H   UNL     1       9.753  19.152  -5.425  1.00  0.00     0.293 HD
ENDBRANCH   5  25
BRANCH   7  27
ATOM     27  O   UNL     1      13.611  22.674  -5.125  1.00  0.00    -0.507 OA
ATOM     28  H   UNL     1      13.210  23.107  -5.950  1.00  0.00     0.293 HD
ENDBRANCH   7  27
TORSDOF 7
ENDMDL
MODEL 3
REMARK VINA RESULT:    12.194      7.729     11.384
REMARK INTER + INTRA:          15.112
REMARK INTER:                  14.906
REMARK INTRA:                   0.206
REMARK UNBOUND:                 0.066
REMARK SMILES Oc1cc(O)c2cc(O)c(-c3cc(O)c(O)c(O)c3)[o+]c2c1.[Cl-]
REMARK SMILES IDX 10 1 20 2 21 3 22 4 2 5 3 6 4 7 6 8 7 9 8 10 11 11 12 12
REMARK SMILES IDX 13 13 19 14 15 15 17 16 14 17 16 19 18 21 9 23 1 25 5 27
REMARK H PARENT 14 18 16 20 18 22 9 24 1 26 5 28
REMARK Flexibility Score: inf
ROOT
ATOM      1  C   UNL     1      13.738  22.629  -0.097  1.00  0.00     0.402 A 
ATOM      2  O   UNL     1      13.053  21.570  -0.525  1.00  0.00    -0.202 OA
ATOM      3  C   UNL     1      12.753  21.365  -1.803  1.00  0.00     0.368 A 
ATOM      4  C   UNL     1      12.025  20.229  -2.170  1.00  0.00     0.162 A 
ATOM      5  C   UNL     1      11.700  20.005  -3.514  1.00  0.00     0.128 A 
ATOM      6  C   UNL     1      12.104  20.919  -4.493  1.00  0.00     0.093 A 
ATOM      7  C   UNL     1      12.836  22.062  -4.140  1.00  0.00     0.136 A 
ATOM      8  C   UNL     1      13.163  22.289  -2.789  1.00  0.00     0.125 A 
ATOM      9  C   UNL     1      13.897  23.408  -2.379  1.00  0.00     0.078 A 
ATOM     10  C   UNL     1      14.201  23.583  -1.027  1.00  0.00     0.223 A 
ENDROOT
BRANCH   1  11
ATOM     11  C   UNL     1      14.003  22.753   1.355  1.00  0.00     0.091 A 
ATOM     12  C   UNL     1      15.153  23.398   1.837  1.00  0.00     0.068 A 
ATOM     13  C   UNL     1      15.383  23.530   3.211  1.00  0.00     0.162 A 
ATOM     14  C   UNL     1      13.061  22.266   2.271  1.00  0.00     0.068 A 
ATOM     15  C   UNL     1      14.438  23.013   4.130  1.00  0.00     0.200 A 
ATOM     16  C   UNL     1      13.280  22.387   3.649  1.00  0.00     0.162 A 
BRANCH  13  17
ATOM     17  O   UNL     1      16.549  24.183   3.616  1.00  0.00    -0.504 OA
ATOM     18  H   UNL     1      16.606  24.795   4.418  1.00  0.00     0.293 HD
ENDBRANCH  13  17
BRANCH  15  19
ATOM     19  O   UNL     1      14.611  23.100   5.513  1.00  0.00    -0.502 OA
ATOM     20  H   UNL     1      13.872  22.954   6.187  1.00  0.00     0.293 HD
ENDBRANCH  15  19
BRANCH  16  21
ATOM     21  O   UNL     1      12.343  21.886   4.553  1.00  0.00    -0.504 OA
ATOM     22  H   UNL     1      11.500  22.398   4.783  1.00  0.00     0.293 HD
ENDBRANCH  16  21
ENDBRANCH   1  11
BRANCH  10  23
ATOM     23  O   UNL     1      14.975  24.669  -0.619  1.00  0.00    -0.500 OA
ATOM     24  H   UNL     1      14.886  25.579  -1.054  1.00  0.00     0.294 HD
ENDBRANCH  10  23
BRANCH   5  25
ATOM     25  O   UNL     1      10.975  18.875  -3.888  1.00  0.00    -0.507 OA
ATOM     26  H   UNL     1       9.962  18.871  -3.884  1.00  0.00     0.293 HD
ENDBRANCH   5  25
BRANCH   7  27
ATOM     27  O   UNL     1      13.235  22.966  -5.125  1.00  0.00    -0.507 OA
ATOM     28  H   UNL     1      13.579  23.891  -4.889  1.00  0.00     0.293 HD
ENDBRANCH   7  27
TORSDOF 7
ENDMDL
MODEL 4
REMARK VINA RESULT:    12.227      7.720     11.489
REMARK INTER + INTRA:          15.152
REMARK INTER:                  14.914
REMARK INTRA:                   0.238
REMARK UNBOUND:                 0.066
REMARK SMILES Oc1cc(O)c2cc(O)c(-c3cc(O)c(O)c(O)c3)[o+]c2c1.[Cl-]
REMARK SMILES IDX 10 1 20 2 21 3 22 4 2 5 3 6 4 7 6 8 7 9 8 10 11 11 12 12
REMARK SMILES IDX 13 13 19 14 15 15 17 16 14 17 16 19 18 21 9 23 1 25 5 27
REMARK H PARENT 14 18 16 20 18 22 9 24 1 26 5 28
REMARK Flexibility Score: inf
ROOT
ATOM      1  C   UNL     1      13.664  22.664  -0.089  1.00  0.00     0.402 A 
ATOM      2  O   UNL     1      12.996  21.597  -0.525  1.00  0.00    -0.202 OA
ATOM      3  C   UNL     1      12.713  21.389  -1.807  1.00  0.00     0.368 A 
ATOM      4  C   UNL     1      12.003  20.245  -2.182  1.00  0.00     0.162 A 
ATOM      5  C   UNL     1      11.697  20.016  -3.530  1.00  0.00     0.128 A 
ATOM      6  C   UNL     1      12.103  20.934  -4.504  1.00  0.00     0.093 A 
ATOM      7  C   UNL     1      12.817  22.086  -4.143  1.00  0.00     0.136 A 
ATOM      8  C   UNL     1      13.125  22.317  -2.788  1.00  0.00     0.125 A 
ATOM      9  C   UNL     1      13.842  23.443  -2.370  1.00  0.00     0.078 A 
ATOM     10  C   UNL     1      14.128  23.622  -1.014  1.00  0.00     0.223 A 
ENDROOT
BRANCH   1  11
ATOM     11  C   UNL     1      13.910  22.791   1.365  1.00  0.00     0.091 A 
ATOM     12  C   UNL     1      13.021  22.250   2.308  1.00  0.00     0.068 A 
ATOM     13  C   UNL     1      13.275  22.354   3.680  1.00  0.00     0.162 A 
ATOM     14  C   UNL     1      15.082  23.415   1.814  1.00  0.00     0.068 A 
ATOM     15  C   UNL     1      14.449  23.009   4.125  1.00  0.00     0.200 A 
ATOM     16  C   UNL     1      15.347  23.530   3.184  1.00  0.00     0.162 A 
BRANCH  13  17
ATOM     17  O   UNL     1      12.346  21.793   4.558  1.00  0.00    -0.504 OA
ATOM     18  H   UNL     1      11.722  21.037   4.314  1.00  0.00     0.293 HD
ENDBRANCH  13  17
BRANCH  15  19
ATOM     19  O   UNL     1      14.757  23.158   5.479  1.00  0.00    -0.502 OA
ATOM     20  H   UNL     1      15.678  23.386   5.829  1.00  0.00     0.293 HD
ENDBRANCH  15  19
BRANCH  16  21
ATOM     21  O   UNL     1      16.509  24.166   3.621  1.00  0.00    -0.504 OA
ATOM     22  H   UNL     1      17.350  23.645   3.840  1.00  0.00     0.293 HD
ENDBRANCH  16  21
ENDBRANCH   1  11
BRANCH  10  23
ATOM     23  O   UNL     1      14.885  24.717  -0.598  1.00  0.00    -0.500 OA
ATOM     24  H   UNL     1      15.509  24.660   0.199  1.00  0.00     0.294 HD
ENDBRANCH  10  23
BRANCH   5  25
ATOM     25  O   UNL     1      10.988  18.878  -3.912  1.00  0.00    -0.507 OA
ATOM     26  H   UNL     1      10.529  18.287  -3.231  1.00  0.00     0.293 HD
ENDBRANCH   5  25
BRANCH   7  27
ATOM     27  O   UNL     1      13.219  22.993  -5.123  1.00  0.00    -0.507 OA
ATOM     28  H   UNL     1      13.695  22.690  -5.966  1.00  0.00     0.293 HD
ENDBRANCH   7  27
TORSDOF 7
ENDMDL
MODEL 5
REMARK VINA RESULT:    12.438      8.546     12.032
REMARK INTER + INTRA:          15.413
REMARK INTER:                  15.222
REMARK INTRA:                   0.191
REMARK UNBOUND:                 0.066
REMARK SMILES Oc1cc(O)c2cc(O)c(-c3cc(O)c(O)c(O)c3)[o+]c2c1.[Cl-]
REMARK SMILES IDX 10 1 20 2 21 3 22 4 2 5 3 6 4 7 6 8 7 9 8 10 11 11 12 12
REMARK SMILES IDX 13 13 19 14 15 15 17 16 14 17 16 19 18 21 9 23 1 25 5 27
REMARK H PARENT 14 18 16 20 18 22 9 24 1 26 5 28
REMARK Flexibility Score: inf
ROOT
ATOM      1  C   UNL     1      13.041  21.543  -0.185  1.00  0.00     0.402 A 
ATOM      2  O   UNL     1      12.266  20.702  -0.868  1.00  0.00    -0.202 OA
ATOM      3  C   UNL     1      12.182  20.704  -2.195  1.00  0.00     0.368 A 
ATOM      4  C   UNL     1      11.340  19.791  -2.837  1.00  0.00     0.162 A 
ATOM      5  C   UNL     1      11.241  19.787  -4.234  1.00  0.00     0.128 A 
ATOM      6  C   UNL     1      11.985  20.698  -4.990  1.00  0.00     0.093 A 
ATOM      7  C   UNL     1      12.835  21.619  -4.360  1.00  0.00     0.136 A 
ATOM      8  C   UNL     1      12.935  21.624  -2.956  1.00  0.00     0.125 A 
ATOM      9  C   UNL     1      13.773  22.514  -2.274  1.00  0.00     0.078 A 
ATOM     10  C   UNL     1      13.841  22.474  -0.878  1.00  0.00     0.223 A 
ENDROOT
BRANCH   1  11
ATOM     11  C   UNL     1      13.044  21.449   1.293  1.00  0.00     0.091 A 
ATOM     12  C   UNL     1      12.902  20.216   1.949  1.00  0.00     0.068 A 
ATOM     13  C   UNL     1      12.930  20.136   3.346  1.00  0.00     0.162 A 
ATOM     14  C   UNL     1      13.248  22.607   2.056  1.00  0.00     0.068 A 
ATOM     15  C   UNL     1      13.111  21.314   4.109  1.00  0.00     0.200 A 
ATOM     16  C   UNL     1      13.273  22.542   3.454  1.00  0.00     0.162 A 
BRANCH  13  17
ATOM     17  O   UNL     1      12.782  18.875   3.928  1.00  0.00    -0.504 OA
ATOM     18  H   UNL     1      12.520  18.724   4.892  1.00  0.00     0.293 HD
ENDBRANCH  13  17
BRANCH  15  19
ATOM     19  O   UNL     1      13.136  21.306   5.506  1.00  0.00    -0.502 OA
ATOM     20  H   UNL     1      13.920  21.622   6.060  1.00  0.00     0.293 HD
ENDBRANCH  15  19
BRANCH  16  21
ATOM     21  O   UNL     1      13.462  23.702   4.205  1.00  0.00    -0.504 OA
ATOM     22  H   UNL     1      13.060  23.809   5.129  1.00  0.00     0.293 HD
ENDBRANCH  16  21
ENDBRANCH   1  11
BRANCH  10  23
ATOM     23  O   UNL     1      14.710  23.325  -0.196  1.00  0.00    -0.500 OA
ATOM     24  H   UNL     1      15.351  23.937  -0.688  1.00  0.00     0.294 HD
ENDBRANCH  10  23
BRANCH   5  25
ATOM     25  O   UNL     1      10.403  18.880  -4.882  1.00  0.00    -0.507 OA
ATOM     26  H   UNL     1       9.536  18.568  -4.463  1.00  0.00     0.293 HD
ENDBRANCH   5  25
BRANCH   7  27
ATOM     27  O   UNL     1      13.575  22.522  -5.125  1.00  0.00    -0.507 OA
ATOM     28  H   UNL     1      14.127  22.218  -5.920  1.00  0.00     0.293 HD
ENDBRANCH   7  27
TORSDOF 7
ENDMDL
MODEL 6
REMARK VINA RESULT:    13.149      7.841     11.884
REMARK INTER + INTRA:          16.290
REMARK INTER:                  16.368
REMARK INTRA:                  -0.078
REMARK UNBOUND:                 0.066
REMARK SMILES Oc1cc(O)c2cc(O)c(-c3cc(O)c(O)c(O)c3)[o+]c2c1.[Cl-]
REMARK SMILES IDX 10 1 20 2 21 3 22 4 2 5 3 6 4 7 6 8 7 9 8 10 11 11 12 12
REMARK SMILES IDX 13 13 19 14 15 15 17 16 14 17 16 19 18 21 9 23 1 25 5 27
REMARK H PARENT 14 18 16 20 18 22 9 24 1 26 5 28
REMARK Flexibility Score: inf
ROOT
ATOM      1  C   UNL     1      13.578  22.571  -0.206  1.00  0.00     0.402 A 
ATOM      2  O   UNL     1      13.572  23.665  -0.967  1.00  0.00    -0.202 OA
ATOM      3  C   UNL     1      13.359  23.638  -2.278  1.00  0.00     0.368 A 
ATOM      4  C   UNL     1      13.375  24.831  -3.007  1.00  0.00     0.162 A 
ATOM      5  C   UNL     1      13.155  24.814  -4.391  1.00  0.00     0.128 A 
ATOM      6  C   UNL     1      12.919  23.601  -5.046  1.00  0.00     0.093 A 
ATOM      7  C   UNL     1      12.900  22.396  -4.328  1.00  0.00     0.136 A 
ATOM      8  C   UNL     1      13.121  22.412  -2.938  1.00  0.00     0.125 A 
ATOM      9  C   UNL     1      13.105  21.243  -2.169  1.00  0.00     0.078 A 
ATOM     10  C   UNL     1      13.324  21.314  -0.790  1.00  0.00     0.223 A 
ENDROOT
BRANCH   1  11
ATOM     11  C   UNL     1      13.836  22.728   1.244  1.00  0.00     0.091 A 
ATOM     12  C   UNL     1      12.966  22.189   2.205  1.00  0.00     0.068 A 
ATOM     13  C   UNL     1      13.232  22.322   3.573  1.00  0.00     0.162 A 
ATOM     14  C   UNL     1      15.002  23.378   1.669  1.00  0.00     0.068 A 
ATOM     15  C   UNL     1      14.399  23.003   3.994  1.00  0.00     0.200 A 
ATOM     16  C   UNL     1      15.279  23.522   3.034  1.00  0.00     0.162 A 
BRANCH  13  17
ATOM     17  O   UNL     1      12.320  21.762   4.470  1.00  0.00    -0.504 OA
ATOM     18  H   UNL     1      12.556  21.049   5.145  1.00  0.00     0.293 HD
ENDBRANCH  13  17
BRANCH  15  19
ATOM     19  O   UNL     1      14.718  23.182   5.342  1.00  0.00    -0.502 OA
ATOM     20  H   UNL     1      14.614  24.056   5.838  1.00  0.00     0.293 HD
ENDBRANCH  15  19
BRANCH  16  21
ATOM     21  O   UNL     1      16.435  24.184   3.448  1.00  0.00    -0.504 OA
ATOM     22  H   UNL     1      17.088  23.758   4.095  1.00  0.00     0.293 HD
ENDBRANCH  16  21
ENDBRANCH   1  11
BRANCH  10  23
ATOM     23  O   UNL     1      13.259  20.158  -0.012  1.00  0.00    -0.500 OA
ATOM     24  H   UNL     1      12.377  19.703   0.193  1.00  0.00     0.294 HD
ENDBRANCH  10  23
BRANCH   5  25
ATOM     25  O   UNL     1      13.169  25.999  -5.125  1.00  0.00    -0.507 OA
ATOM     26  H   UNL     1      13.976  26.610  -5.128  1.00  0.00     0.293 HD
ENDBRANCH   5  25
BRANCH   7  27
ATOM     27  O   UNL     1      12.662  21.192  -4.992  1.00  0.00    -0.507 OA
ATOM     28  H   UNL     1      13.135  20.962  -5.859  1.00  0.00     0.293 HD
ENDBRANCH   7  27
TORSDOF 7
ENDMDL
MODEL 7
REMARK VINA RESULT:    13.160      7.926     11.852
REMARK INTER + INTRA:          16.303
REMARK INTER:                  16.393
REMARK INTRA:                  -0.090
REMARK UNBOUND:                 0.066
REMARK SMILES Oc1cc(O)c2cc(O)c(-c3cc(O)c(O)c(O)c3)[o+]c2c1.[Cl-]
REMARK SMILES IDX 10 1 20 2 21 3 22 4 2 5 3 6 4 7 6 8 7 9 8 10 11 11 12 12
REMARK SMILES IDX 13 13 19 14 15 15 17 16 14 17 16 19 18 21 9 23 1 25 5 27
REMARK H PARENT 14 18 16 20 18 22 9 24 1 26 5 28
REMARK Flexibility Score: inf
ROOT
ATOM      1  C   UNL     1      13.559  22.498  -0.256  1.00  0.00     0.402 A 
ATOM      2  O   UNL     1      13.535  23.601  -1.002  1.00  0.00    -0.202 OA
ATOM      3  C   UNL     1      13.310  23.589  -2.312  1.00  0.00     0.368 A 
ATOM      4  C   UNL     1      13.306  24.792  -3.025  1.00  0.00     0.162 A 
ATOM      5  C   UNL     1      13.073  24.791  -4.407  1.00  0.00     0.128 A 
ATOM      6  C   UNL     1      12.844  23.585  -5.076  1.00  0.00     0.093 A 
ATOM      7  C   UNL     1      12.844  22.370  -4.374  1.00  0.00     0.136 A 
ATOM      8  C   UNL     1      13.078  22.370  -2.985  1.00  0.00     0.125 A 
ATOM      9  C   UNL     1      13.082  21.190  -2.232  1.00  0.00     0.078 A 
ATOM     10  C   UNL     1      13.313  21.246  -0.855  1.00  0.00     0.223 A 
ENDROOT
BRANCH   1  11
ATOM     11  C   UNL     1      13.830  22.638   1.193  1.00  0.00     0.091 A 
ATOM     12  C   UNL     1      14.960  23.325   1.664  1.00  0.00     0.068 A 
ATOM     13  C   UNL     1      15.194  23.473   3.036  1.00  0.00     0.162 A 
ATOM     14  C   UNL     1      12.911  22.125   2.118  1.00  0.00     0.068 A 
ATOM     15  C   UNL     1      14.274  22.928   3.963  1.00  0.00     0.200 A 
ATOM     16  C   UNL     1      13.134  22.261   3.494  1.00  0.00     0.162 A 
BRANCH  13  17
ATOM     17  O   UNL     1      16.340  24.167   3.429  1.00  0.00    -0.504 OA
ATOM     18  H   UNL     1      16.898  23.928   4.236  1.00  0.00     0.293 HD
ENDBRANCH  13  17
BRANCH  15  19
ATOM     19  O   UNL     1      14.453  23.029   5.345  1.00  0.00    -0.502 OA
ATOM     20  H   UNL     1      14.143  23.814   5.900  1.00  0.00     0.293 HD
ENDBRANCH  15  19
BRANCH  16  21
ATOM     21  O   UNL     1      12.222  21.734   4.407  1.00  0.00    -0.504 OA
ATOM     22  H   UNL     1      12.348  21.839   5.406  1.00  0.00     0.293 HD
ENDBRANCH  16  21
ENDBRANCH   1  11
BRANCH  10  23
ATOM     23  O   UNL     1      13.268  20.080  -0.091  1.00  0.00    -0.500 OA
ATOM     24  H   UNL     1      12.494  19.882   0.533  1.00  0.00     0.294 HD
ENDBRANCH  10  23
BRANCH   5  25
ATOM     25  O   UNL     1      13.067  25.986  -5.125  1.00  0.00    -0.507 OA
ATOM     26  H   UNL     1      12.274  26.614  -5.102  1.00  0.00     0.293 HD
ENDBRANCH   5  25
BRANCH   7  27
ATOM     27  O   UNL     1      12.613  21.173  -5.051  1.00  0.00    -0.507 OA
ATOM     28  H   UNL     1      11.912  20.510  -4.736  1.00  0.00     0.293 HD
ENDBRANCH   7  27
TORSDOF 7
ENDMDL
