MODEL 1
REMARK VINA RESULT:    -1.918      0.000      0.000
REMARK INTER + INTRA:          -4.938
REMARK INTER:                  -4.161
REMARK INTRA:                  -0.777
REMARK UNBOUND:                -0.777
REMARK SMILES CCCCCCCCCCCCCCCCCCCCCC(=O)[O-]
REMARK SMILES IDX 12 1 11 2 10 3 9 4 8 5 7 6 6 7 5 8 4 9 3 10 2 11 1 12 13 13
REMARK SMILES IDX 14 14 15 15 16 16 17 17 18 18 19 19 20 20 21 21 22 22 23 23
REMARK SMILES IDX 24 24
REMARK H PARENT
REMARK Flexibility Score: inf
ROOT
ATOM      1  C   UNL     1       9.916  78.986   3.521  1.00  0.00     0.000 C 
ENDROOT
BRANCH   1   2
ATOM      2  C   UNL     1      10.977  80.095   3.406  1.00  0.00     0.000 C 
BRANCH   2   3
ATOM      3  C   UNL     1      11.970  79.843   2.261  1.00  0.00     0.000 C 
BRANCH   3   4
ATOM      4  C   UNL     1      13.434  79.890   2.729  1.00  0.00    -0.000 C 
BRANCH   4   5
ATOM      5  C   UNL     1      14.434  79.904   1.559  1.00  0.00    -0.000 C 
BRANCH   5   6
ATOM      6  C   UNL     1      13.798  79.991   0.160  1.00  0.00    -0.000 C 
BRANCH   6   7
ATOM      7  C   UNL     1      14.616  79.254  -0.913  1.00  0.00    -0.000 C 
BRANCH   7   8
ATOM      8  C   UNL     1      14.903  80.125  -2.149  1.00  0.00    -0.000 C 
BRANCH   8   9
ATOM      9  C   UNL     1      15.114  79.350  -3.463  1.00  0.00    -0.000 C 
BRANCH   9  10
ATOM     10  C   UNL     1      14.150  78.160  -3.651  1.00  0.00    -0.000 C 
BRANCH  10  11
ATOM     11  C   UNL     1      13.637  78.047  -5.095  1.00  0.00    -0.003 C 
ATOM     12  C   UNL     1      14.308  79.077  -5.999  1.00  0.00     0.004 C 
ENDBRANCH  10  11
ENDBRANCH   9  10
ENDBRANCH   8   9
ENDBRANCH   7   8
ENDBRANCH   6   7
ENDBRANCH   5   6
ENDBRANCH   4   5
ENDBRANCH   3   4
ENDBRANCH   2   3
ENDBRANCH   1   2
BRANCH   1  13
ATOM     13  C   UNL     1       8.486  79.521   3.342  1.00  0.00     0.000 C 
BRANCH  13  14
ATOM     14  C   UNL     1       7.789  79.798   4.686  1.00  0.00     0.000 C 
BRANCH  14  15
ATOM     15  C   UNL     1       7.596  78.526   5.528  1.00  0.00     0.000 C 
BRANCH  15  16
ATOM     16  C   UNL     1       6.112  78.179   5.739  1.00  0.00     0.000 C 
BRANCH  16  17
ATOM     17  C   UNL     1       5.591  78.600   7.124  1.00  0.00     0.000 C 
BRANCH  17  18
ATOM     18  C   UNL     1       4.779  77.524   7.873  1.00  0.00     0.000 C 
BRANCH  18  19
ATOM     19  C   UNL     1       3.551  78.046   8.644  1.00  0.00     0.000 C 
BRANCH  19  20
ATOM     20  C   UNL     1       3.681  79.488   9.178  1.00  0.00     0.006 C 
BRANCH  20  21
ATOM     21  C   UNL     1       4.137  79.583  10.642  1.00  0.00     0.053 C 
BRANCH  21  22
ATOM     22  C   UNL     1       3.485  78.545  11.502  1.00  0.00     0.041 C 
ATOM     23  O   UNL     1       4.096  77.479  11.781  1.00  0.00    -0.550 OA
ATOM     24  O   UNL     1       2.216  78.767  12.022  1.00  0.00    -0.550 OA
ENDBRANCH  21  22
ENDBRANCH  20  21
ENDBRANCH  19  20
ENDBRANCH  18  19
ENDBRANCH  17  18
ENDBRANCH  16  17
ENDBRANCH  15  16
ENDBRANCH  14  15
ENDBRANCH  13  14
ENDBRANCH   1  13
TORSDOF 20
ENDMDL
MODEL 2
REMARK VINA RESULT:    -1.403      4.901     13.088
REMARK INTER + INTRA:          -3.819
REMARK INTER:                  -3.037
REMARK INTRA:                  -0.782
REMARK UNBOUND:                -0.777
REMARK SMILES CCCCCCCCCCCCCCCCCCCCCC(=O)[O-]
REMARK SMILES IDX 12 1 11 2 10 3 9 4 8 5 7 6 6 7 5 8 4 9 3 10 2 11 1 12 13 13
REMARK SMILES IDX 14 14 15 15 16 16 17 17 18 18 19 19 20 20 21 21 22 22 23 23
REMARK SMILES IDX 24 24
REMARK H PARENT
REMARK Flexibility Score: inf
ROOT
ATOM      1  C   UNL     1       8.218  79.884   4.888  1.00  0.00     0.000 C 
ENDROOT
BRANCH   1   2
ATOM      2  C   UNL     1       7.033  79.669   5.845  1.00  0.00     0.000 C 
BRANCH   2   3
ATOM      3  C   UNL     1       6.862  78.197   6.247  1.00  0.00     0.000 C 
BRANCH   3   4
ATOM      4  C   UNL     1       5.411  77.853   6.626  1.00  0.00    -0.000 C 
BRANCH   4   5
ATOM      5  C   UNL     1       4.975  78.487   7.959  1.00  0.00    -0.000 C 
BRANCH   5   6
ATOM      6  C   UNL     1       3.662  77.935   8.543  1.00  0.00    -0.000 C 
BRANCH   6   7
ATOM      7  C   UNL     1       2.772  79.033   9.149  1.00  0.00    -0.000 C 
BRANCH   7   8
ATOM      8  C   UNL     1       3.502  79.879  10.206  1.00  0.00    -0.000 C 
BRANCH   8   9
ATOM      9  C   UNL     1       3.679  79.204  11.579  1.00  0.00    -0.000 C 
BRANCH   9  10
ATOM     10  C   UNL     1       4.144  77.735  11.500  1.00  0.00    -0.000 C 
BRANCH  10  11
ATOM     11  C   UNL     1       5.533  77.530  12.124  1.00  0.00    -0.003 C 
ATOM     12  C   UNL     1       6.344  78.822  12.101  1.00  0.00     0.004 C 
ENDBRANCH  10  11
ENDBRANCH   9  10
ENDBRANCH   8   9
ENDBRANCH   7   8
ENDBRANCH   6   7
ENDBRANCH   5   6
ENDBRANCH   4   5
ENDBRANCH   3   4
ENDBRANCH   2   3
ENDBRANCH   1   2
BRANCH   1  13
ATOM     13  C   UNL     1       8.915  78.567   4.510  1.00  0.00     0.000 C 
BRANCH  13  14
ATOM     14  C   UNL     1       9.666  78.661   3.170  1.00  0.00     0.000 C 
BRANCH  14  15
ATOM     15  C   UNL     1      10.311  80.039   2.947  1.00  0.00     0.000 C 
BRANCH  15  16
ATOM     16  C   UNL     1      11.828  80.026   3.197  1.00  0.00     0.000 C 
BRANCH  16  17
ATOM     17  C   UNL     1      12.648  80.005   1.895  1.00  0.00     0.000 C 
BRANCH  17  18
ATOM     18  C   UNL     1      14.174  80.125   2.079  1.00  0.00     0.000 C 
BRANCH  18  19
ATOM     19  C   UNL     1      15.004  78.999   1.432  1.00  0.00     0.000 C 
BRANCH  19  20
ATOM     20  C   UNL     1      15.046  79.024  -0.110  1.00  0.00     0.006 C 
BRANCH  20  21
ATOM     21  C   UNL     1      14.952  77.640  -0.770  1.00  0.00     0.053 C 
BRANCH  21  22
ATOM     22  C   UNL     1      13.754  76.874  -0.298  1.00  0.00     0.041 C 
ATOM     23  O   UNL     1      12.600  77.360  -0.429  1.00  0.00    -0.550 OA
ATOM     24  O   UNL     1      13.908  75.610   0.256  1.00  0.00    -0.550 OA
ENDBRANCH  21  22
ENDBRANCH  20  21
ENDBRANCH  19  20
ENDBRANCH  18  19
ENDBRANCH  17  18
ENDBRANCH  16  17
ENDBRANCH  15  16
ENDBRANCH  14  15
ENDBRANCH  13  14
ENDBRANCH   1  13
TORSDOF 20
ENDMDL
MODEL 3
REMARK VINA RESULT:    -1.366      5.864     13.878
REMARK INTER + INTRA:          -3.739
REMARK INTER:                  -2.865
REMARK INTRA:                  -0.875
REMARK UNBOUND:                -0.777
REMARK SMILES CCCCCCCCCCCCCCCCCCCCCC(=O)[O-]
REMARK SMILES IDX 12 1 11 2 10 3 9 4 8 5 7 6 6 7 5 8 4 9 3 10 2 11 1 12 13 13
REMARK SMILES IDX 14 14 15 15 16 16 17 17 18 18 19 19 20 20 21 21 22 22 23 23
REMARK SMILES IDX 24 24
REMARK H PARENT
REMARK Flexibility Score: inf
ROOT
ATOM      1  C   UNL     1       9.233  79.733   3.286  1.00  0.00     0.000 C 
ENDROOT
BRANCH   1   2
ATOM      2  C   UNL     1       8.612  79.512   4.677  1.00  0.00     0.000 C 
BRANCH   2   3
ATOM      3  C   UNL     1       7.545  78.408   4.676  1.00  0.00     0.000 C 
BRANCH   3   4
ATOM      4  C   UNL     1       7.149  77.967   6.095  1.00  0.00    -0.000 C 
BRANCH   4   5
ATOM      5  C   UNL     1       5.673  78.255   6.421  1.00  0.00    -0.000 C 
BRANCH   5   6
ATOM      6  C   UNL     1       5.317  78.216   7.918  1.00  0.00    -0.000 C 
BRANCH   6   7
ATOM      7  C   UNL     1       3.959  77.547   8.190  1.00  0.00    -0.000 C 
BRANCH   7   8
ATOM      8  C   UNL     1       3.088  78.343   9.178  1.00  0.00    -0.000 C 
BRANCH   8   9
ATOM      9  C   UNL     1       3.739  79.619   9.745  1.00  0.00    -0.000 C 
BRANCH   9  10
ATOM     10  C   UNL     1       3.673  79.726  11.283  1.00  0.00    -0.000 C 
BRANCH  10  11
ATOM     11  C   UNL     1       4.061  78.411  11.976  1.00  0.00    -0.003 C 
ATOM     12  C   UNL     1       5.546  78.109  11.791  1.00  0.00     0.004 C 
ENDBRANCH  10  11
ENDBRANCH   9  10
ENDBRANCH   8   9
ENDBRANCH   7   8
ENDBRANCH   6   7
ENDBRANCH   5   6
ENDBRANCH   4   5
ENDBRANCH   3   4
ENDBRANCH   2   3
ENDBRANCH   1   2
BRANCH   1  13
ATOM     13  C   UNL     1      10.756  79.935   3.348  1.00  0.00     0.000 C 
BRANCH  13  14
ATOM     14  C   UNL     1      11.387  80.083   1.953  1.00  0.00     0.000 C 
BRANCH  14  15
ATOM     15  C   UNL     1      12.618  79.182   1.760  1.00  0.00     0.000 C 
BRANCH  15  16
ATOM     16  C   UNL     1      12.307  77.932   0.921  1.00  0.00     0.000 C 
BRANCH  16  17
ATOM     17  C   UNL     1      13.571  77.154   0.515  1.00  0.00     0.000 C 
BRANCH  17  18
ATOM     18  C   UNL     1      14.208  77.589  -0.821  1.00  0.00     0.000 C 
BRANCH  18  19
ATOM     19  C   UNL     1      14.519  79.093  -0.941  1.00  0.00     0.000 C 
BRANCH  19  20
ATOM     20  C   UNL     1      14.733  79.602  -2.381  1.00  0.00     0.006 C 
BRANCH  20  21
ATOM     21  C   UNL     1      14.743  78.497  -3.449  1.00  0.00     0.053 C 
BRANCH  21  22
ATOM     22  C   UNL     1      14.215  78.983  -4.764  1.00  0.00     0.041 C 
ATOM     23  O   UNL     1      13.666  80.113  -4.847  1.00  0.00    -0.550 OA
ATOM     24  O   UNL     1      14.359  78.203  -5.904  1.00  0.00    -0.550 OA
ENDBRANCH  21  22
ENDBRANCH  20  21
ENDBRANCH  19  20
ENDBRANCH  18  19
ENDBRANCH  17  18
ENDBRANCH  16  17
ENDBRANCH  15  16
ENDBRANCH  14  15
ENDBRANCH  13  14
ENDBRANCH   1  13
TORSDOF 20
ENDMDL
MODEL 4
REMARK VINA RESULT:     0.917      1.430      3.218
REMARK INTER + INTRA:           1.213
REMARK INTER:                   0.239
REMARK INTRA:                   0.973
REMARK UNBOUND:                -0.777
REMARK SMILES CCCCCCCCCCCCCCCCCCCCCC(=O)[O-]
REMARK SMILES IDX 12 1 11 2 10 3 9 4 8 5 7 6 6 7 5 8 4 9 3 10 2 11 1 12 13 13
REMARK SMILES IDX 14 14 15 15 16 16 17 17 18 18 19 19 20 20 21 21 22 22 23 23
REMARK SMILES IDX 24 24
REMARK H PARENT
REMARK Flexibility Score: inf
ROOT
ATOM      1  C   UNL     1      12.337  77.301   0.815  1.00  0.00     0.000 C 
ENDROOT
BRANCH   1   2
ATOM      2  C   UNL     1      13.804  77.242   0.356  1.00  0.00     0.000 C 
BRANCH   2   3
ATOM      3  C   UNL     1      14.773  77.802   1.408  1.00  0.00     0.000 C 
BRANCH   3   4
ATOM      4  C   UNL     1      14.816  79.339   1.413  1.00  0.00    -0.000 C 
BRANCH   4   5
ATOM      5  C   UNL     1      14.177  79.959   0.158  1.00  0.00    -0.000 C 
BRANCH   5   6
ATOM      6  C   UNL     1      15.125  80.118  -1.044  1.00  0.00    -0.000 C 
BRANCH   6   7
ATOM      7  C   UNL     1      14.390  80.059  -2.394  1.00  0.00    -0.000 C 
BRANCH   7   8
ATOM      8  C   UNL     1      14.946  78.971  -3.329  1.00  0.00    -0.000 C 
BRANCH   8   9
ATOM      9  C   UNL     1      13.895  78.007  -3.911  1.00  0.00    -0.000 C 
BRANCH   9  10
ATOM     10  C   UNL     1      14.260  77.446  -5.301  1.00  0.00    -0.000 C 
BRANCH  10  11
ATOM     11  C   UNL     1      14.058  78.480  -6.419  1.00  0.00    -0.003 C 
ATOM     12  C   UNL     1      13.345  79.724  -5.896  1.00  0.00     0.004 C 
ENDBRANCH  10  11
ENDBRANCH   9  10
ENDBRANCH   8   9
ENDBRANCH   7   8
ENDBRANCH   6   7
ENDBRANCH   5   6
ENDBRANCH   4   5
ENDBRANCH   3   4
ENDBRANCH   2   3
ENDBRANCH   1   2
BRANCH   1  13
ATOM     13  C   UNL     1      11.903  78.721   1.216  1.00  0.00     0.000 C 
BRANCH  13  14
ATOM     14  C   UNL     1      11.771  78.889   2.740  1.00  0.00     0.000 C 
BRANCH  14  15
ATOM     15  C   UNL     1      10.492  79.639   3.145  1.00  0.00     0.000 C 
BRANCH  15  16
ATOM     16  C   UNL     1       9.578  78.798   4.052  1.00  0.00     0.000 C 
BRANCH  16  17
ATOM     17  C   UNL     1       8.274  79.524   4.426  1.00  0.00     0.000 C 
BRANCH  17  18
ATOM     18  C   UNL     1       7.084  78.602   4.763  1.00  0.00     0.000 C 
BRANCH  18  19
ATOM     19  C   UNL     1       6.929  78.249   6.255  1.00  0.00     0.000 C 
BRANCH  19  20
ATOM     20  C   UNL     1       5.567  78.627   6.875  1.00  0.00     0.006 C 
BRANCH  20  21
ATOM     21  C   UNL     1       4.986  77.565   7.822  1.00  0.00     0.053 C 
BRANCH  21  22
ATOM     22  C   UNL     1       3.979  78.147   8.766  1.00  0.00     0.041 C 
ATOM     23  O   UNL     1       3.273  79.128   8.413  1.00  0.00    -0.550 OA
ATOM     24  O   UNL     1       3.796  77.585  10.023  1.00  0.00    -0.550 OA
ENDBRANCH  21  22
ENDBRANCH  20  21
ENDBRANCH  19  20
ENDBRANCH  18  19
ENDBRANCH  17  18
ENDBRANCH  16  17
ENDBRANCH  15  16
ENDBRANCH  14  15
ENDBRANCH  13  14
ENDBRANCH   1  13
TORSDOF 20
ENDMDL
