MODEL 1
REMARK VINA RESULT:    -5.181      0.000      0.000
REMARK INTER + INTRA:          -5.484
REMARK INTER:                  -5.484
REMARK INTRA:                   0.000
REMARK UNBOUND:                 0.000
REMARK SMILES O=c1ccc2cc(O)c(O)cc2o1
REMARK SMILES IDX 4 1 3 2 2 3 1 4 13 5 12 6 11 7 9 8 7 9 6 10 5 11 8 12 10 14
REMARK H PARENT 8 13 10 15
REMARK Flexibility Score: inf
ROOT
ATOM      1  C   UNL     1      59.937  22.133  21.210  1.00  0.00     0.019 A 
ATOM      2  C   UNL     1      61.279  22.411  20.951  1.00  0.00     0.094 A 
ATOM      3  C   UNL     1      62.000  23.182  21.868  1.00  0.00     0.336 A 
ATOM      4  O   UNL     1      63.212  23.445  21.653  1.00  0.00    -0.246 OA
ATOM      5  O   UNL     1      61.413  23.641  22.971  1.00  0.00    -0.423 OA
ATOM      6  C   UNL     1      60.136  23.399  23.256  1.00  0.00     0.142 A 
ATOM      7  C   UNL     1      59.573  23.909  24.430  1.00  0.00     0.098 A 
ATOM      8  C   UNL     1      58.227  23.655  24.736  1.00  0.00     0.161 A 
ATOM      9  C   UNL     1      57.442  22.889  23.862  1.00  0.00     0.158 A 
ATOM     10  C   UNL     1      58.001  22.376  22.682  1.00  0.00     0.062 A 
ATOM     11  C   UNL     1      59.345  22.628  22.376  1.00  0.00     0.022 A 
ENDROOT
BRANCH   9  12
ATOM     12  O   UNL     1      56.106  22.642  24.172  1.00  0.00    -0.504 OA
ATOM     13  H   UNL     1      55.365  22.812  23.502  1.00  0.00     0.293 HD
ENDBRANCH   9  12
BRANCH   8  14
ATOM     14  O   UNL     1      57.663  24.161  25.905  1.00  0.00    -0.504 OA
ATOM     15  H   UNL     1      57.768  23.686  26.794  1.00  0.00     0.293 HD
ENDBRANCH   8  14
TORSDOF 2
ENDMDL
MODEL 2
REMARK VINA RESULT:    -5.105      1.208      2.279
REMARK INTER + INTRA:          -5.403
REMARK INTER:                  -5.403
REMARK INTRA:                   0.000
REMARK UNBOUND:                 0.000
REMARK SMILES O=c1ccc2cc(O)c(O)cc2o1
REMARK SMILES IDX 4 1 3 2 2 3 1 4 13 5 12 6 11 7 9 8 7 9 6 10 5 11 8 12 10 14
REMARK H PARENT 8 13 10 15
REMARK Flexibility Score: inf
ROOT
ATOM      1  C   UNL     1      61.451  23.625  22.811  1.00  0.00     0.019 A 
ATOM      2  C   UNL     1      61.923  23.127  21.597  1.00  0.00     0.094 A 
ATOM      3  C   UNL     1      61.052  22.400  20.778  1.00  0.00     0.336 A 
ATOM      4  O   UNL     1      61.459  21.942  19.678  1.00  0.00    -0.246 OA
ATOM      5  O   UNL     1      59.793  22.190  21.153  1.00  0.00    -0.423 OA
ATOM      6  C   UNL     1      59.303  22.647  22.303  1.00  0.00     0.142 A 
ATOM      7  C   UNL     1      57.971  22.393  22.645  1.00  0.00     0.098 A 
ATOM      8  C   UNL     1      57.449  22.874  23.856  1.00  0.00     0.161 A 
ATOM      9  C   UNL     1      58.264  23.610  24.728  1.00  0.00     0.158 A 
ATOM     10  C   UNL     1      59.601  23.867  24.390  1.00  0.00     0.062 A 
ATOM     11  C   UNL     1      60.123  23.388  23.181  1.00  0.00     0.022 A 
ENDROOT
BRANCH   9  12
ATOM     12  O   UNL     1      57.738  24.083  25.928  1.00  0.00    -0.504 OA
ATOM     13  H   UNL     1      57.626  25.075  26.105  1.00  0.00     0.293 HD
ENDBRANCH   9  12
BRANCH   8  14
ATOM     14  O   UNL     1      56.121  22.622  24.200  1.00  0.00    -0.504 OA
ATOM     15  H   UNL     1      55.465  22.236  23.531  1.00  0.00     0.293 HD
ENDBRANCH   8  14
TORSDOF 2
ENDMDL
MODEL 3
REMARK VINA RESULT:    -4.434      1.968      2.927
REMARK INTER + INTRA:          -4.693
REMARK INTER:                  -4.693
REMARK INTRA:                   0.000
REMARK UNBOUND:                 0.000
REMARK SMILES O=c1ccc2cc(O)c(O)cc2o1
REMARK SMILES IDX 4 1 3 2 2 3 1 4 13 5 12 6 11 7 9 8 7 9 6 10 5 11 8 12 10 14
REMARK H PARENT 8 13 10 15
REMARK Flexibility Score: inf
ROOT
ATOM      1  C   UNL     1      60.017  22.006  21.237  1.00  0.00     0.019 A 
ATOM      2  C   UNL     1      60.767  21.635  20.121  1.00  0.00     0.094 A 
ATOM      3  C   UNL     1      62.025  22.216  19.927  1.00  0.00     0.336 A 
ATOM      4  O   UNL     1      62.717  21.895  18.926  1.00  0.00    -0.246 OA
ATOM      5  O   UNL     1      62.497  23.106  20.795  1.00  0.00    -0.423 OA
ATOM      6  C   UNL     1      61.814  23.488  21.873  1.00  0.00     0.142 A 
ATOM      7  C   UNL     1      62.361  24.429  22.750  1.00  0.00     0.098 A 
ATOM      8  C   UNL     1      61.645  24.833  23.888  1.00  0.00     0.161 A 
ATOM      9  C   UNL     1      60.377  24.293  24.146  1.00  0.00     0.158 A 
ATOM     10  C   UNL     1      59.824  23.349  23.269  1.00  0.00     0.062 A 
ATOM     11  C   UNL     1      60.537  22.944  22.133  1.00  0.00     0.022 A 
ENDROOT
BRANCH   9  12
ATOM     12  O   UNL     1      59.673  24.701  25.278  1.00  0.00    -0.504 OA
ATOM     13  H   UNL     1      59.939  24.395  26.207  1.00  0.00     0.293 HD
ENDBRANCH   9  12
BRANCH   8  14
ATOM     14  O   UNL     1      62.188  25.771  24.764  1.00  0.00    -0.504 OA
ATOM     15  H   UNL     1      61.773  26.687  24.884  1.00  0.00     0.293 HD
ENDBRANCH   8  14
TORSDOF 2
ENDMDL
MODEL 4
REMARK VINA RESULT:    -4.332      1.149      5.046
REMARK INTER + INTRA:          -4.585
REMARK INTER:                  -4.585
REMARK INTRA:                   0.000
REMARK UNBOUND:                 0.000
REMARK SMILES O=c1ccc2cc(O)c(O)cc2o1
REMARK SMILES IDX 4 1 3 2 2 3 1 4 13 5 12 6 11 7 9 8 7 9 6 10 5 11 8 12 10 14
REMARK H PARENT 8 13 10 15
REMARK Flexibility Score: inf
ROOT
ATOM      1  C   UNL     1      59.375  23.850  24.578  1.00  0.00     0.019 A 
ATOM      2  C   UNL     1      58.046  23.459  24.745  1.00  0.00     0.094 A 
ATOM      3  C   UNL     1      57.431  22.704  23.741  1.00  0.00     0.336 A 
ATOM      4  O   UNL     1      56.233  22.341  23.872  1.00  0.00    -0.246 OA
ATOM      5  O   UNL     1      58.105  22.365  22.645  1.00  0.00    -0.423 OA
ATOM      6  C   UNL     1      59.373  22.717  22.446  1.00  0.00     0.142 A 
ATOM      7  C   UNL     1      60.030  22.332  21.273  1.00  0.00     0.098 A 
ATOM      8  C   UNL     1      61.368  22.701  21.060  1.00  0.00     0.161 A 
ATOM      9  C   UNL     1      62.048  23.458  22.024  1.00  0.00     0.158 A 
ATOM     10  C   UNL     1      61.394  23.847  23.202  1.00  0.00     0.062 A 
ATOM     11  C   UNL     1      60.059  23.480  23.416  1.00  0.00     0.022 A 
ENDROOT
BRANCH   9  12
ATOM     12  O   UNL     1      63.376  23.821  21.803  1.00  0.00    -0.504 OA
ATOM     13  H   UNL     1      63.911  24.326  22.501  1.00  0.00     0.293 HD
ENDBRANCH   9  12
BRANCH   8  14
ATOM     14  O   UNL     1      62.025  22.318  19.892  1.00  0.00    -0.504 OA
ATOM     15  H   UNL     1      61.909  21.393  19.497  1.00  0.00     0.293 HD
ENDBRANCH   8  14
TORSDOF 2
ENDMDL
MODEL 5
REMARK VINA RESULT:    -4.313      1.086      4.544
REMARK INTER + INTRA:          -4.566
REMARK INTER:                  -4.566
REMARK INTRA:                   0.000
REMARK UNBOUND:                 0.000
REMARK SMILES O=c1ccc2cc(O)c(O)cc2o1
REMARK SMILES IDX 4 1 3 2 2 3 1 4 13 5 12 6 11 7 9 8 7 9 6 10 5 11 8 12 10 14
REMARK H PARENT 8 13 10 15
REMARK Flexibility Score: inf
ROOT
ATOM      1  C   UNL     1      58.096  22.364  22.720  1.00  0.00     0.019 A 
ATOM      2  C   UNL     1      57.603  22.861  23.926  1.00  0.00     0.094 A 
ATOM      3  C   UNL     1      58.458  23.593  24.757  1.00  0.00     0.336 A 
ATOM      4  O   UNL     1      58.033  24.050  25.850  1.00  0.00    -0.246 OA
ATOM      5  O   UNL     1      59.721  23.812  24.399  1.00  0.00    -0.423 OA
ATOM      6  C   UNL     1      60.231  23.355  23.257  1.00  0.00     0.142 A 
ATOM      7  C   UNL     1      61.566  23.615  22.935  1.00  0.00     0.098 A 
ATOM      8  C   UNL     1      62.108  23.137  21.732  1.00  0.00     0.161 A 
ATOM      9  C   UNL     1      61.309  22.395  20.849  1.00  0.00     0.158 A 
ATOM     10  C   UNL     1      59.969  22.131  21.168  1.00  0.00     0.062 A 
ATOM     11  C   UNL     1      59.427  22.608  22.369  1.00  0.00     0.022 A 
ENDROOT
BRANCH   9  12
ATOM     12  O   UNL     1      61.855  21.923  19.657  1.00  0.00    -0.504 OA
ATOM     13  H   UNL     1      61.825  20.940  19.411  1.00  0.00     0.293 HD
ENDBRANCH   9  12
BRANCH   8  14
ATOM     14  O   UNL     1      63.439  23.394  21.407  1.00  0.00    -0.504 OA
ATOM     15  H   UNL     1      64.179  22.746  21.650  1.00  0.00     0.293 HD
ENDBRANCH   8  14
TORSDOF 2
ENDMDL
MODEL 6
REMARK VINA RESULT:    -4.268      1.732      2.154
REMARK INTER + INTRA:          -4.517
REMARK INTER:                  -4.517
REMARK INTRA:                   0.000
REMARK UNBOUND:                 0.000
REMARK SMILES O=c1ccc2cc(O)c(O)cc2o1
REMARK SMILES IDX 4 1 3 2 2 3 1 4 13 5 12 6 11 7 9 8 7 9 6 10 5 11 8 12 10 14
REMARK H PARENT 8 13 10 15
REMARK Flexibility Score: inf
ROOT
ATOM      1  C   UNL     1      61.918  23.735  21.978  1.00  0.00     0.019 A 
ATOM      2  C   UNL     1      62.862  24.676  22.390  1.00  0.00     0.094 A 
ATOM      3  C   UNL     1      62.596  25.453  23.522  1.00  0.00     0.336 A 
ATOM      4  O   UNL     1      63.434  26.307  23.910  1.00  0.00    -0.246 OA
ATOM      5  O   UNL     1      61.459  25.294  24.195  1.00  0.00    -0.423 OA
ATOM      6  C   UNL     1      60.532  24.409  23.836  1.00  0.00     0.142 A 
ATOM      7  C   UNL     1      59.355  24.287  24.582  1.00  0.00     0.098 A 
ATOM      8  C   UNL     1      58.376  23.354  24.208  1.00  0.00     0.161 A 
ATOM      9  C   UNL     1      58.575  22.541  23.084  1.00  0.00     0.158 A 
ATOM     10  C   UNL     1      59.753  22.659  22.332  1.00  0.00     0.062 A 
ATOM     11  C   UNL     1      60.732  23.590  22.703  1.00  0.00     0.022 A 
ENDROOT
BRANCH   9  12
ATOM     12  O   UNL     1      57.597  21.618  22.719  1.00  0.00    -0.504 OA
ATOM     13  H   UNL     1      57.821  20.793  22.174  1.00  0.00     0.293 HD
ENDBRANCH   9  12
BRANCH   8  14
ATOM     14  O   UNL     1      57.202  23.231  24.950  1.00  0.00    -0.504 OA
ATOM     15  H   UNL     1      57.215  23.207  25.963  1.00  0.00     0.293 HD
ENDBRANCH   8  14
TORSDOF 2
ENDMDL
MODEL 7
REMARK VINA RESULT:    -4.072      1.708      4.365
REMARK INTER + INTRA:          -4.310
REMARK INTER:                  -4.310
REMARK INTRA:                   0.000
REMARK UNBOUND:                 0.000
REMARK SMILES O=c1ccc2cc(O)c(O)cc2o1
REMARK SMILES IDX 4 1 3 2 2 3 1 4 13 5 12 6 11 7 9 8 7 9 6 10 5 11 8 12 10 14
REMARK H PARENT 8 13 10 15
REMARK Flexibility Score: inf
ROOT
ATOM      1  C   UNL     1      58.329  20.877  22.708  1.00  0.00     0.019 A 
ATOM      2  C   UNL     1      56.936  20.878  22.778  1.00  0.00     0.094 A 
ATOM      3  C   UNL     1      56.294  21.896  23.491  1.00  0.00     0.336 A 
ATOM      4  O   UNL     1      55.037  21.914  23.566  1.00  0.00    -0.246 OA
ATOM      5  O   UNL     1      57.003  22.848  24.091  1.00  0.00    -0.423 OA
ATOM      6  C   UNL     1      58.333  22.885  24.049  1.00  0.00     0.142 A 
ATOM      7  C   UNL     1      59.025  23.911  24.699  1.00  0.00     0.098 A 
ATOM      8  C   UNL     1      60.427  23.954  24.657  1.00  0.00     0.161 A 
ATOM      9  C   UNL     1      61.138  22.966  23.961  1.00  0.00     0.158 A 
ATOM     10  C   UNL     1      60.449  21.934  23.307  1.00  0.00     0.062 A 
ATOM     11  C   UNL     1      59.049  21.890  23.348  1.00  0.00     0.022 A 
ENDROOT
BRANCH   9  12
ATOM     12  O   UNL     1      62.531  23.016  23.924  1.00  0.00    -0.504 OA
ATOM     13  H   UNL     1      63.065  23.465  24.659  1.00  0.00     0.293 HD
ENDBRANCH   9  12
BRANCH   8  14
ATOM     14  O   UNL     1      61.120  24.976  25.304  1.00  0.00    -0.504 OA
ATOM     15  H   UNL     1      60.636  25.695  25.829  1.00  0.00     0.293 HD
ENDBRANCH   8  14
TORSDOF 2
ENDMDL
MODEL 8
REMARK VINA RESULT:    -3.924      1.376      4.694
REMARK INTER + INTRA:          -4.153
REMARK INTER:                  -4.153
REMARK INTRA:                   0.000
REMARK UNBOUND:                 0.000
REMARK SMILES O=c1ccc2cc(O)c(O)cc2o1
REMARK SMILES IDX 4 1 3 2 2 3 1 4 13 5 12 6 11 7 9 8 7 9 6 10 5 11 8 12 10 14
REMARK H PARENT 8 13 10 15
REMARK Flexibility Score: inf
ROOT
ATOM      1  C   UNL     1      59.071  20.900  21.998  1.00  0.00     0.019 A 
ATOM      2  C   UNL     1      57.967  21.231  22.784  1.00  0.00     0.094 A 
ATOM      3  C   UNL     1      58.000  22.410  23.536  1.00  0.00     0.336 A 
ATOM      4  O   UNL     1      57.015  22.727  24.252  1.00  0.00    -0.246 OA
ATOM      5  O   UNL     1      59.069  23.203  23.498  1.00  0.00    -0.423 OA
ATOM      6  C   UNL     1      60.142  22.924  22.762  1.00  0.00     0.142 A 
ATOM      7  C   UNL     1      61.236  23.795  22.763  1.00  0.00     0.098 A 
ATOM      8  C   UNL     1      62.369  23.505  21.987  1.00  0.00     0.161 A 
ATOM      9  C   UNL     1      62.407  22.340  21.208  1.00  0.00     0.158 A 
ATOM     10  C   UNL     1      61.312  21.463  21.204  1.00  0.00     0.062 A 
ATOM     11  C   UNL     1      60.180  21.750  21.978  1.00  0.00     0.022 A 
ENDROOT
BRANCH   9  12
ATOM     12  O   UNL     1      63.536  22.060  20.441  1.00  0.00    -0.504 OA
ATOM     13  H   UNL     1      63.488  21.461  19.625  1.00  0.00     0.293 HD
ENDBRANCH   9  12
BRANCH   8  14
ATOM     14  O   UNL     1      63.461  24.372  21.986  1.00  0.00    -0.504 OA
ATOM     15  H   UNL     1      64.009  24.533  21.149  1.00  0.00     0.293 HD
ENDBRANCH   8  14
TORSDOF 2
ENDMDL
MODEL 9
REMARK VINA RESULT:    -3.713      2.026      3.283
REMARK INTER + INTRA:          -3.930
REMARK INTER:                  -3.930
REMARK INTRA:                   0.000
REMARK UNBOUND:                 0.000
REMARK SMILES O=c1ccc2cc(O)c(O)cc2o1
REMARK SMILES IDX 4 1 3 2 2 3 1 4 13 5 12 6 11 7 9 8 7 9 6 10 5 11 8 12 10 14
REMARK H PARENT 8 13 10 15
REMARK Flexibility Score: inf
ROOT
ATOM      1  C   UNL     1      63.049  23.005  21.625  1.00  0.00     0.019 A 
ATOM      2  C   UNL     1      62.631  22.404  20.438  1.00  0.00     0.094 A 
ATOM      3  C   UNL     1      61.262  22.233  20.210  1.00  0.00     0.336 A 
ATOM      4  O   UNL     1      60.865  21.693  19.145  1.00  0.00    -0.246 OA
ATOM      5  O   UNL     1      60.373  22.640  21.113  1.00  0.00    -0.423 OA
ATOM      6  C   UNL     1      60.729  23.218  22.258  1.00  0.00     0.142 A 
ATOM      7  C   UNL     1      59.750  23.624  23.170  1.00  0.00     0.098 A 
ATOM      8  C   UNL     1      60.120  24.235  24.378  1.00  0.00     0.161 A 
ATOM      9  C   UNL     1      61.475  24.438  24.674  1.00  0.00     0.158 A 
ATOM     10  C   UNL     1      62.462  24.032  23.763  1.00  0.00     0.062 A 
ATOM     11  C   UNL     1      62.094  23.422  22.557  1.00  0.00     0.022 A 
ENDROOT
BRANCH   9  12
ATOM     12  O   UNL     1      61.834  25.044  25.877  1.00  0.00    -0.504 OA
ATOM     13  H   UNL     1      61.325  24.864  26.735  1.00  0.00     0.293 HD
ENDBRANCH   9  12
BRANCH   8  14
ATOM     14  O   UNL     1      59.146  24.641  25.289  1.00  0.00    -0.504 OA
ATOM     15  H   UNL     1      59.235  24.452  26.280  1.00  0.00     0.293 HD
ENDBRANCH   8  14
TORSDOF 2
ENDMDL
