MODEL 1
REMARK VINA RESULT:    -3.771      0.000      0.000
REMARK INTER + INTRA:          -9.614
REMARK INTER:                  -7.078
REMARK INTRA:                  -2.535
REMARK UNBOUND:                -2.535
REMARK SMILES CCCCCCCCC=CCCCCCCCC(=O)[O-]
REMARK SMILES IDX 10 1 9 2 11 3 12 4 13 5 14 6 15 7 16 8 17 9 18 10 19 11
REMARK SMILES IDX 20 12 8 13 7 14 6 15 5 16 4 17 3 18 2 19 1 20
REMARK H PARENT
REMARK Flexibility Score: inf
ROOT
ATOM      1  C   UNL     1     136.893 133.242 150.195  1.00  0.00    -0.031 C 
ATOM      2  C   UNL     1     136.298 132.047 150.377  1.00  0.00    -0.031 C 
ENDROOT
BRANCH   1   3
ATOM      3  C   UNL     1     136.721 134.129 148.985  1.00  0.00     0.027 C 
BRANCH   3   4
ATOM      4  C   UNL     1     137.898 135.104 148.828  1.00  0.00     0.004 C 
BRANCH   4   5
ATOM      5  C   UNL     1     138.905 134.999 149.983  1.00  0.00     0.000 C 
BRANCH   5   6
ATOM      6  C   UNL     1     140.321 134.733 149.451  1.00  0.00     0.000 C 
BRANCH   6   7
ATOM      7  C   UNL     1     141.164 136.014 149.342  1.00  0.00     0.000 C 
BRANCH   7   8
ATOM      8  C   UNL     1     142.354 135.859 148.379  1.00  0.00     0.006 C 
BRANCH   8   9
ATOM      9  C   UNL     1     142.935 134.439 148.401  1.00  0.00     0.053 C 
BRANCH   9  10
ATOM     10  C   UNL     1     144.227 134.351 147.646  1.00  0.00     0.041 C 
ATOM     11  O   UNL     1     144.633 135.333 146.970  1.00  0.00    -0.550 OA
ATOM     12  O   UNL     1     144.999 133.198 147.719  1.00  0.00    -0.550 OA
ENDBRANCH   9  10
ENDBRANCH   8   9
ENDBRANCH   7   8
ENDBRANCH   6   7
ENDBRANCH   5   6
ENDBRANCH   4   5
ENDBRANCH   3   4
ENDBRANCH   1   3
BRANCH   2  13
ATOM     13  C   UNL     1     135.385 131.363 149.386  1.00  0.00     0.027 C 
BRANCH  13  14
ATOM     14  C   UNL     1     136.015 130.116 148.745  1.00  0.00     0.004 C 
BRANCH  14  15
ATOM     15  C   UNL     1     135.993 130.175 147.207  1.00  0.00     0.000 C 
BRANCH  15  16
ATOM     16  C   UNL     1     135.494 131.527 146.673  1.00  0.00     0.000 C 
BRANCH  16  17
ATOM     17  C   UNL     1     136.552 132.264 145.837  1.00  0.00    -0.000 C 
BRANCH  17  18
ATOM     18  C   UNL     1     137.900 131.529 145.887  1.00  0.00    -0.000 C 
BRANCH  18  19
ATOM     19  C   UNL     1     138.969 132.309 146.667  1.00  0.00    -0.003 C 
ATOM     20  C   UNL     1     139.526 131.524 147.855  1.00  0.00     0.004 C 
ENDBRANCH  18  19
ENDBRANCH  17  18
ENDBRANCH  16  17
ENDBRANCH  15  16
ENDBRANCH  14  15
ENDBRANCH  13  14
ENDBRANCH   2  13
TORSDOF 15
ENDMDL
MODEL 2
REMARK VINA RESULT:    -3.702      2.292      3.308
REMARK INTER + INTRA:          -9.483
REMARK INTER:                  -6.786
REMARK INTRA:                  -2.697
REMARK UNBOUND:                -2.535
REMARK SMILES CCCCCCCCC=CCCCCCCCC(=O)[O-]
REMARK SMILES IDX 10 1 9 2 11 3 12 4 13 5 14 6 15 7 16 8 17 9 18 10 19 11
REMARK SMILES IDX 20 12 8 13 7 14 6 15 5 16 4 17 3 18 2 19 1 20
REMARK H PARENT
REMARK Flexibility Score: inf
ROOT
ATOM      1  C   UNL     1     138.432 135.216 148.728  1.00  0.00    -0.031 C 
ATOM      2  C   UNL     1     137.299 134.713 148.200  1.00  0.00    -0.031 C 
ENDROOT
BRANCH   1   3
ATOM      3  C   UNL     1     139.033 134.812 150.054  1.00  0.00     0.027 C 
BRANCH   3   4
ATOM      4  C   UNL     1     140.475 135.322 150.198  1.00  0.00     0.004 C 
BRANCH   4   5
ATOM      5  C   UNL     1     141.509 134.311 149.680  1.00  0.00     0.000 C 
BRANCH   5   6
ATOM      6  C   UNL     1     142.547 135.001 148.783  1.00  0.00     0.000 C 
BRANCH   6   7
ATOM      7  C   UNL     1     142.086 136.384 148.297  1.00  0.00     0.000 C 
BRANCH   7   8
ATOM      8  C   UNL     1     141.964 136.463 146.765  1.00  0.00     0.006 C 
BRANCH   8   9
ATOM      9  C   UNL     1     141.064 135.356 146.199  1.00  0.00     0.053 C 
BRANCH   9  10
ATOM     10  C   UNL     1     140.153 135.871 145.126  1.00  0.00     0.041 C 
ATOM     11  O   UNL     1     140.465 136.898 144.469  1.00  0.00    -0.550 OA
ATOM     12  O   UNL     1     138.976 135.194 144.829  1.00  0.00    -0.550 OA
ENDBRANCH   9  10
ENDBRANCH   8   9
ENDBRANCH   7   8
ENDBRANCH   6   7
ENDBRANCH   5   6
ENDBRANCH   4   5
ENDBRANCH   3   4
ENDBRANCH   1   3
BRANCH   2  13
ATOM     13  C   UNL     1     136.408 133.684 148.857  1.00  0.00     0.027 C 
BRANCH  13  14
ATOM     14  C   UNL     1     135.622 132.833 147.848  1.00  0.00     0.004 C 
BRANCH  14  15
ATOM     15  C   UNL     1     135.646 131.336 148.202  1.00  0.00     0.000 C 
BRANCH  15  16
ATOM     16  C   UNL     1     136.419 131.046 149.498  1.00  0.00     0.000 C 
BRANCH  16  17
ATOM     17  C   UNL     1     137.566 130.044 149.296  1.00  0.00    -0.000 C 
BRANCH  17  18
ATOM     18  C   UNL     1     138.254 130.263 147.940  1.00  0.00    -0.000 C 
BRANCH  18  19
ATOM     19  C   UNL     1     139.315 131.373 147.991  1.00  0.00    -0.003 C 
ATOM     20  C   UNL     1     139.443 132.130 146.669  1.00  0.00     0.004 C 
ENDBRANCH  18  19
ENDBRANCH  17  18
ENDBRANCH  16  17
ENDBRANCH  15  16
ENDBRANCH  14  15
ENDBRANCH  13  14
ENDBRANCH   2  13
TORSDOF 15
ENDMDL
MODEL 3
REMARK VINA RESULT:    -3.683      2.737      4.703
REMARK INTER + INTRA:          -9.447
REMARK INTER:                  -6.768
REMARK INTRA:                  -2.680
REMARK UNBOUND:                -2.535
REMARK SMILES CCCCCCCCC=CCCCCCCCC(=O)[O-]
REMARK SMILES IDX 10 1 9 2 11 3 12 4 13 5 14 6 15 7 16 8 17 9 18 10 19 11
REMARK SMILES IDX 20 12 8 13 7 14 6 15 5 16 4 17 3 18 2 19 1 20
REMARK H PARENT
REMARK Flexibility Score: inf
ROOT
ATOM      1  C   UNL     1     140.236 135.155 150.372  1.00  0.00    -0.031 C 
ATOM      2  C   UNL     1     138.927 134.854 150.275  1.00  0.00    -0.031 C 
ENDROOT
BRANCH   1   3
ATOM      3  C   UNL     1     141.051 135.859 149.313  1.00  0.00     0.027 C 
BRANCH   3   4
ATOM      4  C   UNL     1     142.267 135.022 148.886  1.00  0.00     0.004 C 
BRANCH   4   5
ATOM      5  C   UNL     1     141.888 133.891 147.917  1.00  0.00     0.000 C 
BRANCH   5   6
ATOM      6  C   UNL     1     140.975 134.413 146.797  1.00  0.00     0.000 C 
BRANCH   6   7
ATOM      7  C   UNL     1     139.875 133.411 146.413  1.00  0.00     0.000 C 
BRANCH   7   8
ATOM      8  C   UNL     1     139.049 133.876 145.201  1.00  0.00     0.006 C 
BRANCH   8   9
ATOM      9  C   UNL     1     138.072 135.003 145.565  1.00  0.00     0.053 C 
BRANCH   9  10
ATOM     10  C   UNL     1     138.337 136.248 144.775  1.00  0.00     0.041 C 
ATOM     11  O   UNL     1     139.496 136.494 144.349  1.00  0.00    -0.550 OA
ATOM     12  O   UNL     1     137.295 137.120 144.479  1.00  0.00    -0.550 OA
ENDBRANCH   9  10
ENDBRANCH   8   9
ENDBRANCH   7   8
ENDBRANCH   6   7
ENDBRANCH   5   6
ENDBRANCH   4   5
ENDBRANCH   3   4
ENDBRANCH   1   3
BRANCH   2  13
ATOM     13  C   UNL     1     138.051 135.130 149.076  1.00  0.00     0.027 C 
BRANCH  13  14
ATOM     14  C   UNL     1     136.766 134.286 149.059  1.00  0.00     0.004 C 
BRANCH  14  15
ATOM     15  C   UNL     1     136.817 133.124 150.067  1.00  0.00     0.000 C 
BRANCH  15  16
ATOM     16  C   UNL     1     136.541 131.760 149.414  1.00  0.00     0.000 C 
BRANCH  16  17
ATOM     17  C   UNL     1     137.643 131.337 148.431  1.00  0.00    -0.000 C 
BRANCH  17  18
ATOM     18  C   UNL     1     137.038 130.859 147.102  1.00  0.00    -0.000 C 
BRANCH  18  19
ATOM     19  C   UNL     1     135.752 131.615 146.734  1.00  0.00    -0.003 C 
ATOM     20  C   UNL     1     135.712 132.031 145.263  1.00  0.00     0.004 C 
ENDBRANCH  18  19
ENDBRANCH  17  18
ENDBRANCH  16  17
ENDBRANCH  15  16
ENDBRANCH  14  15
ENDBRANCH  13  14
ENDBRANCH   2  13
TORSDOF 15
ENDMDL
MODEL 4
REMARK VINA RESULT:    -3.627      1.439      2.551
REMARK INTER + INTRA:          -9.342
REMARK INTER:                  -6.800
REMARK INTRA:                  -2.543
REMARK UNBOUND:                -2.535
REMARK SMILES CCCCCCCCC=CCCCCCCCC(=O)[O-]
REMARK SMILES IDX 10 1 9 2 11 3 12 4 13 5 14 6 15 7 16 8 17 9 18 10 19 11
REMARK SMILES IDX 20 12 8 13 7 14 6 15 5 16 4 17 3 18 2 19 1 20
REMARK H PARENT
REMARK Flexibility Score: inf
ROOT
ATOM      1  C   UNL     1     138.447 135.167 148.872  1.00  0.00    -0.031 C 
ATOM      2  C   UNL     1     137.337 134.668 148.295  1.00  0.00    -0.031 C 
ENDROOT
BRANCH   1   3
ATOM      3  C   UNL     1     138.960 134.800 150.245  1.00  0.00     0.027 C 
BRANCH   3   4
ATOM      4  C   UNL     1     140.461 135.097 150.385  1.00  0.00     0.004 C 
BRANCH   4   5
ATOM      5  C   UNL     1     140.914 136.260 149.490  1.00  0.00     0.000 C 
BRANCH   5   6
ATOM      6  C   UNL     1     142.148 135.865 148.663  1.00  0.00     0.000 C 
BRANCH   6   7
ATOM      7  C   UNL     1     142.649 134.448 148.985  1.00  0.00     0.000 C 
BRANCH   7   8
ATOM      8  C   UNL     1     143.704 133.952 147.981  1.00  0.00     0.006 C 
BRANCH   8   9
ATOM      9  C   UNL     1     144.257 135.090 147.112  1.00  0.00     0.053 C 
BRANCH   9  10
ATOM     10  C   UNL     1     143.857 134.942 145.676  1.00  0.00     0.041 C 
ATOM     11  O   UNL     1     144.002 135.903 144.875  1.00  0.00    -0.550 OA
ATOM     12  O   UNL     1     143.358 133.730 145.213  1.00  0.00    -0.550 OA
ENDBRANCH   9  10
ENDBRANCH   8   9
ENDBRANCH   7   8
ENDBRANCH   6   7
ENDBRANCH   5   6
ENDBRANCH   4   5
ENDBRANCH   3   4
ENDBRANCH   1   3
BRANCH   2  13
ATOM     13  C   UNL     1     136.386 133.682 148.933  1.00  0.00     0.027 C 
BRANCH  13  14
ATOM     14  C   UNL     1     135.597 132.853 147.907  1.00  0.00     0.004 C 
BRANCH  14  15
ATOM     15  C   UNL     1     135.931 131.353 147.987  1.00  0.00     0.000 C 
BRANCH  15  16
ATOM     16  C   UNL     1     136.853 131.013 149.169  1.00  0.00     0.000 C 
BRANCH  16  17
ATOM     17  C   UNL     1     138.114 130.249 148.740  1.00  0.00    -0.000 C 
BRANCH  17  18
ATOM     18  C   UNL     1     138.747 130.889 147.495  1.00  0.00    -0.000 C 
BRANCH  18  19
ATOM     19  C   UNL     1     139.868 131.879 147.847  1.00  0.00    -0.003 C 
ATOM     20  C   UNL     1     140.212 132.818 146.690  1.00  0.00     0.004 C 
ENDBRANCH  18  19
ENDBRANCH  17  18
ENDBRANCH  16  17
ENDBRANCH  15  16
ENDBRANCH  14  15
ENDBRANCH  13  14
ENDBRANCH   2  13
TORSDOF 15
ENDMDL
MODEL 5
REMARK VINA RESULT:    -3.603      4.600      7.565
REMARK INTER + INTRA:          -9.298
REMARK INTER:                  -7.003
REMARK INTRA:                  -2.295
REMARK UNBOUND:                -2.535
REMARK SMILES CCCCCCCCC=CCCCCCCCC(=O)[O-]
REMARK SMILES IDX 10 1 9 2 11 3 12 4 13 5 14 6 15 7 16 8 17 9 18 10 19 11
REMARK SMILES IDX 20 12 8 13 7 14 6 15 5 16 4 17 3 18 2 19 1 20
REMARK H PARENT
REMARK Flexibility Score: inf
ROOT
ATOM      1  C   UNL     1     137.101 134.390 148.262  1.00  0.00    -0.031 C 
ATOM      2  C   UNL     1     138.066 135.092 148.887  1.00  0.00    -0.031 C 
ENDROOT
BRANCH   1   3
ATOM      3  C   UNL     1     136.345 133.224 148.855  1.00  0.00     0.027 C 
BRANCH   3   4
ATOM      4  C   UNL     1     135.550 132.462 147.784  1.00  0.00     0.004 C 
BRANCH   4   5
ATOM      5  C   UNL     1     136.249 131.165 147.348  1.00  0.00     0.000 C 
BRANCH   5   6
ATOM      6  C   UNL     1     136.457 131.140 145.826  1.00  0.00     0.000 C 
BRANCH   6   7
ATOM      7  C   UNL     1     135.526 132.112 145.084  1.00  0.00     0.000 C 
BRANCH   7   8
ATOM      8  C   UNL     1     135.187 131.635 143.661  1.00  0.00     0.006 C 
BRANCH   8   9
ATOM      9  C   UNL     1     133.772 131.049 143.568  1.00  0.00     0.053 C 
BRANCH   9  10
ATOM     10  C   UNL     1     132.896 131.845 142.650  1.00  0.00     0.041 C 
ATOM     11  O   UNL     1     131.921 132.495 143.111  1.00  0.00    -0.550 OA
ATOM     12  O   UNL     1     133.178 131.898 141.290  1.00  0.00    -0.550 OA
ENDBRANCH   9  10
ENDBRANCH   8   9
ENDBRANCH   7   8
ENDBRANCH   6   7
ENDBRANCH   5   6
ENDBRANCH   4   5
ENDBRANCH   3   4
ENDBRANCH   1   3
BRANCH   2  13
ATOM     13  C   UNL     1     138.591 134.815 150.276  1.00  0.00     0.027 C 
BRANCH  13  14
ATOM     14  C   UNL     1     140.088 135.127 150.430  1.00  0.00     0.004 C 
BRANCH  14  15
ATOM     15  C   UNL     1     140.703 135.690 149.136  1.00  0.00     0.000 C 
BRANCH  15  16
ATOM     16  C   UNL     1     142.074 135.074 148.815  1.00  0.00     0.000 C 
BRANCH  16  17
ATOM     17  C   UNL     1     141.974 133.840 147.906  1.00  0.00    -0.000 C 
BRANCH  17  18
ATOM     18  C   UNL     1     140.897 134.037 146.829  1.00  0.00    -0.000 C 
BRANCH  18  19
ATOM     19  C   UNL     1     140.043 132.779 146.611  1.00  0.00    -0.003 C 
ATOM     20  C   UNL     1     139.888 131.943 147.882  1.00  0.00     0.004 C 
ENDBRANCH  18  19
ENDBRANCH  17  18
ENDBRANCH  16  17
ENDBRANCH  15  16
ENDBRANCH  14  15
ENDBRANCH  13  14
ENDBRANCH   2  13
TORSDOF 15
ENDMDL
MODEL 6
REMARK VINA RESULT:    -3.592      1.836      2.849
REMARK INTER + INTRA:          -9.276
REMARK INTER:                  -6.393
REMARK INTRA:                  -2.884
REMARK UNBOUND:                -2.535
REMARK SMILES CCCCCCCCC=CCCCCCCCC(=O)[O-]
REMARK SMILES IDX 10 1 9 2 11 3 12 4 13 5 14 6 15 7 16 8 17 9 18 10 19 11
REMARK SMILES IDX 20 12 8 13 7 14 6 15 5 16 4 17 3 18 2 19 1 20
REMARK H PARENT
REMARK Flexibility Score: inf
ROOT
ATOM      1  C   UNL     1     137.603 135.127 149.045  1.00  0.00    -0.031 C 
ATOM      2  C   UNL     1     136.588 134.408 148.528  1.00  0.00    -0.031 C 
ENDROOT
BRANCH   1   3
ATOM      3  C   UNL     1     138.740 134.568 149.868  1.00  0.00     0.027 C 
BRANCH   3   4
ATOM      4  C   UNL     1     139.979 135.474 149.807  1.00  0.00     0.004 C 
BRANCH   4   5
ATOM      5  C   UNL     1     141.291 134.676 149.871  1.00  0.00     0.000 C 
BRANCH   5   6
ATOM      6  C   UNL     1     142.341 135.275 148.923  1.00  0.00     0.000 C 
BRANCH   6   7
ATOM      7  C   UNL     1     142.057 136.745 148.575  1.00  0.00     0.000 C 
BRANCH   7   8
ATOM      8  C   UNL     1     142.776 137.198 147.292  1.00  0.00     0.006 C 
BRANCH   8   9
ATOM      9  C   UNL     1     144.018 136.347 146.993  1.00  0.00     0.053 C 
BRANCH   9  10
ATOM     10  C   UNL     1     143.968 135.747 145.621  1.00  0.00     0.041 C 
ATOM     11  O   UNL     1     143.560 134.568 145.460  1.00  0.00    -0.550 OA
ATOM     12  O   UNL     1     144.339 136.505 144.516  1.00  0.00    -0.550 OA
ENDBRANCH   9  10
ENDBRANCH   8   9
ENDBRANCH   7   8
ENDBRANCH   6   7
ENDBRANCH   5   6
ENDBRANCH   4   5
ENDBRANCH   3   4
ENDBRANCH   1   3
BRANCH   2  13
ATOM     13  C   UNL     1     136.385 132.922 148.711  1.00  0.00     0.027 C 
BRANCH  13  14
ATOM     14  C   UNL     1     137.102 132.078 147.646  1.00  0.00     0.004 C 
BRANCH  14  15
ATOM     15  C   UNL     1     136.730 132.504 146.215  1.00  0.00     0.000 C 
BRANCH  15  16
ATOM     16  C   UNL     1     137.927 133.068 145.433  1.00  0.00     0.000 C 
BRANCH  16  17
ATOM     17  C   UNL     1     139.279 132.646 146.030  1.00  0.00    -0.000 C 
BRANCH  17  18
ATOM     18  C   UNL     1     140.135 133.876 146.370  1.00  0.00    -0.000 C 
BRANCH  18  19
ATOM     19  C   UNL     1     139.462 135.195 145.960  1.00  0.00    -0.003 C 
ATOM     20  C   UNL     1     140.263 135.966 144.911  1.00  0.00     0.004 C 
ENDBRANCH  18  19
ENDBRANCH  17  18
ENDBRANCH  16  17
ENDBRANCH  15  16
ENDBRANCH  14  15
ENDBRANCH  13  14
ENDBRANCH   2  13
TORSDOF 15
ENDMDL
MODEL 7
REMARK VINA RESULT:    -3.560      3.189      4.856
REMARK INTER + INTRA:          -9.217
REMARK INTER:                  -6.849
REMARK INTRA:                  -2.368
REMARK UNBOUND:                -2.535
REMARK SMILES CCCCCCCCC=CCCCCCCCC(=O)[O-]
REMARK SMILES IDX 10 1 9 2 11 3 12 4 13 5 14 6 15 7 16 8 17 9 18 10 19 11
REMARK SMILES IDX 20 12 8 13 7 14 6 15 5 16 4 17 3 18 2 19 1 20
REMARK H PARENT
REMARK Flexibility Score: inf
ROOT
ATOM      1  C   UNL     1     140.786 135.101 150.212  1.00  0.00    -0.031 C 
ATOM      2  C   UNL     1     139.441 135.165 150.252  1.00  0.00    -0.031 C 
ENDROOT
BRANCH   1   3
ATOM      3  C   UNL     1     141.592 134.219 149.289  1.00  0.00     0.027 C 
BRANCH   3   4
ATOM      4  C   UNL     1     142.629 135.029 148.496  1.00  0.00     0.004 C 
BRANCH   4   5
ATOM      5  C   UNL     1     142.175 136.475 148.244  1.00  0.00     0.000 C 
BRANCH   5   6
ATOM      6  C   UNL     1     143.171 137.211 147.336  1.00  0.00     0.000 C 
BRANCH   6   7
ATOM      7  C   UNL     1     144.380 136.341 146.953  1.00  0.00     0.000 C 
BRANCH   7   8
ATOM      8  C   UNL     1     145.305 137.030 145.935  1.00  0.00     0.006 C 
BRANCH   8   9
ATOM      9  C   UNL     1     145.827 138.380 146.447  1.00  0.00     0.053 C 
BRANCH   9  10
ATOM     10  C   UNL     1     146.777 139.015 145.478  1.00  0.00     0.041 C 
ATOM     11  O   UNL     1     147.003 140.253 145.532  1.00  0.00    -0.550 OA
ATOM     12  O   UNL     1     147.440 138.234 144.539  1.00  0.00    -0.550 OA
ENDBRANCH   9  10
ENDBRANCH   8   9
ENDBRANCH   7   8
ENDBRANCH   6   7
ENDBRANCH   5   6
ENDBRANCH   4   5
ENDBRANCH   3   4
ENDBRANCH   1   3
BRANCH   2  13
ATOM     13  C   UNL     1     138.500 134.338 149.409  1.00  0.00     0.027 C 
BRANCH  13  14
ATOM     14  C   UNL     1     137.647 135.183 148.449  1.00  0.00     0.004 C 
BRANCH  14  15
ATOM     15  C   UNL     1     137.824 134.757 146.981  1.00  0.00     0.000 C 
BRANCH  15  16
ATOM     16  C   UNL     1     139.234 135.050 146.444  1.00  0.00     0.000 C 
BRANCH  16  17
ATOM     17  C   UNL     1     139.994 133.778 146.039  1.00  0.00    -0.000 C 
BRANCH  17  18
ATOM     18  C   UNL     1     140.640 133.942 144.654  1.00  0.00    -0.000 C 
BRANCH  18  19
ATOM     19  C   UNL     1     142.003 134.648 144.720  1.00  0.00    -0.003 C 
ATOM     20  C   UNL     1     141.998 136.008 144.021  1.00  0.00     0.004 C 
ENDBRANCH  18  19
ENDBRANCH  17  18
ENDBRANCH  16  17
ENDBRANCH  15  16
ENDBRANCH  14  15
ENDBRANCH  13  14
ENDBRANCH   2  13
TORSDOF 15
ENDMDL
MODEL 8
REMARK VINA RESULT:    -3.542      8.990     11.345
REMARK INTER + INTRA:          -9.184
REMARK INTER:                  -6.647
REMARK INTRA:                  -2.537
REMARK UNBOUND:                -2.535
REMARK SMILES CCCCCCCCC=CCCCCCCCC(=O)[O-]
REMARK SMILES IDX 10 1 9 2 11 3 12 4 13 5 14 6 15 7 16 8 17 9 18 10 19 11
REMARK SMILES IDX 20 12 8 13 7 14 6 15 5 16 4 17 3 18 2 19 1 20
REMARK H PARENT
REMARK Flexibility Score: inf
ROOT
ATOM      1  C   UNL     1     136.842 140.738 142.123  1.00  0.00    -0.031 C 
ATOM      2  C   UNL     1     136.756 142.069 141.936  1.00  0.00    -0.031 C 
ENDROOT
BRANCH   1   3
ATOM      3  C   UNL     1     137.430 140.062 143.339  1.00  0.00     0.027 C 
BRANCH   3   4
ATOM      4  C   UNL     1     138.628 139.175 142.968  1.00  0.00     0.004 C 
BRANCH   4   5
ATOM      5  C   UNL     1     139.360 139.673 141.712  1.00  0.00     0.000 C 
BRANCH   5   6
ATOM      6  C   UNL     1     140.882 139.572 141.890  1.00  0.00     0.000 C 
BRANCH   6   7
ATOM      7  C   UNL     1     141.464 140.741 142.702  1.00  0.00     0.000 C 
BRANCH   7   8
ATOM      8  C   UNL     1     142.644 141.425 141.992  1.00  0.00     0.006 C 
BRANCH   8   9
ATOM      9  C   UNL     1     143.941 141.338 142.809  1.00  0.00     0.053 C 
BRANCH   9  10
ATOM     10  C   UNL     1     144.509 139.952 142.810  1.00  0.00     0.041 C 
ATOM     11  O   UNL     1     144.992 139.464 141.755  1.00  0.00    -0.550 OA
ATOM     12  O   UNL     1     144.539 139.213 143.987  1.00  0.00    -0.550 OA
ENDBRANCH   9  10
ENDBRANCH   8   9
ENDBRANCH   7   8
ENDBRANCH   6   7
ENDBRANCH   5   6
ENDBRANCH   4   5
ENDBRANCH   3   4
ENDBRANCH   1   3
BRANCH   2  13
ATOM     13  C   UNL     1     137.269 143.123 142.890  1.00  0.00     0.027 C 
BRANCH  13  14
ATOM     14  C   UNL     1     138.788 143.338 142.794  1.00  0.00     0.004 C 
BRANCH  14  15
ATOM     15  C   UNL     1     139.274 143.424 141.336  1.00  0.00     0.000 C 
BRANCH  15  16
ATOM     16  C   UNL     1     139.962 144.761 141.019  1.00  0.00     0.000 C 
BRANCH  16  17
ATOM     17  C   UNL     1     141.463 144.751 141.347  1.00  0.00    -0.000 C 
BRANCH  17  18
ATOM     18  C   UNL     1     141.746 145.526 142.643  1.00  0.00    -0.000 C 
BRANCH  18  19
ATOM     19  C   UNL     1     142.446 144.664 143.704  1.00  0.00    -0.003 C 
ATOM     20  C   UNL     1     141.560 144.387 144.919  1.00  0.00     0.004 C 
ENDBRANCH  18  19
ENDBRANCH  17  18
ENDBRANCH  16  17
ENDBRANCH  15  16
ENDBRANCH  14  15
ENDBRANCH  13  14
ENDBRANCH   2  13
TORSDOF 15
ENDMDL
MODEL 9
REMARK VINA RESULT:    -3.541      2.527      5.551
REMARK INTER + INTRA:          -9.181
REMARK INTER:                  -6.258
REMARK INTRA:                  -2.924
REMARK UNBOUND:                -2.535
REMARK SMILES CCCCCCCCC=CCCCCCCCC(=O)[O-]
REMARK SMILES IDX 10 1 9 2 11 3 12 4 13 5 14 6 15 7 16 8 17 9 18 10 19 11
REMARK SMILES IDX 20 12 8 13 7 14 6 15 5 16 4 17 3 18 2 19 1 20
REMARK H PARENT
REMARK Flexibility Score: inf
ROOT
ATOM      1  C   UNL     1     137.147 134.449 148.241  1.00  0.00    -0.031 C 
ATOM      2  C   UNL     1     138.110 135.122 148.899  1.00  0.00    -0.031 C 
ENDROOT
BRANCH   1   3
ATOM      3  C   UNL     1     136.402 133.247 148.771  1.00  0.00     0.027 C 
BRANCH   3   4
ATOM      4  C   UNL     1     135.354 132.743 147.767  1.00  0.00     0.004 C 
BRANCH   4   5
ATOM      5  C   UNL     1     135.912 131.659 146.832  1.00  0.00     0.000 C 
BRANCH   5   6
ATOM      6  C   UNL     1     135.882 132.130 145.370  1.00  0.00     0.000 C 
BRANCH   6   7
ATOM      7  C   UNL     1     137.272 132.518 144.842  1.00  0.00     0.000 C 
BRANCH   7   8
ATOM      8  C   UNL     1     137.257 133.837 144.051  1.00  0.00     0.006 C 
BRANCH   8   9
ATOM      9  C   UNL     1     137.975 134.969 144.798  1.00  0.00     0.053 C 
BRANCH   9  10
ATOM     10  C   UNL     1     139.110 135.534 144.000  1.00  0.00     0.041 C 
ATOM     11  O   UNL     1     139.243 136.780 143.882  1.00  0.00    -0.550 OA
ATOM     12  O   UNL     1     140.042 134.684 143.418  1.00  0.00    -0.550 OA
ENDBRANCH   9  10
ENDBRANCH   8   9
ENDBRANCH   7   8
ENDBRANCH   6   7
ENDBRANCH   5   6
ENDBRANCH   4   5
ENDBRANCH   3   4
ENDBRANCH   1   3
BRANCH   2  13
ATOM     13  C   UNL     1     138.645 134.771 150.268  1.00  0.00     0.027 C 
BRANCH  13  14
ATOM     14  C   UNL     1     140.126 135.137 150.450  1.00  0.00     0.004 C 
BRANCH  14  15
ATOM     15  C   UNL     1     140.740 135.742 149.175  1.00  0.00     0.000 C 
BRANCH  15  16
ATOM     16  C   UNL     1     142.153 135.210 148.887  1.00  0.00     0.000 C 
BRANCH  16  17
ATOM     17  C   UNL     1     142.148 133.956 147.999  1.00  0.00    -0.000 C 
BRANCH  17  18
ATOM     18  C   UNL     1     141.128 134.095 146.859  1.00  0.00    -0.000 C 
BRANCH  18  19
ATOM     19  C   UNL     1     140.324 132.807 146.628  1.00  0.00    -0.003 C 
ATOM     20  C   UNL     1     140.026 132.054 147.926  1.00  0.00     0.004 C 
ENDBRANCH  18  19
ENDBRANCH  17  18
ENDBRANCH  16  17
ENDBRANCH  15  16
ENDBRANCH  14  15
ENDBRANCH  13  14
ENDBRANCH   2  13
TORSDOF 15
ENDMDL
