MODEL 1
REMARK VINA RESULT:     4.609      0.000      0.000
REMARK INTER + INTRA:           5.211
REMARK INTER:                   5.013
REMARK INTRA:                   0.198
REMARK UNBOUND:                 0.198
REMARK SMILES C[C@@H]1[C@H](C)CC[C@]2(C(=O)[O-])CC[C@]3(C)C(=CC[C@@H]4[C@]5(C)CC[C@@H](O)C(C)(C)[C@@H]5CC[C@@]43C)[C@H]12
REMARK SMILES IDX 7 1 6 2 11 3 33 4 5 5 12 6 15 7 2 8 3 9 13 10 16 11 1 12
REMARK SMILES IDX 4 13 14 14 31 15 17 16 18 17 30 18 32 19 19 20 29 21 28 22
REMARK SMILES IDX 21 23 20 24 25 25 22 26 23 27 26 28 27 29 8 30 9 31 10 32
REMARK SMILES IDX 24 33
REMARK H PARENT 24 34
REMARK Flexibility Score: inf
ROOT
ATOM      1  C   UNL     1     -10.439  -8.505  -3.285  1.00  0.00     0.017 C 
ATOM      2  C   UNL     1     -11.871  -8.000  -3.739  1.00  0.00     0.014 C 
ATOM      3  C   UNL     1     -10.537  -9.843  -2.456  1.00  0.00     0.014 C 
ATOM      4  C   UNL     1      -9.747  -7.392  -2.429  1.00  0.00     0.030 C 
ATOM      5  C   UNL     1     -12.125  -6.483  -3.581  1.00  0.00     0.004 C 
ATOM      6  C   UNL     1     -10.019  -9.774  -0.992  1.00  0.00     0.013 C 
ATOM      7  C   UNL     1     -10.398  -7.304  -1.019  1.00  0.00    -0.063 C 
ATOM      8  C   UNL     1      -9.586  -6.086  -3.283  1.00  0.00    -0.003 C 
ATOM      9  C   UNL     1     -10.918  -5.604  -3.965  1.00  0.00    -0.011 C 
ATOM     10  C   UNL     1     -10.589  -8.568  -0.191  1.00  0.00    -0.006 C 
ATOM     11  C   UNL     1     -10.747  -6.143  -0.443  1.00  0.00    -0.027 C 
ATOM     12  C   UNL     1      -8.649  -5.013  -2.676  1.00  0.00     0.008 C 
ATOM     13  C   UNL     1     -11.247  -4.117  -3.750  1.00  0.00     0.008 C 
ATOM     14  C   UNL     1     -12.124  -8.822  -0.032  1.00  0.00     0.017 C 
ATOM     15  C   UNL     1      -9.878  -8.357   1.254  1.00  0.00    -0.020 C 
ATOM     16  C   UNL     1     -10.693  -5.906   1.040  1.00  0.00     0.032 C 
ATOM     17  C   UNL     1     -10.568  -7.144   1.998  1.00  0.00     0.006 C 
ATOM     18  C   UNL     1      -8.353  -8.043   1.107  1.00  0.00     0.008 C 
ATOM     19  C   UNL     1     -10.025  -9.667   2.091  1.00  0.00     0.012 C 
ATOM     20  C   UNL     1      -9.962  -6.766   3.451  1.00  0.00    -0.025 C 
ATOM     21  C   UNL     1      -7.750  -7.045   2.137  1.00  0.00     0.005 C 
ATOM     22  C   UNL     1      -8.397  -7.083   3.551  1.00  0.00     0.003 C 
ATOM     23  C   UNL     1     -10.264  -5.264   3.806  1.00  0.00     0.010 C 
ATOM     24  C   UNL     1     -10.741  -7.608   4.516  1.00  0.00     0.012 C 
ATOM     25  C   UNL     1      -7.561  -6.301   4.686  1.00  0.00    -0.006 C 
ATOM     26  C   UNL     1      -9.590  -4.783   5.086  1.00  0.00     0.033 C 
ATOM     27  C   UNL     1      -8.078  -4.848   4.933  1.00  0.00     0.120 C 
ATOM     28  C   UNL     1      -7.585  -7.105   6.014  1.00  0.00     0.014 C 
ATOM     29  C   UNL     1      -6.046  -6.163   4.327  1.00  0.00     0.014 C 
ENDROOT
BRANCH   1  30
ATOM     30  C   UNL     1      -9.563  -8.798  -4.498  1.00  0.00     0.048 C 
ATOM     31  O   UNL     1      -8.781  -9.787  -4.479  1.00  0.00    -0.550 OA
ATOM     32  O   UNL     1      -9.579  -7.985  -5.626  1.00  0.00    -0.550 OA
ENDBRANCH   1  30
BRANCH  27  33
ATOM     33  O   UNL     1      -7.485  -4.315   6.095  1.00  0.00    -0.393 OA
ATOM     34  H   UNL     1      -7.929  -4.725   6.887  1.00  0.00     0.210 HD
ENDBRANCH  27  33
TORSDOF 2
ENDMDL
