MODEL 1
REMARK VINA RESULT:    -3.945      0.000      0.000
REMARK INTER + INTRA:         -14.975
REMARK INTER:                 -10.403
REMARK INTRA:                  -4.572
REMARK UNBOUND:                -4.572
REMARK SMILES CCCCCCCCCCCCCCCCCCCCCCCCCCCCCC(=O)[O-]
REMARK SMILES IDX 16 1 17 2 18 3 19 4 20 5 21 6 22 7 23 8 24 9 25 10 26 11
REMARK SMILES IDX 27 12 28 13 29 14 30 15 31 16 32 17 15 18 14 19 13 20 12 21
REMARK SMILES IDX 11 22 10 23 9 24 8 25 7 26 6 27 5 28 4 29 3 30 2 31 1 32
REMARK H PARENT
REMARK Flexibility Score: inf
ROOT
ATOM      1  C   UNL     1     -12.729   4.039   8.043  1.00  0.00     0.000 C 
ENDROOT
BRANCH   1   2
ATOM      2  C   UNL     1     -11.302   3.504   8.265  1.00  0.00     0.000 C 
BRANCH   2   3
ATOM      3  C   UNL     1     -10.236   4.605   8.173  1.00  0.00     0.000 C 
BRANCH   3   4
ATOM      4  C   UNL     1     -10.058   5.084   6.724  1.00  0.00     0.000 C 
BRANCH   4   5
ATOM      5  C   UNL     1     -10.532   6.537   6.529  1.00  0.00     0.000 C 
BRANCH   5   6
ATOM      6  C   UNL     1     -11.723   6.669   5.560  1.00  0.00     0.000 C 
BRANCH   6   7
ATOM      7  C   UNL     1     -12.411   5.318   5.291  1.00  0.00     0.000 C 
BRANCH   7   8
ATOM      8  C   UNL     1     -13.531   5.429   4.236  1.00  0.00     0.000 C 
BRANCH   8   9
ATOM      9  C   UNL     1     -14.498   6.602   4.476  1.00  0.00     0.000 C 
BRANCH   9  10
ATOM     10  C   UNL     1     -14.368   7.711   3.419  1.00  0.00     0.000 C 
BRANCH  10  11
ATOM     11  C   UNL     1     -14.742   9.099   3.983  1.00  0.00     0.000 C 
BRANCH  11  12
ATOM     12  C   UNL     1     -13.553   9.852   4.607  1.00  0.00     0.000 C 
BRANCH  12  13
ATOM     13  C   UNL     1     -13.300  11.218   3.949  1.00  0.00     0.006 C 
BRANCH  13  14
ATOM     14  C   UNL     1     -12.140  11.175   2.945  1.00  0.00     0.053 C 
BRANCH  14  15
ATOM     15  C   UNL     1     -12.622  11.312   1.532  1.00  0.00     0.041 C 
ATOM     16  O   UNL     1     -11.865  11.012   0.571  1.00  0.00    -0.550 OA
ATOM     17  O   UNL     1     -13.901  11.789   1.277  1.00  0.00    -0.550 OA
ENDBRANCH  14  15
ENDBRANCH  13  14
ENDBRANCH  12  13
ENDBRANCH  11  12
ENDBRANCH  10  11
ENDBRANCH   9  10
ENDBRANCH   8   9
ENDBRANCH   7   8
ENDBRANCH   6   7
ENDBRANCH   5   6
ENDBRANCH   4   5
ENDBRANCH   3   4
ENDBRANCH   2   3
ENDBRANCH   1   2
BRANCH   1  18
ATOM     18  C   UNL     1     -13.232   5.016   9.125  1.00  0.00     0.000 C 
BRANCH  18  19
ATOM     19  C   UNL     1     -13.123   6.507   8.760  1.00  0.00     0.000 C 
BRANCH  19  20
ATOM     20  C   UNL     1     -14.494   7.175   8.579  1.00  0.00     0.000 C 
BRANCH  20  21
ATOM     21  C   UNL     1     -14.393   8.432   7.707  1.00  0.00     0.000 C 
BRANCH  21  22
ATOM     22  C   UNL     1     -13.300   9.371   8.234  1.00  0.00     0.000 C 
BRANCH  22  23
ATOM     23  C   UNL     1     -13.779  10.831   8.260  1.00  0.00     0.000 C 
BRANCH  23  24
ATOM     24  C   UNL     1     -12.756  11.805   7.651  1.00  0.00    -0.000 C 
BRANCH  24  25
ATOM     25  C   UNL     1     -11.377  11.828   8.342  1.00  0.00    -0.000 C 
BRANCH  25  26
ATOM     26  C   UNL     1     -10.193  11.540   7.395  1.00  0.00    -0.000 C 
BRANCH  26  27
ATOM     27  C   UNL     1     -10.501  10.423   6.380  1.00  0.00    -0.000 C 
BRANCH  27  28
ATOM     28  C   UNL     1      -9.247   9.975   5.599  1.00  0.00    -0.000 C 
BRANCH  28  29
ATOM     29  C   UNL     1      -8.116   9.426   6.487  1.00  0.00    -0.000 C 
BRANCH  29  30
ATOM     30  C   UNL     1      -6.723   9.606   5.862  1.00  0.00    -0.000 C 
BRANCH  30  31
ATOM     31  C   UNL     1      -5.745  10.330   6.801  1.00  0.00    -0.003 C 
ATOM     32  C   UNL     1      -6.454  11.209   7.831  1.00  0.00     0.004 C 
ENDBRANCH  30  31
ENDBRANCH  29  30
ENDBRANCH  28  29
ENDBRANCH  27  28
ENDBRANCH  26  27
ENDBRANCH  25  26
ENDBRANCH  24  25
ENDBRANCH  23  24
ENDBRANCH  22  23
ENDBRANCH  21  22
ENDBRANCH  20  21
ENDBRANCH  19  20
ENDBRANCH  18  19
ENDBRANCH   1  18
TORSDOF 28
ENDMDL
MODEL 2
REMARK VINA RESULT:    -3.854      2.081      5.464
REMARK INTER + INTRA:         -14.736
REMARK INTER:                  -9.836
REMARK INTRA:                  -4.900
REMARK UNBOUND:                -4.572
REMARK SMILES CCCCCCCCCCCCCCCCCCCCCCCCCCCCCC(=O)[O-]
REMARK SMILES IDX 16 1 17 2 18 3 19 4 20 5 21 6 22 7 23 8 24 9 25 10 26 11
REMARK SMILES IDX 27 12 28 13 29 14 30 15 31 16 32 17 15 18 14 19 13 20 12 21
REMARK SMILES IDX 11 22 10 23 9 24 8 25 7 26 6 27 5 28 4 29 3 30 2 31 1 32
REMARK H PARENT
REMARK Flexibility Score: inf
ROOT
ATOM      1  C   UNL     1     -13.613   5.983   8.552  1.00  0.00     0.000 C 
ENDROOT
BRANCH   1   2
ATOM      2  C   UNL     1     -12.904   4.640   8.301  1.00  0.00     0.000 C 
BRANCH   2   3
ATOM      3  C   UNL     1     -11.431   4.658   8.732  1.00  0.00     0.000 C 
BRANCH   3   4
ATOM      4  C   UNL     1     -10.502   4.377   7.540  1.00  0.00     0.000 C 
BRANCH   4   5
ATOM      5  C   UNL     1      -9.674   5.615   7.144  1.00  0.00     0.000 C 
BRANCH   5   6
ATOM      6  C   UNL     1     -10.441   6.607   6.249  1.00  0.00     0.000 C 
BRANCH   6   7
ATOM      7  C   UNL     1     -11.033   7.780   7.051  1.00  0.00     0.000 C 
BRANCH   7   8
ATOM      8  C   UNL     1     -11.692   8.839   6.142  1.00  0.00     0.000 C 
BRANCH   8   9
ATOM      9  C   UNL     1     -10.880  10.141   6.015  1.00  0.00     0.000 C 
BRANCH   9  10
ATOM     10  C   UNL     1     -11.299  11.209   7.038  1.00  0.00     0.000 C 
BRANCH  10  11
ATOM     11  C   UNL     1     -10.087  11.803   7.789  1.00  0.00     0.000 C 
BRANCH  11  12
ATOM     12  C   UNL     1      -8.758  11.665   7.024  1.00  0.00     0.000 C 
BRANCH  12  13
ATOM     13  C   UNL     1      -7.663  10.970   7.848  1.00  0.00     0.006 C 
BRANCH  13  14
ATOM     14  C   UNL     1      -7.064   9.760   7.118  1.00  0.00     0.053 C 
BRANCH  14  15
ATOM     15  C   UNL     1      -7.082   9.942   5.630  1.00  0.00     0.041 C 
ATOM     16  O   UNL     1      -6.405  10.859   5.094  1.00  0.00    -0.550 OA
ATOM     17  O   UNL     1      -7.862   9.109   4.837  1.00  0.00    -0.550 OA
ENDBRANCH  14  15
ENDBRANCH  13  14
ENDBRANCH  12  13
ENDBRANCH  11  12
ENDBRANCH  10  11
ENDBRANCH   9  10
ENDBRANCH   8   9
ENDBRANCH   7   8
ENDBRANCH   6   7
ENDBRANCH   5   6
ENDBRANCH   4   5
ENDBRANCH   3   4
ENDBRANCH   2   3
ENDBRANCH   1   2
BRANCH   1  18
ATOM     18  C   UNL     1     -14.817   6.264   7.629  1.00  0.00     0.000 C 
BRANCH  18  19
ATOM     19  C   UNL     1     -14.951   7.724   7.159  1.00  0.00     0.000 C 
BRANCH  19  20
ATOM     20  C   UNL     1     -14.859   8.730   8.316  1.00  0.00     0.000 C 
BRANCH  20  21
ATOM     21  C   UNL     1     -14.633  10.156   7.799  1.00  0.00     0.000 C 
BRANCH  21  22
ATOM     22  C   UNL     1     -15.037  10.269   6.323  1.00  0.00     0.000 C 
BRANCH  22  23
ATOM     23  C   UNL     1     -14.903  11.713   5.814  1.00  0.00     0.000 C 
BRANCH  23  24
ATOM     24  C   UNL     1     -14.455  11.786   4.344  1.00  0.00    -0.000 C 
BRANCH  24  25
ATOM     25  C   UNL     1     -13.781  10.511   3.797  1.00  0.00    -0.000 C 
BRANCH  25  26
ATOM     26  C   UNL     1     -13.749  10.428   2.256  1.00  0.00    -0.000 C 
BRANCH  26  27
ATOM     27  C   UNL     1     -13.880   8.985   1.735  1.00  0.00    -0.000 C 
BRANCH  27  28
ATOM     28  C   UNL     1     -14.320   7.998   2.837  1.00  0.00    -0.000 C 
BRANCH  28  29
ATOM     29  C   UNL     1     -14.428   6.537   2.367  1.00  0.00    -0.000 C 
BRANCH  29  30
ATOM     30  C   UNL     1     -14.668   5.551   3.522  1.00  0.00    -0.000 C 
BRANCH  30  31
ATOM     31  C   UNL     1     -13.554   5.600   4.580  1.00  0.00    -0.003 C 
ATOM     32  C   UNL     1     -12.610   4.401   4.500  1.00  0.00     0.004 C 
ENDBRANCH  30  31
ENDBRANCH  29  30
ENDBRANCH  28  29
ENDBRANCH  27  28
ENDBRANCH  26  27
ENDBRANCH  25  26
ENDBRANCH  24  25
ENDBRANCH  23  24
ENDBRANCH  22  23
ENDBRANCH  21  22
ENDBRANCH  20  21
ENDBRANCH  19  20
ENDBRANCH  18  19
ENDBRANCH   1  18
TORSDOF 28
ENDMDL
MODEL 3
REMARK VINA RESULT:    -3.666      2.439      6.531
REMARK INTER + INTRA:         -14.239
REMARK INTER:                 -10.310
REMARK INTRA:                  -3.929
REMARK UNBOUND:                -4.572
REMARK SMILES CCCCCCCCCCCCCCCCCCCCCCCCCCCCCC(=O)[O-]
REMARK SMILES IDX 16 1 17 2 18 3 19 4 20 5 21 6 22 7 23 8 24 9 25 10 26 11
REMARK SMILES IDX 27 12 28 13 29 14 30 15 31 16 32 17 15 18 14 19 13 20 12 21
REMARK SMILES IDX 11 22 10 23 9 24 8 25 7 26 6 27 5 28 4 29 3 30 2 31 1 32
REMARK H PARENT
REMARK Flexibility Score: inf
ROOT
ATOM      1  C   UNL     1      -8.624   7.364   6.734  1.00  0.00     0.000 C 
ENDROOT
BRANCH   1   2
ATOM      2  C   UNL     1      -8.409   8.362   5.583  1.00  0.00     0.000 C 
BRANCH   2   3
ATOM      3  C   UNL     1      -7.169   9.243   5.785  1.00  0.00     0.000 C 
BRANCH   3   4
ATOM      4  C   UNL     1      -7.365  10.630   5.153  1.00  0.00     0.000 C 
BRANCH   4   5
ATOM      5  C   UNL     1      -7.467  11.743   6.213  1.00  0.00     0.000 C 
BRANCH   5   6
ATOM      6  C   UNL     1      -8.348  11.364   7.419  1.00  0.00     0.000 C 
BRANCH   6   7
ATOM      7  C   UNL     1      -9.754  11.986   7.333  1.00  0.00     0.000 C 
BRANCH   7   8
ATOM      8  C   UNL     1     -10.480  11.620   6.021  1.00  0.00     0.000 C 
BRANCH   8   9
ATOM      9  C   UNL     1     -11.432  10.417   6.153  1.00  0.00     0.000 C 
BRANCH   9  10
ATOM     10  C   UNL     1     -12.036  10.284   7.560  1.00  0.00     0.000 C 
BRANCH  10  11
ATOM     11  C   UNL     1     -13.517  10.721   7.603  1.00  0.00     0.000 C 
BRANCH  11  12
ATOM     12  C   UNL     1     -14.209  10.428   8.946  1.00  0.00     0.000 C 
BRANCH  12  13
ATOM     13  C   UNL     1     -15.096   9.174   8.899  1.00  0.00     0.006 C 
BRANCH  13  14
ATOM     14  C   UNL     1     -15.046   8.475   7.533  1.00  0.00     0.053 C 
BRANCH  14  15
ATOM     15  C   UNL     1     -14.394   7.128   7.621  1.00  0.00     0.041 C 
ATOM     16  O   UNL     1     -15.094   6.081   7.592  1.00  0.00    -0.550 OA
ATOM     17  O   UNL     1     -13.015   7.030   7.754  1.00  0.00    -0.550 OA
ENDBRANCH  14  15
ENDBRANCH  13  14
ENDBRANCH  12  13
ENDBRANCH  11  12
ENDBRANCH  10  11
ENDBRANCH   9  10
ENDBRANCH   8   9
ENDBRANCH   7   8
ENDBRANCH   6   7
ENDBRANCH   5   6
ENDBRANCH   4   5
ENDBRANCH   3   4
ENDBRANCH   2   3
ENDBRANCH   1   2
BRANCH   1  18
ATOM     18  C   UNL     1      -9.754   6.340   6.505  1.00  0.00     0.000 C 
BRANCH  18  19
ATOM     19  C   UNL     1      -9.931   5.300   7.627  1.00  0.00     0.000 C 
BRANCH  19  20
ATOM     20  C   UNL     1     -11.024   4.268   7.310  1.00  0.00     0.000 C 
BRANCH  20  21
ATOM     21  C   UNL     1     -11.357   4.248   5.814  1.00  0.00     0.000 C 
BRANCH  21  22
ATOM     22  C   UNL     1     -12.876   4.246   5.596  1.00  0.00     0.000 C 
BRANCH  22  23
ATOM     23  C   UNL     1     -13.241   4.742   4.188  1.00  0.00     0.000 C 
BRANCH  23  24
ATOM     24  C   UNL     1     -13.675   6.217   4.171  1.00  0.00    -0.000 C 
BRANCH  24  25
ATOM     25  C   UNL     1     -14.386   6.680   2.883  1.00  0.00    -0.000 C 
BRANCH  25  26
ATOM     26  C   UNL     1     -14.639   8.201   2.815  1.00  0.00    -0.000 C 
BRANCH  26  27
ATOM     27  C   UNL     1     -14.127   8.946   4.063  1.00  0.00    -0.000 C 
BRANCH  27  28
ATOM     28  C   UNL     1     -14.191  10.479   3.901  1.00  0.00    -0.000 C 
BRANCH  28  29
ATOM     29  C   UNL     1     -14.715  10.945   2.531  1.00  0.00    -0.000 C 
BRANCH  29  30
ATOM     30  C   UNL     1     -13.654  11.691   1.705  1.00  0.00    -0.000 C 
BRANCH  30  31
ATOM     31  C   UNL     1     -12.325  10.925   1.623  1.00  0.00    -0.003 C 
ATOM     32  C   UNL     1     -11.723  10.932   0.218  1.00  0.00     0.004 C 
ENDBRANCH  30  31
ENDBRANCH  29  30
ENDBRANCH  28  29
ENDBRANCH  27  28
ENDBRANCH  26  27
ENDBRANCH  25  26
ENDBRANCH  24  25
ENDBRANCH  23  24
ENDBRANCH  22  23
ENDBRANCH  21  22
ENDBRANCH  20  21
ENDBRANCH  19  20
ENDBRANCH  18  19
ENDBRANCH   1  18
TORSDOF 28
ENDMDL
MODEL 4
REMARK VINA RESULT:    -3.561      1.278      4.752
REMARK INTER + INTRA:         -13.962
REMARK INTER:                  -9.830
REMARK INTRA:                  -4.132
REMARK UNBOUND:                -4.572
REMARK SMILES CCCCCCCCCCCCCCCCCCCCCCCCCCCCCC(=O)[O-]
REMARK SMILES IDX 16 1 17 2 18 3 19 4 20 5 21 6 22 7 23 8 24 9 25 10 26 11
REMARK SMILES IDX 27 12 28 13 29 14 30 15 31 16 32 17 15 18 14 19 13 20 12 21
REMARK SMILES IDX 11 22 10 23 9 24 8 25 7 26 6 27 5 28 4 29 3 30 2 31 1 32
REMARK H PARENT
REMARK Flexibility Score: inf
ROOT
ATOM      1  C   UNL     1      -9.621   7.238   5.802  1.00  0.00     0.000 C 
ENDROOT
BRANCH   1   2
ATOM      2  C   UNL     1      -9.776   5.746   5.455  1.00  0.00     0.000 C 
BRANCH   2   3
ATOM      3  C   UNL     1     -10.306   4.916   6.632  1.00  0.00     0.000 C 
BRANCH   3   4
ATOM      4  C   UNL     1      -9.954   5.573   7.976  1.00  0.00     0.000 C 
BRANCH   4   5
ATOM      5  C   UNL     1     -10.972   5.223   9.078  1.00  0.00     0.000 C 
BRANCH   5   6
ATOM      6  C   UNL     1     -12.425   5.575   8.706  1.00  0.00     0.000 C 
BRANCH   6   7
ATOM      7  C   UNL     1     -12.534   6.944   8.010  1.00  0.00     0.000 C 
BRANCH   7   8
ATOM      8  C   UNL     1     -13.952   7.545   8.114  1.00  0.00     0.000 C 
BRANCH   8   9
ATOM      9  C   UNL     1     -14.933   7.013   7.054  1.00  0.00     0.000 C 
BRANCH   9  10
ATOM     10  C   UNL     1     -14.542   7.416   5.623  1.00  0.00     0.000 C 
BRANCH  10  11
ATOM     11  C   UNL     1     -13.965   6.228   4.821  1.00  0.00     0.000 C 
BRANCH  11  12
ATOM     12  C   UNL     1     -14.019   6.430   3.296  1.00  0.00     0.000 C 
BRANCH  12  13
ATOM     13  C   UNL     1     -14.538   7.819   2.894  1.00  0.00     0.006 C 
BRANCH  13  14
ATOM     14  C   UNL     1     -14.044   8.247   1.505  1.00  0.00     0.053 C 
BRANCH  14  15
ATOM     15  C   UNL     1     -13.663   9.696   1.472  1.00  0.00     0.041 C 
ATOM     16  O   UNL     1     -14.461  10.573   1.897  1.00  0.00    -0.550 OA
ATOM     17  O   UNL     1     -12.432  10.079   0.953  1.00  0.00    -0.550 OA
ENDBRANCH  14  15
ENDBRANCH  13  14
ENDBRANCH  12  13
ENDBRANCH  11  12
ENDBRANCH  10  11
ENDBRANCH   9  10
ENDBRANCH   8   9
ENDBRANCH   7   8
ENDBRANCH   6   7
ENDBRANCH   5   6
ENDBRANCH   4   5
ENDBRANCH   3   4
ENDBRANCH   2   3
ENDBRANCH   1   2
BRANCH   1  18
ATOM     18  C   UNL     1      -8.328   7.896   5.278  1.00  0.00     0.000 C 
BRANCH  18  19
ATOM     19  C   UNL     1      -8.480   9.357   4.816  1.00  0.00     0.000 C 
BRANCH  19  20
ATOM     20  C   UNL     1      -7.257  10.218   5.165  1.00  0.00     0.000 C 
BRANCH  20  21
ATOM     21  C   UNL     1      -6.545   9.696   6.419  1.00  0.00     0.000 C 
BRANCH  21  22
ATOM     22  C   UNL     1      -6.061  10.862   7.292  1.00  0.00     0.000 C 
BRANCH  22  23
ATOM     23  C   UNL     1      -6.888  10.976   8.583  1.00  0.00     0.000 C 
BRANCH  23  24
ATOM     24  C   UNL     1      -7.910  12.124   8.534  1.00  0.00    -0.000 C 
BRANCH  24  25
ATOM     25  C   UNL     1      -8.882  12.091   7.336  1.00  0.00    -0.000 C 
BRANCH  25  26
ATOM     26  C   UNL     1     -10.018  11.056   7.476  1.00  0.00    -0.000 C 
BRANCH  26  27
ATOM     27  C   UNL     1     -11.301  11.658   8.080  1.00  0.00    -0.000 C 
BRANCH  27  28
ATOM     28  C   UNL     1     -12.579  11.125   7.399  1.00  0.00    -0.000 C 
BRANCH  28  29
ATOM     29  C   UNL     1     -12.312  10.222   6.181  1.00  0.00    -0.000 C 
BRANCH  29  30
ATOM     30  C   UNL     1     -13.020  10.710   4.906  1.00  0.00    -0.000 C 
BRANCH  30  31
ATOM     31  C   UNL     1     -12.582  12.124   4.493  1.00  0.00    -0.003 C 
ATOM     32  C   UNL     1     -11.477  12.117   3.437  1.00  0.00     0.004 C 
ENDBRANCH  30  31
ENDBRANCH  29  30
ENDBRANCH  28  29
ENDBRANCH  27  28
ENDBRANCH  26  27
ENDBRANCH  25  26
ENDBRANCH  24  25
ENDBRANCH  23  24
ENDBRANCH  22  23
ENDBRANCH  21  22
ENDBRANCH  20  21
ENDBRANCH  19  20
ENDBRANCH  18  19
ENDBRANCH   1  18
TORSDOF 28
ENDMDL
MODEL 5
REMARK VINA RESULT:    -3.465      2.736      6.637
REMARK INTER + INTRA:         -13.709
REMARK INTER:                 -10.430
REMARK INTRA:                  -3.279
REMARK UNBOUND:                -4.572
REMARK SMILES CCCCCCCCCCCCCCCCCCCCCCCCCCCCCC(=O)[O-]
REMARK SMILES IDX 16 1 17 2 18 3 19 4 20 5 21 6 22 7 23 8 24 9 25 10 26 11
REMARK SMILES IDX 27 12 28 13 29 14 30 15 31 16 32 17 15 18 14 19 13 20 12 21
REMARK SMILES IDX 11 22 10 23 9 24 8 25 7 26 6 27 5 28 4 29 3 30 2 31 1 32
REMARK H PARENT
REMARK Flexibility Score: inf
ROOT
ATOM      1  C   UNL     1     -11.844   6.541   7.470  1.00  0.00     0.000 C 
ENDROOT
BRANCH   1   2
ATOM      2  C   UNL     1     -12.613   7.828   7.818  1.00  0.00     0.000 C 
BRANCH   2   3
ATOM      3  C   UNL     1     -13.829   7.566   8.719  1.00  0.00     0.000 C 
BRANCH   3   4
ATOM      4  C   UNL     1     -14.838   8.722   8.637  1.00  0.00     0.000 C 
BRANCH   4   5
ATOM      5  C   UNL     1     -14.840   9.393   7.250  1.00  0.00     0.000 C 
BRANCH   5   6
ATOM      6  C   UNL     1     -14.407  10.871   7.282  1.00  0.00     0.000 C 
BRANCH   6   7
ATOM      7  C   UNL     1     -14.206  11.451   5.869  1.00  0.00     0.000 C 
BRANCH   7   8
ATOM      8  C   UNL     1     -12.733  11.815   5.588  1.00  0.00     0.000 C 
BRANCH   8   9
ATOM      9  C   UNL     1     -11.727  11.080   6.491  1.00  0.00     0.000 C 
BRANCH   9  10
ATOM     10  C   UNL     1     -10.533  11.959   6.896  1.00  0.00     0.000 C 
BRANCH  10  11
ATOM     11  C   UNL     1      -9.244  11.575   6.137  1.00  0.00     0.000 C 
BRANCH  11  12
ATOM     12  C   UNL     1      -8.840  10.100   6.313  1.00  0.00     0.000 C 
BRANCH  12  13
ATOM     13  C   UNL     1      -7.654   9.695   5.425  1.00  0.00     0.006 C 
BRANCH  13  14
ATOM     14  C   UNL     1      -6.620  10.821   5.283  1.00  0.00     0.053 C 
BRANCH  14  15
ATOM     15  C   UNL     1      -5.566  10.747   6.346  1.00  0.00     0.041 C 
ATOM     16  O   UNL     1      -5.862  10.967   7.551  1.00  0.00    -0.550 OA
ATOM     17  O   UNL     1      -4.253  10.453   6.003  1.00  0.00    -0.550 OA
ENDBRANCH  14  15
ENDBRANCH  13  14
ENDBRANCH  12  13
ENDBRANCH  11  12
ENDBRANCH  10  11
ENDBRANCH   9  10
ENDBRANCH   8   9
ENDBRANCH   7   8
ENDBRANCH   6   7
ENDBRANCH   5   6
ENDBRANCH   4   5
ENDBRANCH   3   4
ENDBRANCH   2   3
ENDBRANCH   1   2
BRANCH   1  18
ATOM     18  C   UNL     1     -11.261   5.785   8.681  1.00  0.00     0.000 C 
BRANCH  18  19
ATOM     19  C   UNL     1     -12.060   4.546   9.125  1.00  0.00     0.000 C 
BRANCH  19  20
ATOM     20  C   UNL     1     -12.127   3.464   8.037  1.00  0.00     0.000 C 
BRANCH  20  21
ATOM     21  C   UNL     1     -10.969   3.599   7.042  1.00  0.00     0.000 C 
BRANCH  21  22
ATOM     22  C   UNL     1     -11.466   3.412   5.602  1.00  0.00     0.000 C 
BRANCH  22  23
ATOM     23  C   UNL     1     -12.875   3.998   5.415  1.00  0.00     0.000 C 
BRANCH  23  24
ATOM     24  C   UNL     1     -12.973   4.937   4.201  1.00  0.00    -0.000 C 
BRANCH  24  25
ATOM     25  C   UNL     1     -14.364   5.557   3.958  1.00  0.00    -0.000 C 
BRANCH  25  26
ATOM     26  C   UNL     1     -14.638   6.833   4.781  1.00  0.00    -0.000 C 
BRANCH  26  27
ATOM     27  C   UNL     1     -15.053   8.029   3.904  1.00  0.00    -0.000 C 
BRANCH  27  28
ATOM     28  C   UNL     1     -13.838   8.799   3.345  1.00  0.00    -0.000 C 
BRANCH  28  29
ATOM     29  C   UNL     1     -14.016   9.288   1.896  1.00  0.00    -0.000 C 
BRANCH  29  30
ATOM     30  C   UNL     1     -14.095  10.820   1.787  1.00  0.00    -0.000 C 
BRANCH  30  31
ATOM     31  C   UNL     1     -12.711  11.474   1.647  1.00  0.00    -0.003 C 
ATOM     32  C   UNL     1     -11.884  10.870   0.513  1.00  0.00     0.004 C 
ENDBRANCH  30  31
ENDBRANCH  29  30
ENDBRANCH  28  29
ENDBRANCH  27  28
ENDBRANCH  26  27
ENDBRANCH  25  26
ENDBRANCH  24  25
ENDBRANCH  23  24
ENDBRANCH  22  23
ENDBRANCH  21  22
ENDBRANCH  20  21
ENDBRANCH  19  20
ENDBRANCH  18  19
ENDBRANCH   1  18
TORSDOF 28
ENDMDL
MODEL 6
REMARK VINA RESULT:    -3.432      2.981      6.494
REMARK INTER + INTRA:         -13.622
REMARK INTER:                  -9.982
REMARK INTRA:                  -3.640
REMARK UNBOUND:                -4.572
REMARK SMILES CCCCCCCCCCCCCCCCCCCCCCCCCCCCCC(=O)[O-]
REMARK SMILES IDX 16 1 17 2 18 3 19 4 20 5 21 6 22 7 23 8 24 9 25 10 26 11
REMARK SMILES IDX 27 12 28 13 29 14 30 15 31 16 32 17 15 18 14 19 13 20 12 21
REMARK SMILES IDX 11 22 10 23 9 24 8 25 7 26 6 27 5 28 4 29 3 30 2 31 1 32
REMARK H PARENT
REMARK Flexibility Score: inf
ROOT
ATOM      1  C   UNL     1     -13.153   5.799   8.906  1.00  0.00     0.000 C 
ENDROOT
BRANCH   1   2
ATOM      2  C   UNL     1     -12.279   5.230   7.774  1.00  0.00     0.000 C 
BRANCH   2   3
ATOM      3  C   UNL     1     -10.790   5.557   7.953  1.00  0.00     0.000 C 
BRANCH   3   4
ATOM      4  C   UNL     1      -9.926   4.767   6.958  1.00  0.00     0.000 C 
BRANCH   4   5
ATOM      5  C   UNL     1      -9.181   5.690   5.975  1.00  0.00     0.000 C 
BRANCH   5   6
ATOM      6  C   UNL     1      -9.855   7.063   5.791  1.00  0.00     0.000 C 
BRANCH   6   7
ATOM      7  C   UNL     1      -8.968   8.221   6.286  1.00  0.00     0.000 C 
BRANCH   7   8
ATOM      8  C   UNL     1      -9.494   9.599   5.833  1.00  0.00     0.000 C 
BRANCH   8   9
ATOM      9  C   UNL     1      -8.445  10.722   5.916  1.00  0.00     0.000 C 
BRANCH   9  10
ATOM     10  C   UNL     1      -7.925  10.951   7.344  1.00  0.00     0.000 C 
BRANCH  10  11
ATOM     11  C   UNL     1      -6.414  10.655   7.469  1.00  0.00     0.000 C 
BRANCH  11  12
ATOM     12  C   UNL     1      -5.522  11.690   6.761  1.00  0.00     0.000 C 
BRANCH  12  13
ATOM     13  C   UNL     1      -4.832  11.129   5.508  1.00  0.00     0.006 C 
BRANCH  13  14
ATOM     14  C   UNL     1      -3.313  11.003   5.686  1.00  0.00     0.053 C 
BRANCH  14  15
ATOM     15  C   UNL     1      -2.566  11.634   4.550  1.00  0.00     0.041 C 
ATOM     16  O   UNL     1      -3.191  12.125   3.573  1.00  0.00    -0.550 OA
ATOM     17  O   UNL     1      -1.177  11.661   4.561  1.00  0.00    -0.550 OA
ENDBRANCH  14  15
ENDBRANCH  13  14
ENDBRANCH  12  13
ENDBRANCH  11  12
ENDBRANCH  10  11
ENDBRANCH   9  10
ENDBRANCH   8   9
ENDBRANCH   7   8
ENDBRANCH   6   7
ENDBRANCH   5   6
ENDBRANCH   4   5
ENDBRANCH   3   4
ENDBRANCH   2   3
ENDBRANCH   1   2
BRANCH   1  18
ATOM     18  C   UNL     1     -14.552   6.280   8.469  1.00  0.00     0.000 C 
BRANCH  18  19
ATOM     19  C   UNL     1     -14.575   7.621   7.714  1.00  0.00     0.000 C 
BRANCH  19  20
ATOM     20  C   UNL     1     -13.755   8.712   8.419  1.00  0.00     0.000 C 
BRANCH  20  21
ATOM     21  C   UNL     1     -12.642   9.248   7.511  1.00  0.00     0.000 C 
BRANCH  21  22
ATOM     22  C   UNL     1     -13.217  10.194   6.448  1.00  0.00     0.000 C 
BRANCH  22  23
ATOM     23  C   UNL     1     -12.421  11.506   6.375  1.00  0.00     0.000 C 
BRANCH  23  24
ATOM     24  C   UNL     1     -12.160  11.964   4.930  1.00  0.00    -0.000 C 
BRANCH  24  25
ATOM     25  C   UNL     1     -12.784  11.076   3.834  1.00  0.00    -0.000 C 
BRANCH  25  26
ATOM     26  C   UNL     1     -12.187  11.296   2.429  1.00  0.00    -0.000 C 
BRANCH  26  27
ATOM     27  C   UNL     1     -12.832  10.393   1.360  1.00  0.00    -0.000 C 
BRANCH  27  28
ATOM     28  C   UNL     1     -13.946   9.496   1.941  1.00  0.00    -0.000 C 
BRANCH  28  29
ATOM     29  C   UNL     1     -14.019   8.095   1.308  1.00  0.00    -0.000 C 
BRANCH  29  30
ATOM     30  C   UNL     1     -14.415   7.003   2.314  1.00  0.00    -0.000 C 
BRANCH  30  31
ATOM     31  C   UNL     1     -14.142   7.414   3.770  1.00  0.00    -0.003 C 
ATOM     32  C   UNL     1     -13.726   6.236   4.649  1.00  0.00     0.004 C 
ENDBRANCH  30  31
ENDBRANCH  29  30
ENDBRANCH  28  29
ENDBRANCH  27  28
ENDBRANCH  26  27
ENDBRANCH  25  26
ENDBRANCH  24  25
ENDBRANCH  23  24
ENDBRANCH  22  23
ENDBRANCH  21  22
ENDBRANCH  20  21
ENDBRANCH  19  20
ENDBRANCH  18  19
ENDBRANCH   1  18
TORSDOF 28
ENDMDL
MODEL 7
REMARK VINA RESULT:    -3.377      2.969      7.288
REMARK INTER + INTRA:         -13.478
REMARK INTER:                 -10.784
REMARK INTRA:                  -2.694
REMARK UNBOUND:                -4.572
REMARK SMILES CCCCCCCCCCCCCCCCCCCCCCCCCCCCCC(=O)[O-]
REMARK SMILES IDX 16 1 17 2 18 3 19 4 20 5 21 6 22 7 23 8 24 9 25 10 26 11
REMARK SMILES IDX 27 12 28 13 29 14 30 15 31 16 32 17 15 18 14 19 13 20 12 21
REMARK SMILES IDX 11 22 10 23 9 24 8 25 7 26 6 27 5 28 4 29 3 30 2 31 1 32
REMARK H PARENT
REMARK Flexibility Score: inf
ROOT
ATOM      1  C   UNL     1     -11.308   6.315   7.091  1.00  0.00     0.000 C 
ENDROOT
BRANCH   1   2
ATOM      2  C   UNL     1     -11.636   7.814   7.218  1.00  0.00     0.000 C 
BRANCH   2   3
ATOM      3  C   UNL     1     -12.896   8.076   8.055  1.00  0.00     0.000 C 
BRANCH   3   4
ATOM      4  C   UNL     1     -13.295   9.559   8.005  1.00  0.00     0.000 C 
BRANCH   4   5
ATOM      5  C   UNL     1     -12.636  10.298   6.825  1.00  0.00     0.000 C 
BRANCH   5   6
ATOM      6  C   UNL     1     -11.635  11.384   7.263  1.00  0.00     0.000 C 
BRANCH   6   7
ATOM      7  C   UNL     1     -11.015  12.125   6.063  1.00  0.00     0.000 C 
BRANCH   7   8
ATOM      8  C   UNL     1      -9.476  12.012   6.035  1.00  0.00     0.000 C 
BRANCH   8   9
ATOM      9  C   UNL     1      -8.886  11.256   7.239  1.00  0.00     0.000 C 
BRANCH   9  10
ATOM     10  C   UNL     1      -7.388  11.534   7.443  1.00  0.00     0.000 C 
BRANCH  10  11
ATOM     11  C   UNL     1      -6.526  10.271   7.222  1.00  0.00     0.000 C 
BRANCH  11  12
ATOM     12  C   UNL     1      -5.727  10.292   5.907  1.00  0.00     0.000 C 
BRANCH  12  13
ATOM     13  C   UNL     1      -4.218  10.478   6.128  1.00  0.00     0.006 C 
BRANCH  13  14
ATOM     14  C   UNL     1      -3.736  11.875   5.712  1.00  0.00     0.053 C 
BRANCH  14  15
ATOM     15  C   UNL     1      -2.737  11.811   4.597  1.00  0.00     0.041 C 
ATOM     16  O   UNL     1      -3.123  11.807   3.398  1.00  0.00    -0.550 OA
ATOM     17  O   UNL     1      -1.379  11.735   4.882  1.00  0.00    -0.550 OA
ENDBRANCH  14  15
ENDBRANCH  13  14
ENDBRANCH  12  13
ENDBRANCH  11  12
ENDBRANCH  10  11
ENDBRANCH   9  10
ENDBRANCH   8   9
ENDBRANCH   7   8
ENDBRANCH   6   7
ENDBRANCH   5   6
ENDBRANCH   4   5
ENDBRANCH   3   4
ENDBRANCH   2   3
ENDBRANCH   1   2
BRANCH   1  18
ATOM     18  C   UNL     1     -10.775   5.655   8.379  1.00  0.00     0.000 C 
BRANCH  18  19
ATOM     19  C   UNL     1     -11.780   4.747   9.111  1.00  0.00     0.000 C 
BRANCH  19  20
ATOM     20  C   UNL     1     -12.155   3.500   8.297  1.00  0.00     0.000 C 
BRANCH  20  21
ATOM     21  C   UNL     1     -11.114   3.210   7.209  1.00  0.00     0.000 C 
BRANCH  21  22
ATOM     22  C   UNL     1     -11.794   3.015   5.847  1.00  0.00     0.000 C 
BRANCH  22  23
ATOM     23  C   UNL     1     -12.978   3.979   5.668  1.00  0.00     0.000 C 
BRANCH  23  24
ATOM     24  C   UNL     1     -12.874   4.816   4.381  1.00  0.00    -0.000 C 
BRANCH  24  25
ATOM     25  C   UNL     1     -14.137   5.623   4.017  1.00  0.00    -0.000 C 
BRANCH  25  26
ATOM     26  C   UNL     1     -14.593   6.609   5.113  1.00  0.00    -0.000 C 
BRANCH  26  27
ATOM     27  C   UNL     1     -15.105   7.943   4.538  1.00  0.00    -0.000 C 
BRANCH  27  28
ATOM     28  C   UNL     1     -13.959   8.848   4.040  1.00  0.00    -0.000 C 
BRANCH  28  29
ATOM     29  C   UNL     1     -14.429  10.062   3.218  1.00  0.00    -0.000 C 
BRANCH  29  30
ATOM     30  C   UNL     1     -13.502  11.280   3.364  1.00  0.00    -0.000 C 
BRANCH  30  31
ATOM     31  C   UNL     1     -12.263  11.191   2.460  1.00  0.00    -0.003 C 
ATOM     32  C   UNL     1     -12.571  10.582   1.092  1.00  0.00     0.004 C 
ENDBRANCH  30  31
ENDBRANCH  29  30
ENDBRANCH  28  29
ENDBRANCH  27  28
ENDBRANCH  26  27
ENDBRANCH  25  26
ENDBRANCH  24  25
ENDBRANCH  23  24
ENDBRANCH  22  23
ENDBRANCH  21  22
ENDBRANCH  20  21
ENDBRANCH  19  20
ENDBRANCH  18  19
ENDBRANCH   1  18
TORSDOF 28
ENDMDL
MODEL 8
REMARK VINA RESULT:    -3.048      2.133      6.544
REMARK INTER + INTRA:         -12.609
REMARK INTER:                  -9.658
REMARK INTRA:                  -2.951
REMARK UNBOUND:                -4.572
REMARK SMILES CCCCCCCCCCCCCCCCCCCCCCCCCCCCCC(=O)[O-]
REMARK SMILES IDX 16 1 17 2 18 3 19 4 20 5 21 6 22 7 23 8 24 9 25 10 26 11
REMARK SMILES IDX 27 12 28 13 29 14 30 15 31 16 32 17 15 18 14 19 13 20 12 21
REMARK SMILES IDX 11 22 10 23 9 24 8 25 7 26 6 27 5 28 4 29 3 30 2 31 1 32
REMARK H PARENT
REMARK Flexibility Score: inf
ROOT
ATOM      1  C   UNL     1      -9.983   6.104   6.560  1.00  0.00     0.000 C 
ENDROOT
BRANCH   1   2
ATOM      2  C   UNL     1      -9.118   7.280   6.073  1.00  0.00     0.000 C 
BRANCH   2   3
ATOM      3  C   UNL     1      -9.837   8.632   6.186  1.00  0.00     0.000 C 
BRANCH   3   4
ATOM      4  C   UNL     1      -9.157   9.695   5.310  1.00  0.00     0.000 C 
BRANCH   4   5
ATOM      5  C   UNL     1      -7.708   9.314   4.951  1.00  0.00     0.000 C 
BRANCH   5   6
ATOM      6  C   UNL     1      -6.656  10.267   5.550  1.00  0.00     0.000 C 
BRANCH   6   7
ATOM      7  C   UNL     1      -6.289   9.895   6.999  1.00  0.00     0.000 C 
BRANCH   7   8
ATOM      8  C   UNL     1      -7.221  10.562   8.031  1.00  0.00     0.000 C 
BRANCH   8   9
ATOM      9  C   UNL     1      -8.036  11.739   7.464  1.00  0.00     0.000 C 
BRANCH   9  10
ATOM     10  C   UNL     1      -9.228  12.125   8.355  1.00  0.00     0.000 C 
BRANCH  10  11
ATOM     11  C   UNL     1     -10.571  12.046   7.596  1.00  0.00     0.000 C 
BRANCH  11  12
ATOM     12  C   UNL     1     -11.804  12.125   8.514  1.00  0.00     0.000 C 
BRANCH  12  13
ATOM     13  C   UNL     1     -13.009  11.346   7.964  1.00  0.00     0.006 C 
BRANCH  13  14
ATOM     14  C   UNL     1     -13.260  10.042   8.734  1.00  0.00     0.053 C 
BRANCH  14  15
ATOM     15  C   UNL     1     -13.270   8.851   7.824  1.00  0.00     0.041 C 
ATOM     16  O   UNL     1     -13.810   8.924   6.688  1.00  0.00    -0.550 OA
ATOM     17  O   UNL     1     -12.700   7.654   8.239  1.00  0.00    -0.550 OA
ENDBRANCH  14  15
ENDBRANCH  13  14
ENDBRANCH  12  13
ENDBRANCH  11  12
ENDBRANCH  10  11
ENDBRANCH   9  10
ENDBRANCH   8   9
ENDBRANCH   7   8
ENDBRANCH   6   7
ENDBRANCH   5   6
ENDBRANCH   4   5
ENDBRANCH   3   4
ENDBRANCH   2   3
ENDBRANCH   1   2
BRANCH   1  18
ATOM     18  C   UNL     1      -9.500   5.440   7.866  1.00  0.00     0.000 C 
BRANCH  18  19
ATOM     19  C   UNL     1     -10.620   4.966   8.810  1.00  0.00     0.000 C 
BRANCH  19  20
ATOM     20  C   UNL     1     -11.798   4.328   8.059  1.00  0.00     0.000 C 
BRANCH  20  21
ATOM     21  C   UNL     1     -11.325   3.204   7.129  1.00  0.00     0.000 C 
BRANCH  21  22
ATOM     22  C   UNL     1     -12.148   3.190   5.834  1.00  0.00     0.000 C 
BRANCH  22  23
ATOM     23  C   UNL     1     -13.189   4.320   5.818  1.00  0.00     0.000 C 
BRANCH  23  24
ATOM     24  C   UNL     1     -13.266   5.039   4.461  1.00  0.00    -0.000 C 
BRANCH  24  25
ATOM     25  C   UNL     1     -14.436   6.032   4.306  1.00  0.00    -0.000 C 
BRANCH  25  26
ATOM     26  C   UNL     1     -14.687   6.489   2.854  1.00  0.00    -0.000 C 
BRANCH  26  27
ATOM     27  C   UNL     1     -14.645   8.021   2.696  1.00  0.00    -0.000 C 
BRANCH  27  28
ATOM     28  C   UNL     1     -13.606   8.478   1.650  1.00  0.00    -0.000 C 
BRANCH  28  29
ATOM     29  C   UNL     1     -13.693   9.971   1.288  1.00  0.00    -0.000 C 
BRANCH  29  30
ATOM     30  C   UNL     1     -12.628  10.823   1.998  1.00  0.00    -0.000 C 
BRANCH  30  31
ATOM     31  C   UNL     1     -13.241  11.885   2.923  1.00  0.00    -0.003 C 
ATOM     32  C   UNL     1     -13.319  11.427   4.380  1.00  0.00     0.004 C 
ENDBRANCH  30  31
ENDBRANCH  29  30
ENDBRANCH  28  29
ENDBRANCH  27  28
ENDBRANCH  26  27
ENDBRANCH  25  26
ENDBRANCH  24  25
ENDBRANCH  23  24
ENDBRANCH  22  23
ENDBRANCH  21  22
ENDBRANCH  20  21
ENDBRANCH  19  20
ENDBRANCH  18  19
ENDBRANCH   1  18
TORSDOF 28
ENDMDL
MODEL 9
REMARK VINA RESULT:    -1.714      2.362      5.579
REMARK INTER + INTRA:          -9.093
REMARK INTER:                  -5.320
REMARK INTRA:                  -3.773
REMARK UNBOUND:                -4.572
REMARK SMILES CCCCCCCCCCCCCCCCCCCCCCCCCCCCCC(=O)[O-]
REMARK SMILES IDX 16 1 17 2 18 3 19 4 20 5 21 6 22 7 23 8 24 9 25 10 26 11
REMARK SMILES IDX 27 12 28 13 29 14 30 15 31 16 32 17 15 18 14 19 13 20 12 21
REMARK SMILES IDX 11 22 10 23 9 24 8 25 7 26 6 27 5 28 4 29 3 30 2 31 1 32
REMARK H PARENT
REMARK Flexibility Score: inf
ROOT
ATOM      1  C   UNL     1      -9.591   6.478   5.968  1.00  0.00     0.000 C 
ENDROOT
BRANCH   1   2
ATOM      2  C   UNL     1      -9.145   5.503   7.072  1.00  0.00     0.000 C 
BRANCH   2   3
ATOM      3  C   UNL     1     -10.230   4.479   7.434  1.00  0.00     0.000 C 
BRANCH   3   4
ATOM      4  C   UNL     1     -10.674   4.637   8.896  1.00  0.00     0.000 C 
BRANCH   4   5
ATOM      5  C   UNL     1     -12.111   4.132   9.125  1.00  0.00     0.000 C 
BRANCH   5   6
ATOM      6  C   UNL     1     -13.169   5.252   9.088  1.00  0.00     0.000 C 
BRANCH   6   7
ATOM      7  C   UNL     1     -12.621   6.553   8.473  1.00  0.00     0.000 C 
BRANCH   7   8
ATOM      8  C   UNL     1     -13.473   7.783   8.846  1.00  0.00     0.000 C 
BRANCH   8   9
ATOM      9  C   UNL     1     -14.946   7.674   8.412  1.00  0.00     0.000 C 
BRANCH   9  10
ATOM     10  C   UNL     1     -15.109   7.435   6.902  1.00  0.00     0.000 C 
BRANCH  10  11
ATOM     11  C   UNL     1     -14.051   8.198   6.075  1.00  0.00     0.000 C 
BRANCH  11  12
ATOM     12  C   UNL     1     -13.326   7.320   5.039  1.00  0.00     0.000 C 
BRANCH  12  13
ATOM     13  C   UNL     1     -14.263   6.800   3.937  1.00  0.00     0.006 C 
BRANCH  13  14
ATOM     14  C   UNL     1     -14.070   5.301   3.668  1.00  0.00     0.053 C 
BRANCH  14  15
ATOM     15  C   UNL     1     -13.138   4.673   4.659  1.00  0.00     0.041 C 
ATOM     16  O   UNL     1     -13.542   4.387   5.818  1.00  0.00    -0.550 OA
ATOM     17  O   UNL     1     -11.818   4.419   4.309  1.00  0.00    -0.550 OA
ENDBRANCH  14  15
ENDBRANCH  13  14
ENDBRANCH  12  13
ENDBRANCH  11  12
ENDBRANCH  10  11
ENDBRANCH   9  10
ENDBRANCH   8   9
ENDBRANCH   7   8
ENDBRANCH   6   7
ENDBRANCH   5   6
ENDBRANCH   4   5
ENDBRANCH   3   4
ENDBRANCH   2   3
ENDBRANCH   1   2
BRANCH   1  18
ATOM     18  C   UNL     1      -9.288   7.963   6.250  1.00  0.00     0.000 C 
BRANCH  18  19
ATOM     19  C   UNL     1      -8.161   8.574   5.396  1.00  0.00     0.000 C 
BRANCH  19  20
ATOM     20  C   UNL     1      -7.030   9.171   6.247  1.00  0.00     0.000 C 
BRANCH  20  21
ATOM     21  C   UNL     1      -7.381  10.583   6.731  1.00  0.00     0.000 C 
BRANCH  21  22
ATOM     22  C   UNL     1      -7.764  11.482   5.549  1.00  0.00     0.000 C 
BRANCH  22  23
ATOM     23  C   UNL     1      -9.198  12.017   5.692  1.00  0.00     0.000 C 
BRANCH  23  24
ATOM     24  C   UNL     1      -9.955  11.381   6.870  1.00  0.00    -0.000 C 
BRANCH  24  25
ATOM     25  C   UNL     1     -11.379  10.884   6.547  1.00  0.00    -0.000 C 
BRANCH  25  26
ATOM     26  C   UNL     1     -12.415  11.180   7.651  1.00  0.00    -0.000 C 
BRANCH  26  27
ATOM     27  C   UNL     1     -13.558  12.093   7.166  1.00  0.00    -0.000 C 
BRANCH  27  28
ATOM     28  C   UNL     1     -14.553  11.352   6.247  1.00  0.00    -0.000 C 
BRANCH  28  29
ATOM     29  C   UNL     1     -14.598  11.890   4.806  1.00  0.00    -0.000 C 
BRANCH  29  30
ATOM     30  C   UNL     1     -14.335  10.803   3.752  1.00  0.00    -0.000 C 
BRANCH  30  31
ATOM     31  C   UNL     1     -13.049  11.056   2.950  1.00  0.00    -0.003 C 
ATOM     32  C   UNL     1     -13.091  10.439   1.553  1.00  0.00     0.004 C 
ENDBRANCH  30  31
ENDBRANCH  29  30
ENDBRANCH  28  29
ENDBRANCH  27  28
ENDBRANCH  26  27
ENDBRANCH  25  26
ENDBRANCH  24  25
ENDBRANCH  23  24
ENDBRANCH  22  23
ENDBRANCH  21  22
ENDBRANCH  20  21
ENDBRANCH  19  20
ENDBRANCH  18  19
ENDBRANCH   1  18
TORSDOF 28
ENDMDL
