MODEL 1
REMARK VINA RESULT:    -4.144      0.000      0.000
REMARK INTER + INTRA:          -7.320
REMARK INTER:                  -6.567
REMARK INTRA:                  -0.753
REMARK UNBOUND:                -0.753
REMARK SMILES CCCCCCCCCCCC(=O)[O-]
REMARK SMILES IDX 7 1 8 2 9 3 10 4 11 5 12 6 13 7 14 8 6 9 5 10 4 11 3 12 2 13
REMARK SMILES IDX 1 14
REMARK H PARENT
REMARK Flexibility Score: inf
ROOT
ATOM      1  C   UNL     1      14.541  30.548  69.559  1.00  0.00     0.000 C 
ENDROOT
BRANCH   1   2
ATOM      2  C   UNL     1      15.209  31.806  68.976  1.00  0.00     0.000 C 
BRANCH   2   3
ATOM      3  C   UNL     1      14.211  32.717  68.243  1.00  0.00     0.000 C 
BRANCH   3   4
ATOM      4  C   UNL     1      14.860  34.014  67.727  1.00  0.00     0.006 C 
BRANCH   4   5
ATOM      5  C   UNL     1      13.844  35.157  67.598  1.00  0.00     0.053 C 
BRANCH   5   6
ATOM      6  C   UNL     1      14.520  36.476  67.381  1.00  0.00     0.041 C 
ATOM      7  O   UNL     1      15.773  36.567  67.451  1.00  0.00    -0.550 OA
ATOM      8  O   UNL     1      13.766  37.601  67.066  1.00  0.00    -0.550 OA
ENDBRANCH   5   6
ENDBRANCH   4   5
ENDBRANCH   3   4
ENDBRANCH   2   3
ENDBRANCH   1   2
BRANCH   1   9
ATOM      9  C   UNL     1      15.278  30.018  70.799  1.00  0.00     0.000 C 
BRANCH   9  10
ATOM     10  C   UNL     1      16.473  30.903  71.199  1.00  0.00    -0.000 C 
BRANCH  10  11
ATOM     11  C   UNL     1      17.810  30.136  71.137  1.00  0.00    -0.000 C 
BRANCH  11  12
ATOM     12  C   UNL     1      18.945  30.932  70.471  1.00  0.00    -0.000 C 
BRANCH  12  13
ATOM     13  C   UNL     1      19.163  30.548  69.002  1.00  0.00    -0.003 C 
ATOM     14  C   UNL     1      18.908  31.737  68.079  1.00  0.00     0.004 C 
ENDBRANCH  12  13
ENDBRANCH  11  12
ENDBRANCH  10  11
ENDBRANCH   9  10
ENDBRANCH   1   9
TORSDOF 10
ENDMDL
MODEL 2
REMARK VINA RESULT:    -4.099      1.732      2.293
REMARK INTER + INTRA:          -7.248
REMARK INTER:                  -5.805
REMARK INTRA:                  -1.443
REMARK UNBOUND:                -0.753
REMARK SMILES CCCCCCCCCCCC(=O)[O-]
REMARK SMILES IDX 7 1 8 2 9 3 10 4 11 5 12 6 13 7 14 8 6 9 5 10 4 11 3 12 2 13
REMARK SMILES IDX 1 14
REMARK H PARENT
REMARK Flexibility Score: inf
ROOT
ATOM      1  C   UNL     1      15.710  30.941  70.468  1.00  0.00     0.000 C 
ENDROOT
BRANCH   1   2
ATOM      2  C   UNL     1      15.471  30.087  69.209  1.00  0.00     0.000 C 
BRANCH   2   3
ATOM      3  C   UNL     1      15.620  30.897  67.911  1.00  0.00     0.000 C 
BRANCH   3   4
ATOM      4  C   UNL     1      15.837  32.398  68.169  1.00  0.00     0.006 C 
BRANCH   4   5
ATOM      5  C   UNL     1      15.005  33.274  67.223  1.00  0.00     0.053 C 
BRANCH   5   6
ATOM      6  C   UNL     1      13.848  33.911  67.931  1.00  0.00     0.041 C 
ATOM      7  O   UNL     1      13.671  35.156  67.864  1.00  0.00    -0.550 OA
ATOM      8  O   UNL     1      12.946  33.126  68.638  1.00  0.00    -0.550 OA
ENDBRANCH   5   6
ENDBRANCH   4   5
ENDBRANCH   3   4
ENDBRANCH   2   3
ENDBRANCH   1   2
BRANCH   1   9
ATOM      9  C   UNL     1      16.796  30.346  71.378  1.00  0.00     0.000 C 
BRANCH   9  10
ATOM     10  C   UNL     1      18.008  29.820  70.587  1.00  0.00    -0.000 C 
BRANCH  10  11
ATOM     11  C   UNL     1      19.105  30.892  70.424  1.00  0.00    -0.000 C 
BRANCH  11  12
ATOM     12  C   UNL     1      19.355  31.300  68.963  1.00  0.00    -0.000 C 
BRANCH  12  13
ATOM     13  C   UNL     1      19.272  30.117  67.989  1.00  0.00    -0.003 C 
ATOM     14  C   UNL     1      19.133  30.599  66.548  1.00  0.00     0.004 C 
ENDBRANCH  12  13
ENDBRANCH  11  12
ENDBRANCH  10  11
ENDBRANCH   9  10
ENDBRANCH   1   9
TORSDOF 10
ENDMDL
MODEL 3
REMARK VINA RESULT:    -4.093      3.973      4.959
REMARK INTER + INTRA:          -7.238
REMARK INTER:                  -6.610
REMARK INTRA:                  -0.629
REMARK UNBOUND:                -0.753
REMARK SMILES CCCCCCCCCCCC(=O)[O-]
REMARK SMILES IDX 7 1 8 2 9 3 10 4 11 5 12 6 13 7 14 8 6 9 5 10 4 11 3 12 2 13
REMARK SMILES IDX 1 14
REMARK H PARENT
REMARK Flexibility Score: inf
ROOT
ATOM      1  C   UNL     1      16.738  32.022  66.521  1.00  0.00     0.000 C 
ENDROOT
BRANCH   1   2
ATOM      2  C   UNL     1      16.154  31.667  67.901  1.00  0.00     0.000 C 
BRANCH   2   3
ATOM      3  C   UNL     1      15.042  32.635  68.337  1.00  0.00     0.000 C 
BRANCH   3   4
ATOM      4  C   UNL     1      14.555  33.536  67.189  1.00  0.00     0.006 C 
BRANCH   4   5
ATOM      5  C   UNL     1      13.793  34.765  67.701  1.00  0.00     0.053 C 
BRANCH   5   6
ATOM      6  C   UNL     1      14.565  36.029  67.476  1.00  0.00     0.041 C 
ATOM      7  O   UNL     1      15.823  36.019  67.516  1.00  0.00    -0.550 OA
ATOM      8  O   UNL     1      13.896  37.213  67.190  1.00  0.00    -0.550 OA
ENDBRANCH   5   6
ENDBRANCH   4   5
ENDBRANCH   3   4
ENDBRANCH   2   3
ENDBRANCH   1   2
BRANCH   1   9
ATOM      9  C   UNL     1      16.710  30.830  65.552  1.00  0.00     0.000 C 
BRANCH   9  10
ATOM     10  C   UNL     1      15.278  30.395  65.191  1.00  0.00    -0.000 C 
BRANCH  10  11
ATOM     11  C   UNL     1      15.174  29.889  63.737  1.00  0.00    -0.000 C 
BRANCH  11  12
ATOM     12  C   UNL     1      16.403  30.230  62.877  1.00  0.00    -0.000 C 
BRANCH  12  13
ATOM     13  C   UNL     1      16.157  30.028  61.376  1.00  0.00    -0.003 C 
ATOM     14  C   UNL     1      16.545  31.273  60.583  1.00  0.00     0.004 C 
ENDBRANCH  12  13
ENDBRANCH  11  12
ENDBRANCH  10  11
ENDBRANCH   9  10
ENDBRANCH   1   9
TORSDOF 10
ENDMDL
MODEL 4
REMARK VINA RESULT:    -4.075      1.838      2.334
REMARK INTER + INTRA:          -7.210
REMARK INTER:                  -5.907
REMARK INTRA:                  -1.304
REMARK UNBOUND:                -0.753
REMARK SMILES CCCCCCCCCCCC(=O)[O-]
REMARK SMILES IDX 7 1 8 2 9 3 10 4 11 5 12 6 13 7 14 8 6 9 5 10 4 11 3 12 2 13
REMARK SMILES IDX 1 14
REMARK H PARENT
REMARK Flexibility Score: inf
ROOT
ATOM      1  C   UNL     1      14.949  29.807  68.785  1.00  0.00     0.000 C 
ENDROOT
BRANCH   1   2
ATOM      2  C   UNL     1      15.992  30.605  67.982  1.00  0.00     0.000 C 
BRANCH   2   3
ATOM      3  C   UNL     1      15.915  32.116  68.255  1.00  0.00     0.000 C 
BRANCH   3   4
ATOM      4  C   UNL     1      15.661  32.938  66.979  1.00  0.00     0.006 C 
BRANCH   4   5
ATOM      5  C   UNL     1      14.164  33.137  66.706  1.00  0.00     0.053 C 
BRANCH   5   6
ATOM      6  C   UNL     1      13.483  33.840  67.841  1.00  0.00     0.041 C 
ATOM      7  O   UNL     1      12.747  33.198  68.634  1.00  0.00    -0.550 OA
ATOM      8  O   UNL     1      13.689  35.200  68.041  1.00  0.00    -0.550 OA
ENDBRANCH   5   6
ENDBRANCH   4   5
ENDBRANCH   3   4
ENDBRANCH   2   3
ENDBRANCH   1   2
BRANCH   1   9
ATOM      9  C   UNL     1      14.823  30.306  70.233  1.00  0.00     0.000 C 
BRANCH   9  10
ATOM     10  C   UNL     1      15.222  29.236  71.265  1.00  0.00    -0.000 C 
BRANCH  10  11
ATOM     11  C   UNL     1      16.661  29.439  71.785  1.00  0.00    -0.000 C 
BRANCH  11  12
ATOM     12  C   UNL     1      17.213  30.852  71.532  1.00  0.00    -0.000 C 
BRANCH  12  13
ATOM     13  C   UNL     1      18.564  30.845  70.804  1.00  0.00    -0.003 C 
ATOM     14  C   UNL     1      18.840  29.484  70.172  1.00  0.00     0.004 C 
ENDBRANCH  12  13
ENDBRANCH  11  12
ENDBRANCH  10  11
ENDBRANCH   9  10
ENDBRANCH   1   9
TORSDOF 10
ENDMDL
MODEL 5
REMARK VINA RESULT:    -4.052     12.679     14.127
REMARK INTER + INTRA:          -7.173
REMARK INTER:                  -5.690
REMARK INTRA:                  -1.483
REMARK UNBOUND:                -0.753
REMARK SMILES CCCCCCCCCCCC(=O)[O-]
REMARK SMILES IDX 7 1 8 2 9 3 10 4 11 5 12 6 13 7 14 8 6 9 5 10 4 11 3 12 2 13
REMARK SMILES IDX 1 14
REMARK H PARENT
REMARK Flexibility Score: inf
ROOT
ATOM      1  C   UNL     1      13.901  44.605  60.168  1.00  0.00     0.000 C 
ENDROOT
BRANCH   1   2
ATOM      2  C   UNL     1      14.836  43.404  59.935  1.00  0.00     0.000 C 
BRANCH   2   3
ATOM      3  C   UNL     1      15.073  42.585  61.215  1.00  0.00     0.000 C 
BRANCH   3   4
ATOM      4  C   UNL     1      16.559  42.516  61.609  1.00  0.00     0.006 C 
BRANCH   4   5
ATOM      5  C   UNL     1      17.451  43.311  60.647  1.00  0.00     0.053 C 
BRANCH   5   6
ATOM      6  C   UNL     1      18.861  43.402  61.146  1.00  0.00     0.041 C 
ATOM      7  O   UNL     1      19.669  42.460  60.937  1.00  0.00    -0.550 OA
ATOM      8  O   UNL     1      19.292  44.544  61.811  1.00  0.00    -0.550 OA
ENDBRANCH   5   6
ENDBRANCH   4   5
ENDBRANCH   3   4
ENDBRANCH   2   3
ENDBRANCH   1   2
BRANCH   1   9
ATOM      9  C   UNL     1      14.043  45.187  61.584  1.00  0.00     0.000 C 
BRANCH   9  10
ATOM     10  C   UNL     1      15.233  46.155  61.709  1.00  0.00    -0.000 C 
BRANCH  10  11
ATOM     11  C   UNL     1      16.092  45.861  62.956  1.00  0.00    -0.000 C 
BRANCH  11  12
ATOM     12  C   UNL     1      15.314  45.175  64.091  1.00  0.00    -0.000 C 
BRANCH  12  13
ATOM     13  C   UNL     1      16.130  44.086  64.802  1.00  0.00    -0.003 C 
ATOM     14  C   UNL     1      17.592  44.500  64.945  1.00  0.00     0.004 C 
ENDBRANCH  12  13
ENDBRANCH  11  12
ENDBRANCH  10  11
ENDBRANCH   9  10
ENDBRANCH   1   9
TORSDOF 10
ENDMDL
MODEL 6
REMARK VINA RESULT:    -4.044     12.813     13.597
REMARK INTER + INTRA:          -7.162
REMARK INTER:                  -6.210
REMARK INTRA:                  -0.952
REMARK UNBOUND:                -0.753
REMARK SMILES CCCCCCCCCCCC(=O)[O-]
REMARK SMILES IDX 7 1 8 2 9 3 10 4 11 5 12 6 13 7 14 8 6 9 5 10 4 11 3 12 2 13
REMARK SMILES IDX 1 14
REMARK H PARENT
REMARK Flexibility Score: inf
ROOT
ATOM      1  C   UNL     1      14.733  43.038  60.385  1.00  0.00     0.000 C 
ENDROOT
BRANCH   1   2
ATOM      2  C   UNL     1      13.804  43.278  61.589  1.00  0.00     0.000 C 
BRANCH   2   3
ATOM      3  C   UNL     1      14.106  44.601  62.310  1.00  0.00     0.000 C 
BRANCH   3   4
ATOM      4  C   UNL     1      14.484  44.399  63.788  1.00  0.00     0.006 C 
BRANCH   4   5
ATOM      5  C   UNL     1      16.003  44.381  64.000  1.00  0.00     0.053 C 
BRANCH   5   6
ATOM      6  C   UNL     1      16.599  45.749  63.860  1.00  0.00     0.041 C 
ATOM      7  O   UNL     1      17.295  46.037  62.851  1.00  0.00    -0.550 OA
ATOM      8  O   UNL     1      16.357  46.717  64.827  1.00  0.00    -0.550 OA
ENDBRANCH   5   6
ENDBRANCH   4   5
ENDBRANCH   3   4
ENDBRANCH   2   3
ENDBRANCH   1   2
BRANCH   1   9
ATOM      9  C   UNL     1      15.773  44.157  60.220  1.00  0.00     0.000 C 
BRANCH   9  10
ATOM     10  C   UNL     1      17.173  43.617  59.876  1.00  0.00    -0.000 C 
BRANCH  10  11
ATOM     11  C   UNL     1      17.903  43.063  61.118  1.00  0.00    -0.000 C 
BRANCH  11  12
ATOM     12  C   UNL     1      19.435  43.060  60.980  1.00  0.00    -0.000 C 
BRANCH  12  13
ATOM     13  C   UNL     1      20.072  41.734  61.418  1.00  0.00    -0.003 C 
ATOM     14  C   UNL     1      21.344  41.446  60.626  1.00  0.00     0.004 C 
ENDBRANCH  12  13
ENDBRANCH  11  12
ENDBRANCH  10  11
ENDBRANCH   9  10
ENDBRANCH   1   9
TORSDOF 10
ENDMDL
MODEL 7
REMARK VINA RESULT:    -4.019     12.573     14.121
REMARK INTER + INTRA:          -7.121
REMARK INTER:                  -6.029
REMARK INTRA:                  -1.093
REMARK UNBOUND:                -0.753
REMARK SMILES CCCCCCCCCCCC(=O)[O-]
REMARK SMILES IDX 7 1 8 2 9 3 10 4 11 5 12 6 13 7 14 8 6 9 5 10 4 11 3 12 2 13
REMARK SMILES IDX 1 14
REMARK H PARENT
REMARK Flexibility Score: inf
ROOT
ATOM      1  C   UNL     1      16.677  43.576  63.328  1.00  0.00     0.000 C 
ENDROOT
BRANCH   1   2
ATOM      2  C   UNL     1      17.795  44.470  62.761  1.00  0.00     0.000 C 
BRANCH   2   3
ATOM      3  C   UNL     1      17.946  44.329  61.238  1.00  0.00     0.000 C 
BRANCH   3   4
ATOM      4  C   UNL     1      18.729  43.069  60.833  1.00  0.00     0.006 C 
BRANCH   4   5
ATOM      5  C   UNL     1      20.167  43.084  61.368  1.00  0.00     0.053 C 
BRANCH   5   6
ATOM      6  C   UNL     1      20.776  41.715  61.360  1.00  0.00     0.041 C 
ATOM      7  O   UNL     1      21.071  41.158  60.270  1.00  0.00    -0.550 OA
ATOM      8  O   UNL     1      21.050  41.067  62.559  1.00  0.00    -0.550 OA
ENDBRANCH   5   6
ENDBRANCH   4   5
ENDBRANCH   3   4
ENDBRANCH   2   3
ENDBRANCH   1   2
BRANCH   1   9
ATOM      9  C   UNL     1      15.806  44.314  64.357  1.00  0.00     0.000 C 
BRANCH   9  10
ATOM     10  C   UNL     1      14.443  44.738  63.783  1.00  0.00    -0.000 C 
BRANCH  10  11
ATOM     11  C   UNL     1      14.164  44.090  62.410  1.00  0.00    -0.000 C 
BRANCH  11  12
ATOM     12  C   UNL     1      14.087  45.103  61.256  1.00  0.00    -0.000 C 
BRANCH  12  13
ATOM     13  C   UNL     1      14.286  44.456  59.879  1.00  0.00    -0.003 C 
ATOM     14  C   UNL     1      14.805  43.028  60.012  1.00  0.00     0.004 C 
ENDBRANCH  12  13
ENDBRANCH  11  12
ENDBRANCH  10  11
ENDBRANCH   9  10
ENDBRANCH   1   9
TORSDOF 10
ENDMDL
MODEL 8
REMARK VINA RESULT:    -3.908     12.275     13.959
REMARK INTER + INTRA:          -6.946
REMARK INTER:                  -5.322
REMARK INTRA:                  -1.624
REMARK UNBOUND:                -0.753
REMARK SMILES CCCCCCCCCCCC(=O)[O-]
REMARK SMILES IDX 7 1 8 2 9 3 10 4 11 5 12 6 13 7 14 8 6 9 5 10 4 11 3 12 2 13
REMARK SMILES IDX 1 14
REMARK H PARENT
REMARK Flexibility Score: inf
ROOT
ATOM      1  C   UNL     1      13.896  43.304  61.585  1.00  0.00     0.000 C 
ENDROOT
BRANCH   1   2
ATOM      2  C   UNL     1      14.301  44.600  62.312  1.00  0.00     0.000 C 
BRANCH   2   3
ATOM      3  C   UNL     1      14.788  44.342  63.747  1.00  0.00     0.000 C 
BRANCH   3   4
ATOM      4  C   UNL     1      15.665  45.485  64.290  1.00  0.00     0.006 C 
BRANCH   4   5
ATOM      5  C   UNL     1      16.400  46.233  63.171  1.00  0.00     0.053 C 
BRANCH   5   6
ATOM      6  C   UNL     1      17.803  46.580  63.564  1.00  0.00     0.041 C 
ATOM      7  O   UNL     1      18.719  46.594  62.701  1.00  0.00    -0.550 OA
ATOM      8  O   UNL     1      18.094  46.921  64.880  1.00  0.00    -0.550 OA
ENDBRANCH   5   6
ENDBRANCH   4   5
ENDBRANCH   3   4
ENDBRANCH   2   3
ENDBRANCH   1   2
BRANCH   1   9
ATOM      9  C   UNL     1      14.531  43.196  60.190  1.00  0.00     0.000 C 
BRANCH   9  10
ATOM     10  C   UNL     1      15.669  44.210  59.979  1.00  0.00    -0.000 C 
BRANCH  10  11
ATOM     11  C   UNL     1      17.048  43.524  59.881  1.00  0.00    -0.000 C 
BRANCH  11  12
ATOM     12  C   UNL     1      17.850  43.566  61.193  1.00  0.00    -0.000 C 
BRANCH  12  13
ATOM     13  C   UNL     1      17.523  42.398  62.132  1.00  0.00    -0.003 C 
ATOM     14  C   UNL     1      18.128  42.617  63.515  1.00  0.00     0.004 C 
ENDBRANCH  12  13
ENDBRANCH  11  12
ENDBRANCH  10  11
ENDBRANCH   9  10
ENDBRANCH   1   9
TORSDOF 10
ENDMDL
