MODEL 1
REMARK VINA RESULT:    -3.786      0.000      0.000
REMARK INTER + INTRA:         -10.618
REMARK INTER:                  -8.212
REMARK INTRA:                  -2.405
REMARK UNBOUND:                -2.405
REMARK SMILES CCCCCCCCCCCCCCCCCCCCCC(=O)[O-]
REMARK SMILES IDX 12 1 11 2 10 3 9 4 8 5 7 6 6 7 5 8 4 9 3 10 2 11 1 12 13 13
REMARK SMILES IDX 14 14 15 15 16 16 17 17 18 18 19 19 20 20 21 21 22 22 23 23
REMARK SMILES IDX 24 24
REMARK H PARENT
REMARK Flexibility Score: inf
ROOT
ATOM      1  C   UNL     1      64.231  30.475  58.857  1.00  0.00     0.000 C 
ENDROOT
BRANCH   1   2
ATOM      2  C   UNL     1      64.386  31.594  59.907  1.00  0.00     0.000 C 
BRANCH   2   3
ATOM      3  C   UNL     1      63.966  31.202  61.341  1.00  0.00     0.000 C 
BRANCH   3   4
ATOM      4  C   UNL     1      62.780  30.221  61.424  1.00  0.00    -0.000 C 
BRANCH   4   5
ATOM      5  C   UNL     1      61.428  30.927  61.604  1.00  0.00    -0.000 C 
BRANCH   5   6
ATOM      6  C   UNL     1      60.683  31.139  60.274  1.00  0.00    -0.000 C 
BRANCH   6   7
ATOM      7  C   UNL     1      60.799  32.579  59.729  1.00  0.00    -0.000 C 
BRANCH   7   8
ATOM      8  C   UNL     1      61.206  33.615  60.803  1.00  0.00    -0.000 C 
BRANCH   8   9
ATOM      9  C   UNL     1      61.251  35.061  60.273  1.00  0.00    -0.000 C 
BRANCH   9  10
ATOM     10  C   UNL     1      62.538  35.826  60.637  1.00  0.00    -0.000 C 
BRANCH  10  11
ATOM     11  C   UNL     1      63.665  34.954  61.219  1.00  0.00    -0.003 C 
ATOM     12  C   UNL     1      64.825  35.774  61.782  1.00  0.00     0.004 C 
ENDBRANCH  10  11
ENDBRANCH   9  10
ENDBRANCH   8   9
ENDBRANCH   7   8
ENDBRANCH   6   7
ENDBRANCH   5   6
ENDBRANCH   4   5
ENDBRANCH   3   4
ENDBRANCH   2   3
ENDBRANCH   1   2
BRANCH   1  13
ATOM     13  C   UNL     1      65.518  29.648  58.672  1.00  0.00     0.000 C 
BRANCH  13  14
ATOM     14  C   UNL     1      65.336  28.174  59.064  1.00  0.00     0.000 C 
BRANCH  14  15
ATOM     15  C   UNL     1      66.162  27.772  60.296  1.00  0.00     0.000 C 
BRANCH  15  16
ATOM     16  C   UNL     1      66.777  29.009  60.968  1.00  0.00     0.000 C 
BRANCH  16  17
ATOM     17  C   UNL     1      67.939  28.651  61.915  1.00  0.00     0.000 C 
BRANCH  17  18
ATOM     18  C   UNL     1      69.202  29.499  61.693  1.00  0.00     0.000 C 
BRANCH  18  19
ATOM     19  C   UNL     1      70.085  28.973  60.549  1.00  0.00     0.000 C 
BRANCH  19  20
ATOM     20  C   UNL     1      71.549  29.426  60.674  1.00  0.00     0.006 C 
BRANCH  20  21
ATOM     21  C   UNL     1      71.687  30.793  61.358  1.00  0.00     0.053 C 
BRANCH  21  22
ATOM     22  C   UNL     1      71.880  31.871  60.338  1.00  0.00     0.041 C 
ATOM     23  O   UNL     1      72.139  31.575  59.142  1.00  0.00    -0.550 OA
ATOM     24  O   UNL     1      71.751  33.205  60.704  1.00  0.00    -0.550 OA
ENDBRANCH  21  22
ENDBRANCH  20  21
ENDBRANCH  19  20
ENDBRANCH  18  19
ENDBRANCH  17  18
ENDBRANCH  16  17
ENDBRANCH  15  16
ENDBRANCH  14  15
ENDBRANCH  13  14
ENDBRANCH   1  13
TORSDOF 20
ENDMDL
MODEL 2
REMARK VINA RESULT:    -3.745      1.709      4.110
REMARK INTER + INTRA:         -10.529
REMARK INTER:                  -7.217
REMARK INTRA:                  -3.312
REMARK UNBOUND:                -2.405
REMARK SMILES CCCCCCCCCCCCCCCCCCCCCC(=O)[O-]
REMARK SMILES IDX 12 1 11 2 10 3 9 4 8 5 7 6 6 7 5 8 4 9 3 10 2 11 1 12 13 13
REMARK SMILES IDX 14 14 15 15 16 16 17 17 18 18 19 19 20 20 21 21 22 22 23 23
REMARK SMILES IDX 24 24
REMARK H PARENT
REMARK Flexibility Score: inf
ROOT
ATOM      1  C   UNL     1      60.148  30.614  60.577  1.00  0.00     0.000 C 
ENDROOT
BRANCH   1   2
ATOM      2  C   UNL     1      60.575  30.950  59.134  1.00  0.00     0.000 C 
BRANCH   2   3
ATOM      3  C   UNL     1      61.274  32.318  58.966  1.00  0.00     0.000 C 
BRANCH   3   4
ATOM      4  C   UNL     1      60.357  33.462  58.490  1.00  0.00    -0.000 C 
BRANCH   4   5
ATOM      5  C   UNL     1      60.669  34.804  59.169  1.00  0.00    -0.000 C 
BRANCH   5   6
ATOM      6  C   UNL     1      61.258  34.636  60.581  1.00  0.00    -0.000 C 
BRANCH   6   7
ATOM      7  C   UNL     1      62.303  35.713  60.941  1.00  0.00    -0.000 C 
BRANCH   7   8
ATOM      8  C   UNL     1      63.762  35.268  60.689  1.00  0.00    -0.000 C 
BRANCH   8   9
ATOM      9  C   UNL     1      64.045  33.817  61.125  1.00  0.00    -0.000 C 
BRANCH   9  10
ATOM     10  C   UNL     1      64.492  32.890  59.980  1.00  0.00    -0.000 C 
BRANCH  10  11
ATOM     11  C   UNL     1      64.837  33.609  58.663  1.00  0.00    -0.003 C 
ATOM     12  C   UNL     1      64.550  32.759  57.426  1.00  0.00     0.004 C 
ENDBRANCH  10  11
ENDBRANCH   9  10
ENDBRANCH   8   9
ENDBRANCH   7   8
ENDBRANCH   6   7
ENDBRANCH   5   6
ENDBRANCH   4   5
ENDBRANCH   3   4
ENDBRANCH   2   3
ENDBRANCH   1   2
BRANCH   1  13
ATOM     13  C   UNL     1      61.126  31.164  61.633  1.00  0.00     0.000 C 
BRANCH  13  14
ATOM     14  C   UNL     1      62.417  30.336  61.733  1.00  0.00     0.000 C 
BRANCH  14  15
ATOM     15  C   UNL     1      62.183  28.831  61.528  1.00  0.00     0.000 C 
BRANCH  15  16
ATOM     16  C   UNL     1      63.151  28.266  60.479  1.00  0.00     0.000 C 
BRANCH  16  17
ATOM     17  C   UNL     1      63.901  29.372  59.709  1.00  0.00     0.000 C 
BRANCH  17  18
ATOM     18  C   UNL     1      65.431  29.275  59.821  1.00  0.00     0.000 C 
BRANCH  18  19
ATOM     19  C   UNL     1      65.893  28.331  60.943  1.00  0.00     0.000 C 
BRANCH  19  20
ATOM     20  C   UNL     1      67.394  28.009  60.865  1.00  0.00     0.006 C 
BRANCH  20  21
ATOM     21  C   UNL     1      68.231  28.858  61.831  1.00  0.00     0.053 C 
BRANCH  21  22
ATOM     22  C   UNL     1      69.326  29.564  61.095  1.00  0.00     0.041 C 
ATOM     23  O   UNL     1      69.273  29.684  59.842  1.00  0.00    -0.550 OA
ATOM     24  O   UNL     1      70.396  30.107  61.794  1.00  0.00    -0.550 OA
ENDBRANCH  21  22
ENDBRANCH  20  21
ENDBRANCH  19  20
ENDBRANCH  18  19
ENDBRANCH  17  18
ENDBRANCH  16  17
ENDBRANCH  15  16
ENDBRANCH  14  15
ENDBRANCH  13  14
ENDBRANCH   1  13
TORSDOF 20
ENDMDL
MODEL 3
REMARK VINA RESULT:    -3.590     11.805     13.590
REMARK INTER + INTRA:         -10.194
REMARK INTER:                  -6.167
REMARK INTRA:                  -4.027
REMARK UNBOUND:                -2.405
REMARK SMILES CCCCCCCCCCCCCCCCCCCCCC(=O)[O-]
REMARK SMILES IDX 12 1 11 2 10 3 9 4 8 5 7 6 6 7 5 8 4 9 3 10 2 11 1 12 13 13
REMARK SMILES IDX 14 14 15 15 16 16 17 17 18 18 19 19 20 20 21 21 22 22 23 23
REMARK SMILES IDX 24 24
REMARK H PARENT
REMARK Flexibility Score: inf
ROOT
ATOM      1  C   UNL     1      58.777  29.658  51.863  1.00  0.00     0.000 C 
ENDROOT
BRANCH   1   2
ATOM      2  C   UNL     1      58.262  28.767  53.011  1.00  0.00     0.000 C 
BRANCH   2   3
ATOM      3  C   UNL     1      58.162  27.264  52.670  1.00  0.00     0.000 C 
BRANCH   3   4
ATOM      4  C   UNL     1      56.910  26.554  53.224  1.00  0.00    -0.000 C 
BRANCH   4   5
ATOM      5  C   UNL     1      56.144  25.763  52.154  1.00  0.00    -0.000 C 
BRANCH   5   6
ATOM      6  C   UNL     1      56.629  26.067  50.725  1.00  0.00    -0.000 C 
BRANCH   6   7
ATOM      7  C   UNL     1      55.486  26.436  49.755  1.00  0.00    -0.000 C 
BRANCH   7   8
ATOM      8  C   UNL     1      54.307  27.166  50.439  1.00  0.00    -0.000 C 
BRANCH   8   9
ATOM      9  C   UNL     1      54.290  28.684  50.176  1.00  0.00    -0.000 C 
BRANCH   9  10
ATOM     10  C   UNL     1      53.834  29.528  51.381  1.00  0.00    -0.000 C 
BRANCH  10  11
ATOM     11  C   UNL     1      54.784  29.490  52.592  1.00  0.00    -0.003 C 
ATOM     12  C   UNL     1      54.049  29.576  53.929  1.00  0.00     0.004 C 
ENDBRANCH  10  11
ENDBRANCH   9  10
ENDBRANCH   8   9
ENDBRANCH   7   8
ENDBRANCH   6   7
ENDBRANCH   5   6
ENDBRANCH   4   5
ENDBRANCH   3   4
ENDBRANCH   2   3
ENDBRANCH   1   2
BRANCH   1  13
ATOM     13  C   UNL     1      57.940  29.518  50.576  1.00  0.00     0.000 C 
BRANCH  13  14
ATOM     14  C   UNL     1      58.808  29.323  49.323  1.00  0.00     0.000 C 
BRANCH  14  15
ATOM     15  C   UNL     1      59.449  27.928  49.247  1.00  0.00     0.000 C 
BRANCH  15  16
ATOM     16  C   UNL     1      60.964  28.009  49.487  1.00  0.00     0.000 C 
BRANCH  16  17
ATOM     17  C   UNL     1      61.412  27.204  50.723  1.00  0.00     0.000 C 
BRANCH  17  18
ATOM     18  C   UNL     1      62.319  26.009  50.387  1.00  0.00     0.000 C 
BRANCH  18  19
ATOM     19  C   UNL     1      61.561  24.672  50.348  1.00  0.00     0.000 C 
BRANCH  19  20
ATOM     20  C   UNL     1      60.205  24.739  51.069  1.00  0.00     0.006 C 
BRANCH  20  21
ATOM     21  C   UNL     1      59.682  23.355  51.474  1.00  0.00     0.053 C 
BRANCH  21  22
ATOM     22  C   UNL     1      59.002  23.421  52.806  1.00  0.00     0.041 C 
ATOM     23  O   UNL     1      59.497  24.108  53.738  1.00  0.00    -0.550 OA
ATOM     24  O   UNL     1      57.809  22.740  53.012  1.00  0.00    -0.550 OA
ENDBRANCH  21  22
ENDBRANCH  20  21
ENDBRANCH  19  20
ENDBRANCH  18  19
ENDBRANCH  17  18
ENDBRANCH  16  17
ENDBRANCH  15  16
ENDBRANCH  14  15
ENDBRANCH  13  14
ENDBRANCH   1  13
TORSDOF 20
ENDMDL
MODEL 4
REMARK VINA RESULT:    -3.577     10.852     13.624
REMARK INTER + INTRA:         -10.165
REMARK INTER:                  -6.317
REMARK INTRA:                  -3.847
REMARK UNBOUND:                -2.405
REMARK SMILES CCCCCCCCCCCCCCCCCCCCCC(=O)[O-]
REMARK SMILES IDX 12 1 11 2 10 3 9 4 8 5 7 6 6 7 5 8 4 9 3 10 2 11 1 12 13 13
REMARK SMILES IDX 14 14 15 15 16 16 17 17 18 18 19 19 20 20 21 21 22 22 23 23
REMARK SMILES IDX 24 24
REMARK H PARENT
REMARK Flexibility Score: inf
ROOT
ATOM      1  C   UNL     1      58.306  26.678  53.160  1.00  0.00     0.000 C 
ENDROOT
BRANCH   1   2
ATOM      2  C   UNL     1      57.036  27.007  52.351  1.00  0.00     0.000 C 
BRANCH   2   3
ATOM      3  C   UNL     1      56.641  25.945  51.302  1.00  0.00     0.000 C 
BRANCH   3   4
ATOM      4  C   UNL     1      55.978  26.505  50.028  1.00  0.00    -0.000 C 
BRANCH   4   5
ATOM      5  C   UNL     1      54.598  25.891  49.749  1.00  0.00    -0.000 C 
BRANCH   5   6
ATOM      6  C   UNL     1      53.539  26.946  49.381  1.00  0.00    -0.000 C 
BRANCH   6   7
ATOM      7  C   UNL     1      53.069  27.791  50.585  1.00  0.00    -0.000 C 
BRANCH   7   8
ATOM      8  C   UNL     1      53.331  29.306  50.416  1.00  0.00    -0.000 C 
BRANCH   8   9
ATOM      9  C   UNL     1      54.651  29.775  51.057  1.00  0.00    -0.000 C 
BRANCH   9  10
ATOM     10  C   UNL     1      54.473  30.821  52.174  1.00  0.00    -0.000 C 
BRANCH  10  11
ATOM     11  C   UNL     1      53.958  30.257  53.511  1.00  0.00    -0.003 C 
ATOM     12  C   UNL     1      54.925  29.263  54.152  1.00  0.00     0.004 C 
ENDBRANCH  10  11
ENDBRANCH   9  10
ENDBRANCH   8   9
ENDBRANCH   7   8
ENDBRANCH   6   7
ENDBRANCH   5   6
ENDBRANCH   4   5
ENDBRANCH   3   4
ENDBRANCH   2   3
ENDBRANCH   1   2
BRANCH   1  13
ATOM     13  C   UNL     1      58.616  27.732  54.241  1.00  0.00     0.000 C 
BRANCH  13  14
ATOM     14  C   UNL     1      59.325  28.971  53.674  1.00  0.00     0.000 C 
BRANCH  14  15
ATOM     15  C   UNL     1      58.450  30.234  53.708  1.00  0.00     0.000 C 
BRANCH  15  16
ATOM     16  C   UNL     1      58.134  30.718  52.285  1.00  0.00     0.000 C 
BRANCH  16  17
ATOM     17  C   UNL     1      58.960  29.982  51.212  1.00  0.00     0.000 C 
BRANCH  17  18
ATOM     18  C   UNL     1      58.143  29.568  49.978  1.00  0.00     0.000 C 
BRANCH  18  19
ATOM     19  C   UNL     1      58.982  28.828  48.923  1.00  0.00     0.000 C 
BRANCH  19  20
ATOM     20  C   UNL     1      60.136  28.022  49.543  1.00  0.00     0.006 C 
BRANCH  20  21
ATOM     21  C   UNL     1      59.827  26.523  49.635  1.00  0.00     0.053 C 
BRANCH  21  22
ATOM     22  C   UNL     1      60.883  25.818  50.427  1.00  0.00     0.041 C 
ATOM     23  O   UNL     1      61.377  26.360  51.450  1.00  0.00    -0.550 OA
ATOM     24  O   UNL     1      61.306  24.550  50.048  1.00  0.00    -0.550 OA
ENDBRANCH  21  22
ENDBRANCH  20  21
ENDBRANCH  19  20
ENDBRANCH  18  19
ENDBRANCH  17  18
ENDBRANCH  16  17
ENDBRANCH  15  16
ENDBRANCH  14  15
ENDBRANCH  13  14
ENDBRANCH   1  13
TORSDOF 20
ENDMDL
MODEL 5
REMARK VINA RESULT:    -3.573     10.567     13.041
REMARK INTER + INTRA:         -10.156
REMARK INTER:                  -6.862
REMARK INTRA:                  -3.294
REMARK UNBOUND:                -2.405
REMARK SMILES CCCCCCCCCCCCCCCCCCCCCC(=O)[O-]
REMARK SMILES IDX 12 1 11 2 10 3 9 4 8 5 7 6 6 7 5 8 4 9 3 10 2 11 1 12 13 13
REMARK SMILES IDX 14 14 15 15 16 16 17 17 18 18 19 19 20 20 21 21 22 22 23 23
REMARK SMILES IDX 24 24
REMARK H PARENT
REMARK Flexibility Score: inf
ROOT
ATOM      1  C   UNL     1      59.894  26.117  52.014  1.00  0.00     0.000 C 
ENDROOT
BRANCH   1   2
ATOM      2  C   UNL     1      61.132  26.633  51.253  1.00  0.00     0.000 C 
BRANCH   2   3
ATOM      3  C   UNL     1      60.866  27.053  49.791  1.00  0.00     0.000 C 
BRANCH   3   4
ATOM      4  C   UNL     1      59.397  27.397  49.471  1.00  0.00    -0.000 C 
BRANCH   4   5
ATOM      5  C   UNL     1      59.207  28.849  49.007  1.00  0.00    -0.000 C 
BRANCH   5   6
ATOM      6  C   UNL     1      58.191  29.623  49.865  1.00  0.00    -0.000 C 
BRANCH   6   7
ATOM      7  C   UNL     1      57.305  28.710  50.740  1.00  0.00    -0.000 C 
BRANCH   7   8
ATOM      8  C   UNL     1      55.853  29.220  50.892  1.00  0.00    -0.000 C 
BRANCH   8   9
ATOM      9  C   UNL     1      54.801  28.258  50.307  1.00  0.00    -0.000 C 
BRANCH   9  10
ATOM     10  C   UNL     1      55.380  26.921  49.805  1.00  0.00    -0.000 C 
BRANCH  10  11
ATOM     11  C   UNL     1      54.329  25.899  49.335  1.00  0.00    -0.003 C 
ATOM     12  C   UNL     1      52.925  26.492  49.228  1.00  0.00     0.004 C 
ENDBRANCH  10  11
ENDBRANCH   9  10
ENDBRANCH   8   9
ENDBRANCH   7   8
ENDBRANCH   6   7
ENDBRANCH   5   6
ENDBRANCH   4   5
ENDBRANCH   3   4
ENDBRANCH   2   3
ENDBRANCH   1   2
BRANCH   1  13
ATOM     13  C   UNL     1      59.551  26.976  53.247  1.00  0.00     0.000 C 
BRANCH  13  14
ATOM     14  C   UNL     1      60.517  28.157  53.434  1.00  0.00     0.000 C 
BRANCH  14  15
ATOM     15  C   UNL     1      59.802  29.516  53.485  1.00  0.00     0.000 C 
BRANCH  15  16
ATOM     16  C   UNL     1      60.756  30.651  53.087  1.00  0.00     0.000 C 
BRANCH  16  17
ATOM     17  C   UNL     1      61.047  30.675  51.573  1.00  0.00     0.000 C 
BRANCH  17  18
ATOM     18  C   UNL     1      62.492  30.287  51.214  1.00  0.00     0.000 C 
BRANCH  18  19
ATOM     19  C   UNL     1      62.739  30.232  49.698  1.00  0.00     0.000 C 
BRANCH  19  20
ATOM     20  C   UNL     1      64.004  29.437  49.333  1.00  0.00     0.006 C 
BRANCH  20  21
ATOM     21  C   UNL     1      63.835  28.615  48.049  1.00  0.00     0.053 C 
BRANCH  21  22
ATOM     22  C   UNL     1      65.165  28.152  47.544  1.00  0.00     0.041 C 
ATOM     23  O   UNL     1      65.718  28.741  46.578  1.00  0.00    -0.550 OA
ATOM     24  O   UNL     1      65.806  27.082  48.155  1.00  0.00    -0.550 OA
ENDBRANCH  21  22
ENDBRANCH  20  21
ENDBRANCH  19  20
ENDBRANCH  18  19
ENDBRANCH  17  18
ENDBRANCH  16  17
ENDBRANCH  15  16
ENDBRANCH  14  15
ENDBRANCH  13  14
ENDBRANCH   1  13
TORSDOF 20
ENDMDL
MODEL 6
REMARK VINA RESULT:    -3.556      4.819      6.465
REMARK INTER + INTRA:         -10.120
REMARK INTER:                  -6.144
REMARK INTRA:                  -3.976
REMARK UNBOUND:                -2.405
REMARK SMILES CCCCCCCCCCCCCCCCCCCCCC(=O)[O-]
REMARK SMILES IDX 12 1 11 2 10 3 9 4 8 5 7 6 6 7 5 8 4 9 3 10 2 11 1 12 13 13
REMARK SMILES IDX 14 14 15 15 16 16 17 17 18 18 19 19 20 20 21 21 22 22 23 23
REMARK SMILES IDX 24 24
REMARK H PARENT
REMARK Flexibility Score: inf
ROOT
ATOM      1  C   UNL     1      61.160  31.348  58.520  1.00  0.00     0.000 C 
ENDROOT
BRANCH   1   2
ATOM      2  C   UNL     1      62.549  31.746  57.982  1.00  0.00     0.000 C 
BRANCH   2   3
ATOM      3  C   UNL     1      63.029  33.153  58.403  1.00  0.00     0.000 C 
BRANCH   3   4
ATOM      4  C   UNL     1      64.416  33.191  59.076  1.00  0.00    -0.000 C 
BRANCH   4   5
ATOM      5  C   UNL     1      64.561  34.338  60.087  1.00  0.00    -0.000 C 
BRANCH   5   6
ATOM      6  C   UNL     1      63.283  34.572  60.913  1.00  0.00    -0.000 C 
BRANCH   6   7
ATOM      7  C   UNL     1      63.087  36.044  61.334  1.00  0.00    -0.000 C 
BRANCH   7   8
ATOM      8  C   UNL     1      61.923  36.748  60.598  1.00  0.00    -0.000 C 
BRANCH   8   9
ATOM      9  C   UNL     1      60.773  35.795  60.219  1.00  0.00    -0.000 C 
BRANCH   9  10
ATOM     10  C   UNL     1      59.574  36.491  59.545  1.00  0.00    -0.000 C 
BRANCH  10  11
ATOM     11  C   UNL     1      59.219  35.955  58.147  1.00  0.00    -0.003 C 
ATOM     12  C   UNL     1      60.441  35.480  57.361  1.00  0.00     0.004 C 
ENDBRANCH  10  11
ENDBRANCH   9  10
ENDBRANCH   8   9
ENDBRANCH   7   8
ENDBRANCH   6   7
ENDBRANCH   5   6
ENDBRANCH   4   5
ENDBRANCH   3   4
ENDBRANCH   2   3
ENDBRANCH   1   2
BRANCH   1  13
ATOM     13  C   UNL     1      60.575  32.390  59.494  1.00  0.00     0.000 C 
BRANCH  13  14
ATOM     14  C   UNL     1      60.747  31.986  60.966  1.00  0.00     0.000 C 
BRANCH  14  15
ATOM     15  C   UNL     1      60.752  30.464  61.176  1.00  0.00     0.000 C 
BRANCH  15  16
ATOM     16  C   UNL     1      61.993  30.025  61.966  1.00  0.00     0.000 C 
BRANCH  16  17
ATOM     17  C   UNL     1      63.243  30.856  61.614  1.00  0.00     0.000 C 
BRANCH  17  18
ATOM     18  C   UNL     1      64.368  30.036  60.961  1.00  0.00     0.000 C 
BRANCH  18  19
ATOM     19  C   UNL     1      63.983  28.564  60.734  1.00  0.00     0.000 C 
BRANCH  19  20
ATOM     20  C   UNL     1      63.874  28.204  59.243  1.00  0.00     0.006 C 
BRANCH  20  21
ATOM     21  C   UNL     1      62.431  27.922  58.808  1.00  0.00     0.053 C 
BRANCH  21  22
ATOM     22  C   UNL     1      61.892  26.724  59.524  1.00  0.00     0.041 C 
ATOM     23  O   UNL     1      62.384  25.584  59.314  1.00  0.00    -0.550 OA
ATOM     24  O   UNL     1      60.859  26.869  60.442  1.00  0.00    -0.550 OA
ENDBRANCH  21  22
ENDBRANCH  20  21
ENDBRANCH  19  20
ENDBRANCH  18  19
ENDBRANCH  17  18
ENDBRANCH  16  17
ENDBRANCH  15  16
ENDBRANCH  14  15
ENDBRANCH  13  14
ENDBRANCH   1  13
TORSDOF 20
ENDMDL
MODEL 7
REMARK VINA RESULT:    -3.548      5.845      8.839
REMARK INTER + INTRA:         -10.102
REMARK INTER:                  -5.681
REMARK INTRA:                  -4.422
REMARK UNBOUND:                -2.405
REMARK SMILES CCCCCCCCCCCCCCCCCCCCCC(=O)[O-]
REMARK SMILES IDX 12 1 11 2 10 3 9 4 8 5 7 6 6 7 5 8 4 9 3 10 2 11 1 12 13 13
REMARK SMILES IDX 14 14 15 15 16 16 17 17 18 18 19 19 20 20 21 21 22 22 23 23
REMARK SMILES IDX 24 24
REMARK H PARENT
REMARK Flexibility Score: inf
ROOT
ATOM      1  C   UNL     1      64.495  31.788  60.635  1.00  0.00     0.000 C 
ENDROOT
BRANCH   1   2
ATOM      2  C   UNL     1      64.185  30.787  59.505  1.00  0.00     0.000 C 
BRANCH   2   3
ATOM      3  C   UNL     1      63.199  29.661  59.888  1.00  0.00     0.000 C 
BRANCH   3   4
ATOM      4  C   UNL     1      62.676  29.721  61.336  1.00  0.00    -0.000 C 
BRANCH   4   5
ATOM      5  C   UNL     1      61.174  30.033  61.420  1.00  0.00    -0.000 C 
BRANCH   5   6
ATOM      6  C   UNL     1      60.888  31.514  61.729  1.00  0.00    -0.000 C 
BRANCH   6   7
ATOM      7  C   UNL     1      60.763  32.392  60.465  1.00  0.00    -0.000 C 
BRANCH   7   8
ATOM      8  C   UNL     1      59.997  31.705  59.310  1.00  0.00    -0.000 C 
BRANCH   8   9
ATOM      9  C   UNL     1      60.735  31.776  57.959  1.00  0.00    -0.000 C 
BRANCH   9  10
ATOM     10  C   UNL     1      61.757  32.924  57.858  1.00  0.00    -0.000 C 
BRANCH  10  11
ATOM     11  C   UNL     1      62.030  33.423  56.428  1.00  0.00    -0.003 C 
ATOM     12  C   UNL     1      63.256  34.331  56.336  1.00  0.00     0.004 C 
ENDBRANCH  10  11
ENDBRANCH   9  10
ENDBRANCH   8   9
ENDBRANCH   7   8
ENDBRANCH   6   7
ENDBRANCH   5   6
ENDBRANCH   4   5
ENDBRANCH   3   4
ENDBRANCH   2   3
ENDBRANCH   1   2
BRANCH   1  13
ATOM     13  C   UNL     1      64.370  33.256  60.183  1.00  0.00     0.000 C 
BRANCH  13  14
ATOM     14  C   UNL     1      64.130  34.219  61.357  1.00  0.00     0.000 C 
BRANCH  14  15
ATOM     15  C   UNL     1      63.037  35.259  61.067  1.00  0.00     0.000 C 
BRANCH  15  16
ATOM     16  C   UNL     1      63.203  35.848  59.659  1.00  0.00     0.000 C 
BRANCH  16  17
ATOM     17  C   UNL     1      61.886  36.421  59.099  1.00  0.00     0.000 C 
BRANCH  17  18
ATOM     18  C   UNL     1      60.663  36.146  59.989  1.00  0.00     0.000 C 
BRANCH  18  19
ATOM     19  C   UNL     1      59.328  36.324  59.246  1.00  0.00     0.000 C 
BRANCH  19  20
ATOM     20  C   UNL     1      59.343  35.697  57.842  1.00  0.00     0.006 C 
BRANCH  20  21
ATOM     21  C   UNL     1      58.261  34.625  57.664  1.00  0.00     0.053 C 
BRANCH  21  22
ATOM     22  C   UNL     1      56.903  35.253  57.619  1.00  0.00     0.041 C 
ATOM     23  O   UNL     1      56.681  36.230  56.856  1.00  0.00    -0.550 OA
ATOM     24  O   UNL     1      55.876  34.745  58.404  1.00  0.00    -0.550 OA
ENDBRANCH  21  22
ENDBRANCH  20  21
ENDBRANCH  19  20
ENDBRANCH  18  19
ENDBRANCH  17  18
ENDBRANCH  16  17
ENDBRANCH  15  16
ENDBRANCH  14  15
ENDBRANCH  13  14
ENDBRANCH   1  13
TORSDOF 20
ENDMDL
MODEL 8
REMARK VINA RESULT:    -3.505      4.285      6.524
REMARK INTER + INTRA:         -10.008
REMARK INTER:                  -6.408
REMARK INTRA:                  -3.600
REMARK UNBOUND:                -2.405
REMARK SMILES CCCCCCCCCCCCCCCCCCCCCC(=O)[O-]
REMARK SMILES IDX 12 1 11 2 10 3 9 4 8 5 7 6 6 7 5 8 4 9 3 10 2 11 1 12 13 13
REMARK SMILES IDX 14 14 15 15 16 16 17 17 18 18 19 19 20 20 21 21 22 22 23 23
REMARK SMILES IDX 24 24
REMARK H PARENT
REMARK Flexibility Score: inf
ROOT
ATOM      1  C   UNL     1      63.876  34.295  57.350  1.00  0.00     0.000 C 
ENDROOT
BRANCH   1   2
ATOM      2  C   UNL     1      63.551  35.800  57.420  1.00  0.00     0.000 C 
BRANCH   2   3
ATOM      3  C   UNL     1      64.591  36.654  58.178  1.00  0.00     0.000 C 
BRANCH   3   4
ATOM      4  C   UNL     1      65.492  35.868  59.151  1.00  0.00    -0.000 C 
BRANCH   4   5
ATOM      5  C   UNL     1      65.574  36.509  60.545  1.00  0.00    -0.000 C 
BRANCH   5   6
ATOM      6  C   UNL     1      64.846  35.687  61.624  1.00  0.00    -0.000 C 
BRANCH   6   7
ATOM      7  C   UNL     1      63.319  35.609  61.410  1.00  0.00    -0.000 C 
BRANCH   7   8
ATOM      8  C   UNL     1      62.630  36.993  61.365  1.00  0.00    -0.000 C 
BRANCH   8   9
ATOM      9  C   UNL     1      61.268  36.977  60.646  1.00  0.00    -0.000 C 
BRANCH   9  10
ATOM     10  C   UNL     1      60.799  35.574  60.216  1.00  0.00    -0.000 C 
BRANCH  10  11
ATOM     11  C   UNL     1      60.182  35.503  58.807  1.00  0.00    -0.003 C 
ATOM     12  C   UNL     1      58.889  36.307  58.681  1.00  0.00     0.004 C 
ENDBRANCH  10  11
ENDBRANCH   9  10
ENDBRANCH   8   9
ENDBRANCH   7   8
ENDBRANCH   6   7
ENDBRANCH   5   6
ENDBRANCH   4   5
ENDBRANCH   3   4
ENDBRANCH   2   3
ENDBRANCH   1   2
BRANCH   1  13
ATOM     13  C   UNL     1      62.615  33.416  57.235  1.00  0.00     0.000 C 
BRANCH  13  14
ATOM     14  C   UNL     1      62.435  32.477  58.438  1.00  0.00     0.000 C 
BRANCH  14  15
ATOM     15  C   UNL     1      63.575  32.589  59.463  1.00  0.00     0.000 C 
BRANCH  15  16
ATOM     16  C   UNL     1      63.083  32.217  60.869  1.00  0.00     0.000 C 
BRANCH  16  17
ATOM     17  C   UNL     1      61.556  32.011  60.927  1.00  0.00     0.000 C 
BRANCH  17  18
ATOM     18  C   UNL     1      61.128  30.783  61.746  1.00  0.00     0.000 C 
BRANCH  18  19
ATOM     19  C   UNL     1      61.158  29.478  60.933  1.00  0.00     0.000 C 
BRANCH  19  20
ATOM     20  C   UNL     1      61.928  28.354  61.646  1.00  0.00     0.006 C 
BRANCH  20  21
ATOM     21  C   UNL     1      62.986  27.701  60.748  1.00  0.00     0.053 C 
BRANCH  21  22
ATOM     22  C   UNL     1      63.950  28.728  60.242  1.00  0.00     0.041 C 
ATOM     23  O   UNL     1      64.832  29.201  61.006  1.00  0.00    -0.550 OA
ATOM     24  O   UNL     1      63.888  29.148  58.920  1.00  0.00    -0.550 OA
ENDBRANCH  21  22
ENDBRANCH  20  21
ENDBRANCH  19  20
ENDBRANCH  18  19
ENDBRANCH  17  18
ENDBRANCH  16  17
ENDBRANCH  15  16
ENDBRANCH  14  15
ENDBRANCH  13  14
ENDBRANCH   1  13
TORSDOF 20
ENDMDL
MODEL 9
REMARK VINA RESULT:    -3.498     10.431     12.759
REMARK INTER + INTRA:          -9.994
REMARK INTER:                  -5.835
REMARK INTRA:                  -4.159
REMARK UNBOUND:                -2.405
REMARK SMILES CCCCCCCCCCCCCCCCCCCCCC(=O)[O-]
REMARK SMILES IDX 12 1 11 2 10 3 9 4 8 5 7 6 6 7 5 8 4 9 3 10 2 11 1 12 13 13
REMARK SMILES IDX 14 14 15 15 16 16 17 17 18 18 19 19 20 20 21 21 22 22 23 23
REMARK SMILES IDX 24 24
REMARK H PARENT
REMARK Flexibility Score: inf
ROOT
ATOM      1  C   UNL     1      59.250  29.106  53.030  1.00  0.00     0.000 C 
ENDROOT
BRANCH   1   2
ATOM      2  C   UNL     1      58.174  28.003  52.988  1.00  0.00     0.000 C 
BRANCH   2   3
ATOM      3  C   UNL     1      57.057  28.144  54.046  1.00  0.00     0.000 C 
BRANCH   3   4
ATOM      4  C   UNL     1      56.751  29.593  54.476  1.00  0.00    -0.000 C 
BRANCH   4   5
ATOM      5  C   UNL     1      55.781  30.310  53.525  1.00  0.00    -0.000 C 
BRANCH   5   6
ATOM      6  C   UNL     1      54.633  29.403  53.047  1.00  0.00    -0.000 C 
BRANCH   6   7
ATOM      7  C   UNL     1      53.858  29.979  51.843  1.00  0.00    -0.000 C 
BRANCH   7   8
ATOM      8  C   UNL     1      54.424  29.534  50.474  1.00  0.00    -0.000 C 
BRANCH   8   9
ATOM      9  C   UNL     1      54.186  28.044  50.167  1.00  0.00    -0.000 C 
BRANCH   9  10
ATOM     10  C   UNL     1      55.476  27.209  50.051  1.00  0.00    -0.000 C 
BRANCH  10  11
ATOM     11  C   UNL     1      55.672  26.166  51.166  1.00  0.00    -0.003 C 
ATOM     12  C   UNL     1      54.375  25.825  51.899  1.00  0.00     0.004 C 
ENDBRANCH  10  11
ENDBRANCH   9  10
ENDBRANCH   8   9
ENDBRANCH   7   8
ENDBRANCH   6   7
ENDBRANCH   5   6
ENDBRANCH   4   5
ENDBRANCH   3   4
ENDBRANCH   2   3
ENDBRANCH   1   2
BRANCH   1  13
ATOM     13  C   UNL     1      59.335  29.909  51.717  1.00  0.00     0.000 C 
BRANCH  13  14
ATOM     14  C   UNL     1      58.157  29.625  50.772  1.00  0.00     0.000 C 
BRANCH  14  15
ATOM     15  C   UNL     1      58.582  29.507  49.300  1.00  0.00     0.000 C 
BRANCH  15  16
ATOM     16  C   UNL     1      59.650  28.417  49.125  1.00  0.00     0.000 C 
BRANCH  16  17
ATOM     17  C   UNL     1      59.117  27.009  49.459  1.00  0.00     0.000 C 
BRANCH  17  18
ATOM     18  C   UNL     1      60.040  26.203  50.387  1.00  0.00     0.000 C 
BRANCH  18  19
ATOM     19  C   UNL     1      61.524  26.577  50.231  1.00  0.00     0.000 C 
BRANCH  19  20
ATOM     20  C   UNL     1      62.127  27.156  51.522  1.00  0.00     0.006 C 
BRANCH  20  21
ATOM     21  C   UNL     1      62.766  28.534  51.308  1.00  0.00     0.053 C 
BRANCH  21  22
ATOM     22  C   UNL     1      64.068  28.401  50.583  1.00  0.00     0.041 C 
ATOM     23  O   UNL     1      64.960  27.625  51.017  1.00  0.00    -0.550 OA
ATOM     24  O   UNL     1      64.290  29.118  49.414  1.00  0.00    -0.550 OA
ENDBRANCH  21  22
ENDBRANCH  20  21
ENDBRANCH  19  20
ENDBRANCH  18  19
ENDBRANCH  17  18
ENDBRANCH  16  17
ENDBRANCH  15  16
ENDBRANCH  14  15
ENDBRANCH  13  14
ENDBRANCH   1  13
TORSDOF 20
ENDMDL
