MODEL 1
REMARK VINA RESULT:    -8.648      0.000      0.000
REMARK INTER + INTRA:         -10.274
REMARK INTER:                 -10.165
REMARK INTRA:                  -0.110
REMARK UNBOUND:                -0.110
REMARK SMILES O=c1c(O)c(-c2ccc(O)cc2)oc2cc(O)cc(O)c12
REMARK SMILES IDX 5 1 3 2 2 3 1 4 21 5 19 6 18 7 16 8 15 9 14 10 13 11 6 12
REMARK SMILES IDX 7 13 8 14 9 15 12 16 11 17 10 18 4 20 20 22 17 24
REMARK H PARENT 10 19 4 21 20 23 17 25
REMARK Flexibility Score: inf
ROOT
ATOM      1  C   UNL     1      17.037  25.348   0.069  1.00  0.00     0.180 A 
ATOM      2  C   UNL     1      18.310  25.318  -0.531  1.00  0.00     0.208 A 
ATOM      3  C   UNL     1      19.088  26.486  -0.530  1.00  0.00     0.238 A 
ATOM      4  O   UNL     1      20.235  26.468  -1.055  1.00  0.00    -0.285 OA
ATOM      5  C   UNL     1      18.577  27.665   0.050  1.00  0.00     0.111 A 
ATOM      6  C   UNL     1      19.294  28.884   0.089  1.00  0.00     0.134 A 
ATOM      7  C   UNL     1      18.711  30.016   0.677  1.00  0.00     0.093 A 
ATOM      8  C   UNL     1      17.428  29.954   1.224  1.00  0.00     0.123 A 
ATOM      9  C   UNL     1      16.713  28.751   1.189  1.00  0.00     0.094 A 
ATOM     10  C   UNL     1      17.278  27.612   0.610  1.00  0.00     0.146 A 
ATOM     11  O   UNL     1      16.580  26.481   0.593  1.00  0.00    -0.452 OA
ENDROOT
BRANCH   1  12
ATOM     12  C   UNL     1      16.165  24.152   0.125  1.00  0.00     0.021 A 
ATOM     13  C   UNL     1      14.876  24.212  -0.431  1.00  0.00     0.016 A 
ATOM     14  C   UNL     1      14.027  23.102  -0.369  1.00  0.00     0.047 A 
ATOM     15  C   UNL     1      14.451  21.926   0.262  1.00  0.00     0.115 A 
ATOM     16  C   UNL     1      16.576  22.975   0.775  1.00  0.00     0.016 A 
ATOM     17  C   UNL     1      15.724  21.867   0.836  1.00  0.00     0.047 A 
BRANCH  15  18
ATOM     18  O   UNL     1      13.615  20.814   0.329  1.00  0.00    -0.508 OA
ATOM     19  H   UNL     1      13.979  19.889   0.531  1.00  0.00     0.293 HD
ENDBRANCH  15  18
ENDBRANCH   1  12
BRANCH   2  20
ATOM     20  O   UNL     1      18.775  24.151  -1.143  1.00  0.00    -0.502 OA
ATOM     21  H   UNL     1      19.499  23.573  -0.732  1.00  0.00     0.293 HD
ENDBRANCH   2  20
BRANCH   6  22
ATOM     22  O   UNL     1      20.578  28.979  -0.449  1.00  0.00    -0.507 OA
ATOM     23  H   UNL     1      20.732  29.213  -1.424  1.00  0.00     0.293 HD
ENDBRANCH   6  22
BRANCH   8  24
ATOM     24  O   UNL     1      16.871  31.094   1.801  1.00  0.00    -0.508 OA
ATOM     25  H   UNL     1      17.433  31.911   2.009  1.00  0.00     0.293 HD
ENDBRANCH   8  24
TORSDOF 5
ENDMDL
MODEL 2
REMARK VINA RESULT:    -8.245      1.795      6.981
REMARK INTER + INTRA:          -9.801
REMARK INTER:                  -9.766
REMARK INTRA:                  -0.035
REMARK UNBOUND:                -0.110
REMARK SMILES O=c1c(O)c(-c2ccc(O)cc2)oc2cc(O)cc(O)c12
REMARK SMILES IDX 5 1 3 2 2 3 1 4 21 5 19 6 18 7 16 8 15 9 14 10 13 11 6 12
REMARK SMILES IDX 7 13 8 14 9 15 12 16 11 17 10 18 4 20 20 22 17 24
REMARK H PARENT 10 19 4 21 20 23 17 25
REMARK Flexibility Score: inf
ROOT
ATOM      1  C   UNL     1      17.084  27.127   0.315  1.00  0.00     0.180 A 
ATOM      2  C   UNL     1      15.787  27.238  -0.220  1.00  0.00     0.208 A 
ATOM      3  C   UNL     1      15.024  26.074  -0.398  1.00  0.00     0.238 A 
ATOM      4  O   UNL     1      13.856  26.163  -0.866  1.00  0.00    -0.285 OA
ATOM      5  C   UNL     1      15.574  24.821  -0.058  1.00  0.00     0.111 A 
ATOM      6  C   UNL     1      14.874  23.601  -0.211  1.00  0.00     0.134 A 
ATOM      7  C   UNL     1      15.495  22.393   0.142  1.00  0.00     0.093 A 
ATOM      8  C   UNL     1      16.799  22.382   0.641  1.00  0.00     0.123 A 
ATOM      9  C   UNL     1      17.497  23.585   0.794  1.00  0.00     0.094 A 
ATOM     10  C   UNL     1      16.894  24.799   0.450  1.00  0.00     0.146 A 
ATOM     11  O   UNL     1      17.576  25.928   0.609  1.00  0.00    -0.452 OA
ENDROOT
BRANCH   1  12
ATOM     12  C   UNL     1      17.943  28.310   0.549  1.00  0.00     0.021 A 
ATOM     13  C   UNL     1      17.471  29.358   1.356  1.00  0.00     0.016 A 
ATOM     14  C   UNL     1      18.257  30.495   1.572  1.00  0.00     0.047 A 
ATOM     15  C   UNL     1      19.517  30.603   0.971  1.00  0.00     0.115 A 
ATOM     16  C   UNL     1      19.201  28.435  -0.068  1.00  0.00     0.016 A 
ATOM     17  C   UNL     1      19.984  29.573   0.149  1.00  0.00     0.047 A 
BRANCH  15  18
ATOM     18  O   UNL     1      20.310  31.730   1.179  1.00  0.00    -0.508 OA
ATOM     19  H   UNL     1      21.319  31.663   1.241  1.00  0.00     0.293 HD
ENDBRANCH  15  18
ENDBRANCH   1  12
BRANCH   2  20
ATOM     20  O   UNL     1      15.282  28.486  -0.594  1.00  0.00    -0.502 OA
ATOM     21  H   UNL     1      15.437  28.882  -1.514  1.00  0.00     0.293 HD
ENDBRANCH   2  20
BRANCH   6  22
ATOM     22  O   UNL     1      13.570  23.578  -0.707  1.00  0.00    -0.507 OA
ATOM     23  H   UNL     1      13.377  23.448  -1.694  1.00  0.00     0.293 HD
ENDBRANCH   6  22
BRANCH   8  24
ATOM     24  O   UNL     1      17.393  21.169   0.982  1.00  0.00    -0.508 OA
ATOM     25  H   UNL     1      16.840  20.372   1.277  1.00  0.00     0.293 HD
ENDBRANCH   8  24
TORSDOF 5
ENDMDL
MODEL 3
REMARK VINA RESULT:    -6.983      4.423      5.955
REMARK INTER + INTRA:          -8.317
REMARK INTER:                  -8.021
REMARK INTRA:                  -0.296
REMARK UNBOUND:                -0.110
REMARK SMILES O=c1c(O)c(-c2ccc(O)cc2)oc2cc(O)cc(O)c12
REMARK SMILES IDX 5 1 3 2 2 3 1 4 21 5 19 6 18 7 16 8 15 9 14 10 13 11 6 12
REMARK SMILES IDX 7 13 8 14 9 15 12 16 11 17 10 18 4 20 20 22 17 24
REMARK H PARENT 10 19 4 21 20 23 17 25
REMARK Flexibility Score: inf
ROOT
ATOM      1  C   UNL     1      17.225  26.602  -2.503  1.00  0.00     0.180 A 
ATOM      2  C   UNL     1      18.445  26.598  -3.205  1.00  0.00     0.208 A 
ATOM      3  C   UNL     1      18.421  26.631  -4.608  1.00  0.00     0.238 A 
ATOM      4  O   UNL     1      19.509  26.639  -5.247  1.00  0.00    -0.285 OA
ATOM      5  C   UNL     1      17.185  26.646  -5.285  1.00  0.00     0.111 A 
ATOM      6  C   UNL     1      17.074  26.674  -6.695  1.00  0.00     0.134 A 
ATOM      7  C   UNL     1      15.805  26.678  -7.293  1.00  0.00     0.093 A 
ATOM      8  C   UNL     1      14.648  26.653  -6.511  1.00  0.00     0.123 A 
ATOM      9  C   UNL     1      14.751  26.624  -5.116  1.00  0.00     0.094 A 
ATOM     10  C   UNL     1      16.006  26.622  -4.501  1.00  0.00     0.146 A 
ATOM     11  O   UNL     1      16.077  26.600  -3.175  1.00  0.00    -0.452 OA
ENDROOT
BRANCH   1  12
ATOM     12  C   UNL     1      17.167  26.587  -1.024  1.00  0.00     0.021 A 
ATOM     13  C   UNL     1      17.010  25.364  -0.351  1.00  0.00     0.016 A 
ATOM     14  C   UNL     1      16.930  25.330   1.045  1.00  0.00     0.047 A 
ATOM     15  C   UNL     1      16.991  26.518   1.783  1.00  0.00     0.115 A 
ATOM     16  C   UNL     1      17.207  27.779  -0.278  1.00  0.00     0.016 A 
ATOM     17  C   UNL     1      17.126  27.741   1.118  1.00  0.00     0.047 A 
BRANCH  15  18
ATOM     18  O   UNL     1      16.913  26.497   3.174  1.00  0.00    -0.508 OA
ATOM     19  H   UNL     1      16.834  25.626   3.686  1.00  0.00     0.293 HD
ENDBRANCH  15  18
ENDBRANCH   1  12
BRANCH   2  20
ATOM     20  O   UNL     1      19.658  26.534  -2.513  1.00  0.00    -0.502 OA
ATOM     21  H   UNL     1      20.383  27.232  -2.623  1.00  0.00     0.293 HD
ENDBRANCH   2  20
BRANCH   6  22
ATOM     22  O   UNL     1      18.210  26.700  -7.505  1.00  0.00    -0.507 OA
ATOM     23  H   UNL     1      18.284  27.324  -8.301  1.00  0.00     0.293 HD
ENDBRANCH   6  22
BRANCH   8  24
ATOM     24  O   UNL     1      13.400  26.656  -7.130  1.00  0.00    -0.508 OA
ATOM     25  H   UNL     1      12.999  27.506  -7.509  1.00  0.00     0.293 HD
ENDBRANCH   8  24
TORSDOF 5
ENDMDL
MODEL 4
REMARK VINA RESULT:    -6.806      4.330      6.077
REMARK INTER + INTRA:          -8.110
REMARK INTER:                  -7.820
REMARK INTRA:                  -0.289
REMARK UNBOUND:                -0.110
REMARK SMILES O=c1c(O)c(-c2ccc(O)cc2)oc2cc(O)cc(O)c12
REMARK SMILES IDX 5 1 3 2 2 3 1 4 21 5 19 6 18 7 16 8 15 9 14 10 13 11 6 12
REMARK SMILES IDX 7 13 8 14 9 15 12 16 11 17 10 18 4 20 20 22 17 24
REMARK H PARENT 10 19 4 21 20 23 17 25
REMARK Flexibility Score: inf
ROOT
ATOM      1  C   UNL     1      17.037  26.579  -2.546  1.00  0.00     0.180 A 
ATOM      2  C   UNL     1      15.881  26.533  -3.347  1.00  0.00     0.208 A 
ATOM      3  C   UNL     1      16.017  26.606  -4.742  1.00  0.00     0.238 A 
ATOM      4  O   UNL     1      14.988  26.554  -5.469  1.00  0.00    -0.285 OA
ATOM      5  C   UNL     1      17.299  26.743  -5.311  1.00  0.00     0.111 A 
ATOM      6  C   UNL     1      17.523  26.828  -6.706  1.00  0.00     0.134 A 
ATOM      7  C   UNL     1      18.830  26.974  -7.193  1.00  0.00     0.093 A 
ATOM      8  C   UNL     1      19.915  27.038  -6.317  1.00  0.00     0.123 A 
ATOM      9  C   UNL     1      19.700  26.955  -4.936  1.00  0.00     0.094 A 
ATOM     10  C   UNL     1      18.406  26.807  -4.431  1.00  0.00     0.146 A 
ATOM     11  O   UNL     1      18.230  26.726  -3.117  1.00  0.00    -0.452 OA
ENDROOT
BRANCH   1  12
ATOM     12  C   UNL     1      16.977  26.490  -1.069  1.00  0.00     0.021 A 
ATOM     13  C   UNL     1      16.811  27.661  -0.312  1.00  0.00     0.016 A 
ATOM     14  C   UNL     1      16.774  27.603   1.085  1.00  0.00     0.047 A 
ATOM     15  C   UNL     1      16.920  26.374   1.741  1.00  0.00     0.115 A 
ATOM     16  C   UNL     1      17.144  25.262  -0.403  1.00  0.00     0.016 A 
ATOM     17  C   UNL     1      17.108  25.207   0.994  1.00  0.00     0.047 A 
BRANCH  15  18
ATOM     18  O   UNL     1      16.885  26.302   3.132  1.00  0.00    -0.508 OA
ATOM     19  H   UNL     1      17.714  26.081   3.671  1.00  0.00     0.293 HD
ENDBRANCH  15  18
ENDBRANCH   1  12
BRANCH   2  20
ATOM     20  O   UNL     1      14.617  26.445  -2.757  1.00  0.00    -0.502 OA
ATOM     21  H   UNL     1      13.843  27.036  -3.038  1.00  0.00     0.293 HD
ENDBRANCH   2  20
BRANCH   6  22
ATOM     22  O   UNL     1      16.460  26.768  -7.608  1.00  0.00    -0.507 OA
ATOM     23  H   UNL     1      15.535  27.108  -7.367  1.00  0.00     0.293 HD
ENDBRANCH   6  22
BRANCH   8  24
ATOM     24  O   UNL     1      21.203  27.184  -6.827  1.00  0.00    -0.508 OA
ATOM     25  H   UNL     1      21.969  26.604  -6.505  1.00  0.00     0.293 HD
ENDBRANCH   8  24
TORSDOF 5
ENDMDL
MODEL 5
REMARK VINA RESULT:    -6.713      3.411      5.350
REMARK INTER + INTRA:          -8.000
REMARK INTER:                  -7.745
REMARK INTRA:                  -0.254
REMARK UNBOUND:                -0.110
REMARK SMILES O=c1c(O)c(-c2ccc(O)cc2)oc2cc(O)cc(O)c12
REMARK SMILES IDX 5 1 3 2 2 3 1 4 21 5 19 6 18 7 16 8 15 9 14 10 13 11 6 12
REMARK SMILES IDX 7 13 8 14 9 15 12 16 11 17 10 18 4 20 20 22 17 24
REMARK H PARENT 10 19 4 21 20 23 17 25
REMARK Flexibility Score: inf
ROOT
ATOM      1  C   UNL     1      17.950  26.137  -2.695  1.00  0.00     0.180 A 
ATOM      2  C   UNL     1      18.082  25.010  -1.862  1.00  0.00     0.208 A 
ATOM      3  C   UNL     1      17.604  25.080  -0.544  1.00  0.00     0.238 A 
ATOM      4  O   UNL     1      17.707  24.072   0.207  1.00  0.00    -0.285 OA
ATOM      5  C   UNL     1      17.024  26.276  -0.075  1.00  0.00     0.111 A 
ATOM      6  C   UNL     1      16.522  26.430   1.239  1.00  0.00     0.134 A 
ATOM      7  C   UNL     1      15.967  27.657   1.632  1.00  0.00     0.093 A 
ATOM      8  C   UNL     1      15.905  28.729   0.741  1.00  0.00     0.123 A 
ATOM      9  C   UNL     1      16.400  28.583  -0.560  1.00  0.00     0.094 A 
ATOM     10  C   UNL     1      16.954  27.368  -0.972  1.00  0.00     0.146 A 
ATOM     11  O   UNL     1      17.412  27.254  -2.214  1.00  0.00    -0.452 OA
ENDROOT
BRANCH   1  12
ATOM     12  C   UNL     1      18.412  26.136  -4.102  1.00  0.00     0.021 A 
ATOM     13  C   UNL     1      17.631  25.507  -5.085  1.00  0.00     0.016 A 
ATOM     14  C   UNL     1      18.060  25.474  -6.416  1.00  0.00     0.047 A 
ATOM     15  C   UNL     1      19.282  26.056  -6.776  1.00  0.00     0.115 A 
ATOM     16  C   UNL     1      19.649  26.699  -4.466  1.00  0.00     0.016 A 
ATOM     17  C   UNL     1      20.075  26.664  -5.798  1.00  0.00     0.047 A 
BRANCH  15  18
ATOM     18  O   UNL     1      19.720  26.030  -8.098  1.00  0.00    -0.508 OA
ATOM     19  H   UNL     1      19.069  26.088  -8.872  1.00  0.00     0.293 HD
ENDBRANCH  15  18
ENDBRANCH   1  12
BRANCH   2  20
ATOM     20  O   UNL     1      18.705  23.852  -2.335  1.00  0.00    -0.502 OA
ATOM     21  H   UNL     1      18.202  23.132  -2.842  1.00  0.00     0.293 HD
ENDBRANCH   2  20
BRANCH   6  22
ATOM     22  O   UNL     1      16.570  25.377   2.154  1.00  0.00    -0.507 OA
ATOM     23  H   UNL     1      17.219  24.605   2.046  1.00  0.00     0.293 HD
ENDBRANCH   6  22
BRANCH   8  24
ATOM     24  O   UNL     1      15.350  29.938   1.157  1.00  0.00    -0.508 OA
ATOM     25  H   UNL     1      15.931  30.710   1.463  1.00  0.00     0.293 HD
ENDBRANCH   8  24
TORSDOF 5
ENDMDL
MODEL 6
REMARK VINA RESULT:    -6.667      6.947      8.173
REMARK INTER + INTRA:          -7.945
REMARK INTER:                  -7.650
REMARK INTRA:                  -0.296
REMARK UNBOUND:                -0.110
REMARK SMILES O=c1c(O)c(-c2ccc(O)cc2)oc2cc(O)cc(O)c12
REMARK SMILES IDX 5 1 3 2 2 3 1 4 21 5 19 6 18 7 16 8 15 9 14 10 13 11 6 12
REMARK SMILES IDX 7 13 8 14 9 15 12 16 11 17 10 18 4 20 20 22 17 24
REMARK H PARENT 10 19 4 21 20 23 17 25
REMARK Flexibility Score: inf
ROOT
ATOM      1  C   UNL     1      15.239  26.699  -6.605  1.00  0.00     0.180 A 
ATOM      2  C   UNL     1      15.217  26.706  -5.198  1.00  0.00     0.208 A 
ATOM      3  C   UNL     1      16.435  26.714  -4.500  1.00  0.00     0.238 A 
ATOM      4  O   UNL     1      16.427  26.732  -3.239  1.00  0.00    -0.285 OA
ATOM      5  C   UNL     1      17.649  26.694  -5.216  1.00  0.00     0.111 A 
ATOM      6  C   UNL     1      18.918  26.696  -4.590  1.00  0.00     0.134 A 
ATOM      7  C   UNL     1      20.081  26.666  -5.374  1.00  0.00     0.093 A 
ATOM      8  C   UNL     1      20.001  26.632  -6.767  1.00  0.00     0.123 A 
ATOM      9  C   UNL     1      18.749  26.630  -7.393  1.00  0.00     0.094 A 
ATOM     10  C   UNL     1      17.579  26.662  -6.629  1.00  0.00     0.146 A 
ATOM     11  O   UNL     1      16.403  26.664  -7.248  1.00  0.00    -0.452 OA
ENDROOT
BRANCH   1  12
ATOM     12  C   UNL     1      13.997  26.709  -7.412  1.00  0.00     0.021 A 
ATOM     13  C   UNL     1      13.493  25.500  -7.920  1.00  0.00     0.016 A 
ATOM     14  C   UNL     1      12.335  25.489  -8.704  1.00  0.00     0.047 A 
ATOM     15  C   UNL     1      11.676  26.688  -9.002  1.00  0.00     0.115 A 
ATOM     16  C   UNL     1      13.342  27.912  -7.733  1.00  0.00     0.016 A 
ATOM     17  C   UNL     1      12.184  27.897  -8.518  1.00  0.00     0.047 A 
BRANCH  15  18
ATOM     18  O   UNL     1      10.521  26.690  -9.781  1.00  0.00    -0.508 OA
ATOM     19  H   UNL     1       9.810  27.405  -9.671  1.00  0.00     0.293 HD
ENDBRANCH  15  18
ENDBRANCH   1  12
BRANCH   2  20
ATOM     20  O   UNL     1      14.001  26.677  -4.510  1.00  0.00    -0.502 OA
ATOM     21  H   UNL     1      13.119  26.897  -4.957  1.00  0.00     0.293 HD
ENDBRANCH   2  20
BRANCH   6  22
ATOM     22  O   UNL     1      19.032  26.729  -3.199  1.00  0.00    -0.507 OA
ATOM     23  H   UNL     1      18.894  27.585  -2.673  1.00  0.00     0.293 HD
ENDBRANCH   6  22
BRANCH   8  24
ATOM     24  O   UNL     1      21.171  26.601  -7.522  1.00  0.00    -0.508 OA
ATOM     25  H   UNL     1      22.080  26.496  -7.086  1.00  0.00     0.293 HD
ENDBRANCH   8  24
TORSDOF 5
ENDMDL
MODEL 7
REMARK VINA RESULT:    -6.577      6.637      9.001
REMARK INTER + INTRA:          -7.840
REMARK INTER:                  -7.550
REMARK INTRA:                  -0.290
REMARK UNBOUND:                -0.110
REMARK SMILES O=c1c(O)c(-c2ccc(O)cc2)oc2cc(O)cc(O)c12
REMARK SMILES IDX 5 1 3 2 2 3 1 4 21 5 19 6 18 7 16 8 15 9 14 10 13 11 6 12
REMARK SMILES IDX 7 13 8 14 9 15 12 16 11 17 10 18 4 20 20 22 17 24
REMARK H PARENT 10 19 4 21 20 23 17 25
REMARK Flexibility Score: inf
ROOT
ATOM      1  C   UNL     1      19.387  26.708  -6.521  1.00  0.00     0.180 A 
ATOM      2  C   UNL     1      19.424  26.648  -5.115  1.00  0.00     0.208 A 
ATOM      3  C   UNL     1      18.214  26.614  -4.405  1.00  0.00     0.238 A 
ATOM      4  O   UNL     1      18.236  26.549  -3.146  1.00  0.00    -0.285 OA
ATOM      5  C   UNL     1      16.992  26.660  -5.107  1.00  0.00     0.111 A 
ATOM      6  C   UNL     1      15.730  26.635  -4.467  1.00  0.00     0.134 A 
ATOM      7  C   UNL     1      14.558  26.693  -5.236  1.00  0.00     0.093 A 
ATOM      8  C   UNL     1      14.623  26.779  -6.628  1.00  0.00     0.123 A 
ATOM      9  C   UNL     1      15.868  26.805  -7.267  1.00  0.00     0.094 A 
ATOM     10  C   UNL     1      17.047  26.745  -6.518  1.00  0.00     0.146 A 
ATOM     11  O   UNL     1      18.216  26.766  -7.149  1.00  0.00    -0.452 OA
ENDROOT
BRANCH   1  12
ATOM     12  C   UNL     1      20.619  26.728  -7.342  1.00  0.00     0.021 A 
ATOM     13  C   UNL     1      21.198  25.516  -7.750  1.00  0.00     0.016 A 
ATOM     14  C   UNL     1      22.375  25.511  -8.506  1.00  0.00     0.047 A 
ATOM     15  C   UNL     1      22.995  26.719  -8.849  1.00  0.00     0.115 A 
ATOM     16  C   UNL     1      21.259  27.937  -7.671  1.00  0.00     0.016 A 
ATOM     17  C   UNL     1      22.436  27.930  -8.427  1.00  0.00     0.047 A 
BRANCH  15  18
ATOM     18  O   UNL     1      24.167  26.729  -9.602  1.00  0.00    -0.508 OA
ATOM     19  H   UNL     1      24.799  27.521  -9.586  1.00  0.00     0.293 HD
ENDBRANCH  15  18
ENDBRANCH   1  12
BRANCH   2  20
ATOM     20  O   UNL     1      20.648  26.652  -4.441  1.00  0.00    -0.502 OA
ATOM     21  H   UNL     1      20.726  26.888  -3.458  1.00  0.00     0.293 HD
ENDBRANCH   2  20
BRANCH   6  22
ATOM     22  O   UNL     1      15.631  26.550  -3.077  1.00  0.00    -0.507 OA
ATOM     23  H   UNL     1      15.297  27.327  -2.518  1.00  0.00     0.293 HD
ENDBRANCH   6  22
BRANCH   8  24
ATOM     24  O   UNL     1      13.445  26.838  -7.369  1.00  0.00    -0.508 OA
ATOM     25  H   UNL     1      13.071  27.720  -7.701  1.00  0.00     0.293 HD
ENDBRANCH   8  24
TORSDOF 5
ENDMDL
MODEL 8
REMARK VINA RESULT:    -6.518      4.419      5.602
REMARK INTER + INTRA:          -7.771
REMARK INTER:                  -7.485
REMARK INTRA:                  -0.286
REMARK UNBOUND:                -0.110
REMARK SMILES O=c1c(O)c(-c2ccc(O)cc2)oc2cc(O)cc(O)c12
REMARK SMILES IDX 5 1 3 2 2 3 1 4 21 5 19 6 18 7 16 8 15 9 14 10 13 11 6 12
REMARK SMILES IDX 7 13 8 14 9 15 12 16 11 17 10 18 4 20 20 22 17 24
REMARK H PARENT 10 19 4 21 20 23 17 25
REMARK Flexibility Score: inf
ROOT
ATOM      1  C   UNL     1      16.859  26.792  -3.631  1.00  0.00     0.180 A 
ATOM      2  C   UNL     1      17.781  25.855  -3.126  1.00  0.00     0.208 A 
ATOM      3  C   UNL     1      17.931  25.732  -1.736  1.00  0.00     0.238 A 
ATOM      4  O   UNL     1      18.746  24.888  -1.273  1.00  0.00    -0.285 OA
ATOM      5  C   UNL     1      17.177  26.557  -0.877  1.00  0.00     0.111 A 
ATOM      6  C   UNL     1      17.272  26.500   0.533  1.00  0.00     0.134 A 
ATOM      7  C   UNL     1      16.494  27.362   1.319  1.00  0.00     0.093 A 
ATOM      8  C   UNL     1      15.626  28.279   0.725  1.00  0.00     0.123 A 
ATOM      9  C   UNL     1      15.527  28.342  -0.670  1.00  0.00     0.094 A 
ATOM     10  C   UNL     1      16.292  27.489  -1.470  1.00  0.00     0.146 A 
ATOM     11  O   UNL     1      16.176  27.565  -2.792  1.00  0.00    -0.452 OA
ENDROOT
BRANCH   1  12
ATOM     12  C   UNL     1      16.630  26.968  -5.084  1.00  0.00     0.021 A 
ATOM     13  C   UNL     1      15.616  26.232  -5.718  1.00  0.00     0.016 A 
ATOM     14  C   UNL     1      15.398  26.365  -7.093  1.00  0.00     0.047 A 
ATOM     15  C   UNL     1      16.202  27.225  -7.852  1.00  0.00     0.115 A 
ATOM     16  C   UNL     1      17.447  27.814  -5.856  1.00  0.00     0.016 A 
ATOM     17  C   UNL     1      17.227  27.945  -7.231  1.00  0.00     0.047 A 
BRANCH  15  18
ATOM     18  O   UNL     1      15.994  27.367  -9.222  1.00  0.00    -0.508 OA
ATOM     19  H   UNL     1      16.768  27.490  -9.865  1.00  0.00     0.293 HD
ENDBRANCH  15  18
ENDBRANCH   1  12
BRANCH   2  20
ATOM     20  O   UNL     1      18.552  25.083  -3.999  1.00  0.00    -0.502 OA
ATOM     21  H   UNL     1      18.520  24.070  -4.001  1.00  0.00     0.293 HD
ENDBRANCH   2  20
BRANCH   6  22
ATOM     22  O   UNL     1      18.131  25.594   1.159  1.00  0.00    -0.507 OA
ATOM     23  H   UNL     1      18.261  24.652   0.806  1.00  0.00     0.293 HD
ENDBRANCH   6  22
BRANCH   8  24
ATOM     24  O   UNL     1      14.865  29.126   1.528  1.00  0.00    -0.508 OA
ATOM     25  H   UNL     1      15.081  29.261   2.509  1.00  0.00     0.293 HD
ENDBRANCH   8  24
TORSDOF 5
ENDMDL
MODEL 9
REMARK VINA RESULT:    -6.446      4.484      6.444
REMARK INTER + INTRA:          -7.686
REMARK INTER:                  -7.391
REMARK INTRA:                  -0.295
REMARK UNBOUND:                -0.110
REMARK SMILES O=c1c(O)c(-c2ccc(O)cc2)oc2cc(O)cc(O)c12
REMARK SMILES IDX 5 1 3 2 2 3 1 4 21 5 19 6 18 7 16 8 15 9 14 10 13 11 6 12
REMARK SMILES IDX 7 13 8 14 9 15 12 16 11 17 10 18 4 20 20 22 17 24
REMARK H PARENT 10 19 4 21 20 23 17 25
REMARK Flexibility Score: inf
ROOT
ATOM      1  C   UNL     1      18.399  26.725  -4.128  1.00  0.00     0.180 A 
ATOM      2  C   UNL     1      19.428  26.810  -3.172  1.00  0.00     0.208 A 
ATOM      3  C   UNL     1      19.097  26.740  -1.809  1.00  0.00     0.238 A 
ATOM      4  O   UNL     1      20.013  26.804  -0.945  1.00  0.00    -0.285 OA
ATOM      5  C   UNL     1      17.747  26.606  -1.426  1.00  0.00     0.111 A 
ATOM      6  C   UNL     1      17.330  26.533  -0.076  1.00  0.00     0.134 A 
ATOM      7  C   UNL     1      15.965  26.409   0.224  1.00  0.00     0.093 A 
ATOM      8  C   UNL     1      15.012  26.360  -0.796  1.00  0.00     0.123 A 
ATOM      9  C   UNL     1      15.419  26.432  -2.133  1.00  0.00     0.094 A 
ATOM     10  C   UNL     1      16.774  26.553  -2.452  1.00  0.00     0.146 A 
ATOM     11  O   UNL     1      17.135  26.615  -3.729  1.00  0.00    -0.452 OA
ENDROOT
BRANCH   1  12
ATOM     12  C   UNL     1      18.669  26.773  -5.583  1.00  0.00     0.021 A 
ATOM     13  C   UNL     1      18.667  28.011  -6.246  1.00  0.00     0.016 A 
ATOM     14  C   UNL     1      18.897  28.077  -7.624  1.00  0.00     0.047 A 
ATOM     15  C   UNL     1      19.117  26.904  -8.357  1.00  0.00     0.115 A 
ATOM     16  C   UNL     1      18.870  25.597  -6.330  1.00  0.00     0.016 A 
ATOM     17  C   UNL     1      19.100  25.667  -7.707  1.00  0.00     0.047 A 
BRANCH  15  18
ATOM     18  O   UNL     1      19.348  26.957  -9.730  1.00  0.00    -0.508 OA
ATOM     19  H   UNL     1      18.901  26.308 -10.367  1.00  0.00     0.293 HD
ENDBRANCH  15  18
ENDBRANCH   1  12
BRANCH   2  20
ATOM     20  O   UNL     1      20.754  26.992  -3.576  1.00  0.00    -0.502 OA
ATOM     21  H   UNL     1      21.042  26.916  -4.544  1.00  0.00     0.293 HD
ENDBRANCH   2  20
BRANCH   6  22
ATOM     22  O   UNL     1      18.256  26.580   0.966  1.00  0.00    -0.507 OA
ATOM     23  H   UNL     1      17.990  26.858   1.905  1.00  0.00     0.293 HD
ENDBRANCH   6  22
BRANCH   8  24
ATOM     24  O   UNL     1      13.663  26.238  -0.470  1.00  0.00    -0.508 OA
ATOM     25  H   UNL     1      13.011  25.763  -1.084  1.00  0.00     0.293 HD
ENDBRANCH   8  24
TORSDOF 5
ENDMDL
