MODEL 1
REMARK VINA RESULT:    -4.789      0.000      0.000
REMARK INTER + INTRA:         -13.899
REMARK INTER:                 -10.949
REMARK INTRA:                  -2.950
REMARK UNBOUND:                -2.950
REMARK SMILES CCCCCCCCCCCCCCCCCCCCCCCC(=O)[O-]
REMARK SMILES IDX 13 1 14 2 15 3 16 4 17 5 18 6 19 7 20 8 21 9 22 10 23 11
REMARK SMILES IDX 24 12 25 13 26 14 12 15 11 16 10 17 9 18 8 19 7 20 6 21 5 22
REMARK SMILES IDX 4 23 3 24 2 25 1 26
REMARK H PARENT
REMARK Flexibility Score: inf
ROOT
ATOM      1  C   UNL     1      13.687  61.186  30.075  1.00  0.00     0.000 C 
ENDROOT
BRANCH   1   2
ATOM      2  C   UNL     1      14.908  60.873  30.957  1.00  0.00     0.000 C 
BRANCH   2   3
ATOM      3  C   UNL     1      15.205  62.009  31.955  1.00  0.00     0.000 C 
BRANCH   3   4
ATOM      4  C   UNL     1      16.608  62.612  31.769  1.00  0.00     0.000 C 
BRANCH   4   5
ATOM      5  C   UNL     1      16.654  64.151  31.742  1.00  0.00     0.000 C 
BRANCH   5   6
ATOM      6  C   UNL     1      15.329  64.824  32.160  1.00  0.00     0.000 C 
BRANCH   6   7
ATOM      7  C   UNL     1      15.324  65.224  33.646  1.00  0.00     0.000 C 
BRANCH   7   8
ATOM      8  C   UNL     1      16.256  66.408  33.946  1.00  0.00     0.000 C 
BRANCH   8   9
ATOM      9  C   UNL     1      15.490  67.723  34.188  1.00  0.00     0.000 C 
BRANCH   9  10
ATOM     10  C   UNL     1      15.738  68.771  33.088  1.00  0.00     0.006 C 
BRANCH  10  11
ATOM     11  C   UNL     1      17.169  69.334  33.062  1.00  0.00     0.053 C 
BRANCH  11  12
ATOM     12  C   UNL     1      17.478  70.152  34.278  1.00  0.00     0.041 C 
ATOM     13  O   UNL     1      17.109  71.353  34.345  1.00  0.00    -0.550 OA
ATOM     14  O   UNL     1      18.196  69.591  35.328  1.00  0.00    -0.550 OA
ENDBRANCH  11  12
ENDBRANCH  10  11
ENDBRANCH   9  10
ENDBRANCH   8   9
ENDBRANCH   7   8
ENDBRANCH   6   7
ENDBRANCH   5   6
ENDBRANCH   4   5
ENDBRANCH   3   4
ENDBRANCH   2   3
ENDBRANCH   1   2
BRANCH   1  15
ATOM     15  C   UNL     1      13.274  62.666  30.150  1.00  0.00     0.000 C 
BRANCH  15  16
ATOM     16  C   UNL     1      11.852  62.843  30.714  1.00  0.00     0.000 C 
BRANCH  16  17
ATOM     17  C   UNL     1      11.832  63.454  32.128  1.00  0.00     0.000 C 
BRANCH  17  18
ATOM     18  C   UNL     1      11.684  62.377  33.219  1.00  0.00    -0.000 C 
BRANCH  18  19
ATOM     19  C   UNL     1      11.112  61.057  32.674  1.00  0.00    -0.000 C 
BRANCH  19  20
ATOM     20  C   UNL     1      11.873  59.797  33.144  1.00  0.00    -0.000 C 
BRANCH  20  21
ATOM     21  C   UNL     1      11.452  58.510  32.407  1.00  0.00    -0.000 C 
BRANCH  21  22
ATOM     22  C   UNL     1      10.720  57.474  33.282  1.00  0.00    -0.000 C 
BRANCH  22  23
ATOM     23  C   UNL     1       9.424  57.982  33.949  1.00  0.00    -0.000 C 
BRANCH  23  24
ATOM     24  C   UNL     1       8.121  57.622  33.205  1.00  0.00    -0.000 C 
BRANCH  24  25
ATOM     25  C   UNL     1       7.299  58.828  32.720  1.00  0.00    -0.003 C 
ATOM     26  C   UNL     1       7.939  59.542  31.529  1.00  0.00     0.004 C 
ENDBRANCH  24  25
ENDBRANCH  23  24
ENDBRANCH  22  23
ENDBRANCH  21  22
ENDBRANCH  20  21
ENDBRANCH  19  20
ENDBRANCH  18  19
ENDBRANCH  17  18
ENDBRANCH  16  17
ENDBRANCH  15  16
ENDBRANCH   1  15
TORSDOF 22
ENDMDL
MODEL 2
REMARK VINA RESULT:    -4.621      3.084      6.080
REMARK INTER + INTRA:         -13.515
REMARK INTER:                 -10.478
REMARK INTRA:                  -3.037
REMARK UNBOUND:                -2.950
REMARK SMILES CCCCCCCCCCCCCCCCCCCCCCCC(=O)[O-]
REMARK SMILES IDX 13 1 14 2 15 3 16 4 17 5 18 6 19 7 20 8 21 9 22 10 23 11
REMARK SMILES IDX 24 12 25 13 26 14 12 15 11 16 10 17 9 18 8 19 7 20 6 21 5 22
REMARK SMILES IDX 4 23 3 24 2 25 1 26
REMARK H PARENT
REMARK Flexibility Score: inf
ROOT
ATOM      1  C   UNL     1      15.462  66.853  34.390  1.00  0.00     0.000 C 
ENDROOT
BRANCH   1   2
ATOM      2  C   UNL     1      15.516  68.118  33.516  1.00  0.00     0.000 C 
BRANCH   2   3
ATOM      3  C   UNL     1      16.925  68.738  33.484  1.00  0.00     0.000 C 
BRANCH   3   4
ATOM      4  C   UNL     1      17.097  69.879  34.503  1.00  0.00     0.000 C 
BRANCH   4   5
ATOM      5  C   UNL     1      18.380  69.804  35.349  1.00  0.00     0.000 C 
BRANCH   5   6
ATOM      6  C   UNL     1      18.228  68.982  36.646  1.00  0.00     0.000 C 
BRANCH   6   7
ATOM      7  C   UNL     1      19.537  68.920  37.453  1.00  0.00     0.000 C 
BRANCH   7   8
ATOM      8  C   UNL     1      19.416  68.057  38.719  1.00  0.00     0.000 C 
BRANCH   8   9
ATOM      9  C   UNL     1      17.956  67.869  39.174  1.00  0.00     0.000 C 
BRANCH   9  10
ATOM     10  C   UNL     1      17.541  66.388  39.254  1.00  0.00     0.006 C 
BRANCH  10  11
ATOM     11  C   UNL     1      17.125  65.774  37.908  1.00  0.00     0.053 C 
BRANCH  11  12
ATOM     12  C   UNL     1      18.008  64.632  37.509  1.00  0.00     0.041 C 
ATOM     13  O   UNL     1      17.538  63.666  36.852  1.00  0.00    -0.550 OA
ATOM     14  O   UNL     1      19.347  64.625  37.884  1.00  0.00    -0.550 OA
ENDBRANCH  11  12
ENDBRANCH  10  11
ENDBRANCH   9  10
ENDBRANCH   8   9
ENDBRANCH   7   8
ENDBRANCH   6   7
ENDBRANCH   5   6
ENDBRANCH   4   5
ENDBRANCH   3   4
ENDBRANCH   2   3
ENDBRANCH   1   2
BRANCH   1  15
ATOM     15  C   UNL     1      16.600  65.869  34.066  1.00  0.00     0.000 C 
BRANCH  15  16
ATOM     16  C   UNL     1      16.070  64.500  33.603  1.00  0.00     0.000 C 
BRANCH  16  17
ATOM     17  C   UNL     1      15.529  64.517  32.160  1.00  0.00     0.000 C 
BRANCH  17  18
ATOM     18  C   UNL     1      14.071  64.025  32.087  1.00  0.00    -0.000 C 
BRANCH  18  19
ATOM     19  C   UNL     1      13.341  64.135  33.437  1.00  0.00    -0.000 C 
BRANCH  19  20
ATOM     20  C   UNL     1      11.929  63.506  33.444  1.00  0.00    -0.000 C 
BRANCH  20  21
ATOM     21  C   UNL     1      11.400  63.157  32.039  1.00  0.00    -0.000 C 
BRANCH  21  22
ATOM     22  C   UNL     1      11.138  61.657  31.802  1.00  0.00    -0.000 C 
BRANCH  22  23
ATOM     23  C   UNL     1      11.810  60.708  32.817  1.00  0.00    -0.000 C 
BRANCH  23  24
ATOM     24  C   UNL     1      13.114  60.043  32.329  1.00  0.00    -0.000 C 
BRANCH  24  25
ATOM     25  C   UNL     1      14.379  60.456  33.102  1.00  0.00    -0.003 C 
ATOM     26  C   UNL     1      14.111  60.710  34.586  1.00  0.00     0.004 C 
ENDBRANCH  24  25
ENDBRANCH  23  24
ENDBRANCH  22  23
ENDBRANCH  21  22
ENDBRANCH  20  21
ENDBRANCH  19  20
ENDBRANCH  18  19
ENDBRANCH  17  18
ENDBRANCH  16  17
ENDBRANCH  15  16
ENDBRANCH   1  15
TORSDOF 22
ENDMDL
MODEL 3
REMARK VINA RESULT:    -4.604      2.642      5.120
REMARK INTER + INTRA:         -13.476
REMARK INTER:                 -10.811
REMARK INTRA:                  -2.665
REMARK UNBOUND:                -2.950
REMARK SMILES CCCCCCCCCCCCCCCCCCCCCCCC(=O)[O-]
REMARK SMILES IDX 13 1 14 2 15 3 16 4 17 5 18 6 19 7 20 8 21 9 22 10 23 11
REMARK SMILES IDX 24 12 25 13 26 14 12 15 11 16 10 17 9 18 8 19 7 20 6 21 5 22
REMARK SMILES IDX 4 23 3 24 2 25 1 26
REMARK H PARENT
REMARK Flexibility Score: inf
ROOT
ATOM      1  C   UNL     1      16.155  66.510  34.256  1.00  0.00     0.000 C 
ENDROOT
BRANCH   1   2
ATOM      2  C   UNL     1      15.746  67.044  35.640  1.00  0.00     0.000 C 
BRANCH   2   3
ATOM      3  C   UNL     1      16.620  66.460  36.765  1.00  0.00     0.000 C 
BRANCH   3   4
ATOM      4  C   UNL     1      17.621  65.409  36.257  1.00  0.00     0.000 C 
BRANCH   4   5
ATOM      5  C   UNL     1      18.911  65.287  37.088  1.00  0.00     0.000 C 
BRANCH   5   6
ATOM      6  C   UNL     1      18.782  65.832  38.527  1.00  0.00     0.000 C 
BRANCH   6   7
ATOM      7  C   UNL     1      19.861  66.880  38.850  1.00  0.00     0.000 C 
BRANCH   7   8
ATOM      8  C   UNL     1      19.340  68.322  38.749  1.00  0.00     0.000 C 
BRANCH   8   9
ATOM      9  C   UNL     1      19.655  68.974  37.390  1.00  0.00     0.000 C 
BRANCH   9  10
ATOM     10  C   UNL     1      18.409  69.567  36.707  1.00  0.00     0.006 C 
BRANCH  10  11
ATOM     11  C   UNL     1      18.382  69.394  35.180  1.00  0.00     0.053 C 
BRANCH  11  12
ATOM     12  C   UNL     1      17.487  70.392  34.512  1.00  0.00     0.041 C 
ATOM     13  O   UNL     1      17.612  71.620  34.758  1.00  0.00    -0.550 OA
ATOM     14  O   UNL     1      16.500  69.961  33.633  1.00  0.00    -0.550 OA
ENDBRANCH  11  12
ENDBRANCH  10  11
ENDBRANCH   9  10
ENDBRANCH   8   9
ENDBRANCH   7   8
ENDBRANCH   6   7
ENDBRANCH   5   6
ENDBRANCH   4   5
ENDBRANCH   3   4
ENDBRANCH   2   3
ENDBRANCH   1   2
BRANCH   1  15
ATOM     15  C   UNL     1      14.944  66.283  33.335  1.00  0.00     0.000 C 
BRANCH  15  16
ATOM     16  C   UNL     1      15.215  65.196  32.278  1.00  0.00     0.000 C 
BRANCH  16  17
ATOM     17  C   UNL     1      14.055  64.193  32.128  1.00  0.00     0.000 C 
BRANCH  17  18
ATOM     18  C   UNL     1      14.431  63.011  31.217  1.00  0.00    -0.000 C 
BRANCH  18  19
ATOM     19  C   UNL     1      13.221  62.441  30.456  1.00  0.00    -0.000 C 
BRANCH  19  20
ATOM     20  C   UNL     1      11.859  63.001  30.924  1.00  0.00    -0.000 C 
BRANCH  20  21
ATOM     21  C   UNL     1      11.043  62.011  31.779  1.00  0.00    -0.000 C 
BRANCH  21  22
ATOM     22  C   UNL     1      11.763  61.503  33.043  1.00  0.00    -0.000 C 
BRANCH  22  23
ATOM     23  C   UNL     1      11.812  59.968  33.194  1.00  0.00    -0.000 C 
BRANCH  23  24
ATOM     24  C   UNL     1      12.874  59.257  32.331  1.00  0.00    -0.000 C 
BRANCH  24  25
ATOM     25  C   UNL     1      14.331  59.614  32.674  1.00  0.00    -0.003 C 
ATOM     26  C   UNL     1      14.634  59.499  34.168  1.00  0.00     0.004 C 
ENDBRANCH  24  25
ENDBRANCH  23  24
ENDBRANCH  22  23
ENDBRANCH  21  22
ENDBRANCH  20  21
ENDBRANCH  19  20
ENDBRANCH  18  19
ENDBRANCH  17  18
ENDBRANCH  16  17
ENDBRANCH  15  16
ENDBRANCH   1  15
TORSDOF 22
ENDMDL
MODEL 4
REMARK VINA RESULT:    -4.559      1.858      3.239
REMARK INTER + INTRA:         -13.372
REMARK INTER:                  -9.667
REMARK INTRA:                  -3.704
REMARK UNBOUND:                -2.950
REMARK SMILES CCCCCCCCCCCCCCCCCCCCCCCC(=O)[O-]
REMARK SMILES IDX 13 1 14 2 15 3 16 4 17 5 18 6 19 7 20 8 21 9 22 10 23 11
REMARK SMILES IDX 24 12 25 13 26 14 12 15 11 16 10 17 9 18 8 19 7 20 6 21 5 22
REMARK SMILES IDX 4 23 3 24 2 25 1 26
REMARK H PARENT
REMARK Flexibility Score: inf
ROOT
ATOM      1  C   UNL     1      11.928  63.033  30.745  1.00  0.00     0.000 C 
ENDROOT
BRANCH   1   2
ATOM      2  C   UNL     1      13.408  62.630  30.628  1.00  0.00     0.000 C 
BRANCH   2   3
ATOM      3  C   UNL     1      13.584  61.282  29.904  1.00  0.00     0.000 C 
BRANCH   3   4
ATOM      4  C   UNL     1      14.659  60.394  30.553  1.00  0.00     0.000 C 
BRANCH   4   5
ATOM      5  C   UNL     1      15.765  61.158  31.303  1.00  0.00     0.000 C 
BRANCH   5   6
ATOM      6  C   UNL     1      15.847  60.823  32.808  1.00  0.00     0.000 C 
BRANCH   6   7
ATOM      7  C   UNL     1      16.146  62.066  33.665  1.00  0.00     0.000 C 
BRANCH   7   8
ATOM      8  C   UNL     1      16.392  63.326  32.820  1.00  0.00     0.000 C 
BRANCH   8   9
ATOM      9  C   UNL     1      17.609  64.137  33.304  1.00  0.00     0.000 C 
BRANCH   9  10
ATOM     10  C   UNL     1      17.300  64.997  34.543  1.00  0.00     0.006 C 
BRANCH  10  11
ATOM     11  C   UNL     1      16.921  66.453  34.224  1.00  0.00     0.053 C 
BRANCH  11  12
ATOM     12  C   UNL     1      15.505  66.765  34.600  1.00  0.00     0.041 C 
ATOM     13  O   UNL     1      15.259  67.460  35.620  1.00  0.00    -0.550 OA
ATOM     14  O   UNL     1      14.456  66.268  33.835  1.00  0.00    -0.550 OA
ENDBRANCH  11  12
ENDBRANCH  10  11
ENDBRANCH   9  10
ENDBRANCH   8   9
ENDBRANCH   7   8
ENDBRANCH   6   7
ENDBRANCH   5   6
ENDBRANCH   4   5
ENDBRANCH   3   4
ENDBRANCH   2   3
ENDBRANCH   1   2
BRANCH   1  15
ATOM     15  C   UNL     1      11.445  63.072  32.205  1.00  0.00     0.000 C 
BRANCH  15  16
ATOM     16  C   UNL     1      12.585  62.794  33.201  1.00  0.00     0.000 C 
BRANCH  16  17
ATOM     17  C   UNL     1      12.314  61.579  34.110  1.00  0.00     0.000 C 
BRANCH  17  18
ATOM     18  C   UNL     1      12.487  60.247  33.357  1.00  0.00    -0.000 C 
BRANCH  18  19
ATOM     19  C   UNL     1      11.145  59.570  33.034  1.00  0.00    -0.000 C 
BRANCH  19  20
ATOM     20  C   UNL     1      10.859  59.421  31.522  1.00  0.00    -0.000 C 
BRANCH  20  21
ATOM     21  C   UNL     1       9.548  60.095  31.072  1.00  0.00    -0.000 C 
BRANCH  21  22
ATOM     22  C   UNL     1       8.341  59.842  31.995  1.00  0.00    -0.000 C 
BRANCH  22  23
ATOM     23  C   UNL     1       7.867  58.375  32.062  1.00  0.00    -0.000 C 
BRANCH  23  24
ATOM     24  C   UNL     1       7.461  57.881  33.467  1.00  0.00    -0.000 C 
BRANCH  24  25
ATOM     25  C   UNL     1       8.628  57.710  34.454  1.00  0.00    -0.003 C 
ATOM     26  C   UNL     1       9.550  56.547  34.088  1.00  0.00     0.004 C 
ENDBRANCH  24  25
ENDBRANCH  23  24
ENDBRANCH  22  23
ENDBRANCH  21  22
ENDBRANCH  20  21
ENDBRANCH  19  20
ENDBRANCH  18  19
ENDBRANCH  17  18
ENDBRANCH  16  17
ENDBRANCH  15  16
ENDBRANCH   1  15
TORSDOF 22
ENDMDL
MODEL 5
REMARK VINA RESULT:    -4.529      2.109      3.187
REMARK INTER + INTRA:         -13.305
REMARK INTER:                 -10.440
REMARK INTRA:                  -2.865
REMARK UNBOUND:                -2.950
REMARK SMILES CCCCCCCCCCCCCCCCCCCCCCCC(=O)[O-]
REMARK SMILES IDX 13 1 14 2 15 3 16 4 17 5 18 6 19 7 20 8 21 9 22 10 23 11
REMARK SMILES IDX 24 12 25 13 26 14 12 15 11 16 10 17 9 18 8 19 7 20 6 21 5 22
REMARK SMILES IDX 4 23 3 24 2 25 1 26
REMARK H PARENT
REMARK Flexibility Score: inf
ROOT
ATOM      1  C   UNL     1      15.528  61.368  31.620  1.00  0.00     0.000 C 
ENDROOT
BRANCH   1   2
ATOM      2  C   UNL     1      16.949  61.918  31.402  1.00  0.00     0.000 C 
BRANCH   2   3
ATOM      3  C   UNL     1      16.986  63.457  31.451  1.00  0.00     0.000 C 
BRANCH   3   4
ATOM      4  C   UNL     1      15.671  64.069  31.962  1.00  0.00     0.000 C 
BRANCH   4   5
ATOM      5  C   UNL     1      15.770  64.771  33.329  1.00  0.00     0.000 C 
BRANCH   5   6
ATOM      6  C   UNL     1      14.908  66.046  33.442  1.00  0.00     0.000 C 
BRANCH   6   7
ATOM      7  C   UNL     1      15.766  67.319  33.556  1.00  0.00     0.000 C 
BRANCH   7   8
ATOM      8  C   UNL     1      15.736  67.932  34.965  1.00  0.00     0.000 C 
BRANCH   8   9
ATOM      9  C   UNL     1      16.285  66.976  36.041  1.00  0.00     0.000 C 
BRANCH   9  10
ATOM     10  C   UNL     1      17.762  67.245  36.383  1.00  0.00     0.006 C 
BRANCH  10  11
ATOM     11  C   UNL     1      17.977  68.331  37.450  1.00  0.00     0.053 C 
BRANCH  11  12
ATOM     12  C   UNL     1      17.937  67.776  38.840  1.00  0.00     0.041 C 
ATOM     13  O   UNL     1      17.661  68.524  39.814  1.00  0.00    -0.550 OA
ATOM     14  O   UNL     1      18.226  66.434  39.061  1.00  0.00    -0.550 OA
ENDBRANCH  11  12
ENDBRANCH  10  11
ENDBRANCH   9  10
ENDBRANCH   8   9
ENDBRANCH   7   8
ENDBRANCH   6   7
ENDBRANCH   5   6
ENDBRANCH   4   5
ENDBRANCH   3   4
ENDBRANCH   2   3
ENDBRANCH   1   2
BRANCH   1  15
ATOM     15  C   UNL     1      15.008  60.592  30.398  1.00  0.00     0.000 C 
BRANCH  15  16
ATOM     16  C   UNL     1      13.555  60.962  30.051  1.00  0.00     0.000 C 
BRANCH  16  17
ATOM     17  C   UNL     1      13.299  62.482  30.057  1.00  0.00     0.000 C 
BRANCH  17  18
ATOM     18  C   UNL     1      11.879  62.825  30.546  1.00  0.00    -0.000 C 
BRANCH  18  19
ATOM     19  C   UNL     1      11.872  63.452  31.951  1.00  0.00    -0.000 C 
BRANCH  19  20
ATOM     20  C   UNL     1      11.369  62.505  33.064  1.00  0.00    -0.000 C 
BRANCH  20  21
ATOM     21  C   UNL     1      12.500  61.902  33.920  1.00  0.00    -0.000 C 
BRANCH  21  22
ATOM     22  C   UNL     1      12.720  60.390  33.727  1.00  0.00    -0.000 C 
BRANCH  22  23
ATOM     23  C   UNL     1      11.858  59.741  32.622  1.00  0.00    -0.000 C 
BRANCH  23  24
ATOM     24  C   UNL     1      10.650  58.925  33.128  1.00  0.00    -0.000 C 
BRANCH  24  25
ATOM     25  C   UNL     1       9.520  58.740  32.101  1.00  0.00    -0.003 C 
ATOM     26  C   UNL     1       9.347  59.952  31.184  1.00  0.00     0.004 C 
ENDBRANCH  24  25
ENDBRANCH  23  24
ENDBRANCH  22  23
ENDBRANCH  21  22
ENDBRANCH  20  21
ENDBRANCH  19  20
ENDBRANCH  18  19
ENDBRANCH  17  18
ENDBRANCH  16  17
ENDBRANCH  15  16
ENDBRANCH   1  15
TORSDOF 22
ENDMDL
MODEL 6
REMARK VINA RESULT:    -4.521      2.102      2.967
REMARK INTER + INTRA:         -13.285
REMARK INTER:                  -9.907
REMARK INTRA:                  -3.378
REMARK UNBOUND:                -2.950
REMARK SMILES CCCCCCCCCCCCCCCCCCCCCCCC(=O)[O-]
REMARK SMILES IDX 13 1 14 2 15 3 16 4 17 5 18 6 19 7 20 8 21 9 22 10 23 11
REMARK SMILES IDX 24 12 25 13 26 14 12 15 11 16 10 17 9 18 8 19 7 20 6 21 5 22
REMARK SMILES IDX 4 23 3 24 2 25 1 26
REMARK H PARENT
REMARK Flexibility Score: inf
ROOT
ATOM      1  C   UNL     1      11.737  61.998  33.608  1.00  0.00     0.000 C 
ENDROOT
BRANCH   1   2
ATOM      2  C   UNL     1      12.918  61.136  34.088  1.00  0.00     0.000 C 
BRANCH   2   3
ATOM      3  C   UNL     1      14.235  61.934  34.130  1.00  0.00     0.000 C 
BRANCH   3   4
ATOM      4  C   UNL     1      15.301  61.376  33.171  1.00  0.00     0.000 C 
BRANCH   4   5
ATOM      5  C   UNL     1      16.324  62.409  32.667  1.00  0.00     0.000 C 
BRANCH   5   6
ATOM      6  C   UNL     1      15.696  63.750  32.230  1.00  0.00     0.000 C 
BRANCH   6   7
ATOM      7  C   UNL     1      16.015  64.889  33.214  1.00  0.00     0.000 C 
BRANCH   7   8
ATOM      8  C   UNL     1      14.899  65.944  33.286  1.00  0.00     0.000 C 
BRANCH   8   9
ATOM      9  C   UNL     1      15.380  67.281  33.879  1.00  0.00     0.000 C 
BRANCH   9  10
ATOM     10  C   UNL     1      15.527  67.238  35.411  1.00  0.00     0.006 C 
BRANCH  10  11
ATOM     11  C   UNL     1      16.966  67.440  35.914  1.00  0.00     0.053 C 
BRANCH  11  12
ATOM     12  C   UNL     1      17.387  66.369  36.873  1.00  0.00     0.041 C 
ATOM     13  O   UNL     1      16.578  65.935  37.734  1.00  0.00    -0.550 OA
ATOM     14  O   UNL     1      18.682  65.866  36.828  1.00  0.00    -0.550 OA
ENDBRANCH  11  12
ENDBRANCH  10  11
ENDBRANCH   9  10
ENDBRANCH   8   9
ENDBRANCH   7   8
ENDBRANCH   6   7
ENDBRANCH   5   6
ENDBRANCH   4   5
ENDBRANCH   3   4
ENDBRANCH   2   3
ENDBRANCH   1   2
BRANCH   1  15
ATOM     15  C   UNL     1      12.175  63.414  33.195  1.00  0.00     0.000 C 
BRANCH  15  16
ATOM     16  C   UNL     1      11.953  63.675  31.694  1.00  0.00     0.000 C 
BRANCH  16  17
ATOM     17  C   UNL     1      11.929  62.384  30.851  1.00  0.00     0.000 C 
BRANCH  17  18
ATOM     18  C   UNL     1      13.270  62.141  30.134  1.00  0.00    -0.000 C 
BRANCH  18  19
ATOM     19  C   UNL     1      13.586  60.645  29.963  1.00  0.00    -0.000 C 
BRANCH  19  20
ATOM     20  C   UNL     1      12.895  59.730  30.999  1.00  0.00    -0.000 C 
BRANCH  20  21
ATOM     21  C   UNL     1      12.087  58.580  30.367  1.00  0.00    -0.000 C 
BRANCH  21  22
ATOM     22  C   UNL     1      10.558  58.753  30.432  1.00  0.00    -0.000 C 
BRANCH  22  23
ATOM     23  C   UNL     1      10.019  59.296  31.773  1.00  0.00    -0.000 C 
BRANCH  23  24
ATOM     24  C   UNL     1       8.609  59.920  31.708  1.00  0.00    -0.000 C 
BRANCH  24  25
ATOM     25  C   UNL     1       7.475  59.006  32.201  1.00  0.00    -0.003 C 
ATOM     26  C   UNL     1       6.215  59.780  32.591  1.00  0.00     0.004 C 
ENDBRANCH  24  25
ENDBRANCH  23  24
ENDBRANCH  22  23
ENDBRANCH  21  22
ENDBRANCH  20  21
ENDBRANCH  19  20
ENDBRANCH  18  19
ENDBRANCH  17  18
ENDBRANCH  16  17
ENDBRANCH  15  16
ENDBRANCH   1  15
TORSDOF 22
ENDMDL
MODEL 7
REMARK VINA RESULT:    -4.473      4.212      9.238
REMARK INTER + INTRA:         -13.177
REMARK INTER:                  -9.970
REMARK INTRA:                  -3.207
REMARK UNBOUND:                -2.950
REMARK SMILES CCCCCCCCCCCCCCCCCCCCCCCC(=O)[O-]
REMARK SMILES IDX 13 1 14 2 15 3 16 4 17 5 18 6 19 7 20 8 21 9 22 10 23 11
REMARK SMILES IDX 24 12 25 13 26 14 12 15 11 16 10 17 9 18 8 19 7 20 6 21 5 22
REMARK SMILES IDX 4 23 3 24 2 25 1 26
REMARK H PARENT
REMARK Flexibility Score: inf
ROOT
ATOM      1  C   UNL     1      19.159  69.387  38.161  1.00  0.00     0.000 C 
ENDROOT
BRANCH   1   2
ATOM      2  C   UNL     1      19.205  68.713  36.779  1.00  0.00     0.000 C 
BRANCH   2   3
ATOM      3  C   UNL     1      18.617  69.614  35.677  1.00  0.00     0.000 C 
BRANCH   3   4
ATOM      4  C   UNL     1      17.203  69.187  35.249  1.00  0.00     0.000 C 
BRANCH   4   5
ATOM      5  C   UNL     1      16.779  67.785  35.723  1.00  0.00     0.000 C 
BRANCH   5   6
ATOM      6  C   UNL     1      15.583  67.196  34.944  1.00  0.00     0.000 C 
BRANCH   6   7
ATOM      7  C   UNL     1      15.548  67.676  33.483  1.00  0.00     0.000 C 
BRANCH   7   8
ATOM      8  C   UNL     1      14.888  66.659  32.538  1.00  0.00     0.000 C 
BRANCH   8   9
ATOM      9  C   UNL     1      14.556  65.326  33.236  1.00  0.00     0.000 C 
BRANCH   9  10
ATOM     10  C   UNL     1      14.552  64.129  32.268  1.00  0.00     0.006 C 
BRANCH  10  11
ATOM     11  C   UNL     1      13.717  62.931  32.748  1.00  0.00     0.053 C 
BRANCH  11  12
ATOM     12  C   UNL     1      12.269  63.070  32.391  1.00  0.00     0.041 C 
ATOM     13  O   UNL     1      11.907  63.911  31.528  1.00  0.00    -0.550 OA
ATOM     14  O   UNL     1      11.317  62.284  33.031  1.00  0.00    -0.550 OA
ENDBRANCH  11  12
ENDBRANCH  10  11
ENDBRANCH   9  10
ENDBRANCH   8   9
ENDBRANCH   7   8
ENDBRANCH   6   7
ENDBRANCH   5   6
ENDBRANCH   4   5
ENDBRANCH   3   4
ENDBRANCH   2   3
ENDBRANCH   1   2
BRANCH   1  15
ATOM     15  C   UNL     1      19.009  68.369  39.304  1.00  0.00     0.000 C 
BRANCH  15  16
ATOM     16  C   UNL     1      17.579  67.807  39.397  1.00  0.00     0.000 C 
BRANCH  16  17
ATOM     17  C   UNL     1      17.507  66.287  39.152  1.00  0.00     0.000 C 
BRANCH  17  18
ATOM     18  C   UNL     1      18.892  65.688  38.844  1.00  0.00    -0.000 C 
BRANCH  18  19
ATOM     19  C   UNL     1      18.854  64.674  37.688  1.00  0.00    -0.000 C 
BRANCH  19  20
ATOM     20  C   UNL     1      17.449  64.461  37.079  1.00  0.00    -0.000 C 
BRANCH  20  21
ATOM     21  C   UNL     1      17.435  63.488  35.884  1.00  0.00    -0.000 C 
BRANCH  21  22
ATOM     22  C   UNL     1      17.754  64.133  34.522  1.00  0.00    -0.000 C 
BRANCH  22  23
ATOM     23  C   UNL     1      18.104  63.139  33.394  1.00  0.00    -0.000 C 
BRANCH  23  24
ATOM     24  C   UNL     1      18.223  63.760  31.987  1.00  0.00    -0.000 C 
BRANCH  24  25
ATOM     25  C   UNL     1      19.336  63.162  31.109  1.00  0.00    -0.003 C 
ATOM     26  C   UNL     1      20.495  64.132  30.875  1.00  0.00     0.004 C 
ENDBRANCH  24  25
ENDBRANCH  23  24
ENDBRANCH  22  23
ENDBRANCH  21  22
ENDBRANCH  20  21
ENDBRANCH  19  20
ENDBRANCH  18  19
ENDBRANCH  17  18
ENDBRANCH  16  17
ENDBRANCH  15  16
ENDBRANCH   1  15
TORSDOF 22
ENDMDL
MODEL 8
REMARK VINA RESULT:    -4.462      3.789      9.423
REMARK INTER + INTRA:         -13.152
REMARK INTER:                 -10.617
REMARK INTRA:                  -2.535
REMARK UNBOUND:                -2.950
REMARK SMILES CCCCCCCCCCCCCCCCCCCCCCCC(=O)[O-]
REMARK SMILES IDX 13 1 14 2 15 3 16 4 17 5 18 6 19 7 20 8 21 9 22 10 23 11
REMARK SMILES IDX 24 12 25 13 26 14 12 15 11 16 10 17 9 18 8 19 7 20 6 21 5 22
REMARK SMILES IDX 4 23 3 24 2 25 1 26
REMARK H PARENT
REMARK Flexibility Score: inf
ROOT
ATOM      1  C   UNL     1      15.250  68.441  32.998  1.00  0.00     0.000 C 
ENDROOT
BRANCH   1   2
ATOM      2  C   UNL     1      15.456  67.394  34.106  1.00  0.00     0.000 C 
BRANCH   2   3
ATOM      3  C   UNL     1      15.337  65.955  33.569  1.00  0.00     0.000 C 
BRANCH   3   4
ATOM      4  C   UNL     1      16.672  65.191  33.612  1.00  0.00     0.000 C 
BRANCH   4   5
ATOM      5  C   UNL     1      16.540  63.665  33.771  1.00  0.00     0.000 C 
BRANCH   5   6
ATOM      6  C   UNL     1      15.227  63.087  33.200  1.00  0.00     0.000 C 
BRANCH   6   7
ATOM      7  C   UNL     1      15.259  62.979  31.665  1.00  0.00     0.000 C 
BRANCH   7   8
ATOM      8  C   UNL     1      14.255  61.950  31.121  1.00  0.00     0.000 C 
BRANCH   8   9
ATOM      9  C   UNL     1      13.185  62.586  30.214  1.00  0.00     0.000 C 
BRANCH   9  10
ATOM     10  C   UNL     1      11.898  62.956  30.975  1.00  0.00     0.006 C 
BRANCH  10  11
ATOM     11  C   UNL     1      11.406  61.873  31.949  1.00  0.00     0.053 C 
BRANCH  11  12
ATOM     12  C   UNL     1      11.736  62.199  33.373  1.00  0.00     0.041 C 
ATOM     13  O   UNL     1      11.529  63.356  33.822  1.00  0.00    -0.550 OA
ATOM     14  O   UNL     1      12.295  61.228  34.197  1.00  0.00    -0.550 OA
ENDBRANCH  11  12
ENDBRANCH  10  11
ENDBRANCH   9  10
ENDBRANCH   8   9
ENDBRANCH   7   8
ENDBRANCH   6   7
ENDBRANCH   5   6
ENDBRANCH   4   5
ENDBRANCH   3   4
ENDBRANCH   2   3
ENDBRANCH   1   2
BRANCH   1  15
ATOM     15  C   UNL     1      16.454  69.390  32.859  1.00  0.00     0.000 C 
BRANCH  15  16
ATOM     16  C   UNL     1      17.512  69.149  33.951  1.00  0.00     0.000 C 
BRANCH  16  17
ATOM     17  C   UNL     1      17.866  70.422  34.744  1.00  0.00     0.000 C 
BRANCH  17  18
ATOM     18  C   UNL     1      18.128  70.120  36.231  1.00  0.00    -0.000 C 
BRANCH  18  19
ATOM     19  C   UNL     1      18.489  68.646  36.481  1.00  0.00    -0.000 C 
BRANCH  19  20
ATOM     20  C   UNL     1      19.628  68.440  37.506  1.00  0.00    -0.000 C 
BRANCH  20  21
ATOM     21  C   UNL     1      19.372  67.280  38.488  1.00  0.00    -0.000 C 
BRANCH  21  22
ATOM     22  C   UNL     1      17.980  67.287  39.149  1.00  0.00    -0.000 C 
BRANCH  22  23
ATOM     23  C   UNL     1      17.117  66.040  38.865  1.00  0.00    -0.000 C 
BRANCH  23  24
ATOM     24  C   UNL     1      17.130  65.552  37.402  1.00  0.00    -0.000 C 
BRANCH  24  25
ATOM     25  C   UNL     1      17.745  64.158  37.190  1.00  0.00    -0.003 C 
ATOM     26  C   UNL     1      19.089  64.205  36.463  1.00  0.00     0.004 C 
ENDBRANCH  24  25
ENDBRANCH  23  24
ENDBRANCH  22  23
ENDBRANCH  21  22
ENDBRANCH  20  21
ENDBRANCH  19  20
ENDBRANCH  18  19
ENDBRANCH  17  18
ENDBRANCH  16  17
ENDBRANCH  15  16
ENDBRANCH   1  15
TORSDOF 22
ENDMDL
MODEL 9
REMARK VINA RESULT:    -4.423      3.680      6.253
REMARK INTER + INTRA:         -13.062
REMARK INTER:                 -10.110
REMARK INTRA:                  -2.952
REMARK UNBOUND:                -2.950
REMARK SMILES CCCCCCCCCCCCCCCCCCCCCCCC(=O)[O-]
REMARK SMILES IDX 13 1 14 2 15 3 16 4 17 5 18 6 19 7 20 8 21 9 22 10 23 11
REMARK SMILES IDX 24 12 25 13 26 14 12 15 11 16 10 17 9 18 8 19 7 20 6 21 5 22
REMARK SMILES IDX 4 23 3 24 2 25 1 26
REMARK H PARENT
REMARK Flexibility Score: inf
ROOT
ATOM      1  C   UNL     1      17.567  63.511  36.725  1.00  0.00     0.000 C 
ENDROOT
BRANCH   1   2
ATOM      2  C   UNL     1      18.184  64.730  37.432  1.00  0.00     0.000 C 
BRANCH   2   3
ATOM      3  C   UNL     1      19.649  64.960  37.013  1.00  0.00     0.000 C 
BRANCH   3   4
ATOM      4  C   UNL     1      20.404  65.891  37.976  1.00  0.00     0.000 C 
BRANCH   4   5
ATOM      5  C   UNL     1      20.125  65.644  39.470  1.00  0.00     0.000 C 
BRANCH   5   6
ATOM      6  C   UNL     1      20.283  66.901  40.353  1.00  0.00     0.000 C 
BRANCH   6   7
ATOM      7  C   UNL     1      19.806  68.177  39.638  1.00  0.00     0.000 C 
BRANCH   7   8
ATOM      8  C   UNL     1      18.304  68.441  39.830  1.00  0.00     0.000 C 
BRANCH   8   9
ATOM      9  C   UNL     1      17.494  68.236  38.536  1.00  0.00     0.000 C 
BRANCH   9  10
ATOM     10  C   UNL     1      18.261  68.673  37.275  1.00  0.00     0.006 C 
BRANCH  10  11
ATOM     11  C   UNL     1      17.697  68.104  35.962  1.00  0.00     0.053 C 
BRANCH  11  12
ATOM     12  C   UNL     1      17.241  69.181  35.027  1.00  0.00     0.041 C 
ATOM     13  O   UNL     1      16.322  68.953  34.197  1.00  0.00    -0.550 OA
ATOM     14  O   UNL     1      17.849  70.431  35.057  1.00  0.00    -0.550 OA
ENDBRANCH  11  12
ENDBRANCH  10  11
ENDBRANCH   9  10
ENDBRANCH   8   9
ENDBRANCH   7   8
ENDBRANCH   6   7
ENDBRANCH   5   6
ENDBRANCH   4   5
ENDBRANCH   3   4
ENDBRANCH   2   3
ENDBRANCH   1   2
BRANCH   1  15
ATOM     15  C   UNL     1      18.342  63.115  35.457  1.00  0.00     0.000 C 
BRANCH  15  16
ATOM     16  C   UNL     1      17.441  63.096  34.208  1.00  0.00     0.000 C 
BRANCH  16  17
ATOM     17  C   UNL     1      17.454  64.427  33.431  1.00  0.00     0.000 C 
BRANCH  17  18
ATOM     18  C   UNL     1      16.345  65.382  33.908  1.00  0.00    -0.000 C 
BRANCH  18  19
ATOM     19  C   UNL     1      15.257  65.605  32.843  1.00  0.00    -0.000 C 
BRANCH  19  20
ATOM     20  C   UNL     1      15.206  64.510  31.753  1.00  0.00    -0.000 C 
BRANCH  20  21
ATOM     21  C   UNL     1      14.095  63.466  31.977  1.00  0.00    -0.000 C 
BRANCH  21  22
ATOM     22  C   UNL     1      12.710  64.056  32.303  1.00  0.00    -0.000 C 
BRANCH  22  23
ATOM     23  C   UNL     1      11.793  63.144  33.146  1.00  0.00    -0.000 C 
BRANCH  23  24
ATOM     24  C   UNL     1      12.485  61.909  33.761  1.00  0.00    -0.000 C 
BRANCH  24  25
ATOM     25  C   UNL     1      11.886  60.556  33.338  1.00  0.00    -0.003 C 
ATOM     26  C   UNL     1      11.112  60.634  32.022  1.00  0.00     0.004 C 
ENDBRANCH  24  25
ENDBRANCH  23  24
ENDBRANCH  22  23
ENDBRANCH  21  22
ENDBRANCH  20  21
ENDBRANCH  19  20
ENDBRANCH  18  19
ENDBRANCH  17  18
ENDBRANCH  16  17
ENDBRANCH  15  16
ENDBRANCH   1  15
TORSDOF 22
ENDMDL
