MODEL 1
REMARK VINA RESULT:    -4.515      0.000      0.000
REMARK INTER + INTRA:         -15.611
REMARK INTER:                 -11.379
REMARK INTRA:                  -4.232
REMARK UNBOUND:                -4.232
REMARK SMILES CCCCCCCCCCCCCCCCCCCCCCCCCCCC(=O)[O-]
REMARK SMILES IDX 15 1 16 2 17 3 18 4 19 5 20 6 21 7 22 8 23 9 24 10 25 11
REMARK SMILES IDX 26 12 27 13 28 14 29 15 30 16 14 17 13 18 12 19 11 20 10 21
REMARK SMILES IDX 9 22 8 23 7 24 6 25 5 26 4 27 3 28 2 29 1 30
REMARK H PARENT
REMARK Flexibility Score: inf
ROOT
ATOM      1  C   UNL     1      10.271  19.042  32.206  1.00  0.00     0.000 C 
ENDROOT
BRANCH   1   2
ATOM      2  C   UNL     1      10.642  17.573  32.486  1.00  0.00     0.000 C 
BRANCH   2   3
ATOM      3  C   UNL     1      11.804  17.025  31.634  1.00  0.00     0.000 C 
BRANCH   3   4
ATOM      4  C   UNL     1      11.540  15.657  30.974  1.00  0.00     0.000 C 
BRANCH   4   5
ATOM      5  C   UNL     1      10.944  15.721  29.556  1.00  0.00     0.000 C 
BRANCH   5   6
ATOM      6  C   UNL     1      11.530  16.863  28.712  1.00  0.00     0.000 C 
BRANCH   6   7
ATOM      7  C   UNL     1      12.566  16.333  27.712  1.00  0.00     0.000 C 
BRANCH   7   8
ATOM      8  C   UNL     1      12.790  17.335  26.569  1.00  0.00     0.000 C 
BRANCH   8   9
ATOM      9  C   UNL     1      14.249  17.819  26.468  1.00  0.00     0.000 C 
BRANCH   9  10
ATOM     10  C   UNL     1      14.781  17.995  25.034  1.00  0.00     0.000 C 
BRANCH  10  11
ATOM     11  C   UNL     1      15.156  19.450  24.707  1.00  0.00     0.000 C 
BRANCH  11  12
ATOM     12  C   UNL     1      15.873  19.574  23.352  1.00  0.00     0.006 C 
BRANCH  12  13
ATOM     13  C   UNL     1      17.048  20.560  23.398  1.00  0.00     0.053 C 
BRANCH  13  14
ATOM     14  C   UNL     1      16.548  21.969  23.466  1.00  0.00     0.041 C 
ATOM     15  O   UNL     1      17.030  22.775  24.309  1.00  0.00    -0.550 OA
ATOM     16  O   UNL     1      15.568  22.401  22.579  1.00  0.00    -0.550 OA
ENDBRANCH  13  14
ENDBRANCH  12  13
ENDBRANCH  11  12
ENDBRANCH  10  11
ENDBRANCH   9  10
ENDBRANCH   8   9
ENDBRANCH   7   8
ENDBRANCH   6   7
ENDBRANCH   5   6
ENDBRANCH   4   5
ENDBRANCH   3   4
ENDBRANCH   2   3
ENDBRANCH   1   2
BRANCH   1  17
ATOM     17  C   UNL     1       9.302  19.255  31.025  1.00  0.00     0.000 C 
BRANCH  17  18
ATOM     18  C   UNL     1       9.100  20.723  30.608  1.00  0.00     0.000 C 
BRANCH  18  19
ATOM     19  C   UNL     1       9.669  21.717  31.630  1.00  0.00     0.000 C 
BRANCH  19  20
ATOM     20  C   UNL     1      10.871  22.479  31.051  1.00  0.00     0.000 C 
BRANCH  20  21
ATOM     21  C   UNL     1      12.195  22.111  31.742  1.00  0.00     0.000 C 
BRANCH  21  22
ATOM     22  C   UNL     1      13.269  21.634  30.752  1.00  0.00    -0.000 C 
BRANCH  22  23
ATOM     23  C   UNL     1      12.885  20.284  30.133  1.00  0.00    -0.000 C 
BRANCH  23  24
ATOM     24  C   UNL     1      12.975  20.337  28.603  1.00  0.00    -0.000 C 
BRANCH  24  25
ATOM     25  C   UNL     1      11.596  20.600  27.979  1.00  0.00    -0.000 C 
BRANCH  25  26
ATOM     26  C   UNL     1      11.512  21.959  27.259  1.00  0.00    -0.000 C 
BRANCH  26  27
ATOM     27  C   UNL     1      12.870  22.570  26.866  1.00  0.00    -0.000 C 
BRANCH  27  28
ATOM     28  C   UNL     1      13.045  22.712  25.343  1.00  0.00    -0.000 C 
BRANCH  28  29
ATOM     29  C   UNL     1      13.755  24.017  24.951  1.00  0.00    -0.003 C 
ATOM     30  C   UNL     1      14.481  24.668  26.128  1.00  0.00     0.004 C 
ENDBRANCH  28  29
ENDBRANCH  27  28
ENDBRANCH  26  27
ENDBRANCH  25  26
ENDBRANCH  24  25
ENDBRANCH  23  24
ENDBRANCH  22  23
ENDBRANCH  21  22
ENDBRANCH  20  21
ENDBRANCH  19  20
ENDBRANCH  18  19
ENDBRANCH  17  18
ENDBRANCH   1  17
TORSDOF 26
ENDMDL
MODEL 2
REMARK VINA RESULT:    -4.476      4.395      8.988
REMARK INTER + INTRA:         -15.512
REMARK INTER:                 -11.403
REMARK INTRA:                  -4.109
REMARK UNBOUND:                -4.232
REMARK SMILES CCCCCCCCCCCCCCCCCCCCCCCCCCCC(=O)[O-]
REMARK SMILES IDX 15 1 16 2 17 3 18 4 19 5 20 6 21 7 22 8 23 9 24 10 25 11
REMARK SMILES IDX 26 12 27 13 28 14 29 15 30 16 14 17 13 18 12 19 11 20 10 21
REMARK SMILES IDX 9 22 8 23 7 24 6 25 5 26 4 27 3 28 2 29 1 30
REMARK H PARENT
REMARK Flexibility Score: inf
ROOT
ATOM      1  C   UNL     1      14.534  24.044  25.399  1.00  0.00     0.000 C 
ENDROOT
BRANCH   1   2
ATOM      2  C   UNL     1      13.055  24.076  24.970  1.00  0.00     0.000 C 
BRANCH   2   3
ATOM      3  C   UNL     1      12.818  23.916  23.455  1.00  0.00     0.000 C 
BRANCH   3   4
ATOM      4  C   UNL     1      12.224  22.559  23.026  1.00  0.00     0.000 C 
BRANCH   4   5
ATOM      5  C   UNL     1      13.259  21.500  22.602  1.00  0.00     0.000 C 
BRANCH   5   6
ATOM      6  C   UNL     1      13.427  21.404  21.078  1.00  0.00     0.000 C 
BRANCH   6   7
ATOM      7  C   UNL     1      14.374  22.493  20.558  1.00  0.00     0.000 C 
BRANCH   7   8
ATOM      8  C   UNL     1      13.783  23.195  19.326  1.00  0.00     0.000 C 
BRANCH   8   9
ATOM      9  C   UNL     1      12.258  23.020  19.205  1.00  0.00     0.000 C 
BRANCH   9  10
ATOM     10  C   UNL     1      11.445  24.327  19.250  1.00  0.00     0.000 C 
BRANCH  10  11
ATOM     11  C   UNL     1      10.482  24.476  18.060  1.00  0.00     0.000 C 
BRANCH  11  12
ATOM     12  C   UNL     1       9.107  25.013  18.491  1.00  0.00     0.006 C 
BRANCH  12  13
ATOM     13  C   UNL     1       9.114  25.557  19.926  1.00  0.00     0.053 C 
BRANCH  13  14
ATOM     14  C   UNL     1       8.681  26.990  19.946  1.00  0.00     0.041 C 
ATOM     15  O   UNL     1       7.596  27.334  19.402  1.00  0.00    -0.550 OA
ATOM     16  O   UNL     1       9.463  27.942  20.591  1.00  0.00    -0.550 OA
ENDBRANCH  13  14
ENDBRANCH  12  13
ENDBRANCH  11  12
ENDBRANCH  10  11
ENDBRANCH   9  10
ENDBRANCH   8   9
ENDBRANCH   7   8
ENDBRANCH   6   7
ENDBRANCH   5   6
ENDBRANCH   4   5
ENDBRANCH   3   4
ENDBRANCH   2   3
ENDBRANCH   1   2
BRANCH   1  17
ATOM     17  C   UNL     1      15.547  24.309  24.267  1.00  0.00     0.000 C 
BRANCH  17  18
ATOM     18  C   UNL     1      16.741  23.339  24.223  1.00  0.00     0.000 C 
BRANCH  18  19
ATOM     19  C   UNL     1      16.352  21.936  23.738  1.00  0.00     0.000 C 
BRANCH  19  20
ATOM     20  C   UNL     1      17.559  21.204  23.132  1.00  0.00     0.000 C 
BRANCH  20  21
ATOM     21  C   UNL     1      17.213  20.470  21.826  1.00  0.00     0.000 C 
BRANCH  21  22
ATOM     22  C   UNL     1      17.007  18.961  22.030  1.00  0.00    -0.000 C 
BRANCH  22  23
ATOM     23  C   UNL     1      15.526  18.585  21.896  1.00  0.00    -0.000 C 
BRANCH  23  24
ATOM     24  C   UNL     1      15.033  17.843  23.144  1.00  0.00    -0.000 C 
BRANCH  24  25
ATOM     25  C   UNL     1      15.050  18.764  24.374  1.00  0.00    -0.000 C 
BRANCH  25  26
ATOM     26  C   UNL     1      14.650  18.038  25.673  1.00  0.00    -0.000 C 
BRANCH  26  27
ATOM     27  C   UNL     1      13.640  18.795  26.555  1.00  0.00    -0.000 C 
BRANCH  27  28
ATOM     28  C   UNL     1      13.295  20.191  26.007  1.00  0.00    -0.000 C 
BRANCH  28  29
ATOM     29  C   UNL     1      12.309  20.951  26.909  1.00  0.00    -0.003 C 
ATOM     30  C   UNL     1      12.740  20.956  28.376  1.00  0.00     0.004 C 
ENDBRANCH  28  29
ENDBRANCH  27  28
ENDBRANCH  26  27
ENDBRANCH  25  26
ENDBRANCH  24  25
ENDBRANCH  23  24
ENDBRANCH  22  23
ENDBRANCH  21  22
ENDBRANCH  20  21
ENDBRANCH  19  20
ENDBRANCH  18  19
ENDBRANCH  17  18
ENDBRANCH   1  17
TORSDOF 26
ENDMDL
MODEL 3
REMARK VINA RESULT:    -4.434      6.343     10.543
REMARK INTER + INTRA:         -15.406
REMARK INTER:                 -11.890
REMARK INTRA:                  -3.516
REMARK UNBOUND:                -4.232
REMARK SMILES CCCCCCCCCCCCCCCCCCCCCCCCCCCC(=O)[O-]
REMARK SMILES IDX 15 1 16 2 17 3 18 4 19 5 20 6 21 7 22 8 23 9 24 10 25 11
REMARK SMILES IDX 26 12 27 13 28 14 29 15 30 16 14 17 13 18 12 19 11 20 10 21
REMARK SMILES IDX 9 22 8 23 7 24 6 25 5 26 4 27 3 28 2 29 1 30
REMARK H PARENT
REMARK Flexibility Score: inf
ROOT
ATOM      1  C   UNL     1      13.257  21.711  21.301  1.00  0.00     0.000 C 
ENDROOT
BRANCH   1   2
ATOM      2  C   UNL     1      14.297  22.333  20.349  1.00  0.00     0.000 C 
BRANCH   2   3
ATOM      3  C   UNL     1      13.709  23.247  19.256  1.00  0.00     0.000 C 
BRANCH   3   4
ATOM      4  C   UNL     1      12.339  23.867  19.591  1.00  0.00     0.000 C 
BRANCH   4   5
ATOM      5  C   UNL     1      11.168  23.368  18.724  1.00  0.00     0.000 C 
BRANCH   5   6
ATOM      6  C   UNL     1      10.103  24.447  18.479  1.00  0.00     0.000 C 
BRANCH   6   7
ATOM      7  C   UNL     1      10.088  24.884  17.009  1.00  0.00     0.000 C 
BRANCH   7   8
ATOM      8  C   UNL     1       8.742  25.525  16.637  1.00  0.00     0.000 C 
BRANCH   8   9
ATOM      9  C   UNL     1       7.932  24.687  15.631  1.00  0.00     0.000 C 
BRANCH   9  10
ATOM     10  C   UNL     1       8.721  23.566  14.930  1.00  0.00     0.000 C 
BRANCH  10  11
ATOM     11  C   UNL     1       8.275  22.158  15.360  1.00  0.00     0.000 C 
BRANCH  11  12
ATOM     12  C   UNL     1       9.437  21.334  15.940  1.00  0.00     0.006 C 
BRANCH  12  13
ATOM     13  C   UNL     1       9.277  19.830  15.676  1.00  0.00     0.053 C 
BRANCH  13  14
ATOM     14  C   UNL     1      10.547  19.103  15.995  1.00  0.00     0.041 C 
ATOM     15  O   UNL     1      10.515  17.893  16.347  1.00  0.00    -0.550 OA
ATOM     16  O   UNL     1      11.768  19.757  15.875  1.00  0.00    -0.550 OA
ENDBRANCH  13  14
ENDBRANCH  12  13
ENDBRANCH  11  12
ENDBRANCH  10  11
ENDBRANCH   9  10
ENDBRANCH   8   9
ENDBRANCH   7   8
ENDBRANCH   6   7
ENDBRANCH   5   6
ENDBRANCH   4   5
ENDBRANCH   3   4
ENDBRANCH   2   3
ENDBRANCH   1   2
BRANCH   1  17
ATOM     17  C   UNL     1      13.563  21.882  22.802  1.00  0.00     0.000 C 
BRANCH  17  18
ATOM     18  C   UNL     1      13.927  23.315  23.231  1.00  0.00     0.000 C 
BRANCH  18  19
ATOM     19  C   UNL     1      15.354  23.427  23.787  1.00  0.00     0.000 C 
BRANCH  19  20
ATOM     20  C   UNL     1      15.966  22.037  24.023  1.00  0.00     0.000 C 
BRANCH  20  21
ATOM     21  C   UNL     1      17.443  21.961  23.601  1.00  0.00     0.000 C 
BRANCH  21  22
ATOM     22  C   UNL     1      17.823  20.590  23.019  1.00  0.00    -0.000 C 
BRANCH  22  23
ATOM     23  C   UNL     1      17.038  20.302  21.733  1.00  0.00    -0.000 C 
BRANCH  23  24
ATOM     24  C   UNL     1      16.595  18.835  21.678  1.00  0.00    -0.000 C 
BRANCH  24  25
ATOM     25  C   UNL     1      15.131  18.685  22.118  1.00  0.00    -0.000 C 
BRANCH  25  26
ATOM     26  C   UNL     1      14.972  17.848  23.402  1.00  0.00    -0.000 C 
BRANCH  26  27
ATOM     27  C   UNL     1      15.123  18.640  24.714  1.00  0.00    -0.000 C 
BRANCH  27  28
ATOM     28  C   UNL     1      14.487  17.927  25.921  1.00  0.00    -0.000 C 
BRANCH  28  29
ATOM     29  C   UNL     1      13.738  18.895  26.850  1.00  0.00    -0.003 C 
ATOM     30  C   UNL     1      12.987  19.984  26.082  1.00  0.00     0.004 C 
ENDBRANCH  28  29
ENDBRANCH  27  28
ENDBRANCH  26  27
ENDBRANCH  25  26
ENDBRANCH  24  25
ENDBRANCH  23  24
ENDBRANCH  22  23
ENDBRANCH  21  22
ENDBRANCH  20  21
ENDBRANCH  19  20
ENDBRANCH  18  19
ENDBRANCH  17  18
ENDBRANCH   1  17
TORSDOF 26
ENDMDL
MODEL 4
REMARK VINA RESULT:    -4.399      8.537     12.610
REMARK INTER + INTRA:         -15.316
REMARK INTER:                 -11.037
REMARK INTRA:                  -4.279
REMARK UNBOUND:                -4.232
REMARK SMILES CCCCCCCCCCCCCCCCCCCCCCCCCCCC(=O)[O-]
REMARK SMILES IDX 15 1 16 2 17 3 18 4 19 5 20 6 21 7 22 8 23 9 24 10 25 11
REMARK SMILES IDX 26 12 27 13 28 14 29 15 30 16 14 17 13 18 12 19 11 20 10 21
REMARK SMILES IDX 9 22 8 23 7 24 6 25 5 26 4 27 3 28 2 29 1 30
REMARK H PARENT
REMARK Flexibility Score: inf
ROOT
ATOM      1  C   UNL     1       7.757  24.548  15.192  1.00  0.00     0.000 C 
ENDROOT
BRANCH   1   2
ATOM      2  C   UNL     1       9.296  24.494  15.258  1.00  0.00     0.000 C 
BRANCH   2   3
ATOM      3  C   UNL     1       9.901  24.917  16.611  1.00  0.00     0.000 C 
BRANCH   3   4
ATOM      4  C   UNL     1       9.292  24.223  17.845  1.00  0.00     0.000 C 
BRANCH   4   5
ATOM      5  C   UNL     1      10.231  24.110  19.060  1.00  0.00     0.000 C 
BRANCH   5   6
ATOM      6  C   UNL     1      10.604  22.658  19.394  1.00  0.00     0.000 C 
BRANCH   6   7
ATOM      7  C   UNL     1      12.050  22.351  18.982  1.00  0.00     0.000 C 
BRANCH   7   8
ATOM      8  C   UNL     1      12.976  23.534  19.300  1.00  0.00     0.000 C 
BRANCH   8   9
ATOM      9  C   UNL     1      14.442  23.113  19.514  1.00  0.00     0.000 C 
BRANCH   9  10
ATOM     10  C   UNL     1      14.652  21.973  20.528  1.00  0.00     0.000 C 
BRANCH  10  11
ATOM     11  C   UNL     1      14.397  22.408  21.981  1.00  0.00     0.000 C 
BRANCH  11  12
ATOM     12  C   UNL     1      15.632  22.201  22.874  1.00  0.00     0.006 C 
BRANCH  12  13
ATOM     13  C   UNL     1      16.540  21.072  22.365  1.00  0.00     0.053 C 
BRANCH  13  14
ATOM     14  C   UNL     1      16.142  19.764  22.973  1.00  0.00     0.041 C 
ATOM     15  O   UNL     1      15.943  19.675  24.216  1.00  0.00    -0.550 OA
ATOM     16  O   UNL     1      15.964  18.648  22.162  1.00  0.00    -0.550 OA
ENDBRANCH  13  14
ENDBRANCH  12  13
ENDBRANCH  11  12
ENDBRANCH  10  11
ENDBRANCH   9  10
ENDBRANCH   8   9
ENDBRANCH   7   8
ENDBRANCH   6   7
ENDBRANCH   5   6
ENDBRANCH   4   5
ENDBRANCH   3   4
ENDBRANCH   2   3
ENDBRANCH   1   2
BRANCH   1  17
ATOM     17  C   UNL     1       7.080  23.251  14.705  1.00  0.00     0.000 C 
BRANCH  17  18
ATOM     18  C   UNL     1       8.011  22.028  14.613  1.00  0.00     0.000 C 
BRANCH  18  19
ATOM     19  C   UNL     1       7.697  20.959  15.669  1.00  0.00     0.000 C 
BRANCH  19  20
ATOM     20  C   UNL     1       8.879  20.770  16.633  1.00  0.00     0.000 C 
BRANCH  20  21
ATOM     21  C   UNL     1      10.241  20.972  15.949  1.00  0.00     0.000 C 
BRANCH  21  22
ATOM     22  C   UNL     1      11.090  19.692  15.929  1.00  0.00    -0.000 C 
BRANCH  22  23
ATOM     23  C   UNL     1      11.321  19.163  17.351  1.00  0.00    -0.000 C 
BRANCH  23  24
ATOM     24  C   UNL     1      11.130  17.642  17.408  1.00  0.00    -0.000 C 
BRANCH  24  25
ATOM     25  C   UNL     1       9.651  17.279  17.604  1.00  0.00    -0.000 C 
BRANCH  25  26
ATOM     26  C   UNL     1       9.049  16.535  16.396  1.00  0.00    -0.000 C 
BRANCH  26  27
ATOM     27  C   UNL     1       7.967  17.316  15.628  1.00  0.00    -0.000 C 
BRANCH  27  28
ATOM     28  C   UNL     1       7.961  17.005  14.120  1.00  0.00    -0.000 C 
BRANCH  28  29
ATOM     29  C   UNL     1       8.737  18.049  13.301  1.00  0.00    -0.003 C 
ATOM     30  C   UNL     1      10.182  17.628  13.033  1.00  0.00     0.004 C 
ENDBRANCH  28  29
ENDBRANCH  27  28
ENDBRANCH  26  27
ENDBRANCH  25  26
ENDBRANCH  24  25
ENDBRANCH  23  24
ENDBRANCH  22  23
ENDBRANCH  21  22
ENDBRANCH  20  21
ENDBRANCH  19  20
ENDBRANCH  18  19
ENDBRANCH  17  18
ENDBRANCH   1  17
TORSDOF 26
ENDMDL
MODEL 5
REMARK VINA RESULT:    -4.396      4.016      8.387
REMARK INTER + INTRA:         -15.311
REMARK INTER:                 -11.861
REMARK INTRA:                  -3.450
REMARK UNBOUND:                -4.232
REMARK SMILES CCCCCCCCCCCCCCCCCCCCCCCCCCCC(=O)[O-]
REMARK SMILES IDX 15 1 16 2 17 3 18 4 19 5 20 6 21 7 22 8 23 9 24 10 25 11
REMARK SMILES IDX 26 12 27 13 28 14 29 15 30 16 14 17 13 18 12 19 11 20 10 21
REMARK SMILES IDX 9 22 8 23 7 24 6 25 5 26 4 27 3 28 2 29 1 30
REMARK H PARENT
REMARK Flexibility Score: inf
ROOT
ATOM      1  C   UNL     1      16.299  19.567  21.501  1.00  0.00     0.000 C 
ENDROOT
BRANCH   1   2
ATOM      2  C   UNL     1      15.952  18.067  21.567  1.00  0.00     0.000 C 
BRANCH   2   3
ATOM      3  C   UNL     1      15.082  17.657  22.772  1.00  0.00     0.000 C 
BRANCH   3   4
ATOM      4  C   UNL     1      14.043  18.706  23.214  1.00  0.00     0.000 C 
BRANCH   4   5
ATOM      5  C   UNL     1      14.322  19.364  24.579  1.00  0.00     0.000 C 
BRANCH   5   6
ATOM      6  C   UNL     1      15.086  18.443  25.542  1.00  0.00     0.000 C 
BRANCH   6   7
ATOM      7  C   UNL     1      14.137  17.811  26.569  1.00  0.00     0.000 C 
BRANCH   7   8
ATOM      8  C   UNL     1      13.341  18.889  27.320  1.00  0.00     0.000 C 
BRANCH   8   9
ATOM      9  C   UNL     1      12.110  18.328  28.055  1.00  0.00     0.000 C 
BRANCH   9  10
ATOM     10  C   UNL     1      11.592  19.196  29.216  1.00  0.00     0.000 C 
BRANCH  10  11
ATOM     11  C   UNL     1      12.669  20.127  29.797  1.00  0.00     0.000 C 
BRANCH  11  12
ATOM     12  C   UNL     1      12.230  21.602  29.782  1.00  0.00     0.006 C 
BRANCH  12  13
ATOM     13  C   UNL     1      11.342  21.936  28.576  1.00  0.00     0.053 C 
BRANCH  13  14
ATOM     14  C   UNL     1      12.039  22.894  27.660  1.00  0.00     0.041 C 
ATOM     15  O   UNL     1      13.298  22.904  27.589  1.00  0.00    -0.550 OA
ATOM     16  O   UNL     1      11.294  23.759  26.865  1.00  0.00    -0.550 OA
ENDBRANCH  13  14
ENDBRANCH  12  13
ENDBRANCH  11  12
ENDBRANCH  10  11
ENDBRANCH   9  10
ENDBRANCH   8   9
ENDBRANCH   7   8
ENDBRANCH   6   7
ENDBRANCH   5   6
ENDBRANCH   4   5
ENDBRANCH   3   4
ENDBRANCH   2   3
ENDBRANCH   1   2
BRANCH   1  17
ATOM     17  C   UNL     1      17.667  19.946  22.104  1.00  0.00     0.000 C 
BRANCH  17  18
ATOM     18  C   UNL     1      17.608  20.546  23.520  1.00  0.00     0.000 C 
BRANCH  18  19
ATOM     19  C   UNL     1      17.397  22.066  23.515  1.00  0.00     0.000 C 
BRANCH  19  20
ATOM     20  C   UNL     1      15.990  22.431  24.013  1.00  0.00     0.000 C 
BRANCH  20  21
ATOM     21  C   UNL     1      15.144  23.134  22.939  1.00  0.00     0.000 C 
BRANCH  21  22
ATOM     22  C   UNL     1      13.709  22.589  22.863  1.00  0.00    -0.000 C 
BRANCH  22  23
ATOM     23  C   UNL     1      13.414  22.007  21.475  1.00  0.00    -0.000 C 
BRANCH  23  24
ATOM     24  C   UNL     1      14.434  22.504  20.444  1.00  0.00    -0.000 C 
BRANCH  24  25
ATOM     25  C   UNL     1      13.740  23.266  19.305  1.00  0.00    -0.000 C 
BRANCH  25  26
ATOM     26  C   UNL     1      12.366  23.831  19.710  1.00  0.00    -0.000 C 
BRANCH  26  27
ATOM     27  C   UNL     1      11.180  23.317  18.872  1.00  0.00    -0.000 C 
BRANCH  27  28
ATOM     28  C   UNL     1      10.569  24.404  17.970  1.00  0.00    -0.000 C 
BRANCH  28  29
ATOM     29  C   UNL     1       9.521  23.840  16.996  1.00  0.00    -0.003 C 
ATOM     30  C   UNL     1       9.560  24.527  15.630  1.00  0.00     0.004 C 
ENDBRANCH  28  29
ENDBRANCH  27  28
ENDBRANCH  26  27
ENDBRANCH  25  26
ENDBRANCH  24  25
ENDBRANCH  23  24
ENDBRANCH  22  23
ENDBRANCH  21  22
ENDBRANCH  20  21
ENDBRANCH  19  20
ENDBRANCH  18  19
ENDBRANCH  17  18
ENDBRANCH   1  17
TORSDOF 26
ENDMDL
MODEL 6
REMARK VINA RESULT:    -4.373      3.996      7.422
REMARK INTER + INTRA:         -15.253
REMARK INTER:                 -10.549
REMARK INTRA:                  -4.704
REMARK UNBOUND:                -4.232
REMARK SMILES CCCCCCCCCCCCCCCCCCCCCCCCCCCC(=O)[O-]
REMARK SMILES IDX 15 1 16 2 17 3 18 4 19 5 20 6 21 7 22 8 23 9 24 10 25 11
REMARK SMILES IDX 26 12 27 13 28 14 29 15 30 16 14 17 13 18 12 19 11 20 10 21
REMARK SMILES IDX 9 22 8 23 7 24 6 25 5 26 4 27 3 28 2 29 1 30
REMARK H PARENT
REMARK Flexibility Score: inf
ROOT
ATOM      1  C   UNL     1      13.341  18.382  26.473  1.00  0.00     0.000 C 
ENDROOT
BRANCH   1   2
ATOM      2  C   UNL     1      14.825  18.058  26.210  1.00  0.00     0.000 C 
BRANCH   2   3
ATOM      3  C   UNL     1      15.365  18.554  24.854  1.00  0.00     0.000 C 
BRANCH   3   4
ATOM      4  C   UNL     1      14.611  18.024  23.618  1.00  0.00     0.000 C 
BRANCH   4   5
ATOM      5  C   UNL     1      15.403  18.081  22.298  1.00  0.00     0.000 C 
BRANCH   5   6
ATOM      6  C   UNL     1      16.389  19.257  22.243  1.00  0.00     0.000 C 
BRANCH   6   7
ATOM      7  C   UNL     1      15.765  20.468  21.538  1.00  0.00     0.000 C 
BRANCH   7   8
ATOM      8  C   UNL     1      15.745  21.695  22.462  1.00  0.00     0.000 C 
BRANCH   8   9
ATOM      9  C   UNL     1      16.980  21.780  23.378  1.00  0.00     0.000 C 
BRANCH   9  10
ATOM     10  C   UNL     1      17.017  23.004  24.312  1.00  0.00     0.000 C 
BRANCH  10  11
ATOM     11  C   UNL     1      15.986  24.080  23.931  1.00  0.00     0.000 C 
BRANCH  11  12
ATOM     12  C   UNL     1      15.126  24.509  25.132  1.00  0.00     0.006 C 
BRANCH  12  13
ATOM     13  C   UNL     1      13.713  24.941  24.716  1.00  0.00     0.053 C 
BRANCH  13  14
ATOM     14  C   UNL     1      12.936  25.412  25.906  1.00  0.00     0.041 C 
ATOM     15  O   UNL     1      12.653  26.634  26.037  1.00  0.00    -0.550 OA
ATOM     16  O   UNL     1      12.500  24.495  26.857  1.00  0.00    -0.550 OA
ENDBRANCH  13  14
ENDBRANCH  12  13
ENDBRANCH  11  12
ENDBRANCH  10  11
ENDBRANCH   9  10
ENDBRANCH   8   9
ENDBRANCH   7   8
ENDBRANCH   6   7
ENDBRANCH   5   6
ENDBRANCH   4   5
ENDBRANCH   3   4
ENDBRANCH   2   3
ENDBRANCH   1   2
BRANCH   1  17
ATOM     17  C   UNL     1      13.088  19.698  27.236  1.00  0.00     0.000 C 
BRANCH  17  18
ATOM     18  C   UNL     1      12.428  20.813  26.406  1.00  0.00     0.000 C 
BRANCH  18  19
ATOM     19  C   UNL     1      13.296  21.270  25.225  1.00  0.00     0.000 C 
BRANCH  19  20
ATOM     20  C   UNL     1      12.431  21.619  24.004  1.00  0.00     0.000 C 
BRANCH  20  21
ATOM     21  C   UNL     1      11.736  20.388  23.398  1.00  0.00     0.000 C 
BRANCH  21  22
ATOM     22  C   UNL     1      12.209  20.085  21.968  1.00  0.00    -0.000 C 
BRANCH  22  23
ATOM     23  C   UNL     1      11.402  20.887  20.940  1.00  0.00    -0.000 C 
BRANCH  23  24
ATOM     24  C   UNL     1      12.280  21.299  19.753  1.00  0.00    -0.000 C 
BRANCH  24  25
ATOM     25  C   UNL     1      13.135  22.527  20.100  1.00  0.00    -0.000 C 
BRANCH  25  26
ATOM     26  C   UNL     1      12.779  23.765  19.255  1.00  0.00    -0.000 C 
BRANCH  26  27
ATOM     27  C   UNL     1      11.362  24.323  19.488  1.00  0.00    -0.000 C 
BRANCH  27  28
ATOM     28  C   UNL     1      10.540  24.431  18.191  1.00  0.00    -0.000 C 
BRANCH  28  29
ATOM     29  C   UNL     1       9.497  23.310  18.060  1.00  0.00    -0.003 C 
ATOM     30  C   UNL     1       9.928  22.218  17.081  1.00  0.00     0.004 C 
ENDBRANCH  28  29
ENDBRANCH  27  28
ENDBRANCH  26  27
ENDBRANCH  25  26
ENDBRANCH  24  25
ENDBRANCH  23  24
ENDBRANCH  22  23
ENDBRANCH  21  22
ENDBRANCH  20  21
ENDBRANCH  19  20
ENDBRANCH  18  19
ENDBRANCH  17  18
ENDBRANCH   1  17
TORSDOF 26
ENDMDL
MODEL 7
REMARK VINA RESULT:    -4.343      2.076      6.131
REMARK INTER + INTRA:         -15.176
REMARK INTER:                 -10.058
REMARK INTRA:                  -5.118
REMARK UNBOUND:                -4.232
REMARK SMILES CCCCCCCCCCCCCCCCCCCCCCCCCCCC(=O)[O-]
REMARK SMILES IDX 15 1 16 2 17 3 18 4 19 5 20 6 21 7 22 8 23 9 24 10 25 11
REMARK SMILES IDX 26 12 27 13 28 14 29 15 30 16 14 17 13 18 12 19 11 20 10 21
REMARK SMILES IDX 9 22 8 23 7 24 6 25 5 26 4 27 3 28 2 29 1 30
REMARK H PARENT
REMARK Flexibility Score: inf
ROOT
ATOM      1  C   UNL     1      12.414  17.941  27.058  1.00  0.00     0.000 C 
ENDROOT
BRANCH   1   2
ATOM      2  C   UNL     1      12.211  16.524  27.627  1.00  0.00     0.000 C 
BRANCH   2   3
ATOM      3  C   UNL     1      11.340  16.455  28.897  1.00  0.00     0.000 C 
BRANCH   3   4
ATOM      4  C   UNL     1      11.691  17.489  29.986  1.00  0.00     0.000 C 
BRANCH   4   5
ATOM      5  C   UNL     1      10.572  18.496  30.312  1.00  0.00     0.000 C 
BRANCH   5   6
ATOM      6  C   UNL     1      11.083  19.939  30.433  1.00  0.00     0.000 C 
BRANCH   6   7
ATOM      7  C   UNL     1      12.575  20.026  30.087  1.00  0.00     0.000 C 
BRANCH   7   8
ATOM      8  C   UNL     1      12.848  21.181  29.111  1.00  0.00     0.000 C 
BRANCH   8   9
ATOM      9  C   UNL     1      11.667  21.465  28.165  1.00  0.00     0.000 C 
BRANCH   9  10
ATOM     10  C   UNL     1      12.048  21.671  26.688  1.00  0.00     0.000 C 
BRANCH  10  11
ATOM     11  C   UNL     1      10.974  22.431  25.892  1.00  0.00     0.000 C 
BRANCH  11  12
ATOM     12  C   UNL     1      11.466  23.812  25.426  1.00  0.00     0.006 C 
BRANCH  12  13
ATOM     13  C   UNL     1      12.019  24.657  26.582  1.00  0.00     0.053 C 
BRANCH  13  14
ATOM     14  C   UNL     1      13.419  25.099  26.287  1.00  0.00     0.041 C 
ATOM     15  O   UNL     1      13.659  25.821  25.281  1.00  0.00    -0.550 OA
ATOM     16  O   UNL     1      14.455  24.733  27.139  1.00  0.00    -0.550 OA
ENDBRANCH  13  14
ENDBRANCH  12  13
ENDBRANCH  11  12
ENDBRANCH  10  11
ENDBRANCH   9  10
ENDBRANCH   8   9
ENDBRANCH   7   8
ENDBRANCH   6   7
ENDBRANCH   5   6
ENDBRANCH   4   5
ENDBRANCH   3   4
ENDBRANCH   2   3
ENDBRANCH   1   2
BRANCH   1  17
ATOM     17  C   UNL     1      13.886  18.362  26.868  1.00  0.00     0.000 C 
BRANCH  17  18
ATOM     18  C   UNL     1      14.192  19.067  25.535  1.00  0.00     0.000 C 
BRANCH  18  19
ATOM     19  C   UNL     1      14.384  18.085  24.371  1.00  0.00     0.000 C 
BRANCH  19  20
ATOM     20  C   UNL     1      13.645  18.566  23.113  1.00  0.00     0.000 C 
BRANCH  20  21
ATOM     21  C   UNL     1      14.503  18.454  21.842  1.00  0.00     0.000 C 
BRANCH  21  22
ATOM     22  C   UNL     1      16.009  18.542  22.133  1.00  0.00    -0.000 C 
BRANCH  22  23
ATOM     23  C   UNL     1      16.507  19.989  22.024  1.00  0.00    -0.000 C 
BRANCH  23  24
ATOM     24  C   UNL     1      16.951  20.521  23.392  1.00  0.00    -0.000 C 
BRANCH  24  25
ATOM     25  C   UNL     1      16.612  22.012  23.540  1.00  0.00    -0.000 C 
BRANCH  25  26
ATOM     26  C   UNL     1      15.193  22.254  24.089  1.00  0.00    -0.000 C 
BRANCH  26  27
ATOM     27  C   UNL     1      14.235  22.970  23.119  1.00  0.00    -0.000 C 
BRANCH  27  28
ATOM     28  C   UNL     1      13.114  22.053  22.598  1.00  0.00    -0.000 C 
BRANCH  28  29
ATOM     29  C   UNL     1      13.205  21.813  21.083  1.00  0.00    -0.003 C 
ATOM     30  C   UNL     1      14.385  22.545  20.443  1.00  0.00     0.004 C 
ENDBRANCH  28  29
ENDBRANCH  27  28
ENDBRANCH  26  27
ENDBRANCH  25  26
ENDBRANCH  24  25
ENDBRANCH  23  24
ENDBRANCH  22  23
ENDBRANCH  21  22
ENDBRANCH  20  21
ENDBRANCH  19  20
ENDBRANCH  18  19
ENDBRANCH  17  18
ENDBRANCH   1  17
TORSDOF 26
ENDMDL
MODEL 8
REMARK VINA RESULT:    -4.316      6.333     10.350
REMARK INTER + INTRA:         -15.108
REMARK INTER:                 -11.078
REMARK INTRA:                  -4.030
REMARK UNBOUND:                -4.232
REMARK SMILES CCCCCCCCCCCCCCCCCCCCCCCCCCCC(=O)[O-]
REMARK SMILES IDX 15 1 16 2 17 3 18 4 19 5 20 6 21 7 22 8 23 9 24 10 25 11
REMARK SMILES IDX 26 12 27 13 28 14 29 15 30 16 14 17 13 18 12 19 11 20 10 21
REMARK SMILES IDX 9 22 8 23 7 24 6 25 5 26 4 27 3 28 2 29 1 30
REMARK H PARENT
REMARK Flexibility Score: inf
ROOT
ATOM      1  C   UNL     1      12.179  23.342  19.526  1.00  0.00     0.000 C 
ENDROOT
BRANCH   1   2
ATOM      2  C   UNL     1      13.639  22.927  19.259  1.00  0.00     0.000 C 
BRANCH   2   3
ATOM      3  C   UNL     1      14.457  22.594  20.522  1.00  0.00     0.000 C 
BRANCH   3   4
ATOM      4  C   UNL     1      13.624  22.175  21.749  1.00  0.00     0.000 C 
BRANCH   4   5
ATOM      5  C   UNL     1      13.766  20.698  22.160  1.00  0.00     0.000 C 
BRANCH   5   6
ATOM      6  C   UNL     1      14.977  20.011  21.511  1.00  0.00     0.000 C 
BRANCH   6   7
ATOM      7  C   UNL     1      15.810  19.258  22.557  1.00  0.00     0.000 C 
BRANCH   7   8
ATOM      8  C   UNL     1      16.231  20.192  23.702  1.00  0.00     0.000 C 
BRANCH   8   9
ATOM      9  C   UNL     1      17.446  21.070  23.349  1.00  0.00     0.000 C 
BRANCH   9  10
ATOM     10  C   UNL     1      17.315  22.553  23.742  1.00  0.00     0.000 C 
BRANCH  10  11
ATOM     11  C   UNL     1      15.936  22.899  24.329  1.00  0.00     0.000 C 
BRANCH  11  12
ATOM     12  C   UNL     1      15.701  24.417  24.400  1.00  0.00     0.006 C 
BRANCH  12  13
ATOM     13  C   UNL     1      14.219  24.773  24.585  1.00  0.00     0.053 C 
BRANCH  13  14
ATOM     14  C   UNL     1      14.013  25.512  25.871  1.00  0.00     0.041 C 
ATOM     15  O   UNL     1      14.252  24.948  26.974  1.00  0.00    -0.550 OA
ATOM     16  O   UNL     1      13.584  26.834  25.849  1.00  0.00    -0.550 OA
ENDBRANCH  13  14
ENDBRANCH  12  13
ENDBRANCH  11  12
ENDBRANCH  10  11
ENDBRANCH   9  10
ENDBRANCH   8   9
ENDBRANCH   7   8
ENDBRANCH   6   7
ENDBRANCH   5   6
ENDBRANCH   4   5
ENDBRANCH   3   4
ENDBRANCH   2   3
ENDBRANCH   1   2
BRANCH   1  17
ATOM     17  C   UNL     1      11.116  22.344  19.022  1.00  0.00     0.000 C 
BRANCH  17  18
ATOM     18  C   UNL     1      10.209  22.875  17.897  1.00  0.00     0.000 C 
BRANCH  18  19
ATOM     19  C   UNL     1      10.247  24.404  17.772  1.00  0.00     0.000 C 
BRANCH  19  20
ATOM     20  C   UNL     1       9.850  24.854  16.358  1.00  0.00     0.000 C 
BRANCH  20  21
ATOM     21  C   UNL     1       8.380  25.294  16.266  1.00  0.00     0.000 C 
BRANCH  21  22
ATOM     22  C   UNL     1       8.014  26.362  17.308  1.00  0.00    -0.000 C 
BRANCH  22  23
ATOM     23  C   UNL     1       6.850  25.894  18.190  1.00  0.00    -0.000 C 
BRANCH  23  24
ATOM     24  C   UNL     1       6.280  27.058  19.010  1.00  0.00    -0.000 C 
BRANCH  24  25
ATOM     25  C   UNL     1       7.390  28.039  19.420  1.00  0.00    -0.000 C 
BRANCH  25  26
ATOM     26  C   UNL     1       8.020  27.697  20.783  1.00  0.00    -0.000 C 
BRANCH  26  27
ATOM     27  C   UNL     1       9.493  27.252  20.724  1.00  0.00    -0.000 C 
BRANCH  27  28
ATOM     28  C   UNL     1       9.673  25.743  20.963  1.00  0.00    -0.000 C 
BRANCH  28  29
ATOM     29  C   UNL     1       8.396  25.074  21.496  1.00  0.00    -0.003 C 
ATOM     30  C   UNL     1       8.189  23.669  20.930  1.00  0.00     0.004 C 
ENDBRANCH  28  29
ENDBRANCH  27  28
ENDBRANCH  26  27
ENDBRANCH  25  26
ENDBRANCH  24  25
ENDBRANCH  23  24
ENDBRANCH  22  23
ENDBRANCH  21  22
ENDBRANCH  20  21
ENDBRANCH  19  20
ENDBRANCH  18  19
ENDBRANCH  17  18
ENDBRANCH   1  17
TORSDOF 26
ENDMDL
MODEL 9
REMARK VINA RESULT:    -4.287      2.456      6.201
REMARK INTER + INTRA:         -15.034
REMARK INTER:                 -11.736
REMARK INTRA:                  -3.299
REMARK UNBOUND:                -4.232
REMARK SMILES CCCCCCCCCCCCCCCCCCCCCCCCCCCC(=O)[O-]
REMARK SMILES IDX 15 1 16 2 17 3 18 4 19 5 20 6 21 7 22 8 23 9 24 10 25 11
REMARK SMILES IDX 26 12 27 13 28 14 29 15 30 16 14 17 13 18 12 19 11 20 10 21
REMARK SMILES IDX 9 22 8 23 7 24 6 25 5 26 4 27 3 28 2 29 1 30
REMARK H PARENT
REMARK Flexibility Score: inf
ROOT
ATOM      1  C   UNL     1      11.694  17.776  28.928  1.00  0.00     0.000 C 
ENDROOT
BRANCH   1   2
ATOM      2  C   UNL     1      11.660  16.249  29.136  1.00  0.00     0.000 C 
BRANCH   2   3
ATOM      3  C   UNL     1      11.786  15.793  30.603  1.00  0.00     0.000 C 
BRANCH   3   4
ATOM      4  C   UNL     1      11.755  16.928  31.645  1.00  0.00     0.000 C 
BRANCH   4   5
ATOM      5  C   UNL     1      10.714  16.755  32.766  1.00  0.00     0.000 C 
BRANCH   5   6
ATOM      6  C   UNL     1       9.800  17.979  32.929  1.00  0.00     0.000 C 
BRANCH   6   7
ATOM      7  C   UNL     1       8.935  18.191  31.679  1.00  0.00     0.000 C 
BRANCH   7   8
ATOM      8  C   UNL     1       9.064  19.630  31.158  1.00  0.00     0.000 C 
BRANCH   8   9
ATOM      9  C   UNL     1      10.336  20.341  31.657  1.00  0.00     0.000 C 
BRANCH   9  10
ATOM     10  C   UNL     1      11.070  21.184  30.598  1.00  0.00     0.000 C 
BRANCH  10  11
ATOM     11  C   UNL     1      12.594  20.977  30.618  1.00  0.00     0.000 C 
BRANCH  11  12
ATOM     12  C   UNL     1      13.261  21.456  29.317  1.00  0.00     0.006 C 
BRANCH  12  13
ATOM     13  C   UNL     1      12.238  21.911  28.267  1.00  0.00     0.053 C 
BRANCH  13  14
ATOM     14  C   UNL     1      12.931  22.513  27.084  1.00  0.00     0.041 C 
ATOM     15  O   UNL     1      12.920  21.919  25.971  1.00  0.00    -0.550 OA
ATOM     16  O   UNL     1      13.567  23.744  27.205  1.00  0.00    -0.550 OA
ENDBRANCH  13  14
ENDBRANCH  12  13
ENDBRANCH  11  12
ENDBRANCH  10  11
ENDBRANCH   9  10
ENDBRANCH   8   9
ENDBRANCH   7   8
ENDBRANCH   6   7
ENDBRANCH   5   6
ENDBRANCH   4   5
ENDBRANCH   3   4
ENDBRANCH   2   3
ENDBRANCH   1   2
BRANCH   1  17
ATOM     17  C   UNL     1      12.397  18.242  27.637  1.00  0.00     0.000 C 
BRANCH  17  18
ATOM     18  C   UNL     1      13.325  17.198  26.990  1.00  0.00     0.000 C 
BRANCH  18  19
ATOM     19  C   UNL     1      14.635  17.805  26.470  1.00  0.00     0.000 C 
BRANCH  19  20
ATOM     20  C   UNL     1      14.380  18.716  25.259  1.00  0.00     0.000 C 
BRANCH  20  21
ATOM     21  C   UNL     1      14.660  18.014  23.920  1.00  0.00     0.000 C 
BRANCH  21  22
ATOM     22  C   UNL     1      15.498  18.877  22.962  1.00  0.00    -0.000 C 
BRANCH  22  23
ATOM     23  C   UNL     1      16.347  19.892  23.737  1.00  0.00    -0.000 C 
BRANCH  23  24
ATOM     24  C   UNL     1      16.099  21.317  23.228  1.00  0.00    -0.000 C 
BRANCH  24  25
ATOM     25  C   UNL     1      15.767  21.316  21.728  1.00  0.00    -0.000 C 
BRANCH  25  26
ATOM     26  C   UNL     1      14.466  22.073  21.400  1.00  0.00    -0.000 C 
BRANCH  26  27
ATOM     27  C   UNL     1      13.277  21.178  21.002  1.00  0.00    -0.000 C 
BRANCH  27  28
ATOM     28  C   UNL     1      12.644  21.585  19.659  1.00  0.00    -0.000 C 
BRANCH  28  29
ATOM     29  C   UNL     1      13.061  22.995  19.215  1.00  0.00    -0.003 C 
ATOM     30  C   UNL     1      11.954  24.029  19.428  1.00  0.00     0.004 C 
ENDBRANCH  28  29
ENDBRANCH  27  28
ENDBRANCH  26  27
ENDBRANCH  25  26
ENDBRANCH  24  25
ENDBRANCH  23  24
ENDBRANCH  22  23
ENDBRANCH  21  22
ENDBRANCH  20  21
ENDBRANCH  19  20
ENDBRANCH  18  19
ENDBRANCH  17  18
ENDBRANCH   1  17
TORSDOF 26
ENDMDL
