MODEL 1
REMARK VINA RESULT:    -1.253      0.000      0.000
REMARK INTER + INTRA:          -3.410
REMARK INTER:                  -2.426
REMARK INTRA:                  -0.985
REMARK UNBOUND:                -0.985
REMARK SMILES CCCCCCCCCCCCCCCCCC(=O)[O-]
REMARK SMILES IDX 10 1 11 2 12 3 13 4 14 5 15 6 16 7 17 8 18 9 19 10 20 11
REMARK SMILES IDX 9 12 8 13 7 14 6 15 5 16 4 17 3 18 2 19 1 20
REMARK H PARENT
REMARK Flexibility Score: inf
ROOT
ATOM      1  C   UNL     1      -6.017 -22.015  17.645  1.00  0.00     0.000 C 
ENDROOT
BRANCH   1   2
ATOM      2  C   UNL     1      -7.086 -23.011  18.123  1.00  0.00     0.000 C 
BRANCH   2   3
ATOM      3  C   UNL     1      -8.515 -22.463  17.958  1.00  0.00     0.000 C 
BRANCH   3   4
ATOM      4  C   UNL     1      -9.514 -23.122  18.923  1.00  0.00     0.000 C 
BRANCH   4   5
ATOM      5  C   UNL     1      -9.080 -23.005  20.393  1.00  0.00     0.000 C 
BRANCH   5   6
ATOM      6  C   UNL     1     -10.292 -23.079  21.329  1.00  0.00     0.000 C 
BRANCH   6   7
ATOM      7  C   UNL     1      -9.863 -22.934  22.797  1.00  0.00     0.006 C 
BRANCH   7   8
ATOM      8  C   UNL     1      -8.740 -21.904  22.976  1.00  0.00     0.053 C 
BRANCH   8   9
ATOM      9  C   UNL     1      -9.238 -20.502  22.806  1.00  0.00     0.041 C 
ATOM     10  O   UNL     1      -8.479 -19.526  23.047  1.00  0.00    -0.550 OA
ATOM     11  O   UNL     1     -10.527 -20.272  22.344  1.00  0.00    -0.550 OA
ENDBRANCH   8   9
ENDBRANCH   7   8
ENDBRANCH   6   7
ENDBRANCH   5   6
ENDBRANCH   4   5
ENDBRANCH   3   4
ENDBRANCH   2   3
ENDBRANCH   1   2
BRANCH   1  12
ATOM     12  C   UNL     1      -5.728 -22.138  16.139  1.00  0.00     0.000 C 
BRANCH  12  13
ATOM     13  C   UNL     1      -5.697 -20.776  15.425  1.00  0.00    -0.000 C 
BRANCH  13  14
ATOM     14  C   UNL     1      -6.878 -20.562  14.454  1.00  0.00    -0.000 C 
BRANCH  14  15
ATOM     15  C   UNL     1      -8.238 -20.819  15.126  1.00  0.00    -0.000 C 
BRANCH  15  16
ATOM     16  C   UNL     1      -9.382 -21.006  14.104  1.00  0.00    -0.000 C 
BRANCH  16  17
ATOM     17  C   UNL     1     -10.745 -20.495  14.602  1.00  0.00    -0.000 C 
BRANCH  17  18
ATOM     18  C   UNL     1     -11.028 -20.773  16.090  1.00  0.00    -0.000 C 
BRANCH  18  19
ATOM     19  C   UNL     1     -11.030 -19.502  16.968  1.00  0.00    -0.003 C 
ATOM     20  C   UNL     1     -10.947 -19.811  18.462  1.00  0.00     0.004 C 
ENDBRANCH  18  19
ENDBRANCH  17  18
ENDBRANCH  16  17
ENDBRANCH  15  16
ENDBRANCH  14  15
ENDBRANCH  13  14
ENDBRANCH  12  13
ENDBRANCH   1  12
TORSDOF 16
ENDMDL
MODEL 2
REMARK VINA RESULT:    -0.748      1.298      5.202
REMARK INTER + INTRA:          -2.432
REMARK INTER:                  -2.718
REMARK INTRA:                   0.286
REMARK UNBOUND:                -0.985
REMARK SMILES CCCCCCCCCCCCCCCCCC(=O)[O-]
REMARK SMILES IDX 10 1 11 2 12 3 13 4 14 5 15 6 16 7 17 8 18 9 19 10 20 11
REMARK SMILES IDX 9 12 8 13 7 14 6 15 5 16 4 17 3 18 2 19 1 20
REMARK H PARENT
REMARK Flexibility Score: inf
ROOT
ATOM      1  C   UNL     1      -5.672 -20.964  15.572  1.00  0.00     0.000 C 
ENDROOT
BRANCH   1   2
ATOM      2  C   UNL     1      -6.880 -20.180  15.040  1.00  0.00     0.000 C 
BRANCH   2   3
ATOM      3  C   UNL     1      -8.220 -20.832  15.424  1.00  0.00     0.000 C 
BRANCH   3   4
ATOM      4  C   UNL     1      -9.231 -20.833  14.265  1.00  0.00     0.000 C 
BRANCH   4   5
ATOM      5  C   UNL     1     -10.687 -20.761  14.752  1.00  0.00     0.000 C 
BRANCH   5   6
ATOM      6  C   UNL     1     -10.820 -19.807  15.944  1.00  0.00     0.000 C 
BRANCH   6   7
ATOM      7  C   UNL     1     -11.110 -20.580  17.239  1.00  0.00     0.006 C 
BRANCH   7   8
ATOM      8  C   UNL     1     -11.125 -19.666  18.472  1.00  0.00     0.053 C 
BRANCH   8   9
ATOM      9  C   UNL     1     -10.593 -20.361  19.687  1.00  0.00     0.041 C 
ATOM     10  O   UNL     1     -10.116 -19.693  20.641  1.00  0.00    -0.550 OA
ATOM     11  O   UNL     1     -10.661 -21.744  19.783  1.00  0.00    -0.550 OA
ENDBRANCH   8   9
ENDBRANCH   7   8
ENDBRANCH   6   7
ENDBRANCH   5   6
ENDBRANCH   4   5
ENDBRANCH   3   4
ENDBRANCH   2   3
ENDBRANCH   1   2
BRANCH   1  12
ATOM     12  C   UNL     1      -6.015 -22.427  15.899  1.00  0.00     0.000 C 
BRANCH  12  13
ATOM     13  C   UNL     1      -7.187 -22.558  16.887  1.00  0.00    -0.000 C 
BRANCH  13  14
ATOM     14  C   UNL     1      -6.762 -23.049  18.287  1.00  0.00    -0.000 C 
BRANCH  14  15
ATOM     15  C   UNL     1      -7.900 -22.933  19.315  1.00  0.00    -0.000 C 
BRANCH  15  16
ATOM     16  C   UNL     1      -7.403 -22.477  20.706  1.00  0.00    -0.000 C 
BRANCH  16  17
ATOM     17  C   UNL     1      -8.164 -23.124  21.876  1.00  0.00    -0.000 C 
BRANCH  17  18
ATOM     18  C   UNL     1      -8.699 -22.128  22.921  1.00  0.00    -0.000 C 
BRANCH  18  19
ATOM     19  C   UNL     1     -10.040 -22.556  23.557  1.00  0.00    -0.003 C 
ATOM     20  C   UNL     1     -11.020 -21.395  23.719  1.00  0.00     0.004 C 
ENDBRANCH  18  19
ENDBRANCH  17  18
ENDBRANCH  16  17
ENDBRANCH  15  16
ENDBRANCH  14  15
ENDBRANCH  13  14
ENDBRANCH  12  13
ENDBRANCH   1  12
TORSDOF 16
ENDMDL
MODEL 3
REMARK VINA RESULT:    -0.524      1.208      2.527
REMARK INTER + INTRA:          -1.999
REMARK INTER:                  -2.077
REMARK INTRA:                   0.077
REMARK UNBOUND:                -0.985
REMARK SMILES CCCCCCCCCCCCCCCCCC(=O)[O-]
REMARK SMILES IDX 10 1 11 2 12 3 13 4 14 5 15 6 16 7 17 8 18 9 19 10 20 11
REMARK SMILES IDX 9 12 8 13 7 14 6 15 5 16 4 17 3 18 2 19 1 20
REMARK H PARENT
REMARK Flexibility Score: inf
ROOT
ATOM      1  C   UNL     1      -6.210 -20.715  15.402  1.00  0.00     0.000 C 
ENDROOT
BRANCH   1   2
ATOM      2  C   UNL     1      -6.324 -22.089  16.081  1.00  0.00     0.000 C 
BRANCH   2   3
ATOM      3  C   UNL     1      -7.626 -22.239  16.888  1.00  0.00     0.000 C 
BRANCH   3   4
ATOM      4  C   UNL     1      -7.444 -23.104  18.146  1.00  0.00     0.000 C 
BRANCH   4   5
ATOM      5  C   UNL     1      -6.377 -22.543  19.099  1.00  0.00     0.000 C 
BRANCH   5   6
ATOM      6  C   UNL     1      -6.540 -23.125  20.508  1.00  0.00     0.000 C 
BRANCH   6   7
ATOM      7  C   UNL     1      -7.990 -22.990  20.995  1.00  0.00     0.006 C 
BRANCH   7   8
ATOM      8  C   UNL     1      -8.073 -22.512  22.451  1.00  0.00     0.053 C 
BRANCH   8   9
ATOM      9  C   UNL     1      -9.170 -21.511  22.646  1.00  0.00     0.041 C 
ATOM     10  O   UNL     1     -10.370 -21.888  22.699  1.00  0.00    -0.550 OA
ATOM     11  O   UNL     1      -8.864 -20.167  22.811  1.00  0.00    -0.550 OA
ENDBRANCH   8   9
ENDBRANCH   7   8
ENDBRANCH   6   7
ENDBRANCH   5   6
ENDBRANCH   4   5
ENDBRANCH   3   4
ENDBRANCH   2   3
ENDBRANCH   1   2
BRANCH   1  12
ATOM     12  C   UNL     1      -7.442 -20.375  14.548  1.00  0.00     0.000 C 
BRANCH  12  13
ATOM     13  C   UNL     1      -8.603 -21.364  14.755  1.00  0.00    -0.000 C 
BRANCH  13  14
ATOM     14  C   UNL     1      -9.816 -21.090  13.841  1.00  0.00    -0.000 C 
BRANCH  14  15
ATOM     15  C   UNL     1     -11.027 -20.557  14.626  1.00  0.00    -0.000 C 
BRANCH  15  16
ATOM     16  C   UNL     1     -10.619 -19.633  15.796  1.00  0.00    -0.000 C 
BRANCH  16  17
ATOM     17  C   UNL     1     -11.124 -20.115  17.168  1.00  0.00    -0.000 C 
BRANCH  17  18
ATOM     18  C   UNL     1     -10.087 -20.898  17.993  1.00  0.00    -0.000 C 
BRANCH  18  19
ATOM     19  C   UNL     1     -10.121 -20.573  19.502  1.00  0.00    -0.003 C 
ATOM     20  C   UNL     1     -10.864 -19.275  19.814  1.00  0.00     0.004 C 
ENDBRANCH  18  19
ENDBRANCH  17  18
ENDBRANCH  16  17
ENDBRANCH  15  16
ENDBRANCH  14  15
ENDBRANCH  13  14
ENDBRANCH  12  13
ENDBRANCH   1  12
TORSDOF 16
ENDMDL
MODEL 4
REMARK VINA RESULT:     0.062      1.479      2.257
REMARK INTER + INTRA:          -0.864
REMARK INTER:                  -1.674
REMARK INTRA:                   0.810
REMARK UNBOUND:                -0.985
REMARK SMILES CCCCCCCCCCCCCCCCCC(=O)[O-]
REMARK SMILES IDX 10 1 11 2 12 3 13 4 14 5 15 6 16 7 17 8 18 9 19 10 20 11
REMARK SMILES IDX 9 12 8 13 7 14 6 15 5 16 4 17 3 18 2 19 1 20
REMARK H PARENT
REMARK Flexibility Score: inf
ROOT
ATOM      1  C   UNL     1      -5.507 -22.891  18.092  1.00  0.00     0.000 C 
ENDROOT
BRANCH   1   2
ATOM      2  C   UNL     1      -6.885 -23.093  18.738  1.00  0.00     0.000 C 
BRANCH   2   3
ATOM      3  C   UNL     1      -7.751 -21.822  18.687  1.00  0.00     0.000 C 
BRANCH   3   4
ATOM      4  C   UNL     1      -9.168 -22.094  18.156  1.00  0.00     0.000 C 
BRANCH   4   5
ATOM      5  C   UNL     1      -9.929 -23.124  19.006  1.00  0.00     0.000 C 
BRANCH   5   6
ATOM      6  C   UNL     1     -11.124 -22.475  19.714  1.00  0.00     0.000 C 
BRANCH   6   7
ATOM      7  C   UNL     1     -10.976 -22.567  21.240  1.00  0.00     0.006 C 
BRANCH   7   8
ATOM      8  C   UNL     1      -9.788 -21.744  21.759  1.00  0.00     0.053 C 
BRANCH   8   9
ATOM      9  C   UNL     1      -9.555 -21.965  23.222  1.00  0.00     0.041 C 
ATOM     10  O   UNL     1     -10.490 -21.785  24.046  1.00  0.00    -0.550 OA
ATOM     11  O   UNL     1      -8.319 -22.410  23.671  1.00  0.00    -0.550 OA
ENDBRANCH   8   9
ENDBRANCH   7   8
ENDBRANCH   6   7
ENDBRANCH   5   6
ENDBRANCH   4   5
ENDBRANCH   3   4
ENDBRANCH   2   3
ENDBRANCH   1   2
BRANCH   1  12
ATOM     12  C   UNL     1      -5.594 -22.683  16.571  1.00  0.00     0.000 C 
BRANCH  12  13
ATOM     13  C   UNL     1      -4.245 -22.291  15.944  1.00  0.00    -0.000 C 
BRANCH  13  14
ATOM     14  C   UNL     1      -4.277 -20.932  15.212  1.00  0.00    -0.000 C 
BRANCH  14  15
ATOM     15  C   UNL     1      -5.712 -20.433  14.974  1.00  0.00    -0.000 C 
BRANCH  15  16
ATOM     16  C   UNL     1      -6.778 -21.496  15.324  1.00  0.00    -0.000 C 
BRANCH  16  17
ATOM     17  C   UNL     1      -8.135 -21.259  14.636  1.00  0.00    -0.000 C 
BRANCH  17  18
ATOM     18  C   UNL     1      -8.851 -19.964  15.060  1.00  0.00    -0.000 C 
BRANCH  18  19
ATOM     19  C   UNL     1     -10.386 -20.106  15.154  1.00  0.00    -0.003 C 
ATOM     20  C   UNL     1     -10.858 -21.555  15.035  1.00  0.00     0.004 C 
ENDBRANCH  18  19
ENDBRANCH  17  18
ENDBRANCH  16  17
ENDBRANCH  15  16
ENDBRANCH  14  15
ENDBRANCH  13  14
ENDBRANCH  12  13
ENDBRANCH   1  12
TORSDOF 16
ENDMDL
MODEL 5
REMARK VINA RESULT:     0.110      1.788      4.536
REMARK INTER + INTRA:          -0.772
REMARK INTER:                  -2.324
REMARK INTRA:                   1.552
REMARK UNBOUND:                -0.985
REMARK SMILES CCCCCCCCCCCCCCCCCC(=O)[O-]
REMARK SMILES IDX 10 1 11 2 12 3 13 4 14 5 15 6 16 7 17 8 18 9 19 10 20 11
REMARK SMILES IDX 9 12 8 13 7 14 6 15 5 16 4 17 3 18 2 19 1 20
REMARK H PARENT
REMARK Flexibility Score: inf
ROOT
ATOM      1  C   UNL     1      -9.402 -20.282  14.588  1.00  0.00     0.000 C 
ENDROOT
BRANCH   1   2
ATOM      2  C   UNL     1     -10.369 -19.931  15.729  1.00  0.00     0.000 C 
BRANCH   2   3
ATOM      3  C   UNL     1     -11.125 -21.162  16.259  1.00  0.00     0.000 C 
BRANCH   3   4
ATOM      4  C   UNL     1     -10.267 -22.021  17.202  1.00  0.00     0.000 C 
BRANCH   4   5
ATOM      5  C   UNL     1     -11.102 -22.719  18.287  1.00  0.00     0.000 C 
BRANCH   5   6
ATOM      6  C   UNL     1     -10.252 -23.012  19.529  1.00  0.00     0.000 C 
BRANCH   6   7
ATOM      7  C   UNL     1     -10.338 -21.858  20.540  1.00  0.00     0.006 C 
BRANCH   7   8
ATOM      8  C   UNL     1      -9.174 -21.874  21.541  1.00  0.00     0.053 C 
BRANCH   8   9
ATOM      9  C   UNL     1      -9.650 -21.696  22.949  1.00  0.00     0.041 C 
ATOM     10  O   UNL     1     -10.250 -20.642  23.287  1.00  0.00    -0.550 OA
ATOM     11  O   UNL     1      -9.468 -22.710  23.880  1.00  0.00    -0.550 OA
ENDBRANCH   8   9
ENDBRANCH   7   8
ENDBRANCH   6   7
ENDBRANCH   5   6
ENDBRANCH   4   5
ENDBRANCH   3   4
ENDBRANCH   2   3
ENDBRANCH   1   2
BRANCH   1  12
ATOM     12  C   UNL     1      -8.314 -21.278  15.023  1.00  0.00     0.000 C 
BRANCH  12  13
ATOM     13  C   UNL     1      -7.932 -21.134  16.506  1.00  0.00    -0.000 C 
BRANCH  13  14
ATOM     14  C   UNL     1      -6.728 -22.006  16.920  1.00  0.00    -0.000 C 
BRANCH  14  15
ATOM     15  C   UNL     1      -5.976 -22.576  15.705  1.00  0.00    -0.000 C 
BRANCH  15  16
ATOM     16  C   UNL     1      -4.503 -22.112  15.643  1.00  0.00    -0.000 C 
BRANCH  16  17
ATOM     17  C   UNL     1      -3.631 -22.675  16.780  1.00  0.00    -0.000 C 
BRANCH  17  18
ATOM     18  C   UNL     1      -4.377 -22.900  18.108  1.00  0.00    -0.000 C 
BRANCH  18  19
ATOM     19  C   UNL     1      -3.440 -23.120  19.316  1.00  0.00    -0.003 C 
ATOM     20  C   UNL     1      -4.171 -23.054  20.656  1.00  0.00     0.004 C 
ENDBRANCH  18  19
ENDBRANCH  17  18
ENDBRANCH  16  17
ENDBRANCH  15  16
ENDBRANCH  14  15
ENDBRANCH  13  14
ENDBRANCH  12  13
ENDBRANCH   1  12
TORSDOF 16
ENDMDL
MODEL 6
REMARK VINA RESULT:     0.229      9.024     11.534
REMARK INTER + INTRA:          -0.542
REMARK INTER:                  -0.055
REMARK INTRA:                  -0.487
REMARK UNBOUND:                -0.985
REMARK SMILES CCCCCCCCCCCCCCCCCC(=O)[O-]
REMARK SMILES IDX 10 1 11 2 12 3 13 4 14 5 15 6 16 7 17 8 18 9 19 10 20 11
REMARK SMILES IDX 9 12 8 13 7 14 6 15 5 16 4 17 3 18 2 19 1 20
REMARK H PARENT
REMARK Flexibility Score: inf
ROOT
ATOM      1  C   UNL     1      -0.607 -22.968  16.043  1.00  0.00     0.000 C 
ENDROOT
BRANCH   1   2
ATOM      2  C   UNL     1       0.358 -23.125  14.858  1.00  0.00     0.000 C 
BRANCH   2   3
ATOM      3  C   UNL     1       1.689 -22.383  15.082  1.00  0.00     0.000 C 
BRANCH   3   4
ATOM      4  C   UNL     1       2.446 -22.890  16.320  1.00  0.00     0.000 C 
BRANCH   4   5
ATOM      5  C   UNL     1       3.970 -22.887  16.123  1.00  0.00     0.000 C 
BRANCH   5   6
ATOM      6  C   UNL     1       4.656 -22.001  17.169  1.00  0.00     0.000 C 
BRANCH   6   7
ATOM      7  C   UNL     1       6.167 -22.274  17.216  1.00  0.00     0.006 C 
BRANCH   7   8
ATOM      8  C   UNL     1       6.740 -22.616  15.833  1.00  0.00     0.053 C 
BRANCH   8   9
ATOM      9  C   UNL     1       8.069 -21.966  15.605  1.00  0.00     0.041 C 
ATOM     10  O   UNL     1       8.967 -22.035  16.485  1.00  0.00    -0.550 OA
ATOM     11  O   UNL     1       8.331 -21.318  14.406  1.00  0.00    -0.550 OA
ENDBRANCH   8   9
ENDBRANCH   7   8
ENDBRANCH   6   7
ENDBRANCH   5   6
ENDBRANCH   4   5
ENDBRANCH   3   4
ENDBRANCH   2   3
ENDBRANCH   1   2
BRANCH   1  12
ATOM     12  C   UNL     1      -2.077 -22.889  15.598  1.00  0.00     0.000 C 
BRANCH  12  13
ATOM     13  C   UNL     1      -3.063 -23.122  16.756  1.00  0.00    -0.000 C 
BRANCH  13  14
ATOM     14  C   UNL     1      -4.438 -22.455  16.538  1.00  0.00    -0.000 C 
BRANCH  14  15
ATOM     15  C   UNL     1      -5.514 -23.015  17.484  1.00  0.00    -0.000 C 
BRANCH  15  16
ATOM     16  C   UNL     1      -6.943 -22.871  16.914  1.00  0.00    -0.000 C 
BRANCH  16  17
ATOM     17  C   UNL     1      -7.972 -22.371  17.944  1.00  0.00    -0.000 C 
BRANCH  17  18
ATOM     18  C   UNL     1      -7.672 -22.779  19.398  1.00  0.00    -0.000 C 
BRANCH  18  19
ATOM     19  C   UNL     1      -8.938 -23.054  20.239  1.00  0.00    -0.003 C 
ATOM     20  C   UNL     1      -9.843 -21.830  20.369  1.00  0.00     0.004 C 
ENDBRANCH  18  19
ENDBRANCH  17  18
ENDBRANCH  16  17
ENDBRANCH  15  16
ENDBRANCH  14  15
ENDBRANCH  13  14
ENDBRANCH  12  13
ENDBRANCH   1  12
TORSDOF 16
ENDMDL
MODEL 7
REMARK VINA RESULT:     0.427      7.071     10.015
REMARK INTER + INTRA:          -0.158
REMARK INTER:                   0.156
REMARK INTRA:                  -0.314
REMARK UNBOUND:                -0.985
REMARK SMILES CCCCCCCCCCCCCCCCCC(=O)[O-]
REMARK SMILES IDX 10 1 11 2 12 3 13 4 14 5 15 6 16 7 17 8 18 9 19 10 20 11
REMARK SMILES IDX 9 12 8 13 7 14 6 15 5 16 4 17 3 18 2 19 1 20
REMARK H PARENT
REMARK Flexibility Score: inf
ROOT
ATOM      1  C   UNL     1      -2.030 -22.462  16.138  1.00  0.00     0.000 C 
ENDROOT
BRANCH   1   2
ATOM      2  C   UNL     1      -3.347 -22.965  15.527  1.00  0.00     0.000 C 
BRANCH   2   3
ATOM      3  C   UNL     1      -4.494 -23.002  16.553  1.00  0.00     0.000 C 
BRANCH   3   4
ATOM      4  C   UNL     1      -5.378 -21.746  16.495  1.00  0.00     0.000 C 
BRANCH   4   5
ATOM      5  C   UNL     1      -6.566 -21.904  15.533  1.00  0.00     0.000 C 
BRANCH   5   6
ATOM      6  C   UNL     1      -7.867 -22.152  16.306  1.00  0.00     0.000 C 
BRANCH   6   7
ATOM      7  C   UNL     1      -7.581 -22.767  17.684  1.00  0.00     0.006 C 
BRANCH   7   8
ATOM      8  C   UNL     1      -8.087 -21.883  18.832  1.00  0.00     0.053 C 
BRANCH   8   9
ATOM      9  C   UNL     1      -8.163 -22.637  20.123  1.00  0.00     0.041 C 
ATOM     10  O   UNL     1      -9.282 -22.951  20.609  1.00  0.00    -0.550 OA
ATOM     11  O   UNL     1      -6.999 -23.030  20.770  1.00  0.00    -0.550 OA
ENDBRANCH   8   9
ENDBRANCH   7   8
ENDBRANCH   6   7
ENDBRANCH   5   6
ENDBRANCH   4   5
ENDBRANCH   3   4
ENDBRANCH   2   3
ENDBRANCH   1   2
BRANCH   1  12
ATOM     12  C   UNL     1      -0.795 -23.119  15.499  1.00  0.00     0.000 C 
BRANCH  12  13
ATOM     13  C   UNL     1       0.528 -22.599  16.086  1.00  0.00    -0.000 C 
BRANCH  13  14
ATOM     14  C   UNL     1       1.775 -23.067  15.306  1.00  0.00    -0.000 C 
BRANCH  14  15
ATOM     15  C   UNL     1       3.069 -22.425  15.836  1.00  0.00    -0.000 C 
BRANCH  15  16
ATOM     16  C   UNL     1       4.341 -23.123  15.305  1.00  0.00    -0.000 C 
BRANCH  16  17
ATOM     17  C   UNL     1       5.638 -22.346  15.595  1.00  0.00    -0.000 C 
BRANCH  17  18
ATOM     18  C   UNL     1       5.916 -22.099  17.089  1.00  0.00    -0.000 C 
BRANCH  18  19
ATOM     19  C   UNL     1       7.388 -21.745  17.396  1.00  0.00    -0.003 C 
ATOM     20  C   UNL     1       8.216 -21.500  16.135  1.00  0.00     0.004 C 
ENDBRANCH  18  19
ENDBRANCH  17  18
ENDBRANCH  16  17
ENDBRANCH  15  16
ENDBRANCH  14  15
ENDBRANCH  13  14
ENDBRANCH  12  13
ENDBRANCH   1  12
TORSDOF 16
ENDMDL
MODEL 8
REMARK VINA RESULT:     0.508      7.907     10.942
REMARK INTER + INTRA:          -0.001
REMARK INTER:                   0.591
REMARK INTRA:                  -0.592
REMARK UNBOUND:                -0.985
REMARK SMILES CCCCCCCCCCCCCCCCCC(=O)[O-]
REMARK SMILES IDX 10 1 11 2 12 3 13 4 14 5 15 6 16 7 17 8 18 9 19 10 20 11
REMARK SMILES IDX 9 12 8 13 7 14 6 15 5 16 4 17 3 18 2 19 1 20
REMARK H PARENT
REMARK Flexibility Score: inf
ROOT
ATOM      1  C   UNL     1      -0.347 -22.354  15.879  1.00  0.00     0.000 C 
ENDROOT
BRANCH   1   2
ATOM      2  C   UNL     1      -1.654 -23.125  15.640  1.00  0.00     0.000 C 
BRANCH   2   3
ATOM      3  C   UNL     1      -2.698 -22.869  16.742  1.00  0.00     0.000 C 
BRANCH   3   4
ATOM      4  C   UNL     1      -4.141 -23.016  16.233  1.00  0.00     0.000 C 
BRANCH   4   5
ATOM      5  C   UNL     1      -5.005 -21.784  16.542  1.00  0.00     0.000 C 
BRANCH   5   6
ATOM      6  C   UNL     1      -6.396 -21.916  15.910  1.00  0.00     0.000 C 
BRANCH   6   7
ATOM      7  C   UNL     1      -7.184 -23.068  16.551  1.00  0.00     0.006 C 
BRANCH   7   8
ATOM      8  C   UNL     1      -7.133 -23.026  18.084  1.00  0.00     0.053 C 
BRANCH   8   9
ATOM      9  C   UNL     1      -8.412 -22.514  18.670  1.00  0.00     0.041 C 
ATOM     10  O   UNL     1      -8.627 -22.614  19.907  1.00  0.00    -0.550 OA
ATOM     11  O   UNL     1      -9.349 -21.889  17.859  1.00  0.00    -0.550 OA
ENDBRANCH   8   9
ENDBRANCH   7   8
ENDBRANCH   6   7
ENDBRANCH   5   6
ENDBRANCH   4   5
ENDBRANCH   3   4
ENDBRANCH   2   3
ENDBRANCH   1   2
BRANCH   1  12
ATOM     12  C   UNL     1       0.875 -23.064  15.274  1.00  0.00     0.000 C 
BRANCH  12  13
ATOM     13  C   UNL     1       2.183 -22.735  16.014  1.00  0.00    -0.000 C 
BRANCH  13  14
ATOM     14  C   UNL     1       3.452 -23.125  15.226  1.00  0.00    -0.000 C 
BRANCH  14  15
ATOM     15  C   UNL     1       3.421 -22.607  13.778  1.00  0.00    -0.000 C 
BRANCH  15  16
ATOM     16  C   UNL     1       4.795 -22.709  13.079  1.00  0.00    -0.000 C 
BRANCH  16  17
ATOM     17  C   UNL     1       5.962 -22.973  14.047  1.00  0.00    -0.000 C 
BRANCH  17  18
ATOM     18  C   UNL     1       7.342 -23.081  13.373  1.00  0.00    -0.000 C 
BRANCH  18  19
ATOM     19  C   UNL     1       7.779 -21.792  12.643  1.00  0.00    -0.003 C 
ATOM     20  C   UNL     1       9.066 -21.970  11.839  1.00  0.00     0.004 C 
ENDBRANCH  18  19
ENDBRANCH  17  18
ENDBRANCH  16  17
ENDBRANCH  15  16
ENDBRANCH  14  15
ENDBRANCH  13  14
ENDBRANCH  12  13
ENDBRANCH   1  12
TORSDOF 16
ENDMDL
MODEL 9
REMARK VINA RESULT:     0.554      9.894     13.071
REMARK INTER + INTRA:           0.088
REMARK INTER:                   0.800
REMARK INTRA:                  -0.712
REMARK UNBOUND:                -0.985
REMARK SMILES CCCCCCCCCCCCCCCCCC(=O)[O-]
REMARK SMILES IDX 10 1 11 2 12 3 13 4 14 5 15 6 16 7 17 8 18 9 19 10 20 11
REMARK SMILES IDX 9 12 8 13 7 14 6 15 5 16 4 17 3 18 2 19 1 20
REMARK H PARENT
REMARK Flexibility Score: inf
ROOT
ATOM      1  C   UNL     1       3.353 -22.035  16.138  1.00  0.00     0.000 C 
ENDROOT
BRANCH   1   2
ATOM      2  C   UNL     1       2.330 -23.124  15.779  1.00  0.00     0.000 C 
BRANCH   2   3
ATOM      3  C   UNL     1       0.961 -22.886  16.442  1.00  0.00     0.000 C 
BRANCH   3   4
ATOM      4  C   UNL     1      -0.204 -22.994  15.444  1.00  0.00     0.000 C 
BRANCH   4   5
ATOM      5  C   UNL     1      -1.567 -23.125  16.141  1.00  0.00     0.000 C 
BRANCH   5   6
ATOM      6  C   UNL     1      -2.682 -22.514  15.284  1.00  0.00     0.000 C 
BRANCH   6   7
ATOM      7  C   UNL     1      -3.821 -21.977  16.164  1.00  0.00     0.006 C 
BRANCH   7   8
ATOM      8  C   UNL     1      -4.477 -23.082  17.005  1.00  0.00     0.053 C 
BRANCH   8   9
ATOM      9  C   UNL     1      -5.959 -22.898  17.107  1.00  0.00     0.041 C 
ATOM     10  O   UNL     1      -6.630 -22.585  16.088  1.00  0.00    -0.550 OA
ATOM     11  O   UNL     1      -6.606 -23.111  18.317  1.00  0.00    -0.550 OA
ENDBRANCH   8   9
ENDBRANCH   7   8
ENDBRANCH   6   7
ENDBRANCH   5   6
ENDBRANCH   4   5
ENDBRANCH   3   4
ENDBRANCH   2   3
ENDBRANCH   1   2
BRANCH   1  12
ATOM     12  C   UNL     1       4.604 -22.606  16.824  1.00  0.00     0.000 C 
BRANCH  12  13
ATOM     13  C   UNL     1       5.617 -21.517  17.219  1.00  0.00    -0.000 C 
BRANCH  13  14
ATOM     14  C   UNL     1       7.087 -21.972  17.107  1.00  0.00    -0.000 C 
BRANCH  14  15
ATOM     15  C   UNL     1       7.345 -22.803  15.837  1.00  0.00    -0.000 C 
BRANCH  15  16
ATOM     16  C   UNL     1       8.243 -22.068  14.817  1.00  0.00    -0.000 C 
BRANCH  16  17
ATOM     17  C   UNL     1       7.455 -21.330  13.719  1.00  0.00    -0.000 C 
BRANCH  17  18
ATOM     18  C   UNL     1       8.287 -20.943  12.483  1.00  0.00    -0.000 C 
BRANCH  18  19
ATOM     19  C   UNL     1       8.976 -22.144  11.799  1.00  0.00    -0.003 C 
ATOM     20  C   UNL     1       8.084 -22.834  10.768  1.00  0.00     0.004 C 
ENDBRANCH  18  19
ENDBRANCH  17  18
ENDBRANCH  16  17
ENDBRANCH  15  16
ENDBRANCH  14  15
ENDBRANCH  13  14
ENDBRANCH  12  13
ENDBRANCH   1  12
TORSDOF 16
ENDMDL
