MODEL 1
REMARK VINA RESULT:    -4.683      0.000      0.000
REMARK INTER + INTRA:          -8.534
REMARK INTER:                  -7.421
REMARK INTRA:                  -1.113
REMARK UNBOUND:                -1.113
REMARK SMILES CCCCCCCCCCCC(=O)[O-]
REMARK SMILES IDX 7 1 8 2 9 3 10 4 11 5 12 6 13 7 14 8 6 9 5 10 4 11 3 12 2 13
REMARK SMILES IDX 1 14
REMARK H PARENT
REMARK Flexibility Score: inf
ROOT
ATOM      1  C   UNL     1      63.676 -27.381  -1.674  1.00  0.00     0.000 C 
ENDROOT
BRANCH   1   2
ATOM      2  C   UNL     1      63.411 -26.600  -2.974  1.00  0.00     0.000 C 
BRANCH   2   3
ATOM      3  C   UNL     1      62.308 -25.531  -2.879  1.00  0.00     0.000 C 
BRANCH   3   4
ATOM      4  C   UNL     1      61.171 -25.751  -3.892  1.00  0.00     0.006 C 
BRANCH   4   5
ATOM      5  C   UNL     1      60.027 -24.745  -3.705  1.00  0.00     0.053 C 
BRANCH   5   6
ATOM      6  C   UNL     1      59.733 -23.993  -4.967  1.00  0.00     0.041 C 
ATOM      7  O   UNL     1      58.779 -23.172  -5.007  1.00  0.00    -0.550 OA
ATOM      8  O   UNL     1      60.496 -24.218  -6.105  1.00  0.00    -0.550 OA
ENDBRANCH   5   6
ENDBRANCH   4   5
ENDBRANCH   3   4
ENDBRANCH   2   3
ENDBRANCH   1   2
BRANCH   1   9
ATOM      9  C   UNL     1      62.983 -28.751  -1.646  1.00  0.00     0.000 C 
BRANCH   9  10
ATOM     10  C   UNL     1      62.322 -29.004  -0.282  1.00  0.00    -0.000 C 
BRANCH  10  11
ATOM     11  C   UNL     1      60.784 -28.985  -0.349  1.00  0.00    -0.000 C 
BRANCH  11  12
ATOM     12  C   UNL     1      60.196 -28.556  -1.709  1.00  0.00    -0.000 C 
BRANCH  12  13
ATOM     13  C   UNL     1      58.932 -27.683  -1.623  1.00  0.00    -0.003 C 
ATOM     14  C   UNL     1      58.079 -27.743  -2.890  1.00  0.00     0.004 C 
ENDBRANCH  12  13
ENDBRANCH  11  12
ENDBRANCH  10  11
ENDBRANCH   9  10
ENDBRANCH   1   9
TORSDOF 10
ENDMDL
MODEL 2
REMARK VINA RESULT:    -4.668      3.569      5.047
REMARK INTER + INTRA:          -8.510
REMARK INTER:                  -7.332
REMARK INTRA:                  -1.178
REMARK UNBOUND:                -1.113
REMARK SMILES CCCCCCCCCCCC(=O)[O-]
REMARK SMILES IDX 7 1 8 2 9 3 10 4 11 5 12 6 13 7 14 8 6 9 5 10 4 11 3 12 2 13
REMARK SMILES IDX 1 14
REMARK H PARENT
REMARK Flexibility Score: inf
ROOT
ATOM      1  C   UNL     1      63.620 -27.477  -1.504  1.00  0.00     0.000 C 
ENDROOT
BRANCH   1   2
ATOM      2  C   UNL     1      63.070 -28.901  -1.306  1.00  0.00     0.000 C 
BRANCH   2   3
ATOM      3  C   UNL     1      61.722 -28.983  -0.568  1.00  0.00     0.000 C 
BRANCH   3   4
ATOM      4  C   UNL     1      60.513 -28.869  -1.512  1.00  0.00     0.006 C 
BRANCH   4   5
ATOM      5  C   UNL     1      59.228 -28.485  -0.765  1.00  0.00     0.053 C 
BRANCH   5   6
ATOM      6  C   UNL     1      58.899 -29.466   0.318  1.00  0.00     0.041 C 
ATOM      7  O   UNL     1      58.682 -30.674   0.034  1.00  0.00    -0.550 OA
ATOM      8  O   UNL     1      58.804 -29.042   1.638  1.00  0.00    -0.550 OA
ENDBRANCH   5   6
ENDBRANCH   4   5
ENDBRANCH   3   4
ENDBRANCH   2   3
ENDBRANCH   1   2
BRANCH   1   9
ATOM      9  C   UNL     1      63.390 -26.938  -2.924  1.00  0.00     0.000 C 
BRANCH   9  10
ATOM     10  C   UNL     1      62.542 -25.657  -2.894  1.00  0.00    -0.000 C 
BRANCH  10  11
ATOM     11  C   UNL     1      61.126 -25.864  -3.459  1.00  0.00    -0.000 C 
BRANCH  11  12
ATOM     12  C   UNL     1      59.986 -25.312  -2.580  1.00  0.00    -0.000 C 
BRANCH  12  13
ATOM     13  C   UNL     1      58.567 -25.592  -3.104  1.00  0.00    -0.003 C 
ATOM     14  C   UNL     1      58.561 -26.356  -4.428  1.00  0.00     0.004 C 
ENDBRANCH  12  13
ENDBRANCH  11  12
ENDBRANCH  10  11
ENDBRANCH   9  10
ENDBRANCH   1   9
TORSDOF 10
ENDMDL
MODEL 3
REMARK VINA RESULT:    -4.540      1.239      2.087
REMARK INTER + INTRA:          -8.307
REMARK INTER:                  -7.420
REMARK INTRA:                  -0.887
REMARK UNBOUND:                -1.113
REMARK SMILES CCCCCCCCCCCC(=O)[O-]
REMARK SMILES IDX 7 1 8 2 9 3 10 4 11 5 12 6 13 7 14 8 6 9 5 10 4 11 3 12 2 13
REMARK SMILES IDX 1 14
REMARK H PARENT
REMARK Flexibility Score: inf
ROOT
ATOM      1  C   UNL     1      63.685 -27.460  -1.583  1.00  0.00     0.000 C 
ENDROOT
BRANCH   1   2
ATOM      2  C   UNL     1      63.307 -26.919  -2.973  1.00  0.00     0.000 C 
BRANCH   2   3
ATOM      3  C   UNL     1      62.635 -25.534  -2.974  1.00  0.00     0.000 C 
BRANCH   3   4
ATOM      4  C   UNL     1      61.112 -25.606  -2.768  1.00  0.00     0.006 C 
BRANCH   4   5
ATOM      5  C   UNL     1      60.374 -26.024  -4.048  1.00  0.00     0.053 C 
BRANCH   5   6
ATOM      6  C   UNL     1      60.452 -24.967  -5.107  1.00  0.00     0.041 C 
ATOM      7  O   UNL     1      61.195 -25.130  -6.111  1.00  0.00    -0.550 OA
ATOM      8  O   UNL     1      59.726 -23.791  -4.972  1.00  0.00    -0.550 OA
ENDBRANCH   5   6
ENDBRANCH   4   5
ENDBRANCH   3   4
ENDBRANCH   2   3
ENDBRANCH   1   2
BRANCH   1   9
ATOM      9  C   UNL     1      63.240 -28.914  -1.365  1.00  0.00     0.000 C 
BRANCH   9  10
ATOM     10  C   UNL     1      61.993 -28.978  -0.470  1.00  0.00    -0.000 C 
BRANCH  10  11
ATOM     11  C   UNL     1      60.679 -28.943  -1.270  1.00  0.00    -0.000 C 
BRANCH  11  12
ATOM     12  C   UNL     1      59.395 -28.929  -0.416  1.00  0.00    -0.000 C 
BRANCH  12  13
ATOM     13  C   UNL     1      59.417 -29.861   0.807  1.00  0.00    -0.003 C 
ATOM     14  C   UNL     1      59.313 -29.107   2.133  1.00  0.00     0.004 C 
ENDBRANCH  12  13
ENDBRANCH  11  12
ENDBRANCH  10  11
ENDBRANCH   9  10
ENDBRANCH   1   9
TORSDOF 10
ENDMDL
MODEL 4
REMARK VINA RESULT:    -4.517      3.388      5.325
REMARK INTER + INTRA:          -8.271
REMARK INTER:                  -7.492
REMARK INTRA:                  -0.779
REMARK UNBOUND:                -1.113
REMARK SMILES CCCCCCCCCCCC(=O)[O-]
REMARK SMILES IDX 7 1 8 2 9 3 10 4 11 5 12 6 13 7 14 8 6 9 5 10 4 11 3 12 2 13
REMARK SMILES IDX 1 14
REMARK H PARENT
REMARK Flexibility Score: inf
ROOT
ATOM      1  C   UNL     1      63.610 -26.973  -2.304  1.00  0.00     0.000 C 
ENDROOT
BRANCH   1   2
ATOM      2  C   UNL     1      62.762 -28.218  -1.989  1.00  0.00     0.000 C 
BRANCH   2   3
ATOM      3  C   UNL     1      62.953 -28.797  -0.575  1.00  0.00     0.000 C 
BRANCH   3   4
ATOM      4  C   UNL     1      61.623 -29.120   0.126  1.00  0.00     0.006 C 
BRANCH   4   5
ATOM      5  C   UNL     1      60.440 -29.135  -0.853  1.00  0.00     0.053 C 
BRANCH   5   6
ATOM      6  C   UNL     1      59.180 -29.608  -0.198  1.00  0.00     0.041 C 
ATOM      7  O   UNL     1      58.062 -29.373  -0.729  1.00  0.00    -0.550 OA
ATOM      8  O   UNL     1      59.236 -30.286   1.014  1.00  0.00    -0.550 OA
ENDBRANCH   5   6
ENDBRANCH   4   5
ENDBRANCH   3   4
ENDBRANCH   2   3
ENDBRANCH   1   2
BRANCH   1   9
ATOM      9  C   UNL     1      62.807 -25.858  -2.991  1.00  0.00     0.000 C 
BRANCH   9  10
ATOM     10  C   UNL     1      61.305 -26.010  -2.707  1.00  0.00    -0.000 C 
BRANCH  10  11
ATOM     11  C   UNL     1      60.442 -25.020  -3.509  1.00  0.00    -0.000 C 
BRANCH  11  12
ATOM     12  C   UNL     1      59.371 -25.669  -4.410  1.00  0.00    -0.000 C 
BRANCH  12  13
ATOM     13  C   UNL     1      59.616 -25.521  -5.921  1.00  0.00    -0.003 C 
ATOM     14  C   UNL     1      60.937 -24.824  -6.245  1.00  0.00     0.004 C 
ENDBRANCH  12  13
ENDBRANCH  11  12
ENDBRANCH  10  11
ENDBRANCH   9  10
ENDBRANCH   1   9
TORSDOF 10
ENDMDL
MODEL 5
REMARK VINA RESULT:    -4.514      1.293      2.138
REMARK INTER + INTRA:          -8.266
REMARK INTER:                  -7.365
REMARK INTRA:                  -0.902
REMARK UNBOUND:                -1.113
REMARK SMILES CCCCCCCCCCCC(=O)[O-]
REMARK SMILES IDX 7 1 8 2 9 3 10 4 11 5 12 6 13 7 14 8 6 9 5 10 4 11 3 12 2 13
REMARK SMILES IDX 1 14
REMARK H PARENT
REMARK Flexibility Score: inf
ROOT
ATOM      1  C   UNL     1      63.151 -26.327  -2.425  1.00  0.00     0.000 C 
ENDROOT
BRANCH   1   2
ATOM      2  C   UNL     1      62.072 -25.617  -3.262  1.00  0.00     0.000 C 
BRANCH   2   3
ATOM      3  C   UNL     1      60.640 -25.727  -2.708  1.00  0.00     0.000 C 
BRANCH   3   4
ATOM      4  C   UNL     1      59.684 -26.468  -3.659  1.00  0.00     0.006 C 
BRANCH   4   5
ATOM      5  C   UNL     1      59.394 -25.661  -4.932  1.00  0.00     0.053 C 
BRANCH   5   6
ATOM      6  C   UNL     1      58.789 -24.326  -4.621  1.00  0.00     0.041 C 
ATOM      7  O   UNL     1      59.424 -23.269  -4.876  1.00  0.00    -0.550 OA
ATOM      8  O   UNL     1      57.536 -24.251  -4.026  1.00  0.00    -0.550 OA
ENDBRANCH   5   6
ENDBRANCH   4   5
ENDBRANCH   3   4
ENDBRANCH   2   3
ENDBRANCH   1   2
BRANCH   1   9
ATOM      9  C   UNL     1      63.003 -27.856  -2.428  1.00  0.00     0.000 C 
BRANCH   9  10
ATOM     10  C   UNL     1      63.453 -28.454  -1.086  1.00  0.00    -0.000 C 
BRANCH  10  11
ATOM     11  C   UNL     1      62.292 -29.071  -0.286  1.00  0.00    -0.000 C 
BRANCH  11  12
ATOM     12  C   UNL     1      60.897 -28.892  -0.918  1.00  0.00    -0.000 C 
BRANCH  12  13
ATOM     13  C   UNL     1      59.749 -29.589  -0.166  1.00  0.00    -0.003 C 
ATOM     14  C   UNL     1      59.707 -29.234   1.320  1.00  0.00     0.004 C 
ENDBRANCH  12  13
ENDBRANCH  11  12
ENDBRANCH  10  11
ENDBRANCH   9  10
ENDBRANCH   1   9
TORSDOF 10
ENDMDL
MODEL 6
REMARK VINA RESULT:    -4.412      0.927      2.973
REMARK INTER + INTRA:          -8.104
REMARK INTER:                  -6.950
REMARK INTRA:                  -1.154
REMARK UNBOUND:                -1.113
REMARK SMILES CCCCCCCCCCCC(=O)[O-]
REMARK SMILES IDX 7 1 8 2 9 3 10 4 11 5 12 6 13 7 14 8 6 9 5 10 4 11 3 12 2 13
REMARK SMILES IDX 1 14
REMARK H PARENT
REMARK Flexibility Score: inf
ROOT
ATOM      1  C   UNL     1      59.334 -28.101  -1.467  1.00  0.00     0.000 C 
ENDROOT
BRANCH   1   2
ATOM      2  C   UNL     1      59.571 -27.203  -2.694  1.00  0.00     0.000 C 
BRANCH   2   3
ATOM      3  C   UNL     1      59.604 -25.693  -2.401  1.00  0.00     0.000 C 
BRANCH   3   4
ATOM      4  C   UNL     1      60.564 -24.923  -3.324  1.00  0.00     0.006 C 
BRANCH   4   5
ATOM      5  C   UNL     1      60.549 -25.468  -4.759  1.00  0.00     0.053 C 
BRANCH   5   6
ATOM      6  C   UNL     1      59.978 -24.477  -5.726  1.00  0.00     0.041 C 
ATOM      7  O   UNL     1      58.837 -23.982  -5.526  1.00  0.00    -0.550 OA
ATOM      8  O   UNL     1      60.694 -24.120  -6.862  1.00  0.00    -0.550 OA
ENDBRANCH   5   6
ENDBRANCH   4   5
ENDBRANCH   3   4
ENDBRANCH   2   3
ENDBRANCH   1   2
BRANCH   1   9
ATOM      9  C   UNL     1      60.409 -29.185  -1.301  1.00  0.00     0.000 C 
BRANCH   9  10
ATOM     10  C   UNL     1      61.305 -28.888  -0.088  1.00  0.00    -0.000 C 
BRANCH  10  11
ATOM     11  C   UNL     1      62.802 -29.086  -0.387  1.00  0.00    -0.000 C 
BRANCH  11  12
ATOM     12  C   UNL     1      63.274 -28.535  -1.748  1.00  0.00    -0.000 C 
BRANCH  12  13
ATOM     13  C   UNL     1      63.373 -27.002  -1.829  1.00  0.00    -0.003 C 
ATOM     14  C   UNL     1      63.775 -26.503  -3.217  1.00  0.00     0.004 C 
ENDBRANCH  12  13
ENDBRANCH  11  12
ENDBRANCH  10  11
ENDBRANCH   9  10
ENDBRANCH   1   9
TORSDOF 10
ENDMDL
MODEL 7
REMARK VINA RESULT:    -4.398      2.410      4.501
REMARK INTER + INTRA:          -8.081
REMARK INTER:                  -7.276
REMARK INTRA:                  -0.805
REMARK UNBOUND:                -1.113
REMARK SMILES CCCCCCCCCCCC(=O)[O-]
REMARK SMILES IDX 7 1 8 2 9 3 10 4 11 5 12 6 13 7 14 8 6 9 5 10 4 11 3 12 2 13
REMARK SMILES IDX 1 14
REMARK H PARENT
REMARK Flexibility Score: inf
ROOT
ATOM      1  C   UNL     1      63.035 -28.486  -1.928  1.00  0.00     0.000 C 
ENDROOT
BRANCH   1   2
ATOM      2  C   UNL     1      62.843 -29.081  -0.522  1.00  0.00     0.000 C 
BRANCH   2   3
ATOM      3  C   UNL     1      61.408 -29.002   0.030  1.00  0.00     0.000 C 
BRANCH   3   4
ATOM      4  C   UNL     1      60.336 -29.124  -1.067  1.00  0.00     0.006 C 
BRANCH   4   5
ATOM      5  C   UNL     1      58.915 -28.973  -0.507  1.00  0.00     0.053 C 
BRANCH   5   6
ATOM      6  C   UNL     1      58.071 -28.076  -1.360  1.00  0.00     0.041 C 
ATOM      7  O   UNL     1      58.215 -26.826  -1.300  1.00  0.00    -0.550 OA
ATOM      8  O   UNL     1      57.108 -28.619  -2.201  1.00  0.00    -0.550 OA
ENDBRANCH   5   6
ENDBRANCH   4   5
ENDBRANCH   3   4
ENDBRANCH   2   3
ENDBRANCH   1   2
BRANCH   1   9
ATOM      9  C   UNL     1      63.643 -27.076  -1.904  1.00  0.00     0.000 C 
BRANCH   9  10
ATOM     10  C   UNL     1      62.936 -26.156  -2.911  1.00  0.00    -0.000 C 
BRANCH  10  11
ATOM     11  C   UNL     1      61.406 -26.150  -2.745  1.00  0.00    -0.000 C 
BRANCH  11  12
ATOM     12  C   UNL     1      60.659 -25.120  -3.617  1.00  0.00    -0.000 C 
BRANCH  12  13
ATOM     13  C   UNL     1      60.234 -25.630  -5.005  1.00  0.00    -0.003 C 
ATOM     14  C   UNL     1      60.882 -24.852  -6.150  1.00  0.00     0.004 C 
ENDBRANCH  12  13
ENDBRANCH  11  12
ENDBRANCH  10  11
ENDBRANCH   9  10
ENDBRANCH   1   9
TORSDOF 10
ENDMDL
MODEL 8
REMARK VINA RESULT:    -4.386      1.699      2.110
REMARK INTER + INTRA:          -8.062
REMARK INTER:                  -7.186
REMARK INTRA:                  -0.876
REMARK UNBOUND:                -1.113
REMARK SMILES CCCCCCCCCCCC(=O)[O-]
REMARK SMILES IDX 7 1 8 2 9 3 10 4 11 5 12 6 13 7 14 8 6 9 5 10 4 11 3 12 2 13
REMARK SMILES IDX 1 14
REMARK H PARENT
REMARK Flexibility Score: inf
ROOT
ATOM      1  C   UNL     1      63.313 -28.311  -1.982  1.00  0.00     0.000 C 
ENDROOT
BRANCH   1   2
ATOM      2  C   UNL     1      63.635 -26.806  -2.004  1.00  0.00     0.000 C 
BRANCH   2   3
ATOM      3  C   UNL     1      62.951 -26.010  -3.131  1.00  0.00     0.000 C 
BRANCH   3   4
ATOM      4  C   UNL     1      61.462 -25.739  -2.856  1.00  0.00     0.006 C 
BRANCH   4   5
ATOM      5  C   UNL     1      60.669 -25.500  -4.149  1.00  0.00     0.053 C 
BRANCH   5   6
ATOM      6  C   UNL     1      59.212 -25.799  -3.973  1.00  0.00     0.041 C 
ATOM      7  O   UNL     1      58.557 -26.332  -4.907  1.00  0.00    -0.550 OA
ATOM      8  O   UNL     1      58.571 -25.465  -2.787  1.00  0.00    -0.550 OA
ENDBRANCH   5   6
ENDBRANCH   4   5
ENDBRANCH   3   4
ENDBRANCH   2   3
ENDBRANCH   1   2
BRANCH   1   9
ATOM      9  C   UNL     1      63.183 -28.875  -0.559  1.00  0.00     0.000 C 
BRANCH   9  10
ATOM     10  C   UNL     1      61.707 -29.014  -0.156  1.00  0.00    -0.000 C 
BRANCH  10  11
ATOM     11  C   UNL     1      60.745 -28.875  -1.349  1.00  0.00    -0.000 C 
BRANCH  11  12
ATOM     12  C   UNL     1      59.319 -28.414  -0.987  1.00  0.00    -0.000 C 
BRANCH  12  13
ATOM     13  C   UNL     1      58.783 -28.949   0.352  1.00  0.00    -0.003 C 
ATOM     14  C   UNL     1      58.242 -30.375   0.250  1.00  0.00     0.004 C 
ENDBRANCH  12  13
ENDBRANCH  11  12
ENDBRANCH  10  11
ENDBRANCH   9  10
ENDBRANCH   1   9
TORSDOF 10
ENDMDL
MODEL 9
REMARK VINA RESULT:    -4.379      3.558      5.230
REMARK INTER + INTRA:          -8.052
REMARK INTER:                  -7.058
REMARK INTRA:                  -0.994
REMARK UNBOUND:                -1.113
REMARK SMILES CCCCCCCCCCCC(=O)[O-]
REMARK SMILES IDX 7 1 8 2 9 3 10 4 11 5 12 6 13 7 14 8 6 9 5 10 4 11 3 12 2 13
REMARK SMILES IDX 1 14
REMARK H PARENT
REMARK Flexibility Score: inf
ROOT
ATOM      1  C   UNL     1      62.747 -28.907  -0.525  1.00  0.00     0.000 C 
ENDROOT
BRANCH   1   2
ATOM      2  C   UNL     1      61.242 -28.953  -0.206  1.00  0.00     0.000 C 
BRANCH   2   3
ATOM      3  C   UNL     1      60.312 -28.883  -1.431  1.00  0.00     0.000 C 
BRANCH   3   4
ATOM      4  C   UNL     1      59.064 -28.016  -1.189  1.00  0.00     0.006 C 
BRANCH   4   5
ATOM      5  C   UNL     1      57.779 -28.855  -1.137  1.00  0.00     0.053 C 
BRANCH   5   6
ATOM      6  C   UNL     1      57.607 -29.530   0.190  1.00  0.00     0.041 C 
ATOM      7  O   UNL     1      58.123 -30.660   0.397  1.00  0.00    -0.550 OA
ATOM      8  O   UNL     1      56.854 -28.924   1.187  1.00  0.00    -0.550 OA
ENDBRANCH   5   6
ENDBRANCH   4   5
ENDBRANCH   3   4
ENDBRANCH   2   3
ENDBRANCH   1   2
BRANCH   1   9
ATOM      9  C   UNL     1      63.042 -28.421  -1.952  1.00  0.00     0.000 C 
BRANCH   9  10
ATOM     10  C   UNL     1      63.727 -27.047  -1.933  1.00  0.00    -0.000 C 
BRANCH  10  11
ATOM     11  C   UNL     1      63.122 -26.062  -2.948  1.00  0.00    -0.000 C 
BRANCH  11  12
ATOM     12  C   UNL     1      61.599 -25.853  -2.826  1.00  0.00    -0.000 C 
BRANCH  12  13
ATOM     13  C   UNL     1      60.889 -25.463  -4.135  1.00  0.00    -0.003 C 
ATOM     14  C   UNL     1      59.492 -26.071  -4.258  1.00  0.00     0.004 C 
ENDBRANCH  12  13
ENDBRANCH  11  12
ENDBRANCH  10  11
ENDBRANCH   9  10
ENDBRANCH   1   9
TORSDOF 10
ENDMDL
