MODEL 1
REMARK VINA RESULT:    -3.221      0.000      0.000
REMARK INTER + INTRA:          -6.966
REMARK INTER:                  -5.857
REMARK INTRA:                  -1.109
REMARK UNBOUND:                -1.109
REMARK SMILES CCCCCCCCCCCCCCCC(=O)[O-]
REMARK SMILES IDX 9 1 10 2 11 3 12 4 13 5 14 6 15 7 16 8 17 9 18 10 8 11 7 12
REMARK SMILES IDX 6 13 5 14 4 15 3 16 2 17 1 18
REMARK H PARENT
REMARK Flexibility Score: inf
ROOT
ATOM      1  C   UNL     1     -16.749 -12.101   2.536  1.00  0.00     0.000 C 
ENDROOT
BRANCH   1   2
ATOM      2  C   UNL     1     -16.933 -11.711   1.060  1.00  0.00     0.000 C 
BRANCH   2   3
ATOM      3  C   UNL     1     -18.092 -12.459   0.386  1.00  0.00     0.000 C 
BRANCH   3   4
ATOM      4  C   UNL     1     -19.004 -13.118   1.429  1.00  0.00     0.000 C 
BRANCH   4   5
ATOM      5  C   UNL     1     -20.473 -12.744   1.191  1.00  0.00     0.000 C 
BRANCH   5   6
ATOM      6  C   UNL     1     -21.308 -12.725   2.484  1.00  0.00     0.006 C 
BRANCH   6   7
ATOM      7  C   UNL     1     -22.692 -12.073   2.325  1.00  0.00     0.053 C 
BRANCH   7   8
ATOM      8  C   UNL     1     -23.313 -11.705   3.638  1.00  0.00     0.041 C 
ATOM      9  O   UNL     1     -24.326 -12.324   4.059  1.00  0.00    -0.550 OA
ATOM     10  O   UNL     1     -22.791 -10.656   4.385  1.00  0.00    -0.550 OA
ENDBRANCH   7   8
ENDBRANCH   6   7
ENDBRANCH   5   6
ENDBRANCH   4   5
ENDBRANCH   3   4
ENDBRANCH   2   3
ENDBRANCH   1   2
BRANCH   1  11
ATOM     11  C   UNL     1     -16.004 -11.035   3.369  1.00  0.00     0.000 C 
BRANCH  11  12
ATOM     12  C   UNL     1     -15.207 -10.058   2.486  1.00  0.00    -0.000 C 
BRANCH  12  13
ATOM     13  C   UNL     1     -13.690 -10.336   2.521  1.00  0.00    -0.000 C 
BRANCH  13  14
ATOM     14  C   UNL     1     -13.228 -11.403   1.509  1.00  0.00    -0.000 C 
BRANCH  14  15
ATOM     15  C   UNL     1     -12.437 -12.572   2.120  1.00  0.00    -0.000 C 
BRANCH  15  16
ATOM     16  C   UNL     1     -12.656 -12.709   3.636  1.00  0.00    -0.000 C 
BRANCH  16  17
ATOM     17  C   UNL     1     -11.349 -12.979   4.396  1.00  0.00    -0.003 C 
ATOM     18  C   UNL     1     -11.361 -12.403   5.812  1.00  0.00     0.004 C 
ENDBRANCH  16  17
ENDBRANCH  15  16
ENDBRANCH  14  15
ENDBRANCH  13  14
ENDBRANCH  12  13
ENDBRANCH  11  12
ENDBRANCH   1  11
TORSDOF 14
ENDMDL
MODEL 2
REMARK VINA RESULT:    -3.200      4.042      9.005
REMARK INTER + INTRA:          -6.928
REMARK INTER:                  -6.052
REMARK INTRA:                  -0.876
REMARK UNBOUND:                -1.109
REMARK SMILES CCCCCCCCCCCCCCCC(=O)[O-]
REMARK SMILES IDX 9 1 10 2 11 3 12 4 13 5 14 6 15 7 16 8 17 9 18 10 8 11 7 12
REMARK SMILES IDX 6 13 5 14 4 15 3 16 2 17 1 18
REMARK H PARENT
REMARK Flexibility Score: inf
ROOT
ATOM      1  C   UNL     1     -16.503 -12.086   2.452  1.00  0.00     0.000 C 
ENDROOT
BRANCH   1   2
ATOM      2  C   UNL     1     -15.937 -10.965   3.339  1.00  0.00     0.000 C 
BRANCH   2   3
ATOM      3  C   UNL     1     -14.913 -10.085   2.607  1.00  0.00     0.000 C 
BRANCH   3   4
ATOM      4  C   UNL     1     -13.822 -10.941   1.951  1.00  0.00     0.000 C 
BRANCH   4   5
ATOM      5  C   UNL     1     -12.647 -11.166   2.912  1.00  0.00     0.000 C 
BRANCH   5   6
ATOM      6  C   UNL     1     -12.525 -12.627   3.383  1.00  0.00     0.006 C 
BRANCH   6   7
ATOM      7  C   UNL     1     -13.027 -12.866   4.817  1.00  0.00     0.053 C 
BRANCH   7   8
ATOM      8  C   UNL     1     -11.926 -12.823   5.832  1.00  0.00     0.041 C 
ATOM      9  O   UNL     1     -10.723 -12.772   5.463  1.00  0.00    -0.550 OA
ATOM     10  O   UNL     1     -12.226 -12.871   7.188  1.00  0.00    -0.550 OA
ENDBRANCH   7   8
ENDBRANCH   6   7
ENDBRANCH   5   6
ENDBRANCH   4   5
ENDBRANCH   3   4
ENDBRANCH   2   3
ENDBRANCH   1   2
BRANCH   1  11
ATOM     11  C   UNL     1     -17.989 -12.404   2.730  1.00  0.00     0.000 C 
BRANCH  11  12
ATOM     12  C   UNL     1     -18.740 -12.835   1.457  1.00  0.00    -0.000 C 
BRANCH  12  13
ATOM     13  C   UNL     1     -20.272 -12.748   1.620  1.00  0.00    -0.000 C 
BRANCH  13  14
ATOM     14  C   UNL     1     -20.741 -12.706   3.088  1.00  0.00    -0.000 C 
BRANCH  14  15
ATOM     15  C   UNL     1     -22.259 -12.842   3.285  1.00  0.00    -0.000 C 
BRANCH  15  16
ATOM     16  C   UNL     1     -22.931 -11.512   3.667  1.00  0.00    -0.000 C 
BRANCH  16  17
ATOM     17  C   UNL     1     -23.726 -10.900   2.503  1.00  0.00    -0.003 C 
ATOM     18  C   UNL     1     -25.233 -10.892   2.759  1.00  0.00     0.004 C 
ENDBRANCH  16  17
ENDBRANCH  15  16
ENDBRANCH  14  15
ENDBRANCH  13  14
ENDBRANCH  12  13
ENDBRANCH  11  12
ENDBRANCH   1  11
TORSDOF 14
ENDMDL
MODEL 3
REMARK VINA RESULT:    -2.848     15.647     17.865
REMARK INTER + INTRA:          -6.288
REMARK INTER:                  -4.904
REMARK INTRA:                  -1.384
REMARK UNBOUND:                -1.109
REMARK SMILES CCCCCCCCCCCCCCCC(=O)[O-]
REMARK SMILES IDX 9 1 10 2 11 3 12 4 13 5 14 6 15 7 16 8 17 9 18 10 8 11 7 12
REMARK SMILES IDX 6 13 5 14 4 15 3 16 2 17 1 18
REMARK H PARENT
REMARK Flexibility Score: inf
ROOT
ATOM      1  C   UNL     1     -26.007   4.609   3.601  1.00  0.00     0.000 C 
ENDROOT
BRANCH   1   2
ATOM      2  C   UNL     1     -24.767   5.263   4.233  1.00  0.00     0.000 C 
BRANCH   2   3
ATOM      3  C   UNL     1     -23.493   5.050   3.403  1.00  0.00     0.000 C 
BRANCH   3   4
ATOM      4  C   UNL     1     -23.152   6.304   2.587  1.00  0.00     0.000 C 
BRANCH   4   5
ATOM      5  C   UNL     1     -23.790   6.243   1.193  1.00  0.00     0.000 C 
BRANCH   5   6
ATOM      6  C   UNL     1     -22.756   6.303   0.053  1.00  0.00     0.006 C 
BRANCH   6   7
ATOM      7  C   UNL     1     -21.343   6.704   0.510  1.00  0.00     0.053 C 
BRANCH   7   8
ATOM      8  C   UNL     1     -20.312   5.670   0.176  1.00  0.00     0.041 C 
ATOM      9  O   UNL     1     -20.659   4.495  -0.117  1.00  0.00    -0.550 OA
ATOM     10  O   UNL     1     -18.961   5.995   0.219  1.00  0.00    -0.550 OA
ENDBRANCH   7   8
ENDBRANCH   6   7
ENDBRANCH   5   6
ENDBRANCH   4   5
ENDBRANCH   3   4
ENDBRANCH   2   3
ENDBRANCH   1   2
BRANCH   1  11
ATOM     11  C   UNL     1     -26.003   3.067   3.683  1.00  0.00     0.000 C 
BRANCH  11  12
ATOM     12  C   UNL     1     -26.123   2.410   2.296  1.00  0.00    -0.000 C 
BRANCH  12  13
ATOM     13  C   UNL     1     -24.804   2.478   1.497  1.00  0.00    -0.000 C 
BRANCH  13  14
ATOM     14  C   UNL     1     -23.930   1.215   1.629  1.00  0.00    -0.000 C 
BRANCH  14  15
ATOM     15  C   UNL     1     -22.673   1.389   2.497  1.00  0.00    -0.000 C 
BRANCH  15  16
ATOM     16  C   UNL     1     -21.835   0.103   2.594  1.00  0.00    -0.000 C 
BRANCH  16  17
ATOM     17  C   UNL     1     -20.953  -0.117   1.356  1.00  0.00    -0.003 C 
ATOM     18  C   UNL     1     -20.081   1.096   1.031  1.00  0.00     0.004 C 
ENDBRANCH  16  17
ENDBRANCH  15  16
ENDBRANCH  14  15
ENDBRANCH  13  14
ENDBRANCH  12  13
ENDBRANCH  11  12
ENDBRANCH   1  11
TORSDOF 14
ENDMDL
MODEL 4
REMARK VINA RESULT:    -2.790      3.912      9.402
REMARK INTER + INTRA:          -6.181
REMARK INTER:                  -5.317
REMARK INTRA:                  -0.864
REMARK UNBOUND:                -1.109
REMARK SMILES CCCCCCCCCCCCCCCC(=O)[O-]
REMARK SMILES IDX 9 1 10 2 11 3 12 4 13 5 14 6 15 7 16 8 17 9 18 10 8 11 7 12
REMARK SMILES IDX 6 13 5 14 4 15 3 16 2 17 1 18
REMARK H PARENT
REMARK Flexibility Score: inf
ROOT
ATOM      1  C   UNL     1     -18.757 -12.721   3.238  1.00  0.00     0.000 C 
ENDROOT
BRANCH   1   2
ATOM      2  C   UNL     1     -17.566 -12.343   2.343  1.00  0.00     0.000 C 
BRANCH   2   3
ATOM      3  C   UNL     1     -16.265 -13.050   2.750  1.00  0.00     0.000 C 
BRANCH   3   4
ATOM      4  C   UNL     1     -15.415 -12.157   3.663  1.00  0.00     0.000 C 
BRANCH   4   5
ATOM      5  C   UNL     1     -15.655 -10.672   3.358  1.00  0.00     0.000 C 
BRANCH   5   6
ATOM      6  C   UNL     1     -14.574 -10.061   2.447  1.00  0.00     0.006 C 
BRANCH   6   7
ATOM      7  C   UNL     1     -13.236 -10.821   2.467  1.00  0.00     0.053 C 
BRANCH   7   8
ATOM      8  C   UNL     1     -12.921 -11.472   1.155  1.00  0.00     0.041 C 
ATOM      9  O   UNL     1     -13.836 -11.693   0.318  1.00  0.00    -0.550 OA
ATOM     10  O   UNL     1     -11.619 -11.864   0.867  1.00  0.00    -0.550 OA
ENDBRANCH   7   8
ENDBRANCH   6   7
ENDBRANCH   5   6
ENDBRANCH   4   5
ENDBRANCH   3   4
ENDBRANCH   2   3
ENDBRANCH   1   2
BRANCH   1  11
ATOM     11  C   UNL     1     -20.054 -13.011   2.452  1.00  0.00     0.000 C 
BRANCH  11  12
ATOM     12  C   UNL     1     -21.316 -12.761   3.298  1.00  0.00    -0.000 C 
BRANCH  12  13
ATOM     13  C   UNL     1     -22.604 -12.767   2.449  1.00  0.00    -0.000 C 
BRANCH  13  14
ATOM     14  C   UNL     1     -23.276 -11.384   2.326  1.00  0.00    -0.000 C 
BRANCH  14  15
ATOM     15  C   UNL     1     -24.762 -11.422   1.934  1.00  0.00    -0.000 C 
BRANCH  15  16
ATOM     16  C   UNL     1     -25.663 -10.695   2.948  1.00  0.00    -0.000 C 
BRANCH  16  17
ATOM     17  C   UNL     1     -25.480 -11.224   4.379  1.00  0.00    -0.003 C 
ATOM     18  C   UNL     1     -26.125 -12.595   4.586  1.00  0.00     0.004 C 
ENDBRANCH  16  17
ENDBRANCH  15  16
ENDBRANCH  14  15
ENDBRANCH  13  14
ENDBRANCH  12  13
ENDBRANCH  11  12
ENDBRANCH   1  11
TORSDOF 14
ENDMDL
MODEL 5
REMARK VINA RESULT:    -2.743     15.762     17.410
REMARK INTER + INTRA:          -6.098
REMARK INTER:                  -4.275
REMARK INTRA:                  -1.822
REMARK UNBOUND:                -1.109
REMARK SMILES CCCCCCCCCCCCCCCC(=O)[O-]
REMARK SMILES IDX 9 1 10 2 11 3 12 4 13 5 14 6 15 7 16 8 17 9 18 10 8 11 7 12
REMARK SMILES IDX 6 13 5 14 4 15 3 16 2 17 1 18
REMARK H PARENT
REMARK Flexibility Score: inf
ROOT
ATOM      1  C   UNL     1     -23.805   2.960   0.652  1.00  0.00     0.000 C 
ENDROOT
BRANCH   1   2
ATOM      2  C   UNL     1     -23.333   4.258  -0.023  1.00  0.00     0.000 C 
BRANCH   2   3
ATOM      3  C   UNL     1     -22.528   5.163   0.921  1.00  0.00     0.000 C 
BRANCH   3   4
ATOM      4  C   UNL     1     -23.133   6.571   0.983  1.00  0.00     0.000 C 
BRANCH   4   5
ATOM      5  C   UNL     1     -24.542   6.592   0.376  1.00  0.00     0.000 C 
BRANCH   5   6
ATOM      6  C   UNL     1     -25.637   6.935   1.403  1.00  0.00     0.006 C 
BRANCH   6   7
ATOM      7  C   UNL     1     -26.018   5.765   2.325  1.00  0.00     0.053 C 
BRANCH   7   8
ATOM      8  C   UNL     1     -25.568   5.971   3.739  1.00  0.00     0.041 C 
ATOM      9  O   UNL     1     -25.559   7.125   4.242  1.00  0.00    -0.550 OA
ATOM     10  O   UNL     1     -25.126   4.890   4.493  1.00  0.00    -0.550 OA
ENDBRANCH   7   8
ENDBRANCH   6   7
ENDBRANCH   5   6
ENDBRANCH   4   5
ENDBRANCH   3   4
ENDBRANCH   2   3
ENDBRANCH   1   2
BRANCH   1  11
ATOM     11  C   UNL     1     -23.427   2.867   2.147  1.00  0.00     0.000 C 
BRANCH  11  12
ATOM     12  C   UNL     1     -22.751   1.528   2.494  1.00  0.00    -0.000 C 
BRANCH  12  13
ATOM     13  C   UNL     1     -22.502   0.653   1.247  1.00  0.00    -0.000 C 
BRANCH  13  14
ATOM     14  C   UNL     1     -21.012   0.506   0.877  1.00  0.00    -0.000 C 
BRANCH  14  15
ATOM     15  C   UNL     1     -20.352   1.785   0.336  1.00  0.00    -0.000 C 
BRANCH  15  16
ATOM     16  C   UNL     1     -18.847   1.855   0.649  1.00  0.00    -0.000 C 
BRANCH  16  17
ATOM     17  C   UNL     1     -18.172   3.077   0.009  1.00  0.00    -0.003 C 
ATOM     18  C   UNL     1     -19.110   4.280  -0.095  1.00  0.00     0.004 C 
ENDBRANCH  16  17
ENDBRANCH  15  16
ENDBRANCH  14  15
ENDBRANCH  13  14
ENDBRANCH  12  13
ENDBRANCH  11  12
ENDBRANCH   1  11
TORSDOF 14
ENDMDL
MODEL 6
REMARK VINA RESULT:    -2.736      4.039      9.572
REMARK INTER + INTRA:          -6.085
REMARK INTER:                  -5.594
REMARK INTRA:                  -0.490
REMARK UNBOUND:                -1.109
REMARK SMILES CCCCCCCCCCCCCCCC(=O)[O-]
REMARK SMILES IDX 9 1 10 2 11 3 12 4 13 5 14 6 15 7 16 8 17 9 18 10 8 11 7 12
REMARK SMILES IDX 6 13 5 14 4 15 3 16 2 17 1 18
REMARK H PARENT
REMARK Flexibility Score: inf
ROOT
ATOM      1  C   UNL     1     -18.102 -12.704   2.374  1.00  0.00     0.000 C 
ENDROOT
BRANCH   1   2
ATOM      2  C   UNL     1     -17.109 -11.680   2.948  1.00  0.00     0.000 C 
BRANCH   2   3
ATOM      3  C   UNL     1     -15.995 -11.308   1.959  1.00  0.00     0.000 C 
BRANCH   3   4
ATOM      4  C   UNL     1     -15.161 -10.134   2.485  1.00  0.00     0.000 C 
BRANCH   4   5
ATOM      5  C   UNL     1     -13.666 -10.478   2.486  1.00  0.00     0.000 C 
BRANCH   5   6
ATOM      6  C   UNL     1     -13.387 -11.958   2.804  1.00  0.00     0.006 C 
BRANCH   6   7
ATOM      7  C   UNL     1     -12.007 -12.214   3.434  1.00  0.00     0.053 C 
BRANCH   7   8
ATOM      8  C   UNL     1     -12.093 -12.614   4.875  1.00  0.00     0.041 C 
ATOM      9  O   UNL     1     -13.203 -12.922   5.385  1.00  0.00    -0.550 OA
ATOM     10  O   UNL     1     -10.950 -12.616   5.666  1.00  0.00    -0.550 OA
ENDBRANCH   7   8
ENDBRANCH   6   7
ENDBRANCH   5   6
ENDBRANCH   4   5
ENDBRANCH   3   4
ENDBRANCH   2   3
ENDBRANCH   1   2
BRANCH   1  11
ATOM     11  C   UNL     1     -19.358 -12.907   3.249  1.00  0.00     0.000 C 
BRANCH  11  12
ATOM     12  C   UNL     1     -20.654 -12.897   2.418  1.00  0.00    -0.000 C 
BRANCH  12  13
ATOM     13  C   UNL     1     -21.869 -12.399   3.229  1.00  0.00    -0.000 C 
BRANCH  13  14
ATOM     14  C   UNL     1     -23.151 -12.229   2.390  1.00  0.00    -0.000 C 
BRANCH  14  15
ATOM     15  C   UNL     1     -23.798 -10.837   2.477  1.00  0.00    -0.000 C 
BRANCH  15  16
ATOM     16  C   UNL     1     -25.250 -10.887   2.985  1.00  0.00    -0.000 C 
BRANCH  16  17
ATOM     17  C   UNL     1     -26.101  -9.730   2.443  1.00  0.00    -0.003 C 
ATOM     18  C   UNL     1     -25.370  -8.909   1.381  1.00  0.00     0.004 C 
ENDBRANCH  16  17
ENDBRANCH  15  16
ENDBRANCH  14  15
ENDBRANCH  13  14
ENDBRANCH  12  13
ENDBRANCH  11  12
ENDBRANCH   1  11
TORSDOF 14
ENDMDL
MODEL 7
REMARK VINA RESULT:    -2.641     15.459     17.702
REMARK INTER + INTRA:          -5.912
REMARK INTER:                  -3.904
REMARK INTRA:                  -2.007
REMARK UNBOUND:                -1.109
REMARK SMILES CCCCCCCCCCCCCCCC(=O)[O-]
REMARK SMILES IDX 9 1 10 2 11 3 12 4 13 5 14 6 15 7 16 8 17 9 18 10 8 11 7 12
REMARK SMILES IDX 6 13 5 14 4 15 3 16 2 17 1 18
REMARK H PARENT
REMARK Flexibility Score: inf
ROOT
ATOM      1  C   UNL     1     -25.233   3.470   3.535  1.00  0.00     0.000 C 
ENDROOT
BRANCH   1   2
ATOM      2  C   UNL     1     -25.032   2.181   2.721  1.00  0.00     0.000 C 
BRANCH   2   3
ATOM      3  C   UNL     1     -25.590   2.283   1.295  1.00  0.00     0.000 C 
BRANCH   3   4
ATOM      4  C   UNL     1     -24.483   2.638   0.294  1.00  0.00     0.000 C 
BRANCH   4   5
ATOM      5  C   UNL     1     -23.407   1.544   0.253  1.00  0.00     0.000 C 
BRANCH   5   6
ATOM      6  C   UNL     1     -22.003   2.066   0.609  1.00  0.00     0.006 C 
BRANCH   6   7
ATOM      7  C   UNL     1     -20.951   0.957   0.789  1.00  0.00     0.053 C 
BRANCH   7   8
ATOM      8  C   UNL     1     -21.421  -0.148   1.683  1.00  0.00     0.041 C 
ATOM      9  O   UNL     1     -21.585  -1.310   1.227  1.00  0.00    -0.550 OA
ATOM     10  O   UNL     1     -21.710   0.112   3.018  1.00  0.00    -0.550 OA
ENDBRANCH   7   8
ENDBRANCH   6   7
ENDBRANCH   5   6
ENDBRANCH   4   5
ENDBRANCH   3   4
ENDBRANCH   2   3
ENDBRANCH   1   2
BRANCH   1  11
ATOM     11  C   UNL     1     -24.055   4.462   3.423  1.00  0.00     0.000 C 
BRANCH  11  12
ATOM     12  C   UNL     1     -24.435   5.873   3.909  1.00  0.00    -0.000 C 
BRANCH  12  13
ATOM     13  C   UNL     1     -24.581   6.876   2.745  1.00  0.00    -0.000 C 
BRANCH  13  14
ATOM     14  C   UNL     1     -25.520   6.394   1.621  1.00  0.00    -0.000 C 
BRANCH  14  15
ATOM     15  C   UNL     1     -24.878   6.338   0.225  1.00  0.00    -0.000 C 
BRANCH  15  16
ATOM     16  C   UNL     1     -23.415   6.815   0.223  1.00  0.00    -0.000 C 
BRANCH  16  17
ATOM     17  C   UNL     1     -22.426   5.675  -0.060  1.00  0.00    -0.003 C 
ATOM     18  C   UNL     1     -21.046   5.929   0.546  1.00  0.00     0.004 C 
ENDBRANCH  16  17
ENDBRANCH  15  16
ENDBRANCH  14  15
ENDBRANCH  13  14
ENDBRANCH  12  13
ENDBRANCH  11  12
ENDBRANCH   1  11
TORSDOF 14
ENDMDL
MODEL 8
REMARK VINA RESULT:    -2.635     14.873     16.643
REMARK INTER + INTRA:          -5.901
REMARK INTER:                  -4.712
REMARK INTRA:                  -1.189
REMARK UNBOUND:                -1.109
REMARK SMILES CCCCCCCCCCCCCCCC(=O)[O-]
REMARK SMILES IDX 9 1 10 2 11 3 12 4 13 5 14 6 15 7 16 8 17 9 18 10 8 11 7 12
REMARK SMILES IDX 6 13 5 14 4 15 3 16 2 17 1 18
REMARK H PARENT
REMARK Flexibility Score: inf
ROOT
ATOM      1  C   UNL     1     -22.906   1.727   1.732  1.00  0.00     0.000 C 
ENDROOT
BRANCH   1   2
ATOM      2  C   UNL     1     -24.421   1.764   1.987  1.00  0.00     0.000 C 
BRANCH   2   3
ATOM      3  C   UNL     1     -25.246   1.664   0.695  1.00  0.00     0.000 C 
BRANCH   3   4
ATOM      4  C   UNL     1     -26.117   2.911   0.501  1.00  0.00     0.000 C 
BRANCH   4   5
ATOM      5  C   UNL     1     -25.252   4.168   0.339  1.00  0.00     0.000 C 
BRANCH   5   6
ATOM      6  C   UNL     1     -25.648   5.302   1.303  1.00  0.00     0.006 C 
BRANCH   6   7
ATOM      7  C   UNL     1     -24.510   5.758   2.233  1.00  0.00     0.053 C 
BRANCH   7   8
ATOM      8  C   UNL     1     -24.527   5.056   3.556  1.00  0.00     0.041 C 
ATOM      9  O   UNL     1     -23.456   4.626   4.062  1.00  0.00    -0.550 OA
ATOM     10  O   UNL     1     -25.731   4.847   4.218  1.00  0.00    -0.550 OA
ENDBRANCH   7   8
ENDBRANCH   6   7
ENDBRANCH   5   6
ENDBRANCH   4   5
ENDBRANCH   3   4
ENDBRANCH   2   3
ENDBRANCH   1   2
BRANCH   1  11
ATOM     11  C   UNL     1     -22.174   0.611   2.510  1.00  0.00     0.000 C 
BRANCH  11  12
ATOM     12  C   UNL     1     -20.734   0.401   2.009  1.00  0.00    -0.000 C 
BRANCH  12  13
ATOM     13  C   UNL     1     -20.537   0.892   0.560  1.00  0.00    -0.000 C 
BRANCH  13  14
ATOM     14  C   UNL     1     -19.215   1.653   0.334  1.00  0.00    -0.000 C 
BRANCH  14  15
ATOM     15  C   UNL     1     -19.379   3.138  -0.028  1.00  0.00    -0.000 C 
BRANCH  15  16
ATOM     16  C   UNL     1     -18.129   3.972   0.304  1.00  0.00    -0.000 C 
BRANCH  16  17
ATOM     17  C   UNL     1     -18.371   5.480   0.142  1.00  0.00    -0.003 C 
ATOM     18  C   UNL     1     -19.854   5.848   0.202  1.00  0.00     0.004 C 
ENDBRANCH  16  17
ENDBRANCH  15  16
ENDBRANCH  14  15
ENDBRANCH  13  14
ENDBRANCH  12  13
ENDBRANCH  11  12
ENDBRANCH   1  11
TORSDOF 14
ENDMDL
