MODEL 1
REMARK VINA RESULT:    -3.403      0.000      0.000
REMARK INTER + INTRA:          -7.103
REMARK INTER:                  -6.188
REMARK INTRA:                  -0.915
REMARK UNBOUND:                -0.915
REMARK SMILES CCCCCCCCCCCCCCCC(=O)[O-]
REMARK SMILES IDX 9 1 10 2 11 3 12 4 13 5 14 6 15 7 16 8 17 9 18 10 8 11 7 12
REMARK SMILES IDX 6 13 5 14 4 15 3 16 2 17 1 18
REMARK H PARENT
REMARK Flexibility Score: inf
ROOT
ATOM      1  C   UNL     1       4.242 -37.590  19.610  1.00  0.00     0.000 C 
ENDROOT
BRANCH   1   2
ATOM      2  C   UNL     1       5.085 -36.303  19.673  1.00  0.00     0.000 C 
BRANCH   2   3
ATOM      3  C   UNL     1       5.775 -36.116  21.033  1.00  0.00     0.000 C 
BRANCH   3   4
ATOM      4  C   UNL     1       5.003 -35.168  21.965  1.00  0.00     0.000 C 
BRANCH   4   5
ATOM      5  C   UNL     1       5.762 -34.952  23.280  1.00  0.00     0.000 C 
BRANCH   5   6
ATOM      6  C   UNL     1       6.124 -36.293  23.935  1.00  0.00     0.006 C 
BRANCH   6   7
ATOM      7  C   UNL     1       5.478 -36.458  25.317  1.00  0.00     0.053 C 
BRANCH   7   8
ATOM      8  C   UNL     1       4.938 -37.840  25.517  1.00  0.00     0.041 C 
ATOM      9  O   UNL     1       5.270 -38.770  24.735  1.00  0.00    -0.550 OA
ATOM     10  O   UNL     1       4.041 -38.096  26.546  1.00  0.00    -0.550 OA
ENDBRANCH   7   8
ENDBRANCH   6   7
ENDBRANCH   5   6
ENDBRANCH   4   5
ENDBRANCH   3   4
ENDBRANCH   2   3
ENDBRANCH   1   2
BRANCH   1  11
ATOM     11  C   UNL     1       2.797 -37.371  20.085  1.00  0.00     0.000 C 
BRANCH  11  12
ATOM     12  C   UNL     1       1.755 -37.849  19.058  1.00  0.00    -0.000 C 
BRANCH  12  13
ATOM     13  C   UNL     1       2.257 -37.723  17.611  1.00  0.00    -0.000 C 
BRANCH  13  14
ATOM     14  C   UNL     1       1.428 -36.726  16.784  1.00  0.00    -0.000 C 
BRANCH  14  15
ATOM     15  C   UNL     1       1.974 -36.533  15.359  1.00  0.00    -0.000 C 
BRANCH  15  16
ATOM     16  C   UNL     1       3.494 -36.776  15.242  1.00  0.00    -0.000 C 
BRANCH  16  17
ATOM     17  C   UNL     1       3.868 -37.502  13.942  1.00  0.00    -0.003 C 
ATOM     18  C   UNL     1       4.304 -38.938  14.218  1.00  0.00     0.004 C 
ENDBRANCH  16  17
ENDBRANCH  15  16
ENDBRANCH  14  15
ENDBRANCH  13  14
ENDBRANCH  12  13
ENDBRANCH  11  12
ENDBRANCH   1  11
TORSDOF 14
ENDMDL
MODEL 2
REMARK VINA RESULT:    -2.755      1.624      3.310
REMARK INTER + INTRA:          -5.925
REMARK INTER:                  -5.063
REMARK INTRA:                  -0.863
REMARK UNBOUND:                -0.915
REMARK SMILES CCCCCCCCCCCCCCCC(=O)[O-]
REMARK SMILES IDX 9 1 10 2 11 3 12 4 13 5 14 6 15 7 16 8 17 9 18 10 8 11 7 12
REMARK SMILES IDX 6 13 5 14 4 15 3 16 2 17 1 18
REMARK H PARENT
REMARK Flexibility Score: inf
ROOT
ATOM      1  C   UNL     1       5.066 -35.505  22.278  1.00  0.00     0.000 C 
ENDROOT
BRANCH   1   2
ATOM      2  C   UNL     1       5.838 -34.639  23.290  1.00  0.00     0.000 C 
BRANCH   2   3
ATOM      3  C   UNL     1       6.073 -35.361  24.626  1.00  0.00     0.000 C 
BRANCH   3   4
ATOM      4  C   UNL     1       6.053 -36.892  24.485  1.00  0.00     0.000 C 
BRANCH   4   5
ATOM      5  C   UNL     1       5.087 -37.524  25.495  1.00  0.00     0.000 C 
BRANCH   5   6
ATOM      6  C   UNL     1       5.037 -39.049  25.330  1.00  0.00     0.006 C 
BRANCH   6   7
ATOM      7  C   UNL     1       5.000 -39.474  23.856  1.00  0.00     0.053 C 
BRANCH   7   8
ATOM      8  C   UNL     1       5.515 -40.868  23.667  1.00  0.00     0.041 C 
ATOM      9  O   UNL     1       5.680 -41.331  22.507  1.00  0.00    -0.550 OA
ATOM     10  O   UNL     1       5.781 -41.668  24.771  1.00  0.00    -0.550 OA
ENDBRANCH   7   8
ENDBRANCH   6   7
ENDBRANCH   5   6
ENDBRANCH   4   5
ENDBRANCH   3   4
ENDBRANCH   2   3
ENDBRANCH   1   2
BRANCH   1  11
ATOM     11  C   UNL     1       5.956 -36.000  21.127  1.00  0.00     0.000 C 
BRANCH  11  12
ATOM     12  C   UNL     1       5.165 -36.762  20.049  1.00  0.00    -0.000 C 
BRANCH  12  13
ATOM     13  C   UNL     1       3.664 -36.431  20.080  1.00  0.00    -0.000 C 
BRANCH  13  14
ATOM     14  C   UNL     1       2.819 -37.450  19.296  1.00  0.00    -0.000 C 
BRANCH  14  15
ATOM     15  C   UNL     1       3.139 -37.459  17.792  1.00  0.00    -0.000 C 
BRANCH  15  16
ATOM     16  C   UNL     1       1.983 -36.939  16.912  1.00  0.00    -0.000 C 
BRANCH  16  17
ATOM     17  C   UNL     1       2.448 -36.586  15.491  1.00  0.00    -0.003 C 
ATOM     18  C   UNL     1       3.541 -37.540  15.016  1.00  0.00     0.004 C 
ENDBRANCH  16  17
ENDBRANCH  15  16
ENDBRANCH  14  15
ENDBRANCH  13  14
ENDBRANCH  12  13
ENDBRANCH  11  12
ENDBRANCH   1  11
TORSDOF 14
ENDMDL
MODEL 3
REMARK VINA RESULT:    -2.602      3.849      8.174
REMARK INTER + INTRA:          -5.645
REMARK INTER:                  -4.723
REMARK INTRA:                  -0.922
REMARK UNBOUND:                -0.915
REMARK SMILES CCCCCCCCCCCCCCCC(=O)[O-]
REMARK SMILES IDX 9 1 10 2 11 3 12 4 13 5 14 6 15 7 16 8 17 9 18 10 8 11 7 12
REMARK SMILES IDX 6 13 5 14 4 15 3 16 2 17 1 18
REMARK H PARENT
REMARK Flexibility Score: inf
ROOT
ATOM      1  C   UNL     1       5.234 -35.658  22.347  1.00  0.00     0.000 C 
ENDROOT
BRANCH   1   2
ATOM      2  C   UNL     1       5.986 -35.804  21.012  1.00  0.00     0.000 C 
BRANCH   2   3
ATOM      3  C   UNL     1       5.269 -36.743  20.030  1.00  0.00     0.000 C 
BRANCH   3   4
ATOM      4  C   UNL     1       3.738 -36.636  20.118  1.00  0.00     0.000 C 
BRANCH   4   5
ATOM      5  C   UNL     1       3.067 -37.416  18.981  1.00  0.00     0.000 C 
BRANCH   5   6
ATOM      6  C   UNL     1       3.419 -36.809  17.614  1.00  0.00     0.006 C 
BRANCH   6   7
ATOM      7  C   UNL     1       2.312 -37.035  16.576  1.00  0.00     0.053 C 
BRANCH   7   8
ATOM      8  C   UNL     1       2.870 -37.194  15.195  1.00  0.00     0.041 C 
ATOM      9  O   UNL     1       2.493 -36.431  14.267  1.00  0.00    -0.550 OA
ATOM     10  O   UNL     1       3.783 -38.206  14.925  1.00  0.00    -0.550 OA
ENDBRANCH   7   8
ENDBRANCH   6   7
ENDBRANCH   5   6
ENDBRANCH   4   5
ENDBRANCH   3   4
ENDBRANCH   2   3
ENDBRANCH   1   2
BRANCH   1  11
ATOM     11  C   UNL     1       5.894 -34.636  23.287  1.00  0.00     0.000 C 
BRANCH  11  12
ATOM     12  C   UNL     1       6.124 -35.192  24.703  1.00  0.00    -0.000 C 
BRANCH  12  13
ATOM     13  C   UNL     1       6.089 -36.729  24.742  1.00  0.00    -0.000 C 
BRANCH  13  14
ATOM     14  C   UNL     1       5.127 -37.269  25.814  1.00  0.00    -0.000 C 
BRANCH  14  15
ATOM     15  C   UNL     1       4.729 -38.735  25.573  1.00  0.00    -0.000 C 
BRANCH  15  16
ATOM     16  C   UNL     1       4.973 -39.212  24.126  1.00  0.00    -0.000 C 
BRANCH  16  17
ATOM     17  C   UNL     1       5.400 -40.686  24.064  1.00  0.00    -0.003 C 
ATOM     18  C   UNL     1       5.696 -41.114  22.629  1.00  0.00     0.004 C 
ENDBRANCH  16  17
ENDBRANCH  15  16
ENDBRANCH  14  15
ENDBRANCH  13  14
ENDBRANCH  12  13
ENDBRANCH  11  12
ENDBRANCH   1  11
TORSDOF 14
ENDMDL
MODEL 4
REMARK VINA RESULT:    -2.121      3.616      8.281
REMARK INTER + INTRA:          -4.771
REMARK INTER:                  -3.843
REMARK INTRA:                  -0.928
REMARK UNBOUND:                -0.915
REMARK SMILES CCCCCCCCCCCCCCCC(=O)[O-]
REMARK SMILES IDX 9 1 10 2 11 3 12 4 13 5 14 6 15 7 16 8 17 9 18 10 8 11 7 12
REMARK SMILES IDX 6 13 5 14 4 15 3 16 2 17 1 18
REMARK H PARENT
REMARK Flexibility Score: inf
ROOT
ATOM      1  C   UNL     1       5.296 -35.848  19.792  1.00  0.00     0.000 C 
ENDROOT
BRANCH   1   2
ATOM      2  C   UNL     1       4.713 -37.168  19.257  1.00  0.00     0.000 C 
BRANCH   2   3
ATOM      3  C   UNL     1       3.589 -37.720  20.148  1.00  0.00     0.000 C 
BRANCH   3   4
ATOM      4  C   UNL     1       2.190 -37.303  19.667  1.00  0.00     0.000 C 
BRANCH   4   5
ATOM      5  C   UNL     1       1.789 -38.078  18.406  1.00  0.00     0.000 C 
BRANCH   5   6
ATOM      6  C   UNL     1       1.459 -37.121  17.252  1.00  0.00     0.006 C 
BRANCH   6   7
ATOM      7  C   UNL     1       2.714 -36.459  16.668  1.00  0.00     0.053 C 
BRANCH   7   8
ATOM      8  C   UNL     1       3.092 -37.054  15.347  1.00  0.00     0.041 C 
ATOM      9  O   UNL     1       2.988 -36.375  14.292  1.00  0.00    -0.550 OA
ATOM     10  O   UNL     1       3.530 -38.371  15.276  1.00  0.00    -0.550 OA
ENDBRANCH   7   8
ENDBRANCH   6   7
ENDBRANCH   5   6
ENDBRANCH   4   5
ENDBRANCH   3   4
ENDBRANCH   2   3
ENDBRANCH   1   2
BRANCH   1  11
ATOM     11  C   UNL     1       5.637 -35.918  21.289  1.00  0.00     0.000 C 
BRANCH  11  12
ATOM     12  C   UNL     1       4.789 -34.953  22.137  1.00  0.00    -0.000 C 
BRANCH  12  13
ATOM     13  C   UNL     1       5.270 -34.875  23.595  1.00  0.00    -0.000 C 
BRANCH  13  14
ATOM     14  C   UNL     1       6.125 -36.087  24.000  1.00  0.00    -0.000 C 
BRANCH  14  15
ATOM     15  C   UNL     1       5.943 -36.480  25.476  1.00  0.00    -0.000 C 
BRANCH  15  16
ATOM     16  C   UNL     1       4.660 -37.293  25.745  1.00  0.00    -0.000 C 
BRANCH  16  17
ATOM     17  C   UNL     1       4.947 -38.794  25.903  1.00  0.00    -0.003 C 
ATOM     18  C   UNL     1       5.008 -39.490  24.546  1.00  0.00     0.004 C 
ENDBRANCH  16  17
ENDBRANCH  15  16
ENDBRANCH  14  15
ENDBRANCH  13  14
ENDBRANCH  12  13
ENDBRANCH  11  12
ENDBRANCH   1  11
TORSDOF 14
ENDMDL
MODEL 5
REMARK VINA RESULT:    -1.906      2.372      7.477
REMARK INTER + INTRA:          -4.381
REMARK INTER:                  -3.600
REMARK INTRA:                  -0.782
REMARK UNBOUND:                -0.915
REMARK SMILES CCCCCCCCCCCCCCCC(=O)[O-]
REMARK SMILES IDX 9 1 10 2 11 3 12 4 13 5 14 6 15 7 16 8 17 9 18 10 8 11 7 12
REMARK SMILES IDX 6 13 5 14 4 15 3 16 2 17 1 18
REMARK H PARENT
REMARK Flexibility Score: inf
ROOT
ATOM      1  C   UNL     1       5.127 -34.590  18.288  1.00  0.00     0.000 C 
ENDROOT
BRANCH   1   2
ATOM      2  C   UNL     1       4.157 -35.703  17.851  1.00  0.00     0.000 C 
BRANCH   2   3
ATOM      3  C   UNL     1       3.381 -35.341  16.576  1.00  0.00     0.000 C 
BRANCH   3   4
ATOM      4  C   UNL     1       3.009 -36.574  15.737  1.00  0.00     0.000 C 
BRANCH   4   5
ATOM      5  C   UNL     1       1.647 -37.137  16.161  1.00  0.00     0.000 C 
BRANCH   5   6
ATOM      6  C   UNL     1       1.761 -37.919  17.478  1.00  0.00     0.006 C 
BRANCH   6   7
ATOM      7  C   UNL     1       0.617 -37.593  18.448  1.00  0.00     0.053 C 
BRANCH   7   8
ATOM      8  C   UNL     1       1.092 -37.533  19.867  1.00  0.00     0.041 C 
ATOM      9  O   UNL     1       0.292 -37.231  20.792  1.00  0.00    -0.550 OA
ATOM     10  O   UNL     1       2.427 -37.778  20.166  1.00  0.00    -0.550 OA
ENDBRANCH   7   8
ENDBRANCH   6   7
ENDBRANCH   5   6
ENDBRANCH   4   5
ENDBRANCH   3   4
ENDBRANCH   2   3
ENDBRANCH   1   2
BRANCH   1  11
ATOM     11  C   UNL     1       5.806 -34.895  19.633  1.00  0.00     0.000 C 
BRANCH  11  12
ATOM     12  C   UNL     1       5.512 -36.319  20.138  1.00  0.00    -0.000 C 
BRANCH  12  13
ATOM     13  C   UNL     1       5.677 -36.447  21.661  1.00  0.00    -0.000 C 
BRANCH  13  14
ATOM     14  C   UNL     1       5.865 -35.086  22.351  1.00  0.00    -0.000 C 
BRANCH  14  15
ATOM     15  C   UNL     1       6.120 -35.213  23.862  1.00  0.00    -0.000 C 
BRANCH  15  16
ATOM     16  C   UNL     1       6.033 -36.663  24.383  1.00  0.00    -0.000 C 
BRANCH  16  17
ATOM     17  C   UNL     1       5.373 -36.745  25.767  1.00  0.00    -0.003 C 
ATOM     18  C   UNL     1       4.630 -38.066  25.946  1.00  0.00     0.004 C 
ENDBRANCH  16  17
ENDBRANCH  15  16
ENDBRANCH  14  15
ENDBRANCH  13  14
ENDBRANCH  12  13
ENDBRANCH  11  12
ENDBRANCH   1  11
TORSDOF 14
ENDMDL
MODEL 6
REMARK VINA RESULT:    -1.898      3.911      8.564
REMARK INTER + INTRA:          -4.367
REMARK INTER:                  -4.837
REMARK INTRA:                   0.470
REMARK UNBOUND:                -0.915
REMARK SMILES CCCCCCCCCCCCCCCC(=O)[O-]
REMARK SMILES IDX 9 1 10 2 11 3 12 4 13 5 14 6 15 7 16 8 17 9 18 10 8 11 7 12
REMARK SMILES IDX 6 13 5 14 4 15 3 16 2 17 1 18
REMARK H PARENT
REMARK Flexibility Score: inf
ROOT
ATOM      1  C   UNL     1       5.141 -34.518  18.395  1.00  0.00     0.000 C 
ENDROOT
BRANCH   1   2
ATOM      2  C   UNL     1       3.862 -35.244  17.941  1.00  0.00     0.000 C 
BRANCH   2   3
ATOM      3  C   UNL     1       4.004 -36.773  17.983  1.00  0.00     0.000 C 
BRANCH   3   4
ATOM      4  C   UNL     1       2.650 -37.494  18.070  1.00  0.00     0.000 C 
BRANCH   4   5
ATOM      5  C   UNL     1       1.828 -37.273  16.794  1.00  0.00     0.000 C 
BRANCH   5   6
ATOM      6  C   UNL     1       2.532 -36.292  15.847  1.00  0.00     0.006 C 
BRANCH   6   7
ATOM      7  C   UNL     1       2.656 -36.847  14.422  1.00  0.00     0.053 C 
BRANCH   7   8
ATOM      8  C   UNL     1       3.924 -37.621  14.235  1.00  0.00     0.041 C 
ATOM      9  O   UNL     1       4.979 -37.033  13.876  1.00  0.00    -0.550 OA
ATOM     10  O   UNL     1       3.935 -38.997  14.425  1.00  0.00    -0.550 OA
ENDBRANCH   7   8
ENDBRANCH   6   7
ENDBRANCH   5   6
ENDBRANCH   4   5
ENDBRANCH   3   4
ENDBRANCH   2   3
ENDBRANCH   1   2
BRANCH   1  11
ATOM     11  C   UNL     1       6.083 -35.431  19.197  1.00  0.00     0.000 C 
BRANCH  11  12
ATOM     12  C   UNL     1       5.483 -35.866  20.546  1.00  0.00    -0.000 C 
BRANCH  12  13
ATOM     13  C   UNL     1       6.123 -35.133  21.736  1.00  0.00    -0.000 C 
BRANCH  13  14
ATOM     14  C   UNL     1       5.123 -34.876  22.876  1.00  0.00    -0.000 C 
BRANCH  14  15
ATOM     15  C   UNL     1       5.707 -35.190  24.264  1.00  0.00    -0.000 C 
BRANCH  15  16
ATOM     16  C   UNL     1       5.719 -36.696  24.602  1.00  0.00    -0.000 C 
BRANCH  16  17
ATOM     17  C   UNL     1       4.899 -37.014  25.862  1.00  0.00    -0.003 C 
ATOM     18  C   UNL     1       4.672 -38.517  26.006  1.00  0.00     0.004 C 
ENDBRANCH  16  17
ENDBRANCH  15  16
ENDBRANCH  14  15
ENDBRANCH  13  14
ENDBRANCH  12  13
ENDBRANCH  11  12
ENDBRANCH   1  11
TORSDOF 14
ENDMDL
MODEL 7
REMARK VINA RESULT:    -1.679      1.369      2.282
REMARK INTER + INTRA:          -3.968
REMARK INTER:                  -2.601
REMARK INTRA:                  -1.368
REMARK UNBOUND:                -0.915
REMARK SMILES CCCCCCCCCCCCCCCC(=O)[O-]
REMARK SMILES IDX 9 1 10 2 11 3 12 4 13 5 14 6 15 7 16 8 17 9 18 10 8 11 7 12
REMARK SMILES IDX 6 13 5 14 4 15 3 16 2 17 1 18
REMARK H PARENT
REMARK Flexibility Score: inf
ROOT
ATOM      1  C   UNL     1       2.675 -36.698  20.617  1.00  0.00     0.000 C 
ENDROOT
BRANCH   1   2
ATOM      2  C   UNL     1       3.969 -37.507  20.412  1.00  0.00     0.000 C 
BRANCH   2   3
ATOM      3  C   UNL     1       5.135 -36.978  21.261  1.00  0.00     0.000 C 
BRANCH   3   4
ATOM      4  C   UNL     1       5.017 -35.476  21.565  1.00  0.00     0.000 C 
BRANCH   4   5
ATOM      5  C   UNL     1       5.659 -35.136  22.915  1.00  0.00     0.000 C 
BRANCH   5   6
ATOM      6  C   UNL     1       6.123 -36.407  23.641  1.00  0.00     0.006 C 
BRANCH   6   7
ATOM      7  C   UNL     1       5.523 -36.524  25.048  1.00  0.00     0.053 C 
BRANCH   7   8
ATOM      8  C   UNL     1       5.004 -37.903  25.318  1.00  0.00     0.041 C 
ATOM      9  O   UNL     1       5.095 -38.798  24.438  1.00  0.00    -0.550 OA
ATOM     10  O   UNL     1       4.388 -38.190  26.530  1.00  0.00    -0.550 OA
ENDBRANCH   7   8
ENDBRANCH   6   7
ENDBRANCH   5   6
ENDBRANCH   4   5
ENDBRANCH   3   4
ENDBRANCH   2   3
ENDBRANCH   1   2
BRANCH   1  11
ATOM     11  C   UNL     1       1.445 -37.390  20.007  1.00  0.00     0.000 C 
BRANCH  11  12
ATOM     12  C   UNL     1       1.782 -38.183  18.731  1.00  0.00    -0.000 C 
BRANCH  12  13
ATOM     13  C   UNL     1       1.267 -37.493  17.458  1.00  0.00    -0.000 C 
BRANCH  13  14
ATOM     14  C   UNL     1       2.389 -37.208  16.446  1.00  0.00    -0.000 C 
BRANCH  14  15
ATOM     15  C   UNL     1       3.059 -35.841  16.667  1.00  0.00    -0.000 C 
BRANCH  15  16
ATOM     16  C   UNL     1       4.315 -35.907  17.561  1.00  0.00    -0.000 C 
BRANCH  16  17
ATOM     17  C   UNL     1       4.697 -34.531  18.127  1.00  0.00    -0.003 C 
ATOM     18  C   UNL     1       6.123 -34.536  18.673  1.00  0.00     0.004 C 
ENDBRANCH  16  17
ENDBRANCH  15  16
ENDBRANCH  14  15
ENDBRANCH  13  14
ENDBRANCH  12  13
ENDBRANCH  11  12
ENDBRANCH   1  11
TORSDOF 14
ENDMDL
MODEL 8
REMARK VINA RESULT:    -1.583      3.524      7.371
REMARK INTER + INTRA:          -3.794
REMARK INTER:                  -2.904
REMARK INTRA:                  -0.890
REMARK UNBOUND:                -0.915
REMARK SMILES CCCCCCCCCCCCCCCC(=O)[O-]
REMARK SMILES IDX 9 1 10 2 11 3 12 4 13 5 14 6 15 7 16 8 17 9 18 10 8 11 7 12
REMARK SMILES IDX 6 13 5 14 4 15 3 16 2 17 1 18
REMARK H PARENT
REMARK Flexibility Score: inf
ROOT
ATOM      1  C   UNL     1       5.866 -35.100  24.396  1.00  0.00     0.000 C 
ENDROOT
BRANCH   1   2
ATOM      2  C   UNL     1       6.048 -34.793  22.899  1.00  0.00     0.000 C 
BRANCH   2   3
ATOM      3  C   UNL     1       5.330 -35.809  21.997  1.00  0.00     0.000 C 
BRANCH   3   4
ATOM      4  C   UNL     1       4.013 -35.266  21.421  1.00  0.00     0.000 C 
BRANCH   4   5
ATOM      5  C   UNL     1       3.769 -35.804  20.006  1.00  0.00     0.000 C 
BRANCH   5   6
ATOM      6  C   UNL     1       4.210 -37.270  19.890  1.00  0.00     0.006 C 
BRANCH   6   7
ATOM      7  C   UNL     1       3.992 -37.834  18.480  1.00  0.00     0.053 C 
BRANCH   7   8
ATOM      8  C   UNL     1       2.703 -37.357  17.884  1.00  0.00     0.041 C 
ATOM      9  O   UNL     1       2.712 -36.584  16.890  1.00  0.00    -0.550 OA
ATOM     10  O   UNL     1       1.492 -37.740  18.446  1.00  0.00    -0.550 OA
ENDBRANCH   7   8
ENDBRANCH   6   7
ENDBRANCH   5   6
ENDBRANCH   4   5
ENDBRANCH   3   4
ENDBRANCH   2   3
ENDBRANCH   1   2
BRANCH   1  11
ATOM     11  C   UNL     1       6.123 -36.578  24.730  1.00  0.00     0.000 C 
BRANCH  11  12
ATOM     12  C   UNL     1       5.068 -37.164  25.684  1.00  0.00    -0.000 C 
BRANCH  12  13
ATOM     13  C   UNL     1       4.673 -38.602  25.311  1.00  0.00    -0.000 C 
BRANCH  13  14
ATOM     14  C   UNL     1       5.483 -39.147  24.123  1.00  0.00    -0.000 C 
BRANCH  14  15
ATOM     15  C   UNL     1       4.787 -40.321  23.414  1.00  0.00    -0.000 C 
BRANCH  15  16
ATOM     16  C   UNL     1       5.732 -41.147  22.516  1.00  0.00    -0.000 C 
BRANCH  16  17
ATOM     17  C   UNL     1       6.120 -42.487  23.158  1.00  0.00    -0.003 C 
ATOM     18  C   UNL     1       6.103 -42.393  24.682  1.00  0.00     0.004 C 
ENDBRANCH  16  17
ENDBRANCH  15  16
ENDBRANCH  14  15
ENDBRANCH  13  14
ENDBRANCH  12  13
ENDBRANCH  11  12
ENDBRANCH   1  11
TORSDOF 14
ENDMDL
MODEL 9
REMARK VINA RESULT:    -1.522      2.727      7.271
REMARK INTER + INTRA:          -3.683
REMARK INTER:                  -2.957
REMARK INTRA:                  -0.726
REMARK UNBOUND:                -0.915
REMARK SMILES CCCCCCCCCCCCCCCC(=O)[O-]
REMARK SMILES IDX 9 1 10 2 11 3 12 4 13 5 14 6 15 7 16 8 17 9 18 10 8 11 7 12
REMARK SMILES IDX 6 13 5 14 4 15 3 16 2 17 1 18
REMARK H PARENT
REMARK Flexibility Score: inf
ROOT
ATOM      1  C   UNL     1       5.138 -36.164  20.104  1.00  0.00     0.000 C 
ENDROOT
BRANCH   1   2
ATOM      2  C   UNL     1       5.566 -34.927  19.294  1.00  0.00     0.000 C 
BRANCH   2   3
ATOM      3  C   UNL     1       4.679 -34.693  18.062  1.00  0.00     0.000 C 
BRANCH   3   4
ATOM      4  C   UNL     1       4.215 -36.004  17.406  1.00  0.00     0.000 C 
BRANCH   4   5
ATOM      5  C   UNL     1       2.951 -35.781  16.568  1.00  0.00     0.000 C 
BRANCH   5   6
ATOM      6  C   UNL     1       1.995 -36.977  16.684  1.00  0.00     0.006 C 
BRANCH   6   7
ATOM      7  C   UNL     1       2.409 -37.947  17.799  1.00  0.00     0.053 C 
BRANCH   7   8
ATOM      8  C   UNL     1       1.603 -37.739  19.044  1.00  0.00     0.041 C 
ATOM      9  O   UNL     1       2.178 -37.616  20.158  1.00  0.00    -0.550 OA
ATOM     10  O   UNL     1       0.216 -37.714  18.980  1.00  0.00    -0.550 OA
ENDBRANCH   7   8
ENDBRANCH   6   7
ENDBRANCH   5   6
ENDBRANCH   4   5
ENDBRANCH   3   4
ENDBRANCH   2   3
ENDBRANCH   1   2
BRANCH   1  11
ATOM     11  C   UNL     1       5.799 -36.218  21.491  1.00  0.00     0.000 C 
BRANCH  11  12
ATOM     12  C   UNL     1       5.167 -35.230  22.488  1.00  0.00    -0.000 C 
BRANCH  12  13
ATOM     13  C   UNL     1       5.945 -35.156  23.812  1.00  0.00    -0.000 C 
BRANCH  13  14
ATOM     14  C   UNL     1       5.555 -36.277  24.789  1.00  0.00    -0.000 C 
BRANCH  14  15
ATOM     15  C   UNL     1       5.938 -37.676  24.276  1.00  0.00    -0.000 C 
BRANCH  15  16
ATOM     16  C   UNL     1       5.054 -38.806  24.843  1.00  0.00    -0.000 C 
BRANCH  16  17
ATOM     17  C   UNL     1       5.300 -40.147  24.136  1.00  0.00    -0.003 C 
ATOM     18  C   UNL     1       5.288 -39.981  22.619  1.00  0.00     0.004 C 
ENDBRANCH  16  17
ENDBRANCH  15  16
ENDBRANCH  14  15
ENDBRANCH  13  14
ENDBRANCH  12  13
ENDBRANCH  11  12
ENDBRANCH   1  11
TORSDOF 14
ENDMDL
