MODEL 1
REMARK VINA RESULT:    -5.330      0.000      0.000
REMARK INTER + INTRA:         -15.266
REMARK INTER:                 -13.433
REMARK INTRA:                  -1.834
REMARK UNBOUND:                -1.834
REMARK SMILES CCCCCCCCCCCCCCCCCCCCCCCCCCCC(=O)[O-]
REMARK SMILES IDX 15 1 16 2 17 3 18 4 19 5 20 6 21 7 22 8 23 9 24 10 25 11
REMARK SMILES IDX 26 12 27 13 28 14 29 15 30 16 14 17 13 18 12 19 11 20 10 21
REMARK SMILES IDX 9 22 8 23 7 24 6 25 5 26 4 27 3 28 2 29 1 30
REMARK H PARENT
REMARK Flexibility Score: inf
ROOT
ATOM      1  C   UNL     1       7.545  47.524  68.593  1.00  0.00     0.000 C 
ENDROOT
BRANCH   1   2
ATOM      2  C   UNL     1       7.300  47.856  70.073  1.00  0.00     0.000 C 
BRANCH   2   3
ATOM      3  C   UNL     1       8.612  48.237  70.776  1.00  0.00     0.000 C 
BRANCH   3   4
ATOM      4  C   UNL     1       9.816  48.209  69.820  1.00  0.00     0.000 C 
BRANCH   4   5
ATOM      5  C   UNL     1      11.148  47.966  70.552  1.00  0.00     0.000 C 
BRANCH   5   6
ATOM      6  C   UNL     1      11.053  48.240  72.061  1.00  0.00     0.000 C 
BRANCH   6   7
ATOM      7  C   UNL     1      12.427  48.334  72.741  1.00  0.00     0.000 C 
BRANCH   7   8
ATOM      8  C   UNL     1      12.303  48.121  74.260  1.00  0.00     0.000 C 
BRANCH   8   9
ATOM      9  C   UNL     1      11.181  47.138  74.630  1.00  0.00     0.000 C 
BRANCH   9  10
ATOM     10  C   UNL     1      11.708  45.872  75.322  1.00  0.00     0.000 C 
BRANCH  10  11
ATOM     11  C   UNL     1      13.084  45.479  74.763  1.00  0.00     0.000 C 
BRANCH  11  12
ATOM     12  C   UNL     1      13.603  44.149  75.334  1.00  0.00     0.006 C 
BRANCH  12  13
ATOM     13  C   UNL     1      15.128  44.016  75.233  1.00  0.00     0.053 C 
BRANCH  13  14
ATOM     14  C   UNL     1      15.507  43.070  74.136  1.00  0.00     0.041 C 
ATOM     15  O   UNL     1      16.627  43.173  73.569  1.00  0.00    -0.550 OA
ATOM     16  O   UNL     1      14.620  42.080  73.733  1.00  0.00    -0.550 OA
ENDBRANCH  13  14
ENDBRANCH  12  13
ENDBRANCH  11  12
ENDBRANCH  10  11
ENDBRANCH   9  10
ENDBRANCH   8   9
ENDBRANCH   7   8
ENDBRANCH   6   7
ENDBRANCH   5   6
ENDBRANCH   4   5
ENDBRANCH   3   4
ENDBRANCH   2   3
ENDBRANCH   1   2
BRANCH   1  17
ATOM     17  C   UNL     1       6.627  48.312  67.639  1.00  0.00     0.000 C 
BRANCH  17  18
ATOM     18  C   UNL     1       6.285  47.598  66.315  1.00  0.00     0.000 C 
BRANCH  18  19
ATOM     19  C   UNL     1       4.795  47.259  66.120  1.00  0.00     0.000 C 
BRANCH  19  20
ATOM     20  C   UNL     1       4.489  46.678  64.728  1.00  0.00     0.000 C 
BRANCH  20  21
ATOM     21  C   UNL     1       2.974  46.651  64.432  1.00  0.00     0.000 C 
BRANCH  21  22
ATOM     22  C   UNL     1       2.378  45.234  64.359  1.00  0.00    -0.000 C 
BRANCH  22  23
ATOM     23  C   UNL     1       3.431  44.128  64.549  1.00  0.00    -0.000 C 
BRANCH  23  24
ATOM     24  C   UNL     1       3.316  43.430  65.920  1.00  0.00    -0.000 C 
BRANCH  24  25
ATOM     25  C   UNL     1       2.497  44.217  66.957  1.00  0.00    -0.000 C 
BRANCH  25  26
ATOM     26  C   UNL     1       3.151  44.229  68.348  1.00  0.00    -0.000 C 
BRANCH  26  27
ATOM     27  C   UNL     1       2.852  42.964  69.171  1.00  0.00    -0.000 C 
BRANCH  27  28
ATOM     28  C   UNL     1       2.561  43.200  70.665  1.00  0.00    -0.000 C 
BRANCH  28  29
ATOM     29  C   UNL     1       3.731  43.860  71.412  1.00  0.00    -0.003 C 
ATOM     30  C   UNL     1       5.032  43.095  71.182  1.00  0.00     0.004 C 
ENDBRANCH  28  29
ENDBRANCH  27  28
ENDBRANCH  26  27
ENDBRANCH  25  26
ENDBRANCH  24  25
ENDBRANCH  23  24
ENDBRANCH  22  23
ENDBRANCH  21  22
ENDBRANCH  20  21
ENDBRANCH  19  20
ENDBRANCH  18  19
ENDBRANCH  17  18
ENDBRANCH   1  17
TORSDOF 26
ENDMDL
MODEL 2
REMARK VINA RESULT:    -5.148     12.182     15.033
REMARK INTER + INTRA:         -14.807
REMARK INTER:                 -10.446
REMARK INTRA:                  -4.361
REMARK UNBOUND:                -1.834
REMARK SMILES CCCCCCCCCCCCCCCCCCCCCCCCCCCC(=O)[O-]
REMARK SMILES IDX 15 1 16 2 17 3 18 4 19 5 20 6 21 7 22 8 23 9 24 10 25 11
REMARK SMILES IDX 26 12 27 13 28 14 29 15 30 16 14 17 13 18 12 19 11 20 10 21
REMARK SMILES IDX 9 22 8 23 7 24 6 25 5 26 4 27 3 28 2 29 1 30
REMARK H PARENT
REMARK Flexibility Score: inf
ROOT
ATOM      1  C   UNL     1       7.091  32.840  72.925  1.00  0.00     0.000 C 
ENDROOT
BRANCH   1   2
ATOM      2  C   UNL     1       7.898  31.607  73.364  1.00  0.00     0.000 C 
BRANCH   2   3
ATOM      3  C   UNL     1       7.067  30.324  73.209  1.00  0.00     0.000 C 
BRANCH   3   4
ATOM      4  C   UNL     1       5.556  30.604  73.192  1.00  0.00     0.000 C 
BRANCH   4   5
ATOM      5  C   UNL     1       4.852  29.980  71.974  1.00  0.00     0.000 C 
BRANCH   5   6
ATOM      6  C   UNL     1       5.743  29.957  70.722  1.00  0.00     0.000 C 
BRANCH   6   7
ATOM      7  C   UNL     1       5.232  30.877  69.604  1.00  0.00     0.000 C 
BRANCH   7   8
ATOM      8  C   UNL     1       5.442  30.233  68.224  1.00  0.00     0.000 C 
BRANCH   8   9
ATOM      9  C   UNL     1       6.928  30.079  67.861  1.00  0.00     0.000 C 
BRANCH   9  10
ATOM     10  C   UNL     1       7.365  31.031  66.738  1.00  0.00     0.000 C 
BRANCH  10  11
ATOM     11  C   UNL     1       8.401  32.041  67.253  1.00  0.00     0.000 C 
BRANCH  11  12
ATOM     12  C   UNL     1       7.759  33.279  67.900  1.00  0.00     0.006 C 
BRANCH  12  13
ATOM     13  C   UNL     1       7.235  34.284  66.865  1.00  0.00     0.053 C 
BRANCH  13  14
ATOM     14  C   UNL     1       5.741  34.240  66.792  1.00  0.00     0.041 C 
ATOM     15  O   UNL     1       5.076  33.722  67.729  1.00  0.00    -0.550 OA
ATOM     16  O   UNL     1       5.081  34.761  65.686  1.00  0.00    -0.550 OA
ENDBRANCH  13  14
ENDBRANCH  12  13
ENDBRANCH  11  12
ENDBRANCH  10  11
ENDBRANCH   9  10
ENDBRANCH   8   9
ENDBRANCH   7   8
ENDBRANCH   6   7
ENDBRANCH   5   6
ENDBRANCH   4   5
ENDBRANCH   3   4
ENDBRANCH   2   3
ENDBRANCH   1   2
BRANCH   1  17
ATOM     17  C   UNL     1       7.376  33.260  71.471  1.00  0.00     0.000 C 
BRANCH  17  18
ATOM     18  C   UNL     1       6.380  34.273  70.870  1.00  0.00     0.000 C 
BRANCH  18  19
ATOM     19  C   UNL     1       4.919  34.107  71.332  1.00  0.00     0.000 C 
BRANCH  19  20
ATOM     20  C   UNL     1       4.125  35.424  71.295  1.00  0.00     0.000 C 
BRANCH  20  21
ATOM     21  C   UNL     1       2.607  35.181  71.152  1.00  0.00     0.000 C 
BRANCH  21  22
ATOM     22  C   UNL     1       1.841  36.365  70.537  1.00  0.00    -0.000 C 
BRANCH  22  23
ATOM     23  C   UNL     1       1.825  36.336  68.998  1.00  0.00    -0.000 C 
BRANCH  23  24
ATOM     24  C   UNL     1       0.485  35.826  68.429  1.00  0.00    -0.000 C 
BRANCH  24  25
ATOM     25  C   UNL     1       0.636  34.853  67.248  1.00  0.00    -0.000 C 
BRANCH  25  26
ATOM     26  C   UNL     1       0.487  33.380  67.665  1.00  0.00    -0.000 C 
BRANCH  26  27
ATOM     27  C   UNL     1       1.835  32.673  67.891  1.00  0.00    -0.000 C 
BRANCH  27  28
ATOM     28  C   UNL     1       1.743  31.210  68.362  1.00  0.00    -0.000 C 
BRANCH  28  29
ATOM     29  C   UNL     1       1.041  31.055  69.720  1.00  0.00    -0.003 C 
ATOM     30  C   UNL     1       1.818  31.765  70.826  1.00  0.00     0.004 C 
ENDBRANCH  28  29
ENDBRANCH  27  28
ENDBRANCH  26  27
ENDBRANCH  25  26
ENDBRANCH  24  25
ENDBRANCH  23  24
ENDBRANCH  22  23
ENDBRANCH  21  22
ENDBRANCH  20  21
ENDBRANCH  19  20
ENDBRANCH  18  19
ENDBRANCH  17  18
ENDBRANCH   1  17
TORSDOF 26
ENDMDL
MODEL 3
REMARK VINA RESULT:    -5.016      3.294     11.362
REMARK INTER + INTRA:         -14.474
REMARK INTER:                 -12.569
REMARK INTRA:                  -1.905
REMARK UNBOUND:                -1.834
REMARK SMILES CCCCCCCCCCCCCCCCCCCCCCCCCCCC(=O)[O-]
REMARK SMILES IDX 15 1 16 2 17 3 18 4 19 5 20 6 21 7 22 8 23 9 24 10 25 11
REMARK SMILES IDX 26 12 27 13 28 14 29 15 30 16 14 17 13 18 12 19 11 20 10 21
REMARK SMILES IDX 9 22 8 23 7 24 6 25 5 26 4 27 3 28 2 29 1 30
REMARK H PARENT
REMARK Flexibility Score: inf
ROOT
ATOM      1  C   UNL     1       9.321  47.886  69.906  1.00  0.00     0.000 C 
ENDROOT
BRANCH   1   2
ATOM      2  C   UNL     1      10.130  47.240  68.771  1.00  0.00     0.000 C 
BRANCH   2   3
ATOM      3  C   UNL     1       9.212  46.814  67.615  1.00  0.00     0.000 C 
BRANCH   3   4
ATOM      4  C   UNL     1       7.814  47.445  67.716  1.00  0.00     0.000 C 
BRANCH   4   5
ATOM      5  C   UNL     1       7.569  48.517  66.639  1.00  0.00     0.000 C 
BRANCH   5   6
ATOM      6  C   UNL     1       6.077  48.716  66.330  1.00  0.00     0.000 C 
BRANCH   6   7
ATOM      7  C   UNL     1       5.218  47.501  66.709  1.00  0.00     0.000 C 
BRANCH   7   8
ATOM      8  C   UNL     1       4.080  47.295  65.695  1.00  0.00     0.000 C 
BRANCH   8   9
ATOM      9  C   UNL     1       3.939  45.829  65.253  1.00  0.00     0.000 C 
BRANCH   9  10
ATOM     10  C   UNL     1       2.937  45.046  66.113  1.00  0.00     0.000 C 
BRANCH  10  11
ATOM     11  C   UNL     1       3.213  43.537  66.034  1.00  0.00     0.000 C 
BRANCH  11  12
ATOM     12  C   UNL     1       3.218  42.857  67.413  1.00  0.00     0.006 C 
BRANCH  12  13
ATOM     13  C   UNL     1       3.179  43.864  68.570  1.00  0.00     0.053 C 
BRANCH  13  14
ATOM     14  C   UNL     1       3.092  43.156  69.886  1.00  0.00     0.041 C 
ATOM     15  O   UNL     1       1.970  42.822  70.353  1.00  0.00    -0.550 OA
ATOM     16  O   UNL     1       4.247  42.873  70.604  1.00  0.00    -0.550 OA
ENDBRANCH  13  14
ENDBRANCH  12  13
ENDBRANCH  11  12
ENDBRANCH  10  11
ENDBRANCH   9  10
ENDBRANCH   8   9
ENDBRANCH   7   8
ENDBRANCH   6   7
ENDBRANCH   5   6
ENDBRANCH   4   5
ENDBRANCH   3   4
ENDBRANCH   2   3
ENDBRANCH   1   2
BRANCH   1  17
ATOM     17  C   UNL     1      10.202  48.638  70.922  1.00  0.00     0.000 C 
BRANCH  17  18
ATOM     18  C   UNL     1      11.609  48.045  71.141  1.00  0.00     0.000 C 
BRANCH  18  19
ATOM     19  C   UNL     1      12.491  48.807  72.148  1.00  0.00     0.000 C 
BRANCH  19  20
ATOM     20  C   UNL     1      13.057  47.902  73.256  1.00  0.00     0.000 C 
BRANCH  20  21
ATOM     21  C   UNL     1      12.397  48.178  74.624  1.00  0.00     0.000 C 
BRANCH  21  22
ATOM     22  C   UNL     1      11.276  47.188  74.987  1.00  0.00    -0.000 C 
BRANCH  22  23
ATOM     23  C   UNL     1      11.788  45.950  75.743  1.00  0.00    -0.000 C 
BRANCH  23  24
ATOM     24  C   UNL     1      12.262  44.830  74.793  1.00  0.00    -0.000 C 
BRANCH  24  25
ATOM     25  C   UNL     1      13.627  44.228  75.166  1.00  0.00    -0.000 C 
BRANCH  25  26
ATOM     26  C   UNL     1      14.805  45.143  74.793  1.00  0.00    -0.000 C 
BRANCH  26  27
ATOM     27  C   UNL     1      15.901  44.424  73.987  1.00  0.00    -0.000 C 
BRANCH  27  28
ATOM     28  C   UNL     1      15.571  42.980  73.564  1.00  0.00    -0.000 C 
BRANCH  28  29
ATOM     29  C   UNL     1      16.400  41.926  74.316  1.00  0.00    -0.003 C 
ATOM     30  C   UNL     1      17.826  42.416  74.556  1.00  0.00     0.004 C 
ENDBRANCH  28  29
ENDBRANCH  27  28
ENDBRANCH  26  27
ENDBRANCH  25  26
ENDBRANCH  24  25
ENDBRANCH  23  24
ENDBRANCH  22  23
ENDBRANCH  21  22
ENDBRANCH  20  21
ENDBRANCH  19  20
ENDBRANCH  18  19
ENDBRANCH  17  18
ENDBRANCH   1  17
TORSDOF 26
ENDMDL
MODEL 4
REMARK VINA RESULT:    -4.993     11.922     14.777
REMARK INTER + INTRA:         -14.415
REMARK INTER:                  -9.465
REMARK INTRA:                  -4.951
REMARK UNBOUND:                -1.834
REMARK SMILES CCCCCCCCCCCCCCCCCCCCCCCCCCCC(=O)[O-]
REMARK SMILES IDX 15 1 16 2 17 3 18 4 19 5 20 6 21 7 22 8 23 9 24 10 25 11
REMARK SMILES IDX 26 12 27 13 28 14 29 15 30 16 14 17 13 18 12 19 11 20 10 21
REMARK SMILES IDX 9 22 8 23 7 24 6 25 5 26 4 27 3 28 2 29 1 30
REMARK H PARENT
REMARK Flexibility Score: inf
ROOT
ATOM      1  C   UNL     1       6.400  33.579  71.896  1.00  0.00     0.000 C 
ENDROOT
BRANCH   1   2
ATOM      2  C   UNL     1       7.710  32.787  72.029  1.00  0.00     0.000 C 
BRANCH   2   3
ATOM      3  C   UNL     1       7.728  31.969  73.330  1.00  0.00     0.000 C 
BRANCH   3   4
ATOM      4  C   UNL     1       6.350  31.925  74.012  1.00  0.00     0.000 C 
BRANCH   4   5
ATOM      5  C   UNL     1       5.800  30.493  74.142  1.00  0.00     0.000 C 
BRANCH   5   6
ATOM      6  C   UNL     1       5.430  29.875  72.784  1.00  0.00     0.000 C 
BRANCH   6   7
ATOM      7  C   UNL     1       4.300  30.630  72.069  1.00  0.00     0.000 C 
BRANCH   7   8
ATOM      8  C   UNL     1       4.606  30.783  70.569  1.00  0.00     0.000 C 
BRANCH   8   9
ATOM      9  C   UNL     1       5.960  30.170  70.176  1.00  0.00     0.000 C 
BRANCH   9  10
ATOM     10  C   UNL     1       6.315  30.415  68.702  1.00  0.00     0.000 C 
BRANCH  10  11
ATOM     11  C   UNL     1       5.642  31.697  68.186  1.00  0.00     0.000 C 
BRANCH  11  12
ATOM     12  C   UNL     1       6.634  32.667  67.523  1.00  0.00     0.006 C 
BRANCH  12  13
ATOM     13  C   UNL     1       8.057  32.533  68.082  1.00  0.00     0.053 C 
BRANCH  13  14
ATOM     14  C   UNL     1       8.972  31.927  67.063  1.00  0.00     0.041 C 
ATOM     15  O   UNL     1       8.497  31.301  66.078  1.00  0.00    -0.550 OA
ATOM     16  O   UNL     1      10.349  32.043  67.205  1.00  0.00    -0.550 OA
ENDBRANCH  13  14
ENDBRANCH  12  13
ENDBRANCH  11  12
ENDBRANCH  10  11
ENDBRANCH   9  10
ENDBRANCH   8   9
ENDBRANCH   7   8
ENDBRANCH   6   7
ENDBRANCH   5   6
ENDBRANCH   4   5
ENDBRANCH   3   4
ENDBRANCH   2   3
ENDBRANCH   1   2
BRANCH   1  17
ATOM     17  C   UNL     1       6.352  34.456  70.630  1.00  0.00     0.000 C 
BRANCH  17  18
ATOM     18  C   UNL     1       5.101  35.348  70.493  1.00  0.00     0.000 C 
BRANCH  18  19
ATOM     19  C   UNL     1       3.828  34.622  70.017  1.00  0.00     0.000 C 
BRANCH  19  20
ATOM     20  C   UNL     1       2.623  34.855  70.945  1.00  0.00     0.000 C 
BRANCH  20  21
ATOM     21  C   UNL     1       1.420  35.461  70.191  1.00  0.00     0.000 C 
BRANCH  21  22
ATOM     22  C   UNL     1       1.810  36.505  69.130  1.00  0.00    -0.000 C 
BRANCH  22  23
ATOM     23  C   UNL     1       1.433  36.080  67.700  1.00  0.00    -0.000 C 
BRANCH  23  24
ATOM     24  C   UNL     1       0.508  34.844  67.674  1.00  0.00    -0.000 C 
BRANCH  24  25
ATOM     25  C   UNL     1       1.245  33.515  67.437  1.00  0.00    -0.000 C 
BRANCH  25  26
ATOM     26  C   UNL     1       0.472  32.301  67.978  1.00  0.00    -0.000 C 
BRANCH  26  27
ATOM     27  C   UNL     1       1.389  31.193  68.526  1.00  0.00    -0.000 C 
BRANCH  27  28
ATOM     28  C   UNL     1       1.144  30.798  69.995  1.00  0.00    -0.000 C 
BRANCH  28  29
ATOM     29  C   UNL     1       0.438  31.896  70.806  1.00  0.00    -0.003 C 
ATOM     30  C   UNL     1       0.366  31.527  72.286  1.00  0.00     0.004 C 
ENDBRANCH  28  29
ENDBRANCH  27  28
ENDBRANCH  26  27
ENDBRANCH  25  26
ENDBRANCH  24  25
ENDBRANCH  23  24
ENDBRANCH  22  23
ENDBRANCH  21  22
ENDBRANCH  20  21
ENDBRANCH  19  20
ENDBRANCH  18  19
ENDBRANCH  17  18
ENDBRANCH   1  17
TORSDOF 26
ENDMDL
MODEL 5
REMARK VINA RESULT:    -4.972     12.182     16.108
REMARK INTER + INTRA:         -14.363
REMARK INTER:                  -9.371
REMARK INTRA:                  -4.992
REMARK UNBOUND:                -1.834
REMARK SMILES CCCCCCCCCCCCCCCCCCCCCCCCCCCC(=O)[O-]
REMARK SMILES IDX 15 1 16 2 17 3 18 4 19 5 20 6 21 7 22 8 23 9 24 10 25 11
REMARK SMILES IDX 26 12 27 13 28 14 29 15 30 16 14 17 13 18 12 19 11 20 10 21
REMARK SMILES IDX 9 22 8 23 7 24 6 25 5 26 4 27 3 28 2 29 1 30
REMARK H PARENT
REMARK Flexibility Score: inf
ROOT
ATOM      1  C   UNL     1       4.409  31.361  69.307  1.00  0.00     0.000 C 
ENDROOT
BRANCH   1   2
ATOM      2  C   UNL     1       3.614  30.933  70.551  1.00  0.00     0.000 C 
BRANCH   2   3
ATOM      3  C   UNL     1       2.626  32.031  70.977  1.00  0.00     0.000 C 
BRANCH   3   4
ATOM      4  C   UNL     1       1.214  31.479  71.232  1.00  0.00     0.000 C 
BRANCH   4   5
ATOM      5  C   UNL     1       0.899  30.240  70.374  1.00  0.00     0.000 C 
BRANCH   5   6
ATOM      6  C   UNL     1       0.194  30.596  69.056  1.00  0.00     0.000 C 
BRANCH   6   7
ATOM      7  C   UNL     1       1.089  30.393  67.824  1.00  0.00     0.000 C 
BRANCH   7   8
ATOM      8  C   UNL     1       1.478  31.744  67.200  1.00  0.00     0.000 C 
BRANCH   8   9
ATOM      9  C   UNL     1       0.736  32.928  67.843  1.00  0.00     0.000 C 
BRANCH   9  10
ATOM     10  C   UNL     1       1.370  34.283  67.494  1.00  0.00     0.000 C 
BRANCH  10  11
ATOM     11  C   UNL     1       2.593  34.557  68.383  1.00  0.00     0.000 C 
BRANCH  11  12
ATOM     12  C   UNL     1       2.466  35.860  69.189  1.00  0.00     0.006 C 
BRANCH  12  13
ATOM     13  C   UNL     1       1.868  35.637  70.585  1.00  0.00     0.053 C 
BRANCH  13  14
ATOM     14  C   UNL     1       2.925  35.750  71.638  1.00  0.00     0.041 C 
ATOM     15  O   UNL     1       2.642  36.218  72.773  1.00  0.00    -0.550 OA
ATOM     16  O   UNL     1       4.227  35.348  71.366  1.00  0.00    -0.550 OA
ENDBRANCH  13  14
ENDBRANCH  12  13
ENDBRANCH  11  12
ENDBRANCH  10  11
ENDBRANCH   9  10
ENDBRANCH   8   9
ENDBRANCH   7   8
ENDBRANCH   6   7
ENDBRANCH   5   6
ENDBRANCH   4   5
ENDBRANCH   3   4
ENDBRANCH   2   3
ENDBRANCH   1   2
BRANCH   1  17
ATOM     17  C   UNL     1       5.052  30.174  68.565  1.00  0.00     0.000 C 
BRANCH  17  18
ATOM     18  C   UNL     1       6.589  30.231  68.437  1.00  0.00     0.000 C 
BRANCH  18  19
ATOM     19  C   UNL     1       7.115  30.620  67.043  1.00  0.00     0.000 C 
BRANCH  19  20
ATOM     20  C   UNL     1       7.614  32.074  66.975  1.00  0.00     0.000 C 
BRANCH  20  21
ATOM     21  C   UNL     1       6.448  33.085  66.920  1.00  0.00     0.000 C 
BRANCH  21  22
ATOM     22  C   UNL     1       6.875  34.543  67.160  1.00  0.00    -0.000 C 
BRANCH  22  23
ATOM     23  C   UNL     1       7.684  34.728  68.456  1.00  0.00    -0.000 C 
BRANCH  23  24
ATOM     24  C   UNL     1       6.886  34.328  69.715  1.00  0.00    -0.000 C 
BRANCH  24  25
ATOM     25  C   UNL     1       7.500  33.157  70.500  1.00  0.00    -0.000 C 
BRANCH  25  26
ATOM     26  C   UNL     1       6.718  32.822  71.780  1.00  0.00    -0.000 C 
BRANCH  26  27
ATOM     27  C   UNL     1       6.951  31.384  72.276  1.00  0.00    -0.000 C 
BRANCH  27  28
ATOM     28  C   UNL     1       7.213  31.240  73.788  1.00  0.00    -0.000 C 
BRANCH  28  29
ATOM     29  C   UNL     1       5.972  30.790  74.575  1.00  0.00    -0.003 C 
ATOM     30  C   UNL     1       5.050  29.936  73.708  1.00  0.00     0.004 C 
ENDBRANCH  28  29
ENDBRANCH  27  28
ENDBRANCH  26  27
ENDBRANCH  25  26
ENDBRANCH  24  25
ENDBRANCH  23  24
ENDBRANCH  22  23
ENDBRANCH  21  22
ENDBRANCH  20  21
ENDBRANCH  19  20
ENDBRANCH  18  19
ENDBRANCH  17  18
ENDBRANCH   1  17
TORSDOF 26
ENDMDL
MODEL 6
REMARK VINA RESULT:    -4.965      4.747     13.340
REMARK INTER + INTRA:         -14.346
REMARK INTER:                 -12.005
REMARK INTRA:                  -2.341
REMARK UNBOUND:                -1.834
REMARK SMILES CCCCCCCCCCCCCCCCCCCCCCCCCCCC(=O)[O-]
REMARK SMILES IDX 15 1 16 2 17 3 18 4 19 5 20 6 21 7 22 8 23 9 24 10 25 11
REMARK SMILES IDX 26 12 27 13 28 14 29 15 30 16 14 17 13 18 12 19 11 20 10 21
REMARK SMILES IDX 9 22 8 23 7 24 6 25 5 26 4 27 3 28 2 29 1 30
REMARK H PARENT
REMARK Flexibility Score: inf
ROOT
ATOM      1  C   UNL     1      13.773  44.070  75.391  1.00  0.00     0.000 C 
ENDROOT
BRANCH   1   2
ATOM      2  C   UNL     1      13.298  45.382  74.748  1.00  0.00     0.000 C 
BRANCH   2   3
ATOM      3  C   UNL     1      11.843  45.688  75.135  1.00  0.00     0.000 C 
BRANCH   3   4
ATOM      4  C   UNL     1      11.544  47.196  75.135  1.00  0.00     0.000 C 
BRANCH   4   5
ATOM      5  C   UNL     1      11.886  47.868  73.793  1.00  0.00     0.000 C 
BRANCH   5   6
ATOM      6  C   UNL     1      10.701  47.876  72.814  1.00  0.00     0.000 C 
BRANCH   6   7
ATOM      7  C   UNL     1      11.111  48.235  71.378  1.00  0.00     0.000 C 
BRANCH   7   8
ATOM      8  C   UNL     1       9.963  48.946  70.642  1.00  0.00     0.000 C 
BRANCH   8   9
ATOM      9  C   UNL     1       9.993  48.704  69.124  1.00  0.00     0.000 C 
BRANCH   9  10
ATOM     10  C   UNL     1       9.868  47.218  68.759  1.00  0.00     0.000 C 
BRANCH  10  11
ATOM     11  C   UNL     1       8.937  47.030  67.552  1.00  0.00     0.000 C 
BRANCH  11  12
ATOM     12  C   UNL     1       7.541  47.636  67.774  1.00  0.00     0.006 C 
BRANCH  12  13
ATOM     13  C   UNL     1       6.978  48.303  66.512  1.00  0.00     0.053 C 
BRANCH  13  14
ATOM     14  C   UNL     1       5.755  47.585  66.033  1.00  0.00     0.041 C 
ATOM     15  O   UNL     1       5.522  47.483  64.799  1.00  0.00    -0.550 OA
ATOM     16  O   UNL     1       4.867  47.035  66.949  1.00  0.00    -0.550 OA
ENDBRANCH  13  14
ENDBRANCH  12  13
ENDBRANCH  11  12
ENDBRANCH  10  11
ENDBRANCH   9  10
ENDBRANCH   8   9
ENDBRANCH   7   8
ENDBRANCH   6   7
ENDBRANCH   5   6
ENDBRANCH   4   5
ENDBRANCH   3   4
ENDBRANCH   2   3
ENDBRANCH   1   2
BRANCH   1  17
ATOM     17  C   UNL     1      14.336  43.066  74.368  1.00  0.00     0.000 C 
BRANCH  17  18
ATOM     18  C   UNL     1      15.605  43.527  73.620  1.00  0.00     0.000 C 
BRANCH  18  19
ATOM     19  C   UNL     1      16.929  43.295  74.373  1.00  0.00     0.000 C 
BRANCH  19  20
ATOM     20  C   UNL     1      18.104  42.971  73.435  1.00  0.00     0.000 C 
BRANCH  20  21
ATOM     21  C   UNL     1      19.340  42.462  74.208  1.00  0.00     0.000 C 
BRANCH  21  22
ATOM     22  C   UNL     1      20.005  43.529  75.093  1.00  0.00    -0.000 C 
BRANCH  22  23
ATOM     23  C   UNL     1      19.914  43.207  76.595  1.00  0.00    -0.000 C 
BRANCH  23  24
ATOM     24  C   UNL     1      19.613  41.718  76.864  1.00  0.00    -0.000 C 
BRANCH  24  25
ATOM     25  C   UNL     1      18.324  41.474  77.666  1.00  0.00    -0.000 C 
BRANCH  25  26
ATOM     26  C   UNL     1      17.967  39.983  77.781  1.00  0.00    -0.000 C 
BRANCH  26  27
ATOM     27  C   UNL     1      18.761  39.091  76.811  1.00  0.00    -0.000 C 
BRANCH  27  28
ATOM     28  C   UNL     1      17.938  38.448  75.679  1.00  0.00    -0.000 C 
BRANCH  28  29
ATOM     29  C   UNL     1      17.604  39.429  74.543  1.00  0.00    -0.003 C 
ATOM     30  C   UNL     1      16.114  39.400  74.212  1.00  0.00     0.004 C 
ENDBRANCH  28  29
ENDBRANCH  27  28
ENDBRANCH  26  27
ENDBRANCH  25  26
ENDBRANCH  24  25
ENDBRANCH  23  24
ENDBRANCH  22  23
ENDBRANCH  21  22
ENDBRANCH  20  21
ENDBRANCH  19  20
ENDBRANCH  18  19
ENDBRANCH  17  18
ENDBRANCH   1  17
TORSDOF 26
ENDMDL
MODEL 7
REMARK VINA RESULT:    -4.960      1.619      4.189
REMARK INTER + INTRA:         -14.332
REMARK INTER:                 -12.677
REMARK INTRA:                  -1.655
REMARK UNBOUND:                -1.834
REMARK SMILES CCCCCCCCCCCCCCCCCCCCCCCCCCCC(=O)[O-]
REMARK SMILES IDX 15 1 16 2 17 3 18 4 19 5 20 6 21 7 22 8 23 9 24 10 25 11
REMARK SMILES IDX 26 12 27 13 28 14 29 15 30 16 14 17 13 18 12 19 11 20 10 21
REMARK SMILES IDX 9 22 8 23 7 24 6 25 5 26 4 27 3 28 2 29 1 30
REMARK H PARENT
REMARK Flexibility Score: inf
ROOT
ATOM      1  C   UNL     1      10.285  48.510  70.529  1.00  0.00     0.000 C 
ENDROOT
BRANCH   1   2
ATOM      2  C   UNL     1      11.442  48.243  71.503  1.00  0.00     0.000 C 
BRANCH   2   3
ATOM      3  C   UNL     1      10.913  47.882  72.900  1.00  0.00     0.000 C 
BRANCH   3   4
ATOM      4  C   UNL     1      12.043  47.718  73.929  1.00  0.00     0.000 C 
BRANCH   4   5
ATOM      5  C   UNL     1      11.516  47.493  75.357  1.00  0.00     0.000 C 
BRANCH   5   6
ATOM      6  C   UNL     1      11.427  46.004  75.728  1.00  0.00     0.000 C 
BRANCH   6   7
ATOM      7  C   UNL     1      12.124  45.089  74.710  1.00  0.00     0.000 C 
BRANCH   7   8
ATOM      8  C   UNL     1      13.344  44.396  75.341  1.00  0.00     0.000 C 
BRANCH   8   9
ATOM      9  C   UNL     1      14.676  44.892  74.755  1.00  0.00     0.000 C 
BRANCH   9  10
ATOM     10  C   UNL     1      15.618  43.742  74.372  1.00  0.00     0.000 C 
BRANCH  10  11
ATOM     11  C   UNL     1      14.819  42.506  73.932  1.00  0.00     0.000 C 
BRANCH  11  12
ATOM     12  C   UNL     1      15.675  41.230  73.874  1.00  0.00     0.006 C 
BRANCH  12  13
ATOM     13  C   UNL     1      17.129  41.472  74.301  1.00  0.00     0.053 C 
BRANCH  13  14
ATOM     14  C   UNL     1      17.680  40.273  75.007  1.00  0.00     0.041 C 
ATOM     15  O   UNL     1      17.204  39.129  74.780  1.00  0.00    -0.550 OA
ATOM     16  O   UNL     1      18.715  40.417  75.923  1.00  0.00    -0.550 OA
ENDBRANCH  13  14
ENDBRANCH  12  13
ENDBRANCH  11  12
ENDBRANCH  10  11
ENDBRANCH   9  10
ENDBRANCH   8   9
ENDBRANCH   7   8
ENDBRANCH   6   7
ENDBRANCH   5   6
ENDBRANCH   4   5
ENDBRANCH   3   4
ENDBRANCH   2   3
ENDBRANCH   1   2
BRANCH   1  17
ATOM     17  C   UNL     1       8.898  48.298  71.166  1.00  0.00     0.000 C 
BRANCH  17  18
ATOM     18  C   UNL     1       7.774  47.907  70.185  1.00  0.00     0.000 C 
BRANCH  18  19
ATOM     19  C   UNL     1       8.251  47.414  68.805  1.00  0.00     0.000 C 
BRANCH  19  20
ATOM     20  C   UNL     1       7.811  48.336  67.654  1.00  0.00     0.000 C 
BRANCH  20  21
ATOM     21  C   UNL     1       6.456  47.905  67.053  1.00  0.00     0.000 C 
BRANCH  21  22
ATOM     22  C   UNL     1       6.042  48.709  65.809  1.00  0.00    -0.000 C 
BRANCH  22  23
ATOM     23  C   UNL     1       5.202  47.889  64.814  1.00  0.00    -0.000 C 
BRANCH  23  24
ATOM     24  C   UNL     1       3.749  48.398  64.707  1.00  0.00    -0.000 C 
BRANCH  24  25
ATOM     25  C   UNL     1       2.723  47.299  64.379  1.00  0.00    -0.000 C 
BRANCH  25  26
ATOM     26  C   UNL     1       3.291  45.881  64.555  1.00  0.00    -0.000 C 
BRANCH  26  27
ATOM     27  C   UNL     1       2.536  45.051  65.608  1.00  0.00    -0.000 C 
BRANCH  27  28
ATOM     28  C   UNL     1       3.261  44.875  66.956  1.00  0.00    -0.000 C 
BRANCH  28  29
ATOM     29  C   UNL     1       2.742  43.680  67.770  1.00  0.00    -0.003 C 
ATOM     30  C   UNL     1       3.303  43.694  69.189  1.00  0.00     0.004 C 
ENDBRANCH  28  29
ENDBRANCH  27  28
ENDBRANCH  26  27
ENDBRANCH  25  26
ENDBRANCH  24  25
ENDBRANCH  23  24
ENDBRANCH  22  23
ENDBRANCH  21  22
ENDBRANCH  20  21
ENDBRANCH  19  20
ENDBRANCH  18  19
ENDBRANCH  17  18
ENDBRANCH   1  17
TORSDOF 26
ENDMDL
MODEL 8
REMARK VINA RESULT:    -4.919     11.787     14.873
REMARK INTER + INTRA:         -14.230
REMARK INTER:                  -9.637
REMARK INTRA:                  -4.593
REMARK UNBOUND:                -1.834
REMARK SMILES CCCCCCCCCCCCCCCCCCCCCCCCCCCC(=O)[O-]
REMARK SMILES IDX 15 1 16 2 17 3 18 4 19 5 20 6 21 7 22 8 23 9 24 10 25 11
REMARK SMILES IDX 26 12 27 13 28 14 29 15 30 16 14 17 13 18 12 19 11 20 10 21
REMARK SMILES IDX 9 22 8 23 7 24 6 25 5 26 4 27 3 28 2 29 1 30
REMARK H PARENT
REMARK Flexibility Score: inf
ROOT
ATOM      1  C   UNL     1       2.453  36.571  69.948  1.00  0.00     0.000 C 
ENDROOT
BRANCH   1   2
ATOM      2  C   UNL     1       2.476  35.593  71.132  1.00  0.00     0.000 C 
BRANCH   2   3
ATOM      3  C   UNL     1       3.873  35.535  71.770  1.00  0.00     0.000 C 
BRANCH   3   4
ATOM      4  C   UNL     1       4.672  34.302  71.317  1.00  0.00     0.000 C 
BRANCH   4   5
ATOM      5  C   UNL     1       6.009  34.674  70.651  1.00  0.00     0.000 C 
BRANCH   5   6
ATOM      6  C   UNL     1       5.941  34.622  69.117  1.00  0.00     0.000 C 
BRANCH   6   7
ATOM      7  C   UNL     1       4.640  33.997  68.594  1.00  0.00     0.000 C 
BRANCH   7   8
ATOM      8  C   UNL     1       4.780  33.591  67.118  1.00  0.00     0.000 C 
BRANCH   8   9
ATOM      9  C   UNL     1       5.169  32.113  66.944  1.00  0.00     0.000 C 
BRANCH   9  10
ATOM     10  C   UNL     1       4.791  31.255  68.159  1.00  0.00     0.000 C 
BRANCH  10  11
ATOM     11  C   UNL     1       5.811  30.125  68.367  1.00  0.00     0.000 C 
BRANCH  11  12
ATOM     12  C   UNL     1       7.124  30.358  67.602  1.00  0.00     0.006 C 
BRANCH  12  13
ATOM     13  C   UNL     1       8.164  31.125  68.430  1.00  0.00     0.053 C 
BRANCH  13  14
ATOM     14  C   UNL     1       8.938  32.070  67.564  1.00  0.00     0.041 C 
ATOM     15  O   UNL     1       8.391  33.114  67.120  1.00  0.00    -0.550 OA
ATOM     16  O   UNL     1      10.260  31.795  67.240  1.00  0.00    -0.550 OA
ENDBRANCH  13  14
ENDBRANCH  12  13
ENDBRANCH  11  12
ENDBRANCH  10  11
ENDBRANCH   9  10
ENDBRANCH   8   9
ENDBRANCH   7   8
ENDBRANCH   6   7
ENDBRANCH   5   6
ENDBRANCH   4   5
ENDBRANCH   3   4
ENDBRANCH   2   3
ENDBRANCH   1   2
BRANCH   1  17
ATOM     17  C   UNL     1       1.701  36.016  68.723  1.00  0.00     0.000 C 
BRANCH  17  18
ATOM     18  C   UNL     1       0.748  34.838  69.012  1.00  0.00     0.000 C 
BRANCH  18  19
ATOM     19  C   UNL     1       0.736  33.728  67.943  1.00  0.00     0.000 C 
BRANCH  19  20
ATOM     20  C   UNL     1       1.159  32.357  68.498  1.00  0.00     0.000 C 
BRANCH  20  21
ATOM     21  C   UNL     1       1.706  32.459  69.938  1.00  0.00     0.000 C 
BRANCH  21  22
ATOM     22  C   UNL     1       0.990  31.542  70.945  1.00  0.00    -0.000 C 
BRANCH  22  23
ATOM     23  C   UNL     1       1.809  30.292  71.309  1.00  0.00    -0.000 C 
BRANCH  23  24
ATOM     24  C   UNL     1       3.325  30.498  71.108  1.00  0.00    -0.000 C 
BRANCH  24  25
ATOM     25  C   UNL     1       4.181  30.064  72.309  1.00  0.00    -0.000 C 
BRANCH  25  26
ATOM     26  C   UNL     1       5.428  30.943  72.502  1.00  0.00    -0.000 C 
BRANCH  26  27
ATOM     27  C   UNL     1       6.430  30.362  73.516  1.00  0.00    -0.000 C 
BRANCH  27  28
ATOM     28  C   UNL     1       7.797  31.071  73.574  1.00  0.00    -0.000 C 
BRANCH  28  29
ATOM     29  C   UNL     1       7.699  32.590  73.361  1.00  0.00    -0.003 C 
ATOM     30  C   UNL     1       8.859  33.316  74.039  1.00  0.00     0.004 C 
ENDBRANCH  28  29
ENDBRANCH  27  28
ENDBRANCH  26  27
ENDBRANCH  25  26
ENDBRANCH  24  25
ENDBRANCH  23  24
ENDBRANCH  22  23
ENDBRANCH  21  22
ENDBRANCH  20  21
ENDBRANCH  19  20
ENDBRANCH  18  19
ENDBRANCH  17  18
ENDBRANCH   1  17
TORSDOF 26
ENDMDL
MODEL 9
REMARK VINA RESULT:    -4.901      8.127     11.886
REMARK INTER + INTRA:         -14.183
REMARK INTER:                 -10.008
REMARK INTRA:                  -4.175
REMARK UNBOUND:                -1.834
REMARK SMILES CCCCCCCCCCCCCCCCCCCCCCCCCCCC(=O)[O-]
REMARK SMILES IDX 15 1 16 2 17 3 18 4 19 5 20 6 21 7 22 8 23 9 24 10 25 11
REMARK SMILES IDX 26 12 27 13 28 14 29 15 30 16 14 17 13 18 12 19 11 20 10 21
REMARK SMILES IDX 9 22 8 23 7 24 6 25 5 26 4 27 3 28 2 29 1 30
REMARK H PARENT
REMARK Flexibility Score: inf
ROOT
ATOM      1  C   UNL     1      13.737  44.451  75.138  1.00  0.00     0.000 C 
ENDROOT
BRANCH   1   2
ATOM      2  C   UNL     1      14.186  43.154  74.448  1.00  0.00     0.000 C 
BRANCH   2   3
ATOM      3  C   UNL     1      15.504  43.364  73.687  1.00  0.00     0.000 C 
BRANCH   3   4
ATOM      4  C   UNL     1      16.729  42.930  74.509  1.00  0.00     0.000 C 
BRANCH   4   5
ATOM      5  C   UNL     1      17.955  42.628  73.629  1.00  0.00     0.000 C 
BRANCH   5   6
ATOM      6  C   UNL     1      19.248  42.479  74.446  1.00  0.00     0.000 C 
BRANCH   6   7
ATOM      7  C   UNL     1      19.125  43.037  75.872  1.00  0.00     0.000 C 
BRANCH   7   8
ATOM      8  C   UNL     1      20.107  42.333  76.824  1.00  0.00     0.000 C 
BRANCH   8   9
ATOM      9  C   UNL     1      19.449  41.913  78.148  1.00  0.00     0.000 C 
BRANCH   9  10
ATOM     10  C   UNL     1      18.865  40.494  78.095  1.00  0.00     0.000 C 
BRANCH  10  11
ATOM     11  C   UNL     1      19.621  39.631  77.073  1.00  0.00     0.000 C 
BRANCH  11  12
ATOM     12  C   UNL     1      18.686  38.775  76.204  1.00  0.00     0.006 C 
BRANCH  12  13
ATOM     13  C   UNL     1      17.395  39.512  75.821  1.00  0.00     0.053 C 
BRANCH  13  14
ATOM     14  C   UNL     1      16.979  39.161  74.426  1.00  0.00     0.041 C 
ATOM     15  O   UNL     1      15.830  39.469  74.011  1.00  0.00    -0.550 OA
ATOM     16  O   UNL     1      17.855  38.485  73.586  1.00  0.00    -0.550 OA
ENDBRANCH  13  14
ENDBRANCH  12  13
ENDBRANCH  11  12
ENDBRANCH  10  11
ENDBRANCH   9  10
ENDBRANCH   8   9
ENDBRANCH   7   8
ENDBRANCH   6   7
ENDBRANCH   5   6
ENDBRANCH   4   5
ENDBRANCH   3   4
ENDBRANCH   2   3
ENDBRANCH   1   2
BRANCH   1  17
ATOM     17  C   UNL     1      12.284  44.841  74.803  1.00  0.00     0.000 C 
BRANCH  17  18
ATOM     18  C   UNL     1      11.769  46.121  75.493  1.00  0.00     0.000 C 
BRANCH  18  19
ATOM     19  C   UNL     1      11.541  47.323  74.556  1.00  0.00     0.000 C 
BRANCH  19  20
ATOM     20  C   UNL     1      12.752  48.270  74.490  1.00  0.00     0.000 C 
BRANCH  20  21
ATOM     21  C   UNL     1      13.748  47.861  73.383  1.00  0.00     0.000 C 
BRANCH  21  22
ATOM     22  C   UNL     1      15.124  48.538  73.501  1.00  0.00    -0.000 C 
BRANCH  22  23
ATOM     23  C   UNL     1      15.453  48.986  74.936  1.00  0.00    -0.000 C 
BRANCH  23  24
ATOM     24  C   UNL     1      16.696  48.273  75.509  1.00  0.00    -0.000 C 
BRANCH  24  25
ATOM     25  C   UNL     1      16.805  46.791  75.113  1.00  0.00    -0.000 C 
BRANCH  25  26
ATOM     26  C   UNL     1      18.247  46.364  74.792  1.00  0.00    -0.000 C 
BRANCH  26  27
ATOM     27  C   UNL     1      18.510  46.199  73.284  1.00  0.00    -0.000 C 
BRANCH  27  28
ATOM     28  C   UNL     1      19.153  47.413  72.588  1.00  0.00    -0.000 C 
BRANCH  28  29
ATOM     29  C   UNL     1      18.211  48.110  71.595  1.00  0.00    -0.003 C 
ATOM     30  C   UNL     1      18.954  48.523  70.327  1.00  0.00     0.004 C 
ENDBRANCH  28  29
ENDBRANCH  27  28
ENDBRANCH  26  27
ENDBRANCH  25  26
ENDBRANCH  24  25
ENDBRANCH  23  24
ENDBRANCH  22  23
ENDBRANCH  21  22
ENDBRANCH  20  21
ENDBRANCH  19  20
ENDBRANCH  18  19
ENDBRANCH  17  18
ENDBRANCH   1  17
TORSDOF 26
ENDMDL
