MODEL 1
REMARK VINA RESULT:    -3.796      0.000      0.000
REMARK INTER + INTRA:         -11.832
REMARK INTER:                  -8.679
REMARK INTRA:                  -3.153
REMARK UNBOUND:                -3.153
REMARK SMILES CCCCCCCCCCCCCCCCCCCCCCCC(=O)[O-]
REMARK SMILES IDX 13 1 14 2 15 3 16 4 17 5 18 6 19 7 20 8 21 9 22 10 23 11
REMARK SMILES IDX 24 12 25 13 26 14 12 15 11 16 10 17 9 18 8 19 7 20 6 21 5 22
REMARK SMILES IDX 4 23 3 24 2 25 1 26
REMARK H PARENT
REMARK Flexibility Score: inf
ROOT
ATOM      1  C   UNL     1      31.333   9.176  49.782  1.00  0.00     0.000 C 
ENDROOT
BRANCH   1   2
ATOM      2  C   UNL     1      31.769  10.459  49.049  1.00  0.00     0.000 C 
BRANCH   2   3
ATOM      3  C   UNL     1      32.709  11.339  49.893  1.00  0.00     0.000 C 
BRANCH   3   4
ATOM      4  C   UNL     1      34.198  11.081  49.580  1.00  0.00     0.000 C 
BRANCH   4   5
ATOM      5  C   UNL     1      34.800  12.060  48.553  1.00  0.00     0.000 C 
BRANCH   5   6
ATOM      6  C   UNL     1      36.280  11.818  48.201  1.00  0.00     0.000 C 
BRANCH   6   7
ATOM      7  C   UNL     1      36.698  12.278  46.791  1.00  0.00     0.000 C 
BRANCH   7   8
ATOM      8  C   UNL     1      35.522  12.840  45.973  1.00  0.00     0.000 C 
BRANCH   8   9
ATOM      9  C   UNL     1      35.769  14.281  45.486  1.00  0.00     0.000 C 
BRANCH   9  10
ATOM     10  C   UNL     1      37.228  14.761  45.581  1.00  0.00     0.006 C 
BRANCH  10  11
ATOM     11  C   UNL     1      37.407  15.948  46.536  1.00  0.00     0.053 C 
BRANCH  11  12
ATOM     12  C   UNL     1      36.614  17.124  46.062  1.00  0.00     0.041 C 
ATOM     13  O   UNL     1      36.828  17.617  44.923  1.00  0.00    -0.550 OA
ATOM     14  O   UNL     1      35.611  17.656  46.865  1.00  0.00    -0.550 OA
ENDBRANCH  11  12
ENDBRANCH  10  11
ENDBRANCH   9  10
ENDBRANCH   8   9
ENDBRANCH   7   8
ENDBRANCH   6   7
ENDBRANCH   5   6
ENDBRANCH   4   5
ENDBRANCH   3   4
ENDBRANCH   2   3
ENDBRANCH   1   2
BRANCH   1  15
ATOM     15  C   UNL     1      30.075   8.496  49.209  1.00  0.00     0.000 C 
BRANCH  15  16
ATOM     16  C   UNL     1      29.606   7.299  50.054  1.00  0.00     0.000 C 
BRANCH  16  17
ATOM     17  C   UNL     1      29.412   6.016  49.224  1.00  0.00     0.000 C 
BRANCH  17  18
ATOM     18  C   UNL     1      30.090   6.016  47.842  1.00  0.00    -0.000 C 
BRANCH  18  19
ATOM     19  C   UNL     1      31.407   5.220  47.818  1.00  0.00    -0.000 C 
BRANCH  19  20
ATOM     20  C   UNL     1      32.636   6.113  48.049  1.00  0.00    -0.000 C 
BRANCH  20  21
ATOM     21  C   UNL     1      32.807   7.172  46.949  1.00  0.00    -0.000 C 
BRANCH  21  22
ATOM     22  C   UNL     1      33.924   8.160  47.308  1.00  0.00    -0.000 C 
BRANCH  22  23
ATOM     23  C   UNL     1      34.013   9.291  46.271  1.00  0.00    -0.000 C 
BRANCH  23  24
ATOM     24  C   UNL     1      35.324   9.263  45.471  1.00  0.00    -0.000 C 
BRANCH  24  25
ATOM     25  C   UNL     1      35.094   9.260  43.953  1.00  0.00    -0.003 C 
ATOM     26  C   UNL     1      33.823   8.496  43.592  1.00  0.00     0.004 C 
ENDBRANCH  24  25
ENDBRANCH  23  24
ENDBRANCH  22  23
ENDBRANCH  21  22
ENDBRANCH  20  21
ENDBRANCH  19  20
ENDBRANCH  18  19
ENDBRANCH  17  18
ENDBRANCH  16  17
ENDBRANCH  15  16
ENDBRANCH   1  15
TORSDOF 22
ENDMDL
MODEL 2
REMARK VINA RESULT:    -3.578      3.264      6.239
REMARK INTER + INTRA:         -11.334
REMARK INTER:                  -9.254
REMARK INTRA:                  -2.080
REMARK UNBOUND:                -3.153
REMARK SMILES CCCCCCCCCCCCCCCCCCCCCCCC(=O)[O-]
REMARK SMILES IDX 13 1 14 2 15 3 16 4 17 5 18 6 19 7 20 8 21 9 22 10 23 11
REMARK SMILES IDX 24 12 25 13 26 14 12 15 11 16 10 17 9 18 8 19 7 20 6 21 5 22
REMARK SMILES IDX 4 23 3 24 2 25 1 26
REMARK H PARENT
REMARK Flexibility Score: inf
ROOT
ATOM      1  C   UNL     1      35.878  12.463  46.387  1.00  0.00     0.000 C 
ENDROOT
BRANCH   1   2
ATOM      2  C   UNL     1      35.471  13.440  45.268  1.00  0.00     0.000 C 
BRANCH   2   3
ATOM      3  C   UNL     1      35.836  14.901  45.589  1.00  0.00     0.000 C 
BRANCH   3   4
ATOM      4  C   UNL     1      35.467  15.298  47.034  1.00  0.00     0.000 C 
BRANCH   4   5
ATOM      5  C   UNL     1      34.754  16.660  47.145  1.00  0.00     0.000 C 
BRANCH   5   6
ATOM      6  C   UNL     1      35.678  17.871  47.378  1.00  0.00     0.000 C 
BRANCH   6   7
ATOM      7  C   UNL     1      35.603  18.485  48.789  1.00  0.00     0.000 C 
BRANCH   7   8
ATOM      8  C   UNL     1      34.305  18.124  49.530  1.00  0.00     0.000 C 
BRANCH   8   9
ATOM      9  C   UNL     1      33.334  19.314  49.649  1.00  0.00     0.000 C 
BRANCH   9  10
ATOM     10  C   UNL     1      31.854  18.978  49.391  1.00  0.00     0.006 C 
BRANCH  10  11
ATOM     11  C   UNL     1      31.653  17.575  48.805  1.00  0.00     0.053 C 
BRANCH  11  12
ATOM     12  C   UNL     1      30.488  16.899  49.455  1.00  0.00     0.041 C 
ATOM     13  O   UNL     1      29.525  17.580  49.899  1.00  0.00    -0.550 OA
ATOM     14  O   UNL     1      30.446  15.513  49.540  1.00  0.00    -0.550 OA
ENDBRANCH  11  12
ENDBRANCH  10  11
ENDBRANCH   9  10
ENDBRANCH   8   9
ENDBRANCH   7   8
ENDBRANCH   6   7
ENDBRANCH   5   6
ENDBRANCH   4   5
ENDBRANCH   3   4
ENDBRANCH   2   3
ENDBRANCH   1   2
BRANCH   1  15
ATOM     15  C   UNL     1      35.108  11.129  46.396  1.00  0.00     0.000 C 
BRANCH  15  16
ATOM     16  C   UNL     1      34.807  10.623  47.818  1.00  0.00     0.000 C 
BRANCH  16  17
ATOM     17  C   UNL     1      34.346  11.743  48.770  1.00  0.00     0.000 C 
BRANCH  17  18
ATOM     18  C   UNL     1      33.050  11.452  49.549  1.00  0.00    -0.000 C 
BRANCH  18  19
ATOM     19  C   UNL     1      32.117  10.471  48.817  1.00  0.00    -0.000 C 
BRANCH  19  20
ATOM     20  C   UNL     1      31.715   9.277  49.698  1.00  0.00    -0.000 C 
BRANCH  20  21
ATOM     21  C   UNL     1      32.735   8.130  49.632  1.00  0.00    -0.000 C 
BRANCH  21  22
ATOM     22  C   UNL     1      32.811   7.544  48.218  1.00  0.00    -0.000 C 
BRANCH  22  23
ATOM     23  C   UNL     1      32.097   6.185  48.145  1.00  0.00    -0.000 C 
BRANCH  23  24
ATOM     24  C   UNL     1      30.727   6.269  47.455  1.00  0.00    -0.000 C 
BRANCH  24  25
ATOM     25  C   UNL     1      29.560   6.300  48.453  1.00  0.00    -0.003 C 
ATOM     26  C   UNL     1      28.316   5.640  47.865  1.00  0.00     0.004 C 
ENDBRANCH  24  25
ENDBRANCH  23  24
ENDBRANCH  22  23
ENDBRANCH  21  22
ENDBRANCH  20  21
ENDBRANCH  19  20
ENDBRANCH  18  19
ENDBRANCH  17  18
ENDBRANCH  16  17
ENDBRANCH  15  16
ENDBRANCH   1  15
TORSDOF 22
ENDMDL
MODEL 3
REMARK VINA RESULT:    -3.542      2.657      7.161
REMARK INTER + INTRA:         -11.251
REMARK INTER:                  -8.031
REMARK INTRA:                  -3.220
REMARK UNBOUND:                -3.153
REMARK SMILES CCCCCCCCCCCCCCCCCCCCCCCC(=O)[O-]
REMARK SMILES IDX 13 1 14 2 15 3 16 4 17 5 18 6 19 7 20 8 21 9 22 10 23 11
REMARK SMILES IDX 24 12 25 13 26 14 12 15 11 16 10 17 9 18 8 19 7 20 6 21 5 22
REMARK SMILES IDX 4 23 3 24 2 25 1 26
REMARK H PARENT
REMARK Flexibility Score: inf
ROOT
ATOM      1  C   UNL     1      31.633   9.721  50.122  1.00  0.00     0.000 C 
ENDROOT
BRANCH   1   2
ATOM      2  C   UNL     1      30.645   8.992  49.190  1.00  0.00     0.000 C 
BRANCH   2   3
ATOM      3  C   UNL     1      29.930   7.816  49.880  1.00  0.00     0.000 C 
BRANCH   3   4
ATOM      4  C   UNL     1      29.173   6.917  48.879  1.00  0.00     0.000 C 
BRANCH   4   5
ATOM      5  C   UNL     1      29.947   5.647  48.472  1.00  0.00     0.000 C 
BRANCH   5   6
ATOM      6  C   UNL     1      31.059   5.860  47.427  1.00  0.00     0.000 C 
BRANCH   6   7
ATOM      7  C   UNL     1      32.495   5.708  47.964  1.00  0.00     0.000 C 
BRANCH   7   8
ATOM      8  C   UNL     1      33.215   7.057  48.133  1.00  0.00     0.000 C 
BRANCH   8   9
ATOM      9  C   UNL     1      33.294   7.860  46.822  1.00  0.00     0.000 C 
BRANCH   9  10
ATOM     10  C   UNL     1      34.150   9.138  46.890  1.00  0.00     0.006 C 
BRANCH  10  11
ATOM     11  C   UNL     1      35.168   9.239  45.747  1.00  0.00     0.053 C 
BRANCH  11  12
ATOM     12  C   UNL     1      34.470   9.476  44.446  1.00  0.00     0.041 C 
ATOM     13  O   UNL     1      34.238   8.516  43.665  1.00  0.00    -0.550 OA
ATOM     14  O   UNL     1      34.044  10.756  44.108  1.00  0.00    -0.550 OA
ENDBRANCH  11  12
ENDBRANCH  10  11
ENDBRANCH   9  10
ENDBRANCH   8   9
ENDBRANCH   7   8
ENDBRANCH   6   7
ENDBRANCH   5   6
ENDBRANCH   4   5
ENDBRANCH   3   4
ENDBRANCH   2   3
ENDBRANCH   1   2
BRANCH   1  15
ATOM     15  C   UNL     1      32.495  10.799  49.438  1.00  0.00     0.000 C 
BRANCH  15  16
ATOM     16  C   UNL     1      33.918  10.881  50.018  1.00  0.00     0.000 C 
BRANCH  16  17
ATOM     17  C   UNL     1      34.593  12.242  49.765  1.00  0.00     0.000 C 
BRANCH  17  18
ATOM     18  C   UNL     1      34.996  12.517  48.305  1.00  0.00    -0.000 C 
BRANCH  18  19
ATOM     19  C   UNL     1      36.480  12.222  48.026  1.00  0.00    -0.000 C 
BRANCH  19  20
ATOM     20  C   UNL     1      36.910  12.661  46.617  1.00  0.00    -0.000 C 
BRANCH  20  21
ATOM     21  C   UNL     1      35.755  13.282  45.816  1.00  0.00    -0.000 C 
BRANCH  21  22
ATOM     22  C   UNL     1      36.079  14.726  45.416  1.00  0.00    -0.000 C 
BRANCH  22  23
ATOM     23  C   UNL     1      36.244  15.618  46.657  1.00  0.00    -0.000 C 
BRANCH  23  24
ATOM     24  C   UNL     1      34.902  16.120  47.211  1.00  0.00    -0.000 C 
BRANCH  24  25
ATOM     25  C   UNL     1      34.930  16.333  48.732  1.00  0.00    -0.003 C 
ATOM     26  C   UNL     1      36.311  16.028  49.304  1.00  0.00     0.004 C 
ENDBRANCH  24  25
ENDBRANCH  23  24
ENDBRANCH  22  23
ENDBRANCH  21  22
ENDBRANCH  20  21
ENDBRANCH  19  20
ENDBRANCH  18  19
ENDBRANCH  17  18
ENDBRANCH  16  17
ENDBRANCH  15  16
ENDBRANCH   1  15
TORSDOF 22
ENDMDL
MODEL 4
REMARK VINA RESULT:    -3.528      2.766      8.073
REMARK INTER + INTRA:         -11.219
REMARK INTER:                  -8.471
REMARK INTRA:                  -2.748
REMARK UNBOUND:                -3.153
REMARK SMILES CCCCCCCCCCCCCCCCCCCCCCCC(=O)[O-]
REMARK SMILES IDX 13 1 14 2 15 3 16 4 17 5 18 6 19 7 20 8 21 9 22 10 23 11
REMARK SMILES IDX 24 12 25 13 26 14 12 15 11 16 10 17 9 18 8 19 7 20 6 21 5 22
REMARK SMILES IDX 4 23 3 24 2 25 1 26
REMARK H PARENT
REMARK Flexibility Score: inf
ROOT
ATOM      1  C   UNL     1      33.645  11.352  49.747  1.00  0.00     0.000 C 
ENDROOT
BRANCH   1   2
ATOM      2  C   UNL     1      32.207  10.948  49.369  1.00  0.00     0.000 C 
BRANCH   2   3
ATOM      3  C   UNL     1      31.789   9.594  49.970  1.00  0.00     0.000 C 
BRANCH   3   4
ATOM      4  C   UNL     1      30.623   8.941  49.198  1.00  0.00     0.000 C 
BRANCH   4   5
ATOM      5  C   UNL     1      29.888   7.841  49.990  1.00  0.00     0.000 C 
BRANCH   5   6
ATOM      6  C   UNL     1      29.766   6.483  49.273  1.00  0.00     0.000 C 
BRANCH   6   7
ATOM      7  C   UNL     1      30.225   6.478  47.803  1.00  0.00     0.000 C 
BRANCH   7   8
ATOM      8  C   UNL     1      31.530   5.693  47.587  1.00  0.00     0.000 C 
BRANCH   8   9
ATOM      9  C   UNL     1      32.788   6.559  47.787  1.00  0.00     0.000 C 
BRANCH   9  10
ATOM     10  C   UNL     1      33.220   7.376  46.556  1.00  0.00     0.006 C 
BRANCH  10  11
ATOM     11  C   UNL     1      33.734   8.776  46.916  1.00  0.00     0.053 C 
BRANCH  11  12
ATOM     12  C   UNL     1      34.737   9.239  45.909  1.00  0.00     0.041 C 
ATOM     13  O   UNL     1      35.934   9.434  46.249  1.00  0.00    -0.550 OA
ATOM     14  O   UNL     1      34.359   9.423  44.584  1.00  0.00    -0.550 OA
ENDBRANCH  11  12
ENDBRANCH  10  11
ENDBRANCH   9  10
ENDBRANCH   8   9
ENDBRANCH   7   8
ENDBRANCH   6   7
ENDBRANCH   5   6
ENDBRANCH   4   5
ENDBRANCH   3   4
ENDBRANCH   2   3
ENDBRANCH   1   2
BRANCH   1  15
ATOM     15  C   UNL     1      33.843  12.851  50.040  1.00  0.00     0.000 C 
BRANCH  15  16
ATOM     16  C   UNL     1      35.192  13.386  49.529  1.00  0.00     0.000 C 
BRANCH  16  17
ATOM     17  C   UNL     1      35.231  14.922  49.428  1.00  0.00     0.000 C 
BRANCH  17  18
ATOM     18  C   UNL     1      33.900  15.591  49.036  1.00  0.00    -0.000 C 
BRANCH  18  19
ATOM     19  C   UNL     1      34.093  16.954  48.349  1.00  0.00    -0.000 C 
BRANCH  19  20
ATOM     20  C   UNL     1      35.523  17.495  48.508  1.00  0.00    -0.000 C 
BRANCH  20  21
ATOM     21  C   UNL     1      36.092  18.047  47.192  1.00  0.00    -0.000 C 
BRANCH  21  22
ATOM     22  C   UNL     1      35.678  17.170  46.005  1.00  0.00    -0.000 C 
BRANCH  22  23
ATOM     23  C   UNL     1      36.910  16.590  45.292  1.00  0.00    -0.000 C 
BRANCH  23  24
ATOM     24  C   UNL     1      36.943  15.055  45.314  1.00  0.00    -0.000 C 
BRANCH  24  25
ATOM     25  C   UNL     1      35.589  14.437  45.696  1.00  0.00    -0.003 C 
ATOM     26  C   UNL     1      35.736  12.957  46.034  1.00  0.00     0.004 C 
ENDBRANCH  24  25
ENDBRANCH  23  24
ENDBRANCH  22  23
ENDBRANCH  21  22
ENDBRANCH  20  21
ENDBRANCH  19  20
ENDBRANCH  18  19
ENDBRANCH  17  18
ENDBRANCH  16  17
ENDBRANCH  15  16
ENDBRANCH   1  15
TORSDOF 22
ENDMDL
MODEL 5
REMARK VINA RESULT:    -3.497      1.554      4.300
REMARK INTER + INTRA:         -11.148
REMARK INTER:                  -8.259
REMARK INTRA:                  -2.889
REMARK UNBOUND:                -3.153
REMARK SMILES CCCCCCCCCCCCCCCCCCCCCCCC(=O)[O-]
REMARK SMILES IDX 13 1 14 2 15 3 16 4 17 5 18 6 19 7 20 8 21 9 22 10 23 11
REMARK SMILES IDX 24 12 25 13 26 14 12 15 11 16 10 17 9 18 8 19 7 20 6 21 5 22
REMARK SMILES IDX 4 23 3 24 2 25 1 26
REMARK H PARENT
REMARK Flexibility Score: inf
ROOT
ATOM      1  C   UNL     1      35.278   9.609  47.465  1.00  0.00     0.000 C 
ENDROOT
BRANCH   1   2
ATOM      2  C   UNL     1      36.143   9.633  46.190  1.00  0.00     0.000 C 
BRANCH   2   3
ATOM      3  C   UNL     1      37.652   9.571  46.490  1.00  0.00     0.000 C 
BRANCH   3   4
ATOM      4  C   UNL     1      38.120  10.727  47.400  1.00  0.00     0.000 C 
BRANCH   4   5
ATOM      5  C   UNL     1      38.038  12.116  46.737  1.00  0.00     0.000 C 
BRANCH   5   6
ATOM      6  C   UNL     1      37.466  13.237  47.626  1.00  0.00     0.000 C 
BRANCH   6   7
ATOM      7  C   UNL     1      36.122  13.821  47.154  1.00  0.00     0.000 C 
BRANCH   7   8
ATOM      8  C   UNL     1      35.938  13.741  45.628  1.00  0.00     0.000 C 
BRANCH   8   9
ATOM      9  C   UNL     1      35.915  15.127  44.956  1.00  0.00     0.000 C 
BRANCH   9  10
ATOM     10  C   UNL     1      36.946  16.133  45.498  1.00  0.00     0.006 C 
BRANCH  10  11
ATOM     11  C   UNL     1      36.420  17.573  45.529  1.00  0.00     0.053 C 
BRANCH  11  12
ATOM     12  C   UNL     1      36.049  17.963  46.924  1.00  0.00     0.041 C 
ATOM     13  O   UNL     1      36.365  19.097  47.371  1.00  0.00    -0.550 OA
ATOM     14  O   UNL     1      35.321  17.087  47.721  1.00  0.00    -0.550 OA
ENDBRANCH  11  12
ENDBRANCH  10  11
ENDBRANCH   9  10
ENDBRANCH   8   9
ENDBRANCH   7   8
ENDBRANCH   6   7
ENDBRANCH   5   6
ENDBRANCH   4   5
ENDBRANCH   3   4
ENDBRANCH   2   3
ENDBRANCH   1   2
BRANCH   1  15
ATOM     15  C   UNL     1      34.386  10.848  47.669  1.00  0.00     0.000 C 
BRANCH  15  16
ATOM     16  C   UNL     1      34.361  11.332  49.129  1.00  0.00     0.000 C 
BRANCH  16  17
ATOM     17  C   UNL     1      33.099  10.884  49.890  1.00  0.00     0.000 C 
BRANCH  17  18
ATOM     18  C   UNL     1      31.823  10.767  49.037  1.00  0.00    -0.000 C 
BRANCH  18  19
ATOM     19  C   UNL     1      31.391   9.309  48.800  1.00  0.00    -0.000 C 
BRANCH  19  20
ATOM     20  C   UNL     1      31.926   8.355  49.880  1.00  0.00    -0.000 C 
BRANCH  20  21
ATOM     21  C   UNL     1      32.787   7.226  49.292  1.00  0.00    -0.000 C 
BRANCH  21  22
ATOM     22  C   UNL     1      32.837   7.314  47.763  1.00  0.00    -0.000 C 
BRANCH  22  23
ATOM     23  C   UNL     1      32.103   6.127  47.119  1.00  0.00    -0.000 C 
BRANCH  23  24
ATOM     24  C   UNL     1      30.964   5.585  47.995  1.00  0.00    -0.000 C 
BRANCH  24  25
ATOM     25  C   UNL     1      29.621   6.276  47.718  1.00  0.00    -0.003 C 
ATOM     26  C   UNL     1      28.471   5.533  48.392  1.00  0.00     0.004 C 
ENDBRANCH  24  25
ENDBRANCH  23  24
ENDBRANCH  22  23
ENDBRANCH  21  22
ENDBRANCH  20  21
ENDBRANCH  19  20
ENDBRANCH  18  19
ENDBRANCH  17  18
ENDBRANCH  16  17
ENDBRANCH  15  16
ENDBRANCH   1  15
TORSDOF 22
ENDMDL
MODEL 6
REMARK VINA RESULT:    -3.488      3.924      8.690
REMARK INTER + INTRA:         -11.128
REMARK INTER:                  -7.976
REMARK INTRA:                  -3.152
REMARK UNBOUND:                -3.153
REMARK SMILES CCCCCCCCCCCCCCCCCCCCCCCC(=O)[O-]
REMARK SMILES IDX 13 1 14 2 15 3 16 4 17 5 18 6 19 7 20 8 21 9 22 10 23 11
REMARK SMILES IDX 24 12 25 13 26 14 12 15 11 16 10 17 9 18 8 19 7 20 6 21 5 22
REMARK SMILES IDX 4 23 3 24 2 25 1 26
REMARK H PARENT
REMARK Flexibility Score: inf
ROOT
ATOM      1  C   UNL     1      34.317  11.641  44.863  1.00  0.00     0.000 C 
ENDROOT
BRANCH   1   2
ATOM      2  C   UNL     1      34.420  10.386  43.976  1.00  0.00     0.000 C 
BRANCH   2   3
ATOM      3  C   UNL     1      34.804   9.123  44.769  1.00  0.00     0.000 C 
BRANCH   3   4
ATOM      4  C   UNL     1      34.525   9.268  46.280  1.00  0.00     0.000 C 
BRANCH   4   5
ATOM      5  C   UNL     1      35.733   9.774  47.093  1.00  0.00     0.000 C 
BRANCH   5   6
ATOM      6  C   UNL     1      35.405  10.290  48.507  1.00  0.00     0.000 C 
BRANCH   6   7
ATOM      7  C   UNL     1      34.096   9.749  49.111  1.00  0.00     0.000 C 
BRANCH   7   8
ATOM      8  C   UNL     1      32.925  10.739  48.984  1.00  0.00     0.000 C 
BRANCH   8   9
ATOM      9  C   UNL     1      31.586  10.044  48.672  1.00  0.00     0.000 C 
BRANCH   9  10
ATOM     10  C   UNL     1      31.648   8.507  48.611  1.00  0.00     0.006 C 
BRANCH  10  11
ATOM     11  C   UNL     1      30.304   7.841  48.932  1.00  0.00     0.053 C 
BRANCH  11  12
ATOM     12  C   UNL     1      30.029   6.728  47.972  1.00  0.00     0.041 C 
ATOM     13  O   UNL     1      30.937   6.313  47.204  1.00  0.00    -0.550 OA
ATOM     14  O   UNL     1      28.778   6.123  47.947  1.00  0.00    -0.550 OA
ENDBRANCH  11  12
ENDBRANCH  10  11
ENDBRANCH   9  10
ENDBRANCH   8   9
ENDBRANCH   7   8
ENDBRANCH   6   7
ENDBRANCH   5   6
ENDBRANCH   4   5
ENDBRANCH   3   4
ENDBRANCH   2   3
ENDBRANCH   1   2
BRANCH   1  15
ATOM     15  C   UNL     1      34.697  12.961  44.166  1.00  0.00     0.000 C 
BRANCH  15  16
ATOM     16  C   UNL     1      35.454  13.929  45.093  1.00  0.00     0.000 C 
BRANCH  16  17
ATOM     17  C   UNL     1      36.012  13.242  46.354  1.00  0.00     0.000 C 
BRANCH  17  18
ATOM     18  C   UNL     1      37.358  13.791  46.862  1.00  0.00    -0.000 C 
BRANCH  18  19
ATOM     19  C   UNL     1      37.335  14.146  48.359  1.00  0.00    -0.000 C 
BRANCH  19  20
ATOM     20  C   UNL     1      35.906  14.251  48.915  1.00  0.00    -0.000 C 
BRANCH  20  21
ATOM     21  C   UNL     1      35.470  15.707  49.145  1.00  0.00    -0.000 C 
BRANCH  21  22
ATOM     22  C   UNL     1      34.418  16.133  48.116  1.00  0.00    -0.000 C 
BRANCH  22  23
ATOM     23  C   UNL     1      35.009  17.126  47.102  1.00  0.00    -0.000 C 
BRANCH  23  24
ATOM     24  C   UNL     1      36.335  17.741  47.576  1.00  0.00    -0.000 C 
BRANCH  24  25
ATOM     25  C   UNL     1      37.475  17.541  46.568  1.00  0.00    -0.003 C 
ATOM     26  C   UNL     1      36.932  17.295  45.163  1.00  0.00     0.004 C 
ENDBRANCH  24  25
ENDBRANCH  23  24
ENDBRANCH  22  23
ENDBRANCH  21  22
ENDBRANCH  20  21
ENDBRANCH  19  20
ENDBRANCH  18  19
ENDBRANCH  17  18
ENDBRANCH  16  17
ENDBRANCH  15  16
ENDBRANCH   1  15
TORSDOF 22
ENDMDL
MODEL 7
REMARK VINA RESULT:    -3.462      1.681      4.813
REMARK INTER + INTRA:         -11.068
REMARK INTER:                  -7.862
REMARK INTRA:                  -3.206
REMARK UNBOUND:                -3.153
REMARK SMILES CCCCCCCCCCCCCCCCCCCCCCCC(=O)[O-]
REMARK SMILES IDX 13 1 14 2 15 3 16 4 17 5 18 6 19 7 20 8 21 9 22 10 23 11
REMARK SMILES IDX 24 12 25 13 26 14 12 15 11 16 10 17 9 18 8 19 7 20 6 21 5 22
REMARK SMILES IDX 4 23 3 24 2 25 1 26
REMARK H PARENT
REMARK Flexibility Score: inf
ROOT
ATOM      1  C   UNL     1      35.127  12.046  45.659  1.00  0.00     0.000 C 
ENDROOT
BRANCH   1   2
ATOM      2  C   UNL     1      35.117  13.340  44.823  1.00  0.00     0.000 C 
BRANCH   2   3
ATOM      3  C   UNL     1      36.145  14.376  45.313  1.00  0.00     0.000 C 
BRANCH   3   4
ATOM      4  C   UNL     1      37.304  13.730  46.102  1.00  0.00     0.000 C 
BRANCH   4   5
ATOM      5  C   UNL     1      37.977  14.679  47.113  1.00  0.00     0.000 C 
BRANCH   5   6
ATOM      6  C   UNL     1      37.522  14.512  48.576  1.00  0.00     0.000 C 
BRANCH   6   7
ATOM      7  C   UNL     1      36.485  13.399  48.813  1.00  0.00     0.000 C 
BRANCH   7   8
ATOM      8  C   UNL     1      35.037  13.919  48.808  1.00  0.00     0.000 C 
BRANCH   8   9
ATOM      9  C   UNL     1      34.939  15.414  49.167  1.00  0.00     0.000 C 
BRANCH   9  10
ATOM     10  C   UNL     1      34.495  16.334  48.015  1.00  0.00     0.006 C 
BRANCH  10  11
ATOM     11  C   UNL     1      35.123  17.731  48.088  1.00  0.00     0.053 C 
BRANCH  11  12
ATOM     12  C   UNL     1      36.095  17.927  46.969  1.00  0.00     0.041 C 
ATOM     13  O   UNL     1      37.301  18.195  47.214  1.00  0.00    -0.550 OA
ATOM     14  O   UNL     1      35.678  17.779  45.651  1.00  0.00    -0.550 OA
ENDBRANCH  11  12
ENDBRANCH  10  11
ENDBRANCH   9  10
ENDBRANCH   8   9
ENDBRANCH   7   8
ENDBRANCH   6   7
ENDBRANCH   5   6
ENDBRANCH   4   5
ENDBRANCH   3   4
ENDBRANCH   2   3
ENDBRANCH   1   2
BRANCH   1  15
ATOM     15  C   UNL     1      34.616  10.793  44.924  1.00  0.00     0.000 C 
BRANCH  15  16
ATOM     16  C   UNL     1      34.767   9.509  45.757  1.00  0.00     0.000 C 
BRANCH  16  17
ATOM     17  C   UNL     1      35.808   9.641  46.884  1.00  0.00     0.000 C 
BRANCH  17  18
ATOM     18  C   UNL     1      35.228   9.756  48.306  1.00  0.00    -0.000 C 
BRANCH  18  19
ATOM     19  C   UNL     1      33.816   9.156  48.429  1.00  0.00    -0.000 C 
BRANCH  19  20
ATOM     20  C   UNL     1      32.728  10.235  48.542  1.00  0.00    -0.000 C 
BRANCH  20  21
ATOM     21  C   UNL     1      31.353   9.649  48.899  1.00  0.00    -0.000 C 
BRANCH  21  22
ATOM     22  C   UNL     1      31.454   8.144  49.177  1.00  0.00    -0.000 C 
BRANCH  22  23
ATOM     23  C   UNL     1      30.431   7.360  48.341  1.00  0.00    -0.000 C 
BRANCH  23  24
ATOM     24  C   UNL     1      30.864   5.911  48.075  1.00  0.00    -0.000 C 
BRANCH  24  25
ATOM     25  C   UNL     1      32.346   5.796  47.688  1.00  0.00    -0.003 C 
ATOM     26  C   UNL     1      32.591   6.339  46.284  1.00  0.00     0.004 C 
ENDBRANCH  24  25
ENDBRANCH  23  24
ENDBRANCH  22  23
ENDBRANCH  21  22
ENDBRANCH  20  21
ENDBRANCH  19  20
ENDBRANCH  18  19
ENDBRANCH  17  18
ENDBRANCH  16  17
ENDBRANCH  15  16
ENDBRANCH   1  15
TORSDOF 22
ENDMDL
MODEL 8
REMARK VINA RESULT:    -3.434      2.433      6.303
REMARK INTER + INTRA:         -11.004
REMARK INTER:                  -8.167
REMARK INTRA:                  -2.837
REMARK UNBOUND:                -3.153
REMARK SMILES CCCCCCCCCCCCCCCCCCCCCCCC(=O)[O-]
REMARK SMILES IDX 13 1 14 2 15 3 16 4 17 5 18 6 19 7 20 8 21 9 22 10 23 11
REMARK SMILES IDX 24 12 25 13 26 14 12 15 11 16 10 17 9 18 8 19 7 20 6 21 5 22
REMARK SMILES IDX 4 23 3 24 2 25 1 26
REMARK H PARENT
REMARK Flexibility Score: inf
ROOT
ATOM      1  C   UNL     1      35.519  13.738  45.682  1.00  0.00     0.000 C 
ENDROOT
BRANCH   1   2
ATOM      2  C   UNL     1      36.727  14.681  45.839  1.00  0.00     0.000 C 
BRANCH   2   3
ATOM      3  C   UNL     1      36.671  15.888  44.885  1.00  0.00     0.000 C 
BRANCH   3   4
ATOM      4  C   UNL     1      36.221  17.182  45.596  1.00  0.00     0.000 C 
BRANCH   4   5
ATOM      5  C   UNL     1      37.323  17.844  46.446  1.00  0.00     0.000 C 
BRANCH   5   6
ATOM      6  C   UNL     1      36.842  18.499  47.755  1.00  0.00     0.000 C 
BRANCH   6   7
ATOM      7  C   UNL     1      37.316  17.803  49.045  1.00  0.00     0.000 C 
BRANCH   7   8
ATOM      8  C   UNL     1      36.905  16.322  49.110  1.00  0.00     0.000 C 
BRANCH   8   9
ATOM      9  C   UNL     1      35.486  16.120  49.673  1.00  0.00     0.000 C 
BRANCH   9  10
ATOM     10  C   UNL     1      34.401  15.831  48.620  1.00  0.00     0.006 C 
BRANCH  10  11
ATOM     11  C   UNL     1      33.582  17.073  48.247  1.00  0.00     0.053 C 
BRANCH  11  12
ATOM     12  C   UNL     1      32.227  17.013  48.875  1.00  0.00     0.041 C 
ATOM     13  O   UNL     1      31.880  16.003  49.543  1.00  0.00    -0.550 OA
ATOM     14  O   UNL     1      31.356  18.090  48.754  1.00  0.00    -0.550 OA
ENDBRANCH  11  12
ENDBRANCH  10  11
ENDBRANCH   9  10
ENDBRANCH   8   9
ENDBRANCH   7   8
ENDBRANCH   6   7
ENDBRANCH   5   6
ENDBRANCH   4   5
ENDBRANCH   3   4
ENDBRANCH   2   3
ENDBRANCH   1   2
BRANCH   1  15
ATOM     15  C   UNL     1      35.624  12.412  46.460  1.00  0.00     0.000 C 
BRANCH  15  16
ATOM     16  C   UNL     1      36.499  12.528  47.720  1.00  0.00     0.000 C 
BRANCH  16  17
ATOM     17  C   UNL     1      35.884  11.827  48.946  1.00  0.00     0.000 C 
BRANCH  17  18
ATOM     18  C   UNL     1      34.410  12.170  49.230  1.00  0.00    -0.000 C 
BRANCH  18  19
ATOM     19  C   UNL     1      33.641  11.012  49.890  1.00  0.00    -0.000 C 
BRANCH  19  20
ATOM     20  C   UNL     1      33.305   9.889  48.896  1.00  0.00    -0.000 C 
BRANCH  20  21
ATOM     21  C   UNL     1      31.859   9.970  48.384  1.00  0.00    -0.000 C 
BRANCH  21  22
ATOM     22  C   UNL     1      31.116   8.651  48.628  1.00  0.00    -0.000 C 
BRANCH  22  23
ATOM     23  C   UNL     1      31.954   7.452  48.157  1.00  0.00    -0.000 C 
BRANCH  23  24
ATOM     24  C   UNL     1      31.098   6.331  47.548  1.00  0.00    -0.000 C 
BRANCH  24  25
ATOM     25  C   UNL     1      29.601   6.499  47.844  1.00  0.00    -0.003 C 
ATOM     26  C   UNL     1      29.208   5.768  49.124  1.00  0.00     0.004 C 
ENDBRANCH  24  25
ENDBRANCH  23  24
ENDBRANCH  22  23
ENDBRANCH  21  22
ENDBRANCH  20  21
ENDBRANCH  19  20
ENDBRANCH  18  19
ENDBRANCH  17  18
ENDBRANCH  16  17
ENDBRANCH  15  16
ENDBRANCH   1  15
TORSDOF 22
ENDMDL
MODEL 9
REMARK VINA RESULT:    -3.400      3.951      8.605
REMARK INTER + INTRA:         -10.927
REMARK INTER:                  -7.221
REMARK INTRA:                  -3.706
REMARK UNBOUND:                -3.153
REMARK SMILES CCCCCCCCCCCCCCCCCCCCCCCC(=O)[O-]
REMARK SMILES IDX 13 1 14 2 15 3 16 4 17 5 18 6 19 7 20 8 21 9 22 10 23 11
REMARK SMILES IDX 24 12 25 13 26 14 12 15 11 16 10 17 9 18 8 19 7 20 6 21 5 22
REMARK SMILES IDX 4 23 3 24 2 25 1 26
REMARK H PARENT
REMARK Flexibility Score: inf
ROOT
ATOM      1  C   UNL     1      36.715  11.941  49.087  1.00  0.00     0.000 C 
ENDROOT
BRANCH   1   2
ATOM      2  C   UNL     1      37.261  10.658  48.432  1.00  0.00     0.000 C 
BRANCH   2   3
ATOM      3  C   UNL     1      37.088  10.649  46.902  1.00  0.00     0.000 C 
BRANCH   3   4
ATOM      4  C   UNL     1      36.544   9.303  46.378  1.00  0.00     0.000 C 
BRANCH   4   5
ATOM      5  C   UNL     1      35.288   9.438  45.494  1.00  0.00     0.000 C 
BRANCH   5   6
ATOM      6  C   UNL     1      34.006   9.871  46.233  1.00  0.00     0.000 C 
BRANCH   6   7
ATOM      7  C   UNL     1      33.650   9.025  47.470  1.00  0.00     0.000 C 
BRANCH   7   8
ATOM      8  C   UNL     1      32.486   9.617  48.283  1.00  0.00     0.000 C 
BRANCH   8   9
ATOM      9  C   UNL     1      32.387   9.025  49.702  1.00  0.00     0.000 C 
BRANCH   9  10
ATOM     10  C   UNL     1      31.388   7.864  49.856  1.00  0.00     0.006 C 
BRANCH  10  11
ATOM     11  C   UNL     1      30.214   7.950  48.873  1.00  0.00     0.053 C 
BRANCH  11  12
ATOM     12  C   UNL     1      30.064   6.664  48.124  1.00  0.00     0.041 C 
ATOM     13  O   UNL     1      29.061   5.928  48.320  1.00  0.00    -0.550 OA
ATOM     14  O   UNL     1      31.017   6.292  47.182  1.00  0.00    -0.550 OA
ENDBRANCH  11  12
ENDBRANCH  10  11
ENDBRANCH   9  10
ENDBRANCH   8   9
ENDBRANCH   7   8
ENDBRANCH   6   7
ENDBRANCH   5   6
ENDBRANCH   4   5
ENDBRANCH   3   4
ENDBRANCH   2   3
ENDBRANCH   1   2
BRANCH   1  15
ATOM     15  C   UNL     1      35.273  12.310  48.689  1.00  0.00     0.000 C 
BRANCH  15  16
ATOM     16  C   UNL     1      34.664  13.394  49.595  1.00  0.00     0.000 C 
BRANCH  16  17
ATOM     17  C   UNL     1      35.692  14.447  50.050  1.00  0.00     0.000 C 
BRANCH  17  18
ATOM     18  C   UNL     1      35.276  15.913  49.830  1.00  0.00    -0.000 C 
BRANCH  18  19
ATOM     19  C   UNL     1      34.040  16.057  48.924  1.00  0.00    -0.000 C 
BRANCH  19  20
ATOM     20  C   UNL     1      34.237  17.114  47.827  1.00  0.00    -0.000 C 
BRANCH  20  21
ATOM     21  C   UNL     1      35.695  17.588  47.722  1.00  0.00    -0.000 C 
BRANCH  21  22
ATOM     22  C   UNL     1      36.360  17.042  46.453  1.00  0.00    -0.000 C 
BRANCH  22  23
ATOM     23  C   UNL     1      37.396  15.961  46.795  1.00  0.00    -0.000 C 
BRANCH  23  24
ATOM     24  C   UNL     1      37.008  14.573  46.262  1.00  0.00    -0.000 C 
BRANCH  24  25
ATOM     25  C   UNL     1      35.626  14.560  45.593  1.00  0.00    -0.003 C 
ATOM     26  C   UNL     1      35.262  13.159  45.111  1.00  0.00     0.004 C 
ENDBRANCH  24  25
ENDBRANCH  23  24
ENDBRANCH  22  23
ENDBRANCH  21  22
ENDBRANCH  20  21
ENDBRANCH  19  20
ENDBRANCH  18  19
ENDBRANCH  17  18
ENDBRANCH  16  17
ENDBRANCH  15  16
ENDBRANCH   1  15
TORSDOF 22
ENDMDL
