MODEL 1
REMARK VINA RESULT:    -4.693      0.000      0.000
REMARK INTER + INTRA:         -18.057
REMARK INTER:                 -12.375
REMARK INTRA:                  -5.682
REMARK UNBOUND:                -5.682
REMARK SMILES CCCCCCCCCCCCCCCCCCCCCCCCCCCCCC(=O)[O-]
REMARK SMILES IDX 16 1 17 2 18 3 19 4 20 5 21 6 22 7 23 8 24 9 25 10 26 11
REMARK SMILES IDX 27 12 28 13 29 14 30 15 31 16 32 17 15 18 14 19 13 20 12 21
REMARK SMILES IDX 11 22 10 23 9 24 8 25 7 26 6 27 5 28 4 29 3 30 2 31 1 32
REMARK H PARENT
REMARK Flexibility Score: inf
ROOT
ATOM      1  C   UNL     1       4.639  25.872  30.369  1.00  0.00     0.000 C 
ENDROOT
BRANCH   1   2
ATOM      2  C   UNL     1       6.032  26.376  29.949  1.00  0.00     0.000 C 
BRANCH   2   3
ATOM      3  C   UNL     1       6.452  27.738  30.543  1.00  0.00     0.000 C 
BRANCH   3   4
ATOM      4  C   UNL     1       5.651  28.951  30.036  1.00  0.00     0.000 C 
BRANCH   4   5
ATOM      5  C   UNL     1       6.181  30.290  30.575  1.00  0.00     0.000 C 
BRANCH   5   6
ATOM      6  C   UNL     1       7.427  30.121  31.464  1.00  0.00     0.000 C 
BRANCH   6   7
ATOM      7  C   UNL     1       8.298  31.384  31.620  1.00  0.00     0.000 C 
BRANCH   7   8
ATOM      8  C   UNL     1       9.121  31.772  30.375  1.00  0.00     0.000 C 
BRANCH   8   9
ATOM      9  C   UNL     1      10.648  31.663  30.542  1.00  0.00     0.000 C 
BRANCH   9  10
ATOM     10  C   UNL     1      11.328  30.636  29.618  1.00  0.00     0.000 C 
BRANCH  10  11
ATOM     11  C   UNL     1      12.487  31.223  28.784  1.00  0.00     0.000 C 
BRANCH  11  12
ATOM     12  C   UNL     1      12.147  31.313  27.285  1.00  0.00     0.000 C 
BRANCH  12  13
ATOM     13  C   UNL     1      11.482  32.648  26.915  1.00  0.00     0.006 C 
BRANCH  13  14
ATOM     14  C   UNL     1      10.193  32.458  26.105  1.00  0.00     0.053 C 
BRANCH  14  15
ATOM     15  C   UNL     1      10.509  31.926  24.743  1.00  0.00     0.041 C 
ATOM     16  O   UNL     1      10.183  30.750  24.428  1.00  0.00    -0.550 OA
ATOM     17  O   UNL     1      11.105  32.753  23.799  1.00  0.00    -0.550 OA
ENDBRANCH  14  15
ENDBRANCH  13  14
ENDBRANCH  12  13
ENDBRANCH  11  12
ENDBRANCH  10  11
ENDBRANCH   9  10
ENDBRANCH   8   9
ENDBRANCH   7   8
ENDBRANCH   6   7
ENDBRANCH   5   6
ENDBRANCH   4   5
ENDBRANCH   3   4
ENDBRANCH   2   3
ENDBRANCH   1   2
BRANCH   1  18
ATOM     18  C   UNL     1       3.586  25.855  29.244  1.00  0.00     0.000 C 
BRANCH  18  19
ATOM     19  C   UNL     1       4.175  26.035  27.827  1.00  0.00     0.000 C 
BRANCH  19  20
ATOM     20  C   UNL     1       3.841  27.408  27.215  1.00  0.00     0.000 C 
BRANCH  20  21
ATOM     21  C   UNL     1       4.250  27.504  25.736  1.00  0.00     0.000 C 
BRANCH  21  22
ATOM     22  C   UNL     1       4.790  28.896  25.372  1.00  0.00     0.000 C 
BRANCH  22  23
ATOM     23  C   UNL     1       4.595  29.890  26.528  1.00  0.00     0.000 C 
BRANCH  23  24
ATOM     24  C   UNL     1       5.837  30.767  26.783  1.00  0.00    -0.000 C 
BRANCH  24  25
ATOM     25  C   UNL     1       7.175  30.145  26.335  1.00  0.00    -0.000 C 
BRANCH  25  26
ATOM     26  C   UNL     1       8.175  29.985  27.494  1.00  0.00    -0.000 C 
BRANCH  26  27
ATOM     27  C   UNL     1       8.644  28.524  27.678  1.00  0.00    -0.000 C 
BRANCH  27  28
ATOM     28  C   UNL     1       7.823  27.485  26.886  1.00  0.00    -0.000 C 
BRANCH  28  29
ATOM     29  C   UNL     1       8.525  26.140  26.636  1.00  0.00    -0.000 C 
BRANCH  29  30
ATOM     30  C   UNL     1       7.613  24.929  26.901  1.00  0.00    -0.000 C 
BRANCH  30  31
ATOM     31  C   UNL     1       6.787  24.530  25.671  1.00  0.00    -0.003 C 
ATOM     32  C   UNL     1       7.440  24.958  24.355  1.00  0.00     0.004 C 
ENDBRANCH  30  31
ENDBRANCH  29  30
ENDBRANCH  28  29
ENDBRANCH  27  28
ENDBRANCH  26  27
ENDBRANCH  25  26
ENDBRANCH  24  25
ENDBRANCH  23  24
ENDBRANCH  22  23
ENDBRANCH  21  22
ENDBRANCH  20  21
ENDBRANCH  19  20
ENDBRANCH  18  19
ENDBRANCH   1  18
TORSDOF 28
ENDMDL
MODEL 2
REMARK VINA RESULT:    -4.449      2.333      7.215
REMARK INTER + INTRA:         -17.415
REMARK INTER:                 -11.979
REMARK INTRA:                  -5.436
REMARK UNBOUND:                -5.682
REMARK SMILES CCCCCCCCCCCCCCCCCCCCCCCCCCCCCC(=O)[O-]
REMARK SMILES IDX 16 1 17 2 18 3 19 4 20 5 21 6 22 7 23 8 24 9 25 10 26 11
REMARK SMILES IDX 27 12 28 13 29 14 30 15 31 16 32 17 15 18 14 19 13 20 12 21
REMARK SMILES IDX 11 22 10 23 9 24 8 25 7 26 6 27 5 28 4 29 3 30 2 31 1 32
REMARK H PARENT
REMARK Flexibility Score: inf
ROOT
ATOM      1  C   UNL     1       8.228  28.870  25.578  1.00  0.00     0.000 C 
ENDROOT
BRANCH   1   2
ATOM      2  C   UNL     1       8.156  28.704  24.049  1.00  0.00     0.000 C 
BRANCH   2   3
ATOM      3  C   UNL     1       6.773  28.304  23.489  1.00  0.00     0.000 C 
BRANCH   3   4
ATOM      4  C   UNL     1       5.728  27.899  24.546  1.00  0.00     0.000 C 
BRANCH   4   5
ATOM      5  C   UNL     1       4.625  28.953  24.735  1.00  0.00     0.000 C 
BRANCH   5   6
ATOM      6  C   UNL     1       4.415  29.334  26.212  1.00  0.00     0.000 C 
BRANCH   6   7
ATOM      7  C   UNL     1       5.187  30.583  26.683  1.00  0.00     0.000 C 
BRANCH   7   8
ATOM      8  C   UNL     1       5.432  30.669  28.203  1.00  0.00     0.000 C 
BRANCH   8   9
ATOM      9  C   UNL     1       4.440  29.871  29.071  1.00  0.00     0.000 C 
BRANCH   9  10
ATOM     10  C   UNL     1       4.993  28.550  29.637  1.00  0.00     0.000 C 
BRANCH  10  11
ATOM     11  C   UNL     1       6.492  28.611  30.001  1.00  0.00     0.000 C 
BRANCH  11  12
ATOM     12  C   UNL     1       7.373  27.842  29.000  1.00  0.00     0.000 C 
BRANCH  12  13
ATOM     13  C   UNL     1       6.933  26.378  28.837  1.00  0.00     0.006 C 
BRANCH  13  14
ATOM     14  C   UNL     1       6.565  26.034  27.388  1.00  0.00     0.053 C 
BRANCH  14  15
ATOM     15  C   UNL     1       7.634  25.193  26.767  1.00  0.00     0.041 C 
ATOM     16  O   UNL     1       8.827  25.600  26.738  1.00  0.00    -0.550 OA
ATOM     17  O   UNL     1       7.324  23.929  26.278  1.00  0.00    -0.550 OA
ENDBRANCH  14  15
ENDBRANCH  13  14
ENDBRANCH  12  13
ENDBRANCH  11  12
ENDBRANCH  10  11
ENDBRANCH   9  10
ENDBRANCH   8   9
ENDBRANCH   7   8
ENDBRANCH   6   7
ENDBRANCH   5   6
ENDBRANCH   4   5
ENDBRANCH   3   4
ENDBRANCH   2   3
ENDBRANCH   1   2
BRANCH   1  18
ATOM     18  C   UNL     1       9.304  29.853  26.078  1.00  0.00     0.000 C 
BRANCH  18  19
ATOM     19  C   UNL     1       8.803  31.305  26.242  1.00  0.00     0.000 C 
BRANCH  19  20
ATOM     20  C   UNL     1       9.788  32.342  25.672  1.00  0.00     0.000 C 
BRANCH  20  21
ATOM     21  C   UNL     1      10.735  32.902  26.746  1.00  0.00     0.000 C 
BRANCH  21  22
ATOM     22  C   UNL     1      11.947  31.987  26.985  1.00  0.00     0.000 C 
BRANCH  22  23
ATOM     23  C   UNL     1      12.186  31.759  28.486  1.00  0.00     0.000 C 
BRANCH  23  24
ATOM     24  C   UNL     1      11.708  30.375  28.967  1.00  0.00    -0.000 C 
BRANCH  24  25
ATOM     25  C   UNL     1      10.266  30.337  29.511  1.00  0.00    -0.000 C 
BRANCH  25  26
ATOM     26  C   UNL     1       9.809  31.692  30.081  1.00  0.00    -0.000 C 
BRANCH  26  27
ATOM     27  C   UNL     1       8.325  31.688  30.511  1.00  0.00    -0.000 C 
BRANCH  27  28
ATOM     28  C   UNL     1       8.090  31.336  31.994  1.00  0.00    -0.000 C 
BRANCH  28  29
ATOM     29  C   UNL     1       6.624  31.366  32.457  1.00  0.00    -0.000 C 
BRANCH  29  30
ATOM     30  C   UNL     1       5.746  32.302  31.607  1.00  0.00    -0.000 C 
BRANCH  30  31
ATOM     31  C   UNL     1       4.424  32.660  32.299  1.00  0.00    -0.003 C 
ATOM     32  C   UNL     1       3.379  31.547  32.194  1.00  0.00     0.004 C 
ENDBRANCH  30  31
ENDBRANCH  29  30
ENDBRANCH  28  29
ENDBRANCH  27  28
ENDBRANCH  26  27
ENDBRANCH  25  26
ENDBRANCH  24  25
ENDBRANCH  23  24
ENDBRANCH  22  23
ENDBRANCH  21  22
ENDBRANCH  20  21
ENDBRANCH  19  20
ENDBRANCH  18  19
ENDBRANCH   1  18
TORSDOF 28
ENDMDL
MODEL 3
REMARK VINA RESULT:    -4.419      3.570      7.659
REMARK INTER + INTRA:         -17.335
REMARK INTER:                 -11.899
REMARK INTRA:                  -5.436
REMARK UNBOUND:                -5.682
REMARK SMILES CCCCCCCCCCCCCCCCCCCCCCCCCCCCCC(=O)[O-]
REMARK SMILES IDX 16 1 17 2 18 3 19 4 20 5 21 6 22 7 23 8 24 9 25 10 26 11
REMARK SMILES IDX 27 12 28 13 29 14 30 15 31 16 32 17 15 18 14 19 13 20 12 21
REMARK SMILES IDX 11 22 10 23 9 24 8 25 7 26 6 27 5 28 4 29 3 30 2 31 1 32
REMARK H PARENT
REMARK Flexibility Score: inf
ROOT
ATOM      1  C   UNL     1       4.648  30.229  26.595  1.00  0.00     0.000 C 
ENDROOT
BRANCH   1   2
ATOM      2  C   UNL     1       4.389  28.949  25.778  1.00  0.00     0.000 C 
BRANCH   2   3
ATOM      3  C   UNL     1       5.275  28.771  24.526  1.00  0.00     0.000 C 
BRANCH   3   4
ATOM      4  C   UNL     1       5.935  27.387  24.378  1.00  0.00     0.000 C 
BRANCH   4   5
ATOM      5  C   UNL     1       7.467  27.460  24.269  1.00  0.00     0.000 C 
BRANCH   5   6
ATOM      6  C   UNL     1       8.173  26.341  25.057  1.00  0.00     0.000 C 
BRANCH   6   7
ATOM      7  C   UNL     1       7.235  25.310  25.715  1.00  0.00     0.000 C 
BRANCH   7   8
ATOM      8  C   UNL     1       7.146  25.390  27.253  1.00  0.00     0.000 C 
BRANCH   8   9
ATOM      9  C   UNL     1       6.296  26.554  27.798  1.00  0.00     0.000 C 
BRANCH   9  10
ATOM     10  C   UNL     1       4.989  26.129  28.493  1.00  0.00     0.000 C 
BRANCH  10  11
ATOM     11  C   UNL     1       4.847  26.673  29.931  1.00  0.00     0.000 C 
BRANCH  11  12
ATOM     12  C   UNL     1       6.197  26.756  30.666  1.00  0.00     0.000 C 
BRANCH  12  13
ATOM     13  C   UNL     1       6.677  25.383  31.164  1.00  0.00     0.006 C 
BRANCH  13  14
ATOM     14  C   UNL     1       6.836  25.335  32.689  1.00  0.00     0.053 C 
BRANCH  14  15
ATOM     15  C   UNL     1       5.998  24.237  33.264  1.00  0.00     0.041 C 
ATOM     16  O   UNL     1       5.221  23.576  32.524  1.00  0.00    -0.550 OA
ATOM     17  O   UNL     1       6.126  23.900  34.606  1.00  0.00    -0.550 OA
ENDBRANCH  14  15
ENDBRANCH  13  14
ENDBRANCH  12  13
ENDBRANCH  11  12
ENDBRANCH  10  11
ENDBRANCH   9  10
ENDBRANCH   8   9
ENDBRANCH   7   8
ENDBRANCH   6   7
ENDBRANCH   5   6
ENDBRANCH   4   5
ENDBRANCH   3   4
ENDBRANCH   2   3
ENDBRANCH   1   2
BRANCH   1  18
ATOM     18  C   UNL     1       4.619  30.044  28.124  1.00  0.00     0.000 C 
BRANCH  18  19
ATOM     19  C   UNL     1       5.981  30.284  28.813  1.00  0.00     0.000 C 
BRANCH  19  20
ATOM     20  C   UNL     1       7.170  30.144  27.845  1.00  0.00     0.000 C 
BRANCH  20  21
ATOM     21  C   UNL     1       8.316  29.312  28.444  1.00  0.00     0.000 C 
BRANCH  21  22
ATOM     22  C   UNL     1       9.328  28.865  27.377  1.00  0.00     0.000 C 
BRANCH  22  23
ATOM     23  C   UNL     1       9.330  29.822  26.175  1.00  0.00     0.000 C 
BRANCH  23  24
ATOM     24  C   UNL     1      10.750  30.238  25.740  1.00  0.00    -0.000 C 
BRANCH  24  25
ATOM     25  C   UNL     1      11.056  31.744  25.871  1.00  0.00    -0.000 C 
BRANCH  25  26
ATOM     26  C   UNL     1       9.991  32.499  26.687  1.00  0.00    -0.000 C 
BRANCH  26  27
ATOM     27  C   UNL     1      10.607  33.399  27.782  1.00  0.00    -0.000 C 
BRANCH  27  28
ATOM     28  C   UNL     1      10.297  32.952  29.226  1.00  0.00    -0.000 C 
BRANCH  28  29
ATOM     29  C   UNL     1      11.408  32.152  29.923  1.00  0.00    -0.000 C 
BRANCH  29  30
ATOM     30  C   UNL     1      11.328  30.641  29.640  1.00  0.00    -0.000 C 
BRANCH  30  31
ATOM     31  C   UNL     1      12.664  30.059  29.158  1.00  0.00    -0.003 C 
ATOM     32  C   UNL     1      13.538  31.093  28.445  1.00  0.00     0.004 C 
ENDBRANCH  30  31
ENDBRANCH  29  30
ENDBRANCH  28  29
ENDBRANCH  27  28
ENDBRANCH  26  27
ENDBRANCH  25  26
ENDBRANCH  24  25
ENDBRANCH  23  24
ENDBRANCH  22  23
ENDBRANCH  21  22
ENDBRANCH  20  21
ENDBRANCH  19  20
ENDBRANCH  18  19
ENDBRANCH   1  18
TORSDOF 28
ENDMDL
MODEL 4
REMARK VINA RESULT:    -4.393      1.582      4.192
REMARK INTER + INTRA:         -17.266
REMARK INTER:                 -11.914
REMARK INTRA:                  -5.352
REMARK UNBOUND:                -5.682
REMARK SMILES CCCCCCCCCCCCCCCCCCCCCCCCCCCCCC(=O)[O-]
REMARK SMILES IDX 16 1 17 2 18 3 19 4 20 5 21 6 22 7 23 8 24 9 25 10 26 11
REMARK SMILES IDX 27 12 28 13 29 14 30 15 31 16 32 17 15 18 14 19 13 20 12 21
REMARK SMILES IDX 11 22 10 23 9 24 8 25 7 26 6 27 5 28 4 29 3 30 2 31 1 32
REMARK H PARENT
REMARK Flexibility Score: inf
ROOT
ATOM      1  C   UNL     1       4.052  29.358  26.200  1.00  0.00     0.000 C 
ENDROOT
BRANCH   1   2
ATOM      2  C   UNL     1       4.761  30.622  26.721  1.00  0.00     0.000 C 
BRANCH   2   3
ATOM      3  C   UNL     1       5.844  30.380  27.796  1.00  0.00     0.000 C 
BRANCH   3   4
ATOM      4  C   UNL     1       7.277  30.206  27.259  1.00  0.00     0.000 C 
BRANCH   4   5
ATOM      5  C   UNL     1       8.273  29.753  28.339  1.00  0.00     0.000 C 
BRANCH   5   6
ATOM      6  C   UNL     1       7.686  29.836  29.760  1.00  0.00     0.000 C 
BRANCH   6   7
ATOM      7  C   UNL     1       8.483  30.711  30.749  1.00  0.00     0.000 C 
BRANCH   7   8
ATOM      8  C   UNL     1       9.449  31.723  30.100  1.00  0.00     0.000 C 
BRANCH   8   9
ATOM      9  C   UNL     1      10.820  31.851  30.791  1.00  0.00     0.000 C 
BRANCH   9  10
ATOM     10  C   UNL     1      12.021  31.424  29.928  1.00  0.00     0.000 C 
BRANCH  10  11
ATOM     11  C   UNL     1      11.696  30.294  28.928  1.00  0.00     0.000 C 
BRANCH  11  12
ATOM     12  C   UNL     1      11.901  30.725  27.464  1.00  0.00     0.000 C 
BRANCH  12  13
ATOM     13  C   UNL     1      11.703  32.237  27.267  1.00  0.00     0.006 C 
BRANCH  13  14
ATOM     14  C   UNL     1      10.435  32.563  26.468  1.00  0.00     0.053 C 
BRANCH  14  15
ATOM     15  C   UNL     1      10.752  33.505  25.351  1.00  0.00     0.041 C 
ATOM     16  O   UNL     1      11.399  34.564  25.576  1.00  0.00    -0.550 OA
ATOM     17  O   UNL     1      10.391  33.181  24.048  1.00  0.00    -0.550 OA
ENDBRANCH  14  15
ENDBRANCH  13  14
ENDBRANCH  12  13
ENDBRANCH  11  12
ENDBRANCH  10  11
ENDBRANCH   9  10
ENDBRANCH   8   9
ENDBRANCH   7   8
ENDBRANCH   6   7
ENDBRANCH   5   6
ENDBRANCH   4   5
ENDBRANCH   3   4
ENDBRANCH   2   3
ENDBRANCH   1   2
BRANCH   1  18
ATOM     18  C   UNL     1       4.383  28.977  24.744  1.00  0.00     0.000 C 
BRANCH  18  19
ATOM     19  C   UNL     1       5.455  27.873  24.611  1.00  0.00     0.000 C 
BRANCH  19  20
ATOM     20  C   UNL     1       6.775  28.395  24.014  1.00  0.00     0.000 C 
BRANCH  20  21
ATOM     21  C   UNL     1       7.553  27.298  23.267  1.00  0.00     0.000 C 
BRANCH  21  22
ATOM     22  C   UNL     1       8.747  26.777  24.080  1.00  0.00     0.000 C 
BRANCH  22  23
ATOM     23  C   UNL     1       8.290  25.815  25.189  1.00  0.00     0.000 C 
BRANCH  23  24
ATOM     24  C   UNL     1       8.509  26.383  26.605  1.00  0.00    -0.000 C 
BRANCH  24  25
ATOM     25  C   UNL     1       7.801  25.608  27.734  1.00  0.00    -0.000 C 
BRANCH  25  26
ATOM     26  C   UNL     1       6.800  26.477  28.517  1.00  0.00    -0.000 C 
BRANCH  26  27
ATOM     27  C   UNL     1       5.380  26.446  27.908  1.00  0.00    -0.000 C 
BRANCH  27  28
ATOM     28  C   UNL     1       4.247  26.735  28.914  1.00  0.00    -0.000 C 
BRANCH  28  29
ATOM     29  C   UNL     1       4.623  27.658  30.084  1.00  0.00    -0.000 C 
BRANCH  29  30
ATOM     30  C   UNL     1       3.685  28.872  30.216  1.00  0.00    -0.000 C 
BRANCH  30  31
ATOM     31  C   UNL     1       2.400  28.718  29.391  1.00  0.00    -0.003 C 
ATOM     32  C   UNL     1       1.741  30.060  29.065  1.00  0.00     0.004 C 
ENDBRANCH  30  31
ENDBRANCH  29  30
ENDBRANCH  28  29
ENDBRANCH  27  28
ENDBRANCH  26  27
ENDBRANCH  25  26
ENDBRANCH  24  25
ENDBRANCH  23  24
ENDBRANCH  22  23
ENDBRANCH  21  22
ENDBRANCH  20  21
ENDBRANCH  19  20
ENDBRANCH  18  19
ENDBRANCH   1  18
TORSDOF 28
ENDMDL
MODEL 5
REMARK VINA RESULT:    -4.387      1.646      3.729
REMARK INTER + INTRA:         -17.250
REMARK INTER:                 -12.341
REMARK INTRA:                  -4.909
REMARK UNBOUND:                -5.682
REMARK SMILES CCCCCCCCCCCCCCCCCCCCCCCCCCCCCC(=O)[O-]
REMARK SMILES IDX 16 1 17 2 18 3 19 4 20 5 21 6 22 7 23 8 24 9 25 10 26 11
REMARK SMILES IDX 27 12 28 13 29 14 30 15 31 16 32 17 15 18 14 19 13 20 12 21
REMARK SMILES IDX 11 22 10 23 9 24 8 25 7 26 6 27 5 28 4 29 3 30 2 31 1 32
REMARK H PARENT
REMARK Flexibility Score: inf
ROOT
ATOM      1  C   UNL     1       4.724  30.499  26.981  1.00  0.00     0.000 C 
ENDROOT
BRANCH   1   2
ATOM      2  C   UNL     1       5.967  29.831  26.365  1.00  0.00     0.000 C 
BRANCH   2   3
ATOM      3  C   UNL     1       7.317  30.219  27.008  1.00  0.00     0.000 C 
BRANCH   3   4
ATOM      4  C   UNL     1       7.338  30.210  28.548  1.00  0.00     0.000 C 
BRANCH   4   5
ATOM      5  C   UNL     1       8.729  30.510  29.131  1.00  0.00     0.000 C 
BRANCH   5   6
ATOM      6  C   UNL     1       8.666  31.048  30.573  1.00  0.00     0.000 C 
BRANCH   6   7
ATOM      7  C   UNL     1       9.937  31.772  31.059  1.00  0.00     0.000 C 
BRANCH   7   8
ATOM      8  C   UNL     1      11.070  31.882  30.019  1.00  0.00     0.000 C 
BRANCH   8   9
ATOM      9  C   UNL     1      12.240  30.901  30.222  1.00  0.00     0.000 C 
BRANCH   9  10
ATOM     10  C   UNL     1      12.988  30.511  28.934  1.00  0.00     0.000 C 
BRANCH  10  11
ATOM     11  C   UNL     1      12.742  31.479  27.756  1.00  0.00     0.000 C 
BRANCH  11  12
ATOM     12  C   UNL     1      11.887  30.846  26.643  1.00  0.00     0.000 C 
BRANCH  12  13
ATOM     13  C   UNL     1      10.666  31.707  26.283  1.00  0.00     0.006 C 
BRANCH  13  14
ATOM     14  C   UNL     1      10.994  33.205  26.244  1.00  0.00     0.053 C 
BRANCH  14  15
ATOM     15  C   UNL     1      10.640  33.780  24.909  1.00  0.00     0.041 C 
ATOM     16  O   UNL     1       9.598  33.403  24.310  1.00  0.00    -0.550 OA
ATOM     17  O   UNL     1      11.428  34.783  24.358  1.00  0.00    -0.550 OA
ENDBRANCH  14  15
ENDBRANCH  13  14
ENDBRANCH  12  13
ENDBRANCH  11  12
ENDBRANCH  10  11
ENDBRANCH   9  10
ENDBRANCH   8   9
ENDBRANCH   7   8
ENDBRANCH   6   7
ENDBRANCH   5   6
ENDBRANCH   4   5
ENDBRANCH   3   4
ENDBRANCH   2   3
ENDBRANCH   1   2
BRANCH   1  18
ATOM     18  C   UNL     1       3.609  29.528  27.414  1.00  0.00     0.000 C 
BRANCH  18  19
ATOM     19  C   UNL     1       4.054  28.484  28.462  1.00  0.00     0.000 C 
BRANCH  19  20
ATOM     20  C   UNL     1       3.659  27.047  28.074  1.00  0.00     0.000 C 
BRANCH  20  21
ATOM     21  C   UNL     1       4.876  26.190  27.688  1.00  0.00     0.000 C 
BRANCH  21  22
ATOM     22  C   UNL     1       5.984  26.241  28.752  1.00  0.00     0.000 C 
BRANCH  22  23
ATOM     23  C   UNL     1       7.358  26.499  28.115  1.00  0.00     0.000 C 
BRANCH  23  24
ATOM     24  C   UNL     1       7.495  25.878  26.710  1.00  0.00    -0.000 C 
BRANCH  24  25
ATOM     25  C   UNL     1       8.146  26.795  25.655  1.00  0.00    -0.000 C 
BRANCH  25  26
ATOM     26  C   UNL     1       7.236  27.041  24.437  1.00  0.00    -0.000 C 
BRANCH  26  27
ATOM     27  C   UNL     1       6.278  25.860  24.161  1.00  0.00    -0.000 C 
BRANCH  27  28
ATOM     28  C   UNL     1       4.887  26.275  23.639  1.00  0.00    -0.000 C 
BRANCH  28  29
ATOM     29  C   UNL     1       4.221  27.440  24.388  1.00  0.00    -0.000 C 
BRANCH  29  30
ATOM     30  C   UNL     1       3.969  28.665  23.491  1.00  0.00    -0.000 C 
BRANCH  30  31
ATOM     31  C   UNL     1       4.676  28.558  22.133  1.00  0.00    -0.003 C 
ATOM     32  C   UNL     1       4.144  29.560  21.107  1.00  0.00     0.004 C 
ENDBRANCH  30  31
ENDBRANCH  29  30
ENDBRANCH  28  29
ENDBRANCH  27  28
ENDBRANCH  26  27
ENDBRANCH  25  26
ENDBRANCH  24  25
ENDBRANCH  23  24
ENDBRANCH  22  23
ENDBRANCH  21  22
ENDBRANCH  20  21
ENDBRANCH  19  20
ENDBRANCH  18  19
ENDBRANCH   1  18
TORSDOF 28
ENDMDL
MODEL 6
REMARK VINA RESULT:    -4.379      2.339      5.360
REMARK INTER + INTRA:         -17.228
REMARK INTER:                 -12.153
REMARK INTRA:                  -5.075
REMARK UNBOUND:                -5.682
REMARK SMILES CCCCCCCCCCCCCCCCCCCCCCCCCCCCCC(=O)[O-]
REMARK SMILES IDX 16 1 17 2 18 3 19 4 20 5 21 6 22 7 23 8 24 9 25 10 26 11
REMARK SMILES IDX 27 12 28 13 29 14 30 15 31 16 32 17 15 18 14 19 13 20 12 21
REMARK SMILES IDX 11 22 10 23 9 24 8 25 7 26 6 27 5 28 4 29 3 30 2 31 1 32
REMARK H PARENT
REMARK Flexibility Score: inf
ROOT
ATOM      1  C   UNL     1       8.504  25.958  26.673  1.00  0.00     0.000 C 
ENDROOT
BRANCH   1   2
ATOM      2  C   UNL     1       7.210  25.209  26.304  1.00  0.00     0.000 C 
BRANCH   2   3
ATOM      3  C   UNL     1       7.000  24.947  24.797  1.00  0.00     0.000 C 
BRANCH   3   4
ATOM      4  C   UNL     1       7.993  25.662  23.861  1.00  0.00     0.000 C 
BRANCH   4   5
ATOM      5  C   UNL     1       7.321  26.710  22.960  1.00  0.00     0.000 C 
BRANCH   5   6
ATOM      6  C   UNL     1       7.654  28.155  23.378  1.00  0.00     0.000 C 
BRANCH   6   7
ATOM      7  C   UNL     1       9.158  28.466  23.522  1.00  0.00     0.000 C 
BRANCH   7   8
ATOM      8  C   UNL     1       9.503  29.597  24.511  1.00  0.00     0.000 C 
BRANCH   8   9
ATOM      9  C   UNL     1       8.439  29.865  25.592  1.00  0.00     0.000 C 
BRANCH   9  10
ATOM     10  C   UNL     1       8.696  31.114  26.456  1.00  0.00     0.000 C 
BRANCH  10  11
ATOM     11  C   UNL     1       9.599  32.165  25.775  1.00  0.00     0.000 C 
BRANCH  11  12
ATOM     12  C   UNL     1      10.868  32.470  26.591  1.00  0.00     0.000 C 
BRANCH  12  13
ATOM     13  C   UNL     1      11.520  31.197  27.155  1.00  0.00     0.006 C 
BRANCH  13  14
ATOM     14  C   UNL     1      12.850  31.484  27.865  1.00  0.00     0.053 C 
BRANCH  14  15
ATOM     15  C   UNL     1      12.670  31.424  29.349  1.00  0.00     0.041 C 
ATOM     16  O   UNL     1      11.725  30.756  29.849  1.00  0.00    -0.550 OA
ATOM     17  O   UNL     1      13.586  32.054  30.182  1.00  0.00    -0.550 OA
ENDBRANCH  14  15
ENDBRANCH  13  14
ENDBRANCH  12  13
ENDBRANCH  11  12
ENDBRANCH  10  11
ENDBRANCH   9  10
ENDBRANCH   8   9
ENDBRANCH   7   8
ENDBRANCH   6   7
ENDBRANCH   5   6
ENDBRANCH   4   5
ENDBRANCH   3   4
ENDBRANCH   2   3
ENDBRANCH   1   2
BRANCH   1  18
ATOM     18  C   UNL     1       8.322  27.130  27.656  1.00  0.00     0.000 C 
BRANCH  18  19
ATOM     19  C   UNL     1       6.852  27.406  28.042  1.00  0.00     0.000 C 
BRANCH  19  20
ATOM     20  C   UNL     1       6.597  27.260  29.553  1.00  0.00     0.000 C 
BRANCH  20  21
ATOM     21  C   UNL     1       6.879  28.562  30.322  1.00  0.00     0.000 C 
BRANCH  21  22
ATOM     22  C   UNL     1       6.496  29.810  29.511  1.00  0.00     0.000 C 
BRANCH  22  23
ATOM     23  C   UNL     1       5.265  30.508  30.111  1.00  0.00     0.000 C 
BRANCH  23  24
ATOM     24  C   UNL     1       3.995  29.635  30.063  1.00  0.00    -0.000 C 
BRANCH  24  25
ATOM     25  C   UNL     1       3.085  29.877  28.842  1.00  0.00    -0.000 C 
BRANCH  25  26
ATOM     26  C   UNL     1       3.510  29.056  27.610  1.00  0.00    -0.000 C 
BRANCH  26  27
ATOM     27  C   UNL     1       4.340  29.881  26.601  1.00  0.00    -0.000 C 
BRANCH  27  28
ATOM     28  C   UNL     1       4.761  29.105  25.336  1.00  0.00    -0.000 C 
BRANCH  28  29
ATOM     29  C   UNL     1       4.281  27.647  25.265  1.00  0.00    -0.000 C 
BRANCH  29  30
ATOM     30  C   UNL     1       3.868  27.220  23.845  1.00  0.00    -0.000 C 
BRANCH  30  31
ATOM     31  C   UNL     1       3.744  28.409  22.883  1.00  0.00    -0.003 C 
ATOM     32  C   UNL     1       2.496  28.330  22.001  1.00  0.00     0.004 C 
ENDBRANCH  30  31
ENDBRANCH  29  30
ENDBRANCH  28  29
ENDBRANCH  27  28
ENDBRANCH  26  27
ENDBRANCH  25  26
ENDBRANCH  24  25
ENDBRANCH  23  24
ENDBRANCH  22  23
ENDBRANCH  21  22
ENDBRANCH  20  21
ENDBRANCH  19  20
ENDBRANCH  18  19
ENDBRANCH   1  18
TORSDOF 28
ENDMDL
MODEL 7
REMARK VINA RESULT:    -4.361      2.448      4.209
REMARK INTER + INTRA:         -17.183
REMARK INTER:                 -11.958
REMARK INTRA:                  -5.225
REMARK UNBOUND:                -5.682
REMARK SMILES CCCCCCCCCCCCCCCCCCCCCCCCCCCCCC(=O)[O-]
REMARK SMILES IDX 16 1 17 2 18 3 19 4 20 5 21 6 22 7 23 8 24 9 25 10 26 11
REMARK SMILES IDX 27 12 28 13 29 14 30 15 31 16 32 17 15 18 14 19 13 20 12 21
REMARK SMILES IDX 11 22 10 23 9 24 8 25 7 26 6 27 5 28 4 29 3 30 2 31 1 32
REMARK H PARENT
REMARK Flexibility Score: inf
ROOT
ATOM      1  C   UNL     1       3.651  30.074  27.563  1.00  0.00     0.000 C 
ENDROOT
BRANCH   1   2
ATOM      2  C   UNL     1       4.063  29.280  28.816  1.00  0.00     0.000 C 
BRANCH   2   3
ATOM      3  C   UNL     1       5.037  30.004  29.770  1.00  0.00     0.000 C 
BRANCH   3   4
ATOM      4  C   UNL     1       6.264  29.182  30.205  1.00  0.00     0.000 C 
BRANCH   4   5
ATOM      5  C   UNL     1       7.173  28.789  29.028  1.00  0.00     0.000 C 
BRANCH   5   6
ATOM      6  C   UNL     1       8.212  29.874  28.691  1.00  0.00     0.000 C 
BRANCH   6   7
ATOM      7  C   UNL     1       9.380  29.410  27.799  1.00  0.00     0.000 C 
BRANCH   7   8
ATOM      8  C   UNL     1       8.983  28.963  26.377  1.00  0.00     0.000 C 
BRANCH   8   9
ATOM      9  C   UNL     1       9.507  29.861  25.241  1.00  0.00     0.000 C 
BRANCH   9  10
ATOM     10  C   UNL     1      10.632  30.831  25.649  1.00  0.00     0.000 C 
BRANCH  10  11
ATOM     11  C   UNL     1      10.182  32.306  25.726  1.00  0.00     0.000 C 
BRANCH  11  12
ATOM     12  C   UNL     1      11.068  33.144  26.666  1.00  0.00     0.000 C 
BRANCH  12  13
ATOM     13  C   UNL     1      11.371  32.416  27.986  1.00  0.00     0.006 C 
BRANCH  13  14
ATOM     14  C   UNL     1      10.457  32.871  29.130  1.00  0.00     0.053 C 
BRANCH  14  15
ATOM     15  C   UNL     1      10.883  32.241  30.418  1.00  0.00     0.041 C 
ATOM     16  O   UNL     1      10.030  31.709  31.179  1.00  0.00    -0.550 OA
ATOM     17  O   UNL     1      12.232  32.181  30.745  1.00  0.00    -0.550 OA
ENDBRANCH  14  15
ENDBRANCH  13  14
ENDBRANCH  12  13
ENDBRANCH  11  12
ENDBRANCH  10  11
ENDBRANCH   9  10
ENDBRANCH   8   9
ENDBRANCH   7   8
ENDBRANCH   6   7
ENDBRANCH   5   6
ENDBRANCH   4   5
ENDBRANCH   3   4
ENDBRANCH   2   3
ENDBRANCH   1   2
BRANCH   1  18
ATOM     18  C   UNL     1       4.806  30.433  26.608  1.00  0.00     0.000 C 
BRANCH  18  19
ATOM     19  C   UNL     1       5.426  29.216  25.886  1.00  0.00     0.000 C 
BRANCH  19  20
ATOM     20  C   UNL     1       4.389  28.407  25.086  1.00  0.00     0.000 C 
BRANCH  20  21
ATOM     21  C   UNL     1       4.381  28.779  23.594  1.00  0.00     0.000 C 
BRANCH  21  22
ATOM     22  C   UNL     1       4.866  27.624  22.705  1.00  0.00     0.000 C 
BRANCH  22  23
ATOM     23  C   UNL     1       5.927  28.100  21.701  1.00  0.00     0.000 C 
BRANCH  23  24
ATOM     24  C   UNL     1       7.325  28.259  22.333  1.00  0.00    -0.000 C 
BRANCH  24  25
ATOM     25  C   UNL     1       7.617  27.311  23.513  1.00  0.00    -0.000 C 
BRANCH  25  26
ATOM     26  C   UNL     1       8.751  26.315  23.209  1.00  0.00    -0.000 C 
BRANCH  26  27
ATOM     27  C   UNL     1       8.227  24.905  22.853  1.00  0.00    -0.000 C 
BRANCH  27  28
ATOM     28  C   UNL     1       6.872  24.546  23.498  1.00  0.00    -0.000 C 
BRANCH  28  29
ATOM     29  C   UNL     1       6.927  24.176  24.989  1.00  0.00    -0.000 C 
BRANCH  29  30
ATOM     30  C   UNL     1       6.018  25.060  25.861  1.00  0.00    -0.000 C 
BRANCH  30  31
ATOM     31  C   UNL     1       6.801  25.854  26.915  1.00  0.00    -0.003 C 
ATOM     32  C   UNL     1       8.282  25.471  26.967  1.00  0.00     0.004 C 
ENDBRANCH  30  31
ENDBRANCH  29  30
ENDBRANCH  28  29
ENDBRANCH  27  28
ENDBRANCH  26  27
ENDBRANCH  25  26
ENDBRANCH  24  25
ENDBRANCH  23  24
ENDBRANCH  22  23
ENDBRANCH  21  22
ENDBRANCH  20  21
ENDBRANCH  19  20
ENDBRANCH  18  19
ENDBRANCH   1  18
TORSDOF 28
ENDMDL
MODEL 8
REMARK VINA RESULT:    -4.348      3.178      6.835
REMARK INTER + INTRA:         -17.149
REMARK INTER:                 -11.768
REMARK INTRA:                  -5.381
REMARK UNBOUND:                -5.682
REMARK SMILES CCCCCCCCCCCCCCCCCCCCCCCCCCCCCC(=O)[O-]
REMARK SMILES IDX 16 1 17 2 18 3 19 4 20 5 21 6 22 7 23 8 24 9 25 10 26 11
REMARK SMILES IDX 27 12 28 13 29 14 30 15 31 16 32 17 15 18 14 19 13 20 12 21
REMARK SMILES IDX 11 22 10 23 9 24 8 25 7 26 6 27 5 28 4 29 3 30 2 31 1 32
REMARK H PARENT
REMARK Flexibility Score: inf
ROOT
ATOM      1  C   UNL     1       8.823  27.257  26.812  1.00  0.00     0.000 C 
ENDROOT
BRANCH   1   2
ATOM      2  C   UNL     1       7.971  27.917  25.712  1.00  0.00     0.000 C 
BRANCH   2   3
ATOM      3  C   UNL     1       7.785  29.445  25.843  1.00  0.00     0.000 C 
BRANCH   3   4
ATOM      4  C   UNL     1       6.379  29.901  26.276  1.00  0.00     0.000 C 
BRANCH   4   5
ATOM      5  C   UNL     1       5.253  29.092  25.613  1.00  0.00     0.000 C 
BRANCH   5   6
ATOM      6  C   UNL     1       4.025  28.922  26.527  1.00  0.00     0.000 C 
BRANCH   6   7
ATOM      7  C   UNL     1       3.900  29.964  27.657  1.00  0.00     0.000 C 
BRANCH   7   8
ATOM      8  C   UNL     1       2.589  29.901  28.466  1.00  0.00     0.000 C 
BRANCH   8   9
ATOM      9  C   UNL     1       2.527  28.779  29.521  1.00  0.00     0.000 C 
BRANCH   9  10
ATOM     10  C   UNL     1       3.323  29.059  30.809  1.00  0.00     0.000 C 
BRANCH  10  11
ATOM     11  C   UNL     1       3.256  30.530  31.273  1.00  0.00     0.000 C 
BRANCH  11  12
ATOM     12  C   UNL     1       4.002  30.764  32.599  1.00  0.00     0.000 C 
BRANCH  12  13
ATOM     13  C   UNL     1       4.647  32.157  32.669  1.00  0.00     0.006 C 
BRANCH  13  14
ATOM     14  C   UNL     1       6.179  32.098  32.621  1.00  0.00     0.053 C 
BRANCH  14  15
ATOM     15  C   UNL     1       6.724  31.666  33.945  1.00  0.00     0.041 C 
ATOM     16  O   UNL     1       7.674  30.840  34.003  1.00  0.00    -0.550 OA
ATOM     17  O   UNL     1       6.226  32.228  35.115  1.00  0.00    -0.550 OA
ENDBRANCH  14  15
ENDBRANCH  13  14
ENDBRANCH  12  13
ENDBRANCH  11  12
ENDBRANCH  10  11
ENDBRANCH   9  10
ENDBRANCH   8   9
ENDBRANCH   7   8
ENDBRANCH   6   7
ENDBRANCH   5   6
ENDBRANCH   4   5
ENDBRANCH   3   4
ENDBRANCH   2   3
ENDBRANCH   1   2
BRANCH   1  18
ATOM     18  C   UNL     1       8.235  25.962  27.404  1.00  0.00     0.000 C 
BRANCH  18  19
ATOM     19  C   UNL     1       6.728  25.768  27.122  1.00  0.00     0.000 C 
BRANCH  19  20
ATOM     20  C   UNL     1       5.842  26.199  28.305  1.00  0.00     0.000 C 
BRANCH  20  21
ATOM     21  C   UNL     1       6.555  26.041  29.658  1.00  0.00     0.000 C 
BRANCH  21  22
ATOM     22  C   UNL     1       6.553  27.345  30.471  1.00  0.00     0.000 C 
BRANCH  22  23
ATOM     23  C   UNL     1       6.757  28.569  29.564  1.00  0.00     0.000 C 
BRANCH  23  24
ATOM     24  C   UNL     1       7.452  29.742  30.283  1.00  0.00    -0.000 C 
BRANCH  24  25
ATOM     25  C   UNL     1       8.157  30.750  29.354  1.00  0.00    -0.000 C 
BRANCH  25  26
ATOM     26  C   UNL     1       9.664  30.872  29.641  1.00  0.00    -0.000 C 
BRANCH  26  27
ATOM     27  C   UNL     1      10.516  29.926  28.765  1.00  0.00    -0.000 C 
BRANCH  27  28
ATOM     28  C   UNL     1      11.972  30.391  28.553  1.00  0.00    -0.000 C 
BRANCH  28  29
ATOM     29  C   UNL     1      12.244  31.131  27.234  1.00  0.00    -0.000 C 
BRANCH  29  30
ATOM     30  C   UNL     1      11.127  30.934  26.194  1.00  0.00    -0.000 C 
BRANCH  30  31
ATOM     31  C   UNL     1      10.311  32.212  25.955  1.00  0.00    -0.003 C 
ATOM     32  C   UNL     1      11.121  33.487  26.196  1.00  0.00     0.004 C 
ENDBRANCH  30  31
ENDBRANCH  29  30
ENDBRANCH  28  29
ENDBRANCH  27  28
ENDBRANCH  26  27
ENDBRANCH  25  26
ENDBRANCH  24  25
ENDBRANCH  23  24
ENDBRANCH  22  23
ENDBRANCH  21  22
ENDBRANCH  20  21
ENDBRANCH  19  20
ENDBRANCH  18  19
ENDBRANCH   1  18
TORSDOF 28
ENDMDL
MODEL 9
REMARK VINA RESULT:    -4.341      3.378      6.922
REMARK INTER + INTRA:         -17.129
REMARK INTER:                 -11.101
REMARK INTRA:                  -6.028
REMARK UNBOUND:                -5.682
REMARK SMILES CCCCCCCCCCCCCCCCCCCCCCCCCCCCCC(=O)[O-]
REMARK SMILES IDX 16 1 17 2 18 3 19 4 20 5 21 6 22 7 23 8 24 9 25 10 26 11
REMARK SMILES IDX 27 12 28 13 29 14 30 15 31 16 32 17 15 18 14 19 13 20 12 21
REMARK SMILES IDX 11 22 10 23 9 24 8 25 7 26 6 27 5 28 4 29 3 30 2 31 1 32
REMARK H PARENT
REMARK Flexibility Score: inf
ROOT
ATOM      1  C   UNL     1       4.263  30.251  27.315  1.00  0.00     0.000 C 
ENDROOT
BRANCH   1   2
ATOM      2  C   UNL     1       5.216  29.860  26.170  1.00  0.00     0.000 C 
BRANCH   2   3
ATOM      3  C   UNL     1       6.652  29.491  26.599  1.00  0.00     0.000 C 
BRANCH   3   4
ATOM      4  C   UNL     1       7.021  29.859  28.049  1.00  0.00     0.000 C 
BRANCH   4   5
ATOM      5  C   UNL     1       7.397  28.636  28.902  1.00  0.00     0.000 C 
BRANCH   5   6
ATOM      6  C   UNL     1       7.730  27.397  28.051  1.00  0.00     0.000 C 
BRANCH   6   7
ATOM      7  C   UNL     1       6.962  26.115  28.431  1.00  0.00     0.000 C 
BRANCH   7   8
ATOM      8  C   UNL     1       5.445  26.295  28.641  1.00  0.00     0.000 C 
BRANCH   8   9
ATOM      9  C   UNL     1       4.964  26.127  30.095  1.00  0.00     0.000 C 
BRANCH   9  10
ATOM     10  C   UNL     1       5.924  25.342  31.007  1.00  0.00     0.000 C 
BRANCH  10  11
ATOM     11  C   UNL     1       6.560  26.199  32.123  1.00  0.00     0.000 C 
BRANCH  11  12
ATOM     12  C   UNL     1       5.877  27.570  32.274  1.00  0.00     0.000 C 
BRANCH  12  13
ATOM     13  C   UNL     1       6.570  28.457  33.321  1.00  0.00     0.006 C 
BRANCH  13  14
ATOM     14  C   UNL     1       5.586  29.377  34.055  1.00  0.00     0.053 C 
BRANCH  14  15
ATOM     15  C   UNL     1       6.329  30.404  34.849  1.00  0.00     0.041 C 
ATOM     16  O   UNL     1       5.893  31.584  34.928  1.00  0.00    -0.550 OA
ATOM     17  O   UNL     1       7.468  30.040  35.557  1.00  0.00    -0.550 OA
ENDBRANCH  14  15
ENDBRANCH  13  14
ENDBRANCH  12  13
ENDBRANCH  11  12
ENDBRANCH  10  11
ENDBRANCH   9  10
ENDBRANCH   8   9
ENDBRANCH   7   8
ENDBRANCH   6   7
ENDBRANCH   5   6
ENDBRANCH   4   5
ENDBRANCH   3   4
ENDBRANCH   2   3
ENDBRANCH   1   2
BRANCH   1  18
ATOM     18  C   UNL     1       3.247  29.164  27.719  1.00  0.00     0.000 C 
BRANCH  18  19
ATOM     19  C   UNL     1       2.803  29.237  29.197  1.00  0.00     0.000 C 
BRANCH  19  20
ATOM     20  C   UNL     1       3.923  29.728  30.131  1.00  0.00     0.000 C 
BRANCH  20  21
ATOM     21  C   UNL     1       3.393  30.637  31.252  1.00  0.00     0.000 C 
BRANCH  21  22
ATOM     22  C   UNL     1       4.355  31.795  31.564  1.00  0.00     0.000 C 
BRANCH  22  23
ATOM     23  C   UNL     1       5.684  31.635  30.809  1.00  0.00     0.000 C 
BRANCH  23  24
ATOM     24  C   UNL     1       6.900  32.115  31.626  1.00  0.00    -0.000 C 
BRANCH  24  25
ATOM     25  C   UNL     1       8.141  31.203  31.542  1.00  0.00    -0.000 C 
BRANCH  25  26
ATOM     26  C   UNL     1       9.156  31.674  30.485  1.00  0.00    -0.000 C 
BRANCH  26  27
ATOM     27  C   UNL     1      10.612  31.649  31.004  1.00  0.00    -0.000 C 
BRANCH  27  28
ATOM     28  C   UNL     1      11.683  31.827  29.909  1.00  0.00    -0.000 C 
BRANCH  28  29
ATOM     29  C   UNL     1      11.900  30.612  28.992  1.00  0.00    -0.000 C 
BRANCH  29  30
ATOM     30  C   UNL     1      11.824  30.967  27.497  1.00  0.00    -0.000 C 
BRANCH  30  31
ATOM     31  C   UNL     1      10.556  30.424  26.824  1.00  0.00    -0.003 C 
ATOM     32  C   UNL     1       9.722  31.520  26.158  1.00  0.00     0.004 C 
ENDBRANCH  30  31
ENDBRANCH  29  30
ENDBRANCH  28  29
ENDBRANCH  27  28
ENDBRANCH  26  27
ENDBRANCH  25  26
ENDBRANCH  24  25
ENDBRANCH  23  24
ENDBRANCH  22  23
ENDBRANCH  21  22
ENDBRANCH  20  21
ENDBRANCH  19  20
ENDBRANCH  18  19
ENDBRANCH   1  18
TORSDOF 28
ENDMDL
