MODEL 1
REMARK VINA RESULT:    -4.468      0.000      0.000
REMARK INTER + INTRA:         -10.928
REMARK INTER:                  -8.648
REMARK INTRA:                  -2.280
REMARK UNBOUND:                -2.280
REMARK SMILES CCCCCCCCCCCCCCCCCC(=O)[O-]
REMARK SMILES IDX 10 1 11 2 12 3 13 4 14 5 15 6 16 7 17 8 18 9 19 10 20 11
REMARK SMILES IDX 9 12 8 13 7 14 6 15 5 16 4 17 3 18 2 19 1 20
REMARK H PARENT
REMARK Flexibility Score: inf
ROOT
ATOM      1  C   UNL     1      15.232 119.961 293.752  1.00  0.00     0.000 C 
ENDROOT
BRANCH   1   2
ATOM      2  C   UNL     1      16.498 120.828 293.681  1.00  0.00     0.000 C 
BRANCH   2   3
ATOM      3  C   UNL     1      16.686 121.635 294.975  1.00  0.00     0.000 C 
BRANCH   3   4
ATOM      4  C   UNL     1      18.056 121.372 295.634  1.00  0.00     0.000 C 
BRANCH   4   5
ATOM      5  C   UNL     1      19.226 121.346 294.636  1.00  0.00     0.000 C 
BRANCH   5   6
ATOM      6  C   UNL     1      20.193 120.179 294.880  1.00  0.00     0.000 C 
BRANCH   6   7
ATOM      7  C   UNL     1      19.965 119.555 296.262  1.00  0.00     0.006 C 
BRANCH   7   8
ATOM      8  C   UNL     1      21.263 119.532 297.075  1.00  0.00     0.053 C 
BRANCH   8   9
ATOM      9  C   UNL     1      21.710 118.124 297.310  1.00  0.00     0.041 C 
ATOM     10  O   UNL     1      21.229 117.184 296.623  1.00  0.00    -0.550 OA
ATOM     11  O   UNL     1      22.620 117.842 298.320  1.00  0.00    -0.550 OA
ENDBRANCH   8   9
ENDBRANCH   7   8
ENDBRANCH   6   7
ENDBRANCH   5   6
ENDBRANCH   4   5
ENDBRANCH   3   4
ENDBRANCH   2   3
ENDBRANCH   1   2
BRANCH   1  12
ATOM     12  C   UNL     1      14.853 119.574 295.193  1.00  0.00     0.000 C 
BRANCH  12  13
ATOM     13  C   UNL     1      15.169 118.116 295.579  1.00  0.00    -0.000 C 
BRANCH  13  14
ATOM     14  C   UNL     1      16.639 117.841 295.955  1.00  0.00    -0.000 C 
BRANCH  14  15
ATOM     15  C   UNL     1      17.353 116.804 295.069  1.00  0.00    -0.000 C 
BRANCH  15  16
ATOM     16  C   UNL     1      17.987 117.426 293.816  1.00  0.00    -0.000 C 
BRANCH  16  17
ATOM     17  C   UNL     1      17.339 116.875 292.540  1.00  0.00    -0.000 C 
BRANCH  17  18
ATOM     18  C   UNL     1      18.381 116.205 291.637  1.00  0.00    -0.000 C 
BRANCH  18  19
ATOM     19  C   UNL     1      17.763 115.792 290.297  1.00  0.00    -0.003 C 
ATOM     20  C   UNL     1      17.154 114.395 290.379  1.00  0.00     0.004 C 
ENDBRANCH  18  19
ENDBRANCH  17  18
ENDBRANCH  16  17
ENDBRANCH  15  16
ENDBRANCH  14  15
ENDBRANCH  13  14
ENDBRANCH  12  13
ENDBRANCH   1  12
TORSDOF 16
ENDMDL
MODEL 2
REMARK VINA RESULT:    -4.428      1.238      2.143
REMARK INTER + INTRA:         -10.850
REMARK INTER:                  -8.867
REMARK INTRA:                  -1.983
REMARK UNBOUND:                -2.280
REMARK SMILES CCCCCCCCCCCCCCCCCC(=O)[O-]
REMARK SMILES IDX 10 1 11 2 12 3 13 4 14 5 15 6 16 7 17 8 18 9 19 10 20 11
REMARK SMILES IDX 9 12 8 13 7 14 6 15 5 16 4 17 3 18 2 19 1 20
REMARK H PARENT
REMARK Flexibility Score: inf
ROOT
ATOM      1  C   UNL     1      16.837 122.742 294.828  1.00  0.00     0.000 C 
ENDROOT
BRANCH   1   2
ATOM      2  C   UNL     1      18.297 122.623 295.288  1.00  0.00     0.000 C 
BRANCH   2   3
ATOM      3  C   UNL     1      18.532 121.304 296.041  1.00  0.00     0.000 C 
BRANCH   3   4
ATOM      4  C   UNL     1      19.964 120.764 295.840  1.00  0.00     0.000 C 
BRANCH   4   5
ATOM      5  C   UNL     1      20.099 119.799 294.650  1.00  0.00     0.000 C 
BRANCH   5   6
ATOM      6  C   UNL     1      20.840 118.505 295.011  1.00  0.00     0.000 C 
BRANCH   6   7
ATOM      7  C   UNL     1      20.298 117.906 296.315  1.00  0.00     0.006 C 
BRANCH   7   8
ATOM      8  C   UNL     1      21.403 117.177 297.085  1.00  0.00     0.053 C 
BRANCH   8   9
ATOM      9  C   UNL     1      21.970 118.060 298.152  1.00  0.00     0.041 C 
ATOM     10  O   UNL     1      21.288 119.013 298.613  1.00  0.00    -0.550 OA
ATOM     11  O   UNL     1      23.268 117.862 298.602  1.00  0.00    -0.550 OA
ENDBRANCH   8   9
ENDBRANCH   7   8
ENDBRANCH   6   7
ENDBRANCH   5   6
ENDBRANCH   4   5
ENDBRANCH   3   4
ENDBRANCH   2   3
ENDBRANCH   1   2
BRANCH   1  12
ATOM     12  C   UNL     1      16.561 121.988 293.515  1.00  0.00     0.000 C 
BRANCH  12  13
ATOM     13  C   UNL     1      15.720 120.706 293.665  1.00  0.00    -0.000 C 
BRANCH  13  14
ATOM     14  C   UNL     1      16.506 119.386 293.530  1.00  0.00    -0.000 C 
BRANCH  14  15
ATOM     15  C   UNL     1      16.406 118.444 294.743  1.00  0.00    -0.000 C 
BRANCH  15  16
ATOM     16  C   UNL     1      17.168 117.126 294.539  1.00  0.00    -0.000 C 
BRANCH  16  17
ATOM     17  C   UNL     1      17.989 117.161 293.243  1.00  0.00    -0.000 C 
BRANCH  17  18
ATOM     18  C   UNL     1      17.262 116.426 292.111  1.00  0.00    -0.000 C 
BRANCH  18  19
ATOM     19  C   UNL     1      18.262 115.796 291.135  1.00  0.00    -0.003 C 
ATOM     20  C   UNL     1      17.657 114.584 290.432  1.00  0.00     0.004 C 
ENDBRANCH  18  19
ENDBRANCH  17  18
ENDBRANCH  16  17
ENDBRANCH  15  16
ENDBRANCH  14  15
ENDBRANCH  13  14
ENDBRANCH  12  13
ENDBRANCH   1  12
TORSDOF 16
ENDMDL
MODEL 3
REMARK VINA RESULT:    -4.396      3.992      5.626
REMARK INTER + INTRA:         -10.788
REMARK INTER:                  -9.760
REMARK INTRA:                  -1.027
REMARK UNBOUND:                -2.280
REMARK SMILES CCCCCCCCCCCCCCCCCC(=O)[O-]
REMARK SMILES IDX 10 1 11 2 12 3 13 4 14 5 15 6 16 7 17 8 18 9 19 10 20 11
REMARK SMILES IDX 9 12 8 13 7 14 6 15 5 16 4 17 3 18 2 19 1 20
REMARK H PARENT
REMARK Flexibility Score: inf
ROOT
ATOM      1  C   UNL     1      21.703 117.758 297.800  1.00  0.00     0.000 C 
ENDROOT
BRANCH   1   2
ATOM      2  C   UNL     1      22.882 118.436 297.087  1.00  0.00     0.000 C 
BRANCH   2   3
ATOM      3  C   UNL     1      22.387 119.481 296.075  1.00  0.00     0.000 C 
BRANCH   3   4
ATOM      4  C   UNL     1      22.563 119.009 294.616  1.00  0.00     0.000 C 
BRANCH   4   5
ATOM      5  C   UNL     1      24.029 118.769 294.217  1.00  0.00     0.000 C 
BRANCH   5   6
ATOM      6  C   UNL     1      24.216 118.598 292.703  1.00  0.00     0.000 C 
BRANCH   6   7
ATOM      7  C   UNL     1      25.559 117.930 292.386  1.00  0.00     0.006 C 
BRANCH   7   8
ATOM      8  C   UNL     1      25.440 117.005 291.172  1.00  0.00     0.053 C 
BRANCH   8   9
ATOM      9  C   UNL     1      24.576 117.629 290.121  1.00  0.00     0.041 C 
ATOM     10  O   UNL     1      23.498 117.076 289.777  1.00  0.00    -0.550 OA
ATOM     11  O   UNL     1      24.986 118.793 289.485  1.00  0.00    -0.550 OA
ENDBRANCH   8   9
ENDBRANCH   7   8
ENDBRANCH   6   7
ENDBRANCH   5   6
ENDBRANCH   4   5
ENDBRANCH   3   4
ENDBRANCH   2   3
ENDBRANCH   1   2
BRANCH   1  12
ATOM     12  C   UNL     1      21.149 116.551 297.023  1.00  0.00     0.000 C 
BRANCH  12  13
ATOM     13  C   UNL     1      19.612 116.495 296.916  1.00  0.00    -0.000 C 
BRANCH  13  14
ATOM     14  C   UNL     1      18.981 117.547 295.981  1.00  0.00    -0.000 C 
BRANCH  14  15
ATOM     15  C   UNL     1      17.452 117.452 295.836  1.00  0.00    -0.000 C 
BRANCH  15  16
ATOM     16  C   UNL     1      17.018 116.776 294.527  1.00  0.00    -0.000 C 
BRANCH  16  17
ATOM     17  C   UNL     1      17.975 117.129 293.382  1.00  0.00    -0.000 C 
BRANCH  17  18
ATOM     18  C   UNL     1      17.344 116.816 292.020  1.00  0.00    -0.000 C 
BRANCH  18  19
ATOM     19  C   UNL     1      18.214 115.835 291.225  1.00  0.00    -0.003 C 
ATOM     20  C   UNL     1      17.403 114.625 290.769  1.00  0.00     0.004 C 
ENDBRANCH  18  19
ENDBRANCH  17  18
ENDBRANCH  16  17
ENDBRANCH  15  16
ENDBRANCH  14  15
ENDBRANCH  13  14
ENDBRANCH  12  13
ENDBRANCH   1  12
TORSDOF 16
ENDMDL
MODEL 4
REMARK VINA RESULT:    -4.380      3.547      5.014
REMARK INTER + INTRA:         -10.757
REMARK INTER:                  -9.737
REMARK INTRA:                  -1.020
REMARK UNBOUND:                -2.280
REMARK SMILES CCCCCCCCCCCCCCCCCC(=O)[O-]
REMARK SMILES IDX 10 1 11 2 12 3 13 4 14 5 15 6 16 7 17 8 18 9 19 10 20 11
REMARK SMILES IDX 9 12 8 13 7 14 6 15 5 16 4 17 3 18 2 19 1 20
REMARK H PARENT
REMARK Flexibility Score: inf
ROOT
ATOM      1  C   UNL     1      21.008 118.254 297.849  1.00  0.00     0.000 C 
ENDROOT
BRANCH   1   2
ATOM      2  C   UNL     1      22.405 118.552 297.285  1.00  0.00     0.000 C 
BRANCH   2   3
ATOM      3  C   UNL     1      22.353 119.694 296.259  1.00  0.00     0.000 C 
BRANCH   3   4
ATOM      4  C   UNL     1      22.418 119.176 294.806  1.00  0.00     0.000 C 
BRANCH   4   5
ATOM      5  C   UNL     1      23.347 117.965 294.623  1.00  0.00     0.000 C 
BRANCH   5   6
ATOM      6  C   UNL     1      24.807 118.364 294.368  1.00  0.00     0.000 C 
BRANCH   6   7
ATOM      7  C   UNL     1      24.911 119.840 293.965  1.00  0.00     0.006 C 
BRANCH   7   8
ATOM      8  C   UNL     1      26.365 120.229 293.678  1.00  0.00     0.053 C 
BRANCH   8   9
ATOM      9  C   UNL     1      26.703 121.524 294.347  1.00  0.00     0.041 C 
ATOM     10  O   UNL     1      25.981 122.540 294.162  1.00  0.00    -0.550 OA
ATOM     11  O   UNL     1      27.842 121.624 295.135  1.00  0.00    -0.550 OA
ENDBRANCH   8   9
ENDBRANCH   7   8
ENDBRANCH   6   7
ENDBRANCH   5   6
ENDBRANCH   4   5
ENDBRANCH   3   4
ENDBRANCH   2   3
ENDBRANCH   1   2
BRANCH   1  12
ATOM     12  C   UNL     1      20.292 117.115 297.101  1.00  0.00     0.000 C 
BRANCH  12  13
ATOM     13  C   UNL     1      19.269 117.574 296.043  1.00  0.00    -0.000 C 
BRANCH  13  14
ATOM     14  C   UNL     1      17.829 117.070 296.262  1.00  0.00    -0.000 C 
BRANCH  14  15
ATOM     15  C   UNL     1      17.023 116.826 294.973  1.00  0.00    -0.000 C 
BRANCH  15  16
ATOM     16  C   UNL     1      17.763 117.292 293.711  1.00  0.00    -0.000 C 
BRANCH  16  17
ATOM     17  C   UNL     1      17.257 116.546 292.470  1.00  0.00    -0.000 C 
BRANCH  17  18
ATOM     18  C   UNL     1      18.417 116.179 291.537  1.00  0.00    -0.000 C 
BRANCH  18  19
ATOM     19  C   UNL     1      17.900 115.779 290.150  1.00  0.00    -0.003 C 
ATOM     20  C   UNL     1      17.221 114.413 290.188  1.00  0.00     0.004 C 
ENDBRANCH  18  19
ENDBRANCH  17  18
ENDBRANCH  16  17
ENDBRANCH  15  16
ENDBRANCH  14  15
ENDBRANCH  13  14
ENDBRANCH  12  13
ENDBRANCH   1  12
TORSDOF 16
ENDMDL
MODEL 5
REMARK VINA RESULT:    -4.333      2.275      4.019
REMARK INTER + INTRA:         -10.666
REMARK INTER:                  -8.824
REMARK INTRA:                  -1.841
REMARK UNBOUND:                -2.280
REMARK SMILES CCCCCCCCCCCCCCCCCC(=O)[O-]
REMARK SMILES IDX 10 1 11 2 12 3 13 4 14 5 15 6 16 7 17 8 18 9 19 10 20 11
REMARK SMILES IDX 9 12 8 13 7 14 6 15 5 16 4 17 3 18 2 19 1 20
REMARK H PARENT
REMARK Flexibility Score: inf
ROOT
ATOM      1  C   UNL     1      20.532 118.254 295.214  1.00  0.00     0.000 C 
ENDROOT
BRANCH   1   2
ATOM      2  C   UNL     1      19.885 117.427 296.335  1.00  0.00     0.000 C 
BRANCH   2   3
ATOM      3  C   UNL     1      20.878 117.182 297.481  1.00  0.00     0.000 C 
BRANCH   3   4
ATOM      4  C   UNL     1      20.657 118.152 298.662  1.00  0.00     0.000 C 
BRANCH   4   5
ATOM      5  C   UNL     1      21.916 118.941 299.056  1.00  0.00     0.000 C 
BRANCH   5   6
ATOM      6  C   UNL     1      23.212 118.287 298.558  1.00  0.00     0.000 C 
BRANCH   6   7
ATOM      7  C   UNL     1      24.137 119.322 297.908  1.00  0.00     0.006 C 
BRANCH   7   8
ATOM      8  C   UNL     1      23.831 119.471 296.415  1.00  0.00     0.053 C 
BRANCH   8   9
ATOM      9  C   UNL     1      25.036 119.132 295.595  1.00  0.00     0.041 C 
ATOM     10  O   UNL     1      24.903 118.721 294.413  1.00  0.00    -0.550 OA
ATOM     11  O   UNL     1      26.305 119.221 296.154  1.00  0.00    -0.550 OA
ENDBRANCH   8   9
ENDBRANCH   7   8
ENDBRANCH   6   7
ENDBRANCH   5   6
ENDBRANCH   4   5
ENDBRANCH   3   4
ENDBRANCH   2   3
ENDBRANCH   1   2
BRANCH   1  12
ATOM     12  C   UNL     1      19.581 119.312 294.628  1.00  0.00     0.000 C 
BRANCH  12  13
ATOM     13  C   UNL     1      18.356 119.642 295.503  1.00  0.00    -0.000 C 
BRANCH  13  14
ATOM     14  C   UNL     1      16.989 119.475 294.808  1.00  0.00    -0.000 C 
BRANCH  14  15
ATOM     15  C   UNL     1      16.961 118.439 293.670  1.00  0.00    -0.000 C 
BRANCH  15  16
ATOM     16  C   UNL     1      16.951 116.991 294.183  1.00  0.00    -0.000 C 
BRANCH  16  17
ATOM     17  C   UNL     1      17.242 116.003 293.047  1.00  0.00    -0.000 C 
BRANCH  17  18
ATOM     18  C   UNL     1      18.199 116.614 292.017  1.00  0.00    -0.000 C 
BRANCH  18  19
ATOM     19  C   UNL     1      18.459 115.638 290.863  1.00  0.00    -0.003 C 
ATOM     20  C   UNL     1      17.286 114.681 290.676  1.00  0.00     0.004 C 
ENDBRANCH  18  19
ENDBRANCH  17  18
ENDBRANCH  16  17
ENDBRANCH  15  16
ENDBRANCH  14  15
ENDBRANCH  13  14
ENDBRANCH  12  13
ENDBRANCH   1  12
TORSDOF 16
ENDMDL
MODEL 6
REMARK VINA RESULT:    -4.306      1.706      1.986
REMARK INTER + INTRA:         -10.615
REMARK INTER:                  -8.691
REMARK INTRA:                  -1.924
REMARK UNBOUND:                -2.280
REMARK SMILES CCCCCCCCCCCCCCCCCC(=O)[O-]
REMARK SMILES IDX 10 1 11 2 12 3 13 4 14 5 15 6 16 7 17 8 18 9 19 10 20 11
REMARK SMILES IDX 9 12 8 13 7 14 6 15 5 16 4 17 3 18 2 19 1 20
REMARK H PARENT
REMARK Flexibility Score: inf
ROOT
ATOM      1  C   UNL     1      15.948 120.202 293.964  1.00  0.00     0.000 C 
ENDROOT
BRANCH   1   2
ATOM      2  C   UNL     1      17.092 121.153 294.345  1.00  0.00     0.000 C 
BRANCH   2   3
ATOM      3  C   UNL     1      18.362 120.368 294.709  1.00  0.00     0.000 C 
BRANCH   3   4
ATOM      4  C   UNL     1      18.739 120.526 296.198  1.00  0.00     0.000 C 
BRANCH   4   5
ATOM      5  C   UNL     1      19.506 119.323 296.771  1.00  0.00     0.000 C 
BRANCH   5   6
ATOM      6  C   UNL     1      20.234 118.509 295.692  1.00  0.00     0.000 C 
BRANCH   6   7
ATOM      7  C   UNL     1      21.614 118.055 296.182  1.00  0.00     0.006 C 
BRANCH   7   8
ATOM      8  C   UNL     1      22.574 117.852 295.007  1.00  0.00     0.053 C 
BRANCH   8   9
ATOM      9  C   UNL     1      23.646 118.896 295.018  1.00  0.00     0.041 C 
ATOM     10  O   UNL     1      24.856 118.562 294.921  1.00  0.00    -0.550 OA
ATOM     11  O   UNL     1      23.312 120.234 295.185  1.00  0.00    -0.550 OA
ENDBRANCH   8   9
ENDBRANCH   7   8
ENDBRANCH   6   7
ENDBRANCH   5   6
ENDBRANCH   4   5
ENDBRANCH   3   4
ENDBRANCH   2   3
ENDBRANCH   1   2
BRANCH   1  12
ATOM     12  C   UNL     1      15.165 119.690 295.187  1.00  0.00     0.000 C 
BRANCH  12  13
ATOM     13  C   UNL     1      15.127 118.157 295.339  1.00  0.00    -0.000 C 
BRANCH  13  14
ATOM     14  C   UNL     1      16.433 117.516 295.851  1.00  0.00    -0.000 C 
BRANCH  14  15
ATOM     15  C   UNL     1      17.062 116.479 294.903  1.00  0.00    -0.000 C 
BRANCH  15  16
ATOM     16  C   UNL     1      17.758 117.121 293.694  1.00  0.00    -0.000 C 
BRANCH  16  17
ATOM     17  C   UNL     1      17.342 116.430 292.390  1.00  0.00    -0.000 C 
BRANCH  17  18
ATOM     18  C   UNL     1      18.544 116.248 291.456  1.00  0.00    -0.000 C 
BRANCH  18  19
ATOM     19  C   UNL     1      18.264 115.165 290.407  1.00  0.00    -0.003 C 
ATOM     20  C   UNL     1      17.012 114.366 290.760  1.00  0.00     0.004 C 
ENDBRANCH  18  19
ENDBRANCH  17  18
ENDBRANCH  16  17
ENDBRANCH  15  16
ENDBRANCH  14  15
ENDBRANCH  13  14
ENDBRANCH  12  13
ENDBRANCH   1  12
TORSDOF 16
ENDMDL
MODEL 7
REMARK VINA RESULT:    -4.269      2.528      5.588
REMARK INTER + INTRA:         -10.543
REMARK INTER:                  -7.690
REMARK INTRA:                  -2.853
REMARK UNBOUND:                -2.280
REMARK SMILES CCCCCCCCCCCCCCCCCC(=O)[O-]
REMARK SMILES IDX 10 1 11 2 12 3 13 4 14 5 15 6 16 7 17 8 18 9 19 10 20 11
REMARK SMILES IDX 9 12 8 13 7 14 6 15 5 16 4 17 3 18 2 19 1 20
REMARK H PARENT
REMARK Flexibility Score: inf
ROOT
ATOM      1  C   UNL     1      16.306 120.412 293.801  1.00  0.00     0.000 C 
ENDROOT
BRANCH   1   2
ATOM      2  C   UNL     1      15.340 119.479 294.545  1.00  0.00     0.000 C 
BRANCH   2   3
ATOM      3  C   UNL     1      15.843 119.185 295.967  1.00  0.00     0.000 C 
BRANCH   3   4
ATOM      4  C   UNL     1      16.302 117.720 296.133  1.00  0.00     0.000 C 
BRANCH   4   5
ATOM      5  C   UNL     1      17.825 117.536 296.027  1.00  0.00     0.000 C 
BRANCH   5   6
ATOM      6  C   UNL     1      18.310 117.389 294.578  1.00  0.00     0.000 C 
BRANCH   6   7
ATOM      7  C   UNL     1      17.339 116.532 293.757  1.00  0.00     0.006 C 
BRANCH   7   8
ATOM      8  C   UNL     1      17.409 116.896 292.271  1.00  0.00     0.053 C 
BRANCH   8   9
ATOM      9  C   UNL     1      17.909 115.734 291.470  1.00  0.00     0.041 C 
ATOM     10  O   UNL     1      19.062 115.764 290.964  1.00  0.00    -0.550 OA
ATOM     11  O   UNL     1      17.084 114.642 291.239  1.00  0.00    -0.550 OA
ENDBRANCH   8   9
ENDBRANCH   7   8
ENDBRANCH   6   7
ENDBRANCH   5   6
ENDBRANCH   4   5
ENDBRANCH   3   4
ENDBRANCH   2   3
ENDBRANCH   1   2
BRANCH   1  12
ATOM     12  C   UNL     1      16.908 121.498 294.712  1.00  0.00     0.000 C 
BRANCH  12  13
ATOM     13  C   UNL     1      18.428 121.702 294.563  1.00  0.00    -0.000 C 
BRANCH  13  14
ATOM     14  C   UNL     1      19.299 120.855 295.512  1.00  0.00    -0.000 C 
BRANCH  14  15
ATOM     15  C   UNL     1      18.963 121.001 297.007  1.00  0.00    -0.000 C 
BRANCH  15  16
ATOM     16  C   UNL     1      20.112 120.552 297.922  1.00  0.00    -0.000 C 
BRANCH  16  17
ATOM     17  C   UNL     1      21.134 119.709 297.149  1.00  0.00    -0.000 C 
BRANCH  17  18
ATOM     18  C   UNL     1      21.144 118.260 297.650  1.00  0.00    -0.000 C 
BRANCH  18  19
ATOM     19  C   UNL     1      21.714 117.315 296.585  1.00  0.00    -0.003 C 
ATOM     20  C   UNL     1      21.973 118.055 295.275  1.00  0.00     0.004 C 
ENDBRANCH  18  19
ENDBRANCH  17  18
ENDBRANCH  16  17
ENDBRANCH  15  16
ENDBRANCH  14  15
ENDBRANCH  13  14
ENDBRANCH  12  13
ENDBRANCH   1  12
TORSDOF 16
ENDMDL
MODEL 8
REMARK VINA RESULT:    -4.254      2.646      4.310
REMARK INTER + INTRA:         -10.513
REMARK INTER:                  -9.384
REMARK INTRA:                  -1.129
REMARK UNBOUND:                -2.280
REMARK SMILES CCCCCCCCCCCCCCCCCC(=O)[O-]
REMARK SMILES IDX 10 1 11 2 12 3 13 4 14 5 15 6 16 7 17 8 18 9 19 10 20 11
REMARK SMILES IDX 9 12 8 13 7 14 6 15 5 16 4 17 3 18 2 19 1 20
REMARK H PARENT
REMARK Flexibility Score: inf
ROOT
ATOM      1  C   UNL     1      19.021 118.625 296.730  1.00  0.00     0.000 C 
ENDROOT
BRANCH   1   2
ATOM      2  C   UNL     1      19.475 117.162 296.628  1.00  0.00     0.000 C 
BRANCH   2   3
ATOM      3  C   UNL     1      20.696 116.899 297.523  1.00  0.00     0.000 C 
BRANCH   3   4
ATOM      4  C   UNL     1      22.011 117.376 296.872  1.00  0.00     0.000 C 
BRANCH   4   5
ATOM      5  C   UNL     1      23.054 117.879 297.884  1.00  0.00     0.000 C 
BRANCH   5   6
ATOM      6  C   UNL     1      22.784 119.314 298.356  1.00  0.00     0.000 C 
BRANCH   6   7
ATOM      7  C   UNL     1      23.119 119.476 299.844  1.00  0.00     0.006 C 
BRANCH   7   8
ATOM      8  C   UNL     1      24.236 120.503 300.048  1.00  0.00     0.053 C 
BRANCH   8   9
ATOM      9  C   UNL     1      23.735 121.674 300.833  1.00  0.00     0.041 C 
ATOM     10  O   UNL     1      24.457 122.194 301.725  1.00  0.00    -0.550 OA
ATOM     11  O   UNL     1      22.452 122.160 300.618  1.00  0.00    -0.550 OA
ENDBRANCH   8   9
ENDBRANCH   7   8
ENDBRANCH   6   7
ENDBRANCH   5   6
ENDBRANCH   4   5
ENDBRANCH   3   4
ENDBRANCH   2   3
ENDBRANCH   1   2
BRANCH   1  12
ATOM     12  C   UNL     1      17.566 118.767 297.211  1.00  0.00     0.000 C 
BRANCH  12  13
ATOM     13  C   UNL     1      16.497 118.383 296.170  1.00  0.00    -0.000 C 
BRANCH  13  14
ATOM     14  C   UNL     1      16.487 119.243 294.891  1.00  0.00    -0.000 C 
BRANCH  14  15
ATOM     15  C   UNL     1      16.767 118.473 293.587  1.00  0.00    -0.000 C 
BRANCH  15  16
ATOM     16  C   UNL     1      17.288 117.050 293.837  1.00  0.00    -0.000 C 
BRANCH  16  17
ATOM     17  C   UNL     1      17.173 116.192 292.570  1.00  0.00    -0.000 C 
BRANCH  17  18
ATOM     18  C   UNL     1      18.387 116.395 291.656  1.00  0.00    -0.000 C 
BRANCH  18  19
ATOM     19  C   UNL     1      18.433 115.325 290.559  1.00  0.00    -0.003 C 
ATOM     20  C   UNL     1      17.122 114.546 290.495  1.00  0.00     0.004 C 
ENDBRANCH  18  19
ENDBRANCH  17  18
ENDBRANCH  16  17
ENDBRANCH  15  16
ENDBRANCH  14  15
ENDBRANCH  13  14
ENDBRANCH  12  13
ENDBRANCH   1  12
TORSDOF 16
ENDMDL
MODEL 9
REMARK VINA RESULT:    -4.239      3.274      5.517
REMARK INTER + INTRA:         -10.484
REMARK INTER:                  -9.152
REMARK INTRA:                  -1.332
REMARK UNBOUND:                -2.280
REMARK SMILES CCCCCCCCCCCCCCCCCC(=O)[O-]
REMARK SMILES IDX 10 1 11 2 12 3 13 4 14 5 15 6 16 7 17 8 18 9 19 10 20 11
REMARK SMILES IDX 9 12 8 13 7 14 6 15 5 16 4 17 3 18 2 19 1 20
REMARK H PARENT
REMARK Flexibility Score: inf
ROOT
ATOM      1  C   UNL     1      21.900 117.063 297.273  1.00  0.00     0.000 C 
ENDROOT
BRANCH   1   2
ATOM      2  C   UNL     1      22.555 118.448 297.372  1.00  0.00     0.000 C 
BRANCH   2   3
ATOM      3  C   UNL     1      23.291 118.615 298.710  1.00  0.00     0.000 C 
BRANCH   3   4
ATOM      4  C   UNL     1      22.343 118.475 299.920  1.00  0.00     0.000 C 
BRANCH   4   5
ATOM      5  C   UNL     1      21.997 119.815 300.591  1.00  0.00     0.000 C 
BRANCH   5   6
ATOM      6  C   UNL     1      22.836 120.985 300.058  1.00  0.00     0.000 C 
BRANCH   6   7
ATOM      7  C   UNL     1      23.567 121.703 301.199  1.00  0.00     0.006 C 
BRANCH   7   8
ATOM      8  C   UNL     1      24.165 120.697 302.187  1.00  0.00     0.053 C 
BRANCH   8   9
ATOM      9  C   UNL     1      25.578 120.374 301.816  1.00  0.00     0.041 C 
ATOM     10  O   UNL     1      26.514 121.146 302.155  1.00  0.00    -0.550 OA
ATOM     11  O   UNL     1      25.858 119.249 301.053  1.00  0.00    -0.550 OA
ENDBRANCH   8   9
ENDBRANCH   7   8
ENDBRANCH   6   7
ENDBRANCH   5   6
ENDBRANCH   4   5
ENDBRANCH   3   4
ENDBRANCH   2   3
ENDBRANCH   1   2
BRANCH   1  12
ATOM     12  C   UNL     1      20.394 117.136 296.963  1.00  0.00     0.000 C 
BRANCH  12  13
ATOM     13  C   UNL     1      19.815 118.561 296.881  1.00  0.00    -0.000 C 
BRANCH  13  14
ATOM     14  C   UNL     1      19.613 119.107 295.453  1.00  0.00    -0.000 C 
BRANCH  14  15
ATOM     15  C   UNL     1      19.288 118.041 294.391  1.00  0.00    -0.000 C 
BRANCH  15  16
ATOM     16  C   UNL     1      17.804 117.643 294.381  1.00  0.00    -0.000 C 
BRANCH  16  17
ATOM     17  C   UNL     1      17.288 117.480 292.946  1.00  0.00    -0.000 C 
BRANCH  17  18
ATOM     18  C   UNL     1      17.357 116.015 292.499  1.00  0.00    -0.000 C 
BRANCH  18  19
ATOM     19  C   UNL     1      18.040 115.890 291.133  1.00  0.00    -0.003 C 
ATOM     20  C   UNL     1      17.468 114.722 290.335  1.00  0.00     0.004 C 
ENDBRANCH  18  19
ENDBRANCH  17  18
ENDBRANCH  16  17
ENDBRANCH  15  16
ENDBRANCH  14  15
ENDBRANCH  13  14
ENDBRANCH  12  13
ENDBRANCH   1  12
TORSDOF 16
ENDMDL
