MODEL 1
REMARK VINA RESULT:    -4.264      0.000      0.000
REMARK INTER + INTRA:         -14.068
REMARK INTER:                  -9.749
REMARK INTRA:                  -4.320
REMARK UNBOUND:                -4.320
REMARK SMILES CCCCCCCCCCCCCCCCCCCCCCCC(=O)[O-]
REMARK SMILES IDX 13 1 14 2 15 3 16 4 17 5 18 6 19 7 20 8 21 9 22 10 23 11
REMARK SMILES IDX 24 12 25 13 26 14 12 15 11 16 10 17 9 18 8 19 7 20 6 21 5 22
REMARK SMILES IDX 4 23 3 24 2 25 1 26
REMARK H PARENT
REMARK Flexibility Score: inf
ROOT
ATOM      1  C   UNL     1       6.352  38.601  -0.847  1.00  0.00     0.000 C 
ENDROOT
BRANCH   1   2
ATOM      2  C   UNL     1       5.438  38.832   0.372  1.00  0.00     0.000 C 
BRANCH   2   3
ATOM      3  C   UNL     1       3.996  38.309   0.189  1.00  0.00     0.000 C 
BRANCH   3   4
ATOM      4  C   UNL     1       3.748  36.932   0.837  1.00  0.00     0.000 C 
BRANCH   4   5
ATOM      5  C   UNL     1       3.360  35.824  -0.160  1.00  0.00     0.000 C 
BRANCH   5   6
ATOM      6  C   UNL     1       3.423  36.291  -1.625  1.00  0.00     0.000 C 
BRANCH   6   7
ATOM      7  C   UNL     1       4.504  35.553  -2.434  1.00  0.00     0.000 C 
BRANCH   7   8
ATOM      8  C   UNL     1       5.386  34.588  -1.617  1.00  0.00     0.000 C 
BRANCH   8   9
ATOM      9  C   UNL     1       6.758  34.304  -2.264  1.00  0.00     0.000 C 
BRANCH   9  10
ATOM     10  C   UNL     1       7.792  33.793  -1.242  1.00  0.00     0.006 C 
BRANCH  10  11
ATOM     11  C   UNL     1       8.951  33.045  -1.914  1.00  0.00     0.053 C 
BRANCH  11  12
ATOM     12  C   UNL     1      10.195  33.085  -1.081  1.00  0.00     0.041 C 
ATOM     13  O   UNL     1      10.698  32.018  -0.641  1.00  0.00    -0.550 OA
ATOM     14  O   UNL     1      10.821  34.298  -0.823  1.00  0.00    -0.550 OA
ENDBRANCH  11  12
ENDBRANCH  10  11
ENDBRANCH   9  10
ENDBRANCH   8   9
ENDBRANCH   7   8
ENDBRANCH   6   7
ENDBRANCH   5   6
ENDBRANCH   4   5
ENDBRANCH   3   4
ENDBRANCH   2   3
ENDBRANCH   1   2
BRANCH   1  15
ATOM     15  C   UNL     1       7.447  37.539  -0.619  1.00  0.00     0.000 C 
BRANCH  15  16
ATOM     16  C   UNL     1       7.308  36.830   0.736  1.00  0.00     0.000 C 
BRANCH  16  17
ATOM     17  C   UNL     1       8.686  36.456   1.300  1.00  0.00     0.000 C 
BRANCH  17  18
ATOM     18  C   UNL     1       9.337  37.600   2.094  1.00  0.00    -0.000 C 
BRANCH  18  19
ATOM     19  C   UNL     1       8.301  38.470   2.828  1.00  0.00    -0.000 C 
BRANCH  19  20
ATOM     20  C   UNL     1       8.648  39.967   2.780  1.00  0.00    -0.000 C 
BRANCH  20  21
ATOM     21  C   UNL     1      10.060  40.233   2.230  1.00  0.00    -0.000 C 
BRANCH  21  22
ATOM     22  C   UNL     1      10.052  41.129   0.978  1.00  0.00    -0.000 C 
BRANCH  22  23
ATOM     23  C   UNL     1       9.818  40.385  -0.353  1.00  0.00    -0.000 C 
BRANCH  23  24
ATOM     24  C   UNL     1      11.071  39.729  -0.961  1.00  0.00    -0.000 C 
BRANCH  24  25
ATOM     25  C   UNL     1      11.000  38.195  -0.961  1.00  0.00    -0.003 C 
ATOM     26  C   UNL     1      12.157  37.591  -0.170  1.00  0.00     0.004 C 
ENDBRANCH  24  25
ENDBRANCH  23  24
ENDBRANCH  22  23
ENDBRANCH  21  22
ENDBRANCH  20  21
ENDBRANCH  19  20
ENDBRANCH  18  19
ENDBRANCH  17  18
ENDBRANCH  16  17
ENDBRANCH  15  16
ENDBRANCH   1  15
TORSDOF 22
ENDMDL
MODEL 2
REMARK VINA RESULT:    -4.222      1.346      3.030
REMARK INTER + INTRA:         -13.972
REMARK INTER:                  -9.650
REMARK INTRA:                  -4.322
REMARK UNBOUND:                -4.320
REMARK SMILES CCCCCCCCCCCCCCCCCCCCCCCC(=O)[O-]
REMARK SMILES IDX 13 1 14 2 15 3 16 4 17 5 18 6 19 7 20 8 21 9 22 10 23 11
REMARK SMILES IDX 24 12 25 13 26 14 12 15 11 16 10 17 9 18 8 19 7 20 6 21 5 22
REMARK SMILES IDX 4 23 3 24 2 25 1 26
REMARK H PARENT
REMARK Flexibility Score: inf
ROOT
ATOM      1  C   UNL     1       4.922  34.362  -2.058  1.00  0.00     0.000 C 
ENDROOT
BRANCH   1   2
ATOM      2  C   UNL     1       3.631  35.202  -1.984  1.00  0.00     0.000 C 
BRANCH   2   3
ATOM      3  C   UNL     1       2.971  35.222  -0.588  1.00  0.00     0.000 C 
BRANCH   3   4
ATOM      4  C   UNL     1       3.487  36.352   0.327  1.00  0.00     0.000 C 
BRANCH   4   5
ATOM      5  C   UNL     1       3.933  35.881   1.723  1.00  0.00     0.000 C 
BRANCH   5   6
ATOM      6  C   UNL     1       5.422  36.156   1.999  1.00  0.00     0.000 C 
BRANCH   6   7
ATOM      7  C   UNL     1       6.350  35.146   1.301  1.00  0.00     0.000 C 
BRANCH   7   8
ATOM      8  C   UNL     1       7.843  35.528   1.299  1.00  0.00     0.000 C 
BRANCH   8   9
ATOM      9  C   UNL     1       8.780  34.363   0.915  1.00  0.00     0.000 C 
BRANCH   9  10
ATOM     10  C   UNL     1       9.168  34.391  -0.576  1.00  0.00     0.006 C 
BRANCH  10  11
ATOM     11  C   UNL     1       8.956  33.033  -1.257  1.00  0.00     0.053 C 
BRANCH  11  12
ATOM     12  C   UNL     1      10.061  32.073  -0.940  1.00  0.00     0.041 C 
ATOM     13  O   UNL     1       9.880  31.155  -0.099  1.00  0.00    -0.550 OA
ATOM     14  O   UNL     1      11.278  32.170  -1.603  1.00  0.00    -0.550 OA
ENDBRANCH  11  12
ENDBRANCH  10  11
ENDBRANCH   9  10
ENDBRANCH   8   9
ENDBRANCH   7   8
ENDBRANCH   6   7
ENDBRANCH   5   6
ENDBRANCH   4   5
ENDBRANCH   3   4
ENDBRANCH   2   3
ENDBRANCH   1   2
BRANCH   1  15
ATOM     15  C   UNL     1       6.171  35.166  -2.474  1.00  0.00     0.000 C 
BRANCH  15  16
ATOM     16  C   UNL     1       5.946  36.683  -2.406  1.00  0.00     0.000 C 
BRANCH  16  17
ATOM     17  C   UNL     1       6.961  37.343  -1.462  1.00  0.00     0.000 C 
BRANCH  17  18
ATOM     18  C   UNL     1       6.632  38.815  -1.164  1.00  0.00    -0.000 C 
BRANCH  18  19
ATOM     19  C   UNL     1       6.491  39.094   0.343  1.00  0.00    -0.000 C 
BRANCH  19  20
ATOM     20  C   UNL     1       7.340  40.290   0.804  1.00  0.00    -0.000 C 
BRANCH  20  21
ATOM     21  C   UNL     1       8.016  40.050   2.164  1.00  0.00    -0.000 C 
BRANCH  21  22
ATOM     22  C   UNL     1       8.779  38.714   2.223  1.00  0.00    -0.000 C 
BRANCH  22  23
ATOM     23  C   UNL     1      10.265  38.797   1.819  1.00  0.00    -0.000 C 
BRANCH  23  24
ATOM     24  C   UNL     1      10.804  37.569   1.062  1.00  0.00    -0.000 C 
BRANCH  24  25
ATOM     25  C   UNL     1      10.935  37.812  -0.449  1.00  0.00    -0.003 C 
ATOM     26  C   UNL     1      10.755  39.290  -0.786  1.00  0.00     0.004 C 
ENDBRANCH  24  25
ENDBRANCH  23  24
ENDBRANCH  22  23
ENDBRANCH  21  22
ENDBRANCH  20  21
ENDBRANCH  19  20
ENDBRANCH  18  19
ENDBRANCH  17  18
ENDBRANCH  16  17
ENDBRANCH  15  16
ENDBRANCH   1  15
TORSDOF 22
ENDMDL
MODEL 3
REMARK VINA RESULT:    -4.197      3.016      6.906
REMARK INTER + INTRA:         -13.913
REMARK INTER:                  -9.634
REMARK INTRA:                  -4.279
REMARK UNBOUND:                -4.320
REMARK SMILES CCCCCCCCCCCCCCCCCCCCCCCC(=O)[O-]
REMARK SMILES IDX 13 1 14 2 15 3 16 4 17 5 18 6 19 7 20 8 21 9 22 10 23 11
REMARK SMILES IDX 24 12 25 13 26 14 12 15 11 16 10 17 9 18 8 19 7 20 6 21 5 22
REMARK SMILES IDX 4 23 3 24 2 25 1 26
REMARK H PARENT
REMARK Flexibility Score: inf
ROOT
ATOM      1  C   UNL     1       8.278  33.422  -1.449  1.00  0.00     0.000 C 
ENDROOT
BRANCH   1   2
ATOM      2  C   UNL     1       9.243  33.408  -0.248  1.00  0.00     0.000 C 
BRANCH   2   3
ATOM      3  C   UNL     1       8.882  34.419   0.864  1.00  0.00     0.000 C 
BRANCH   3   4
ATOM      4  C   UNL     1       9.942  35.520   1.070  1.00  0.00     0.000 C 
BRANCH   4   5
ATOM      5  C   UNL     1      10.654  35.961  -0.222  1.00  0.00     0.000 C 
BRANCH   5   6
ATOM      6  C   UNL     1       9.946  37.134  -0.924  1.00  0.00     0.000 C 
BRANCH   6   7
ATOM      7  C   UNL     1      10.769  38.433  -0.881  1.00  0.00     0.000 C 
BRANCH   7   8
ATOM      8  C   UNL     1      10.219  39.522   0.061  1.00  0.00     0.000 C 
BRANCH   8   9
ATOM      9  C   UNL     1      10.368  39.178   1.559  1.00  0.00     0.000 C 
BRANCH   9  10
ATOM     10  C   UNL     1       9.665  40.205   2.467  1.00  0.00     0.006 C 
BRANCH  10  11
ATOM     11  C   UNL     1       9.797  41.637   1.934  1.00  0.00     0.053 C 
BRANCH  11  12
ATOM     12  C   UNL     1       8.460  42.271   1.705  1.00  0.00     0.041 C 
ATOM     13  O   UNL     1       7.824  42.777   2.667  1.00  0.00    -0.550 OA
ATOM     14  O   UNL     1       7.932  42.338   0.422  1.00  0.00    -0.550 OA
ENDBRANCH  11  12
ENDBRANCH  10  11
ENDBRANCH   9  10
ENDBRANCH   8   9
ENDBRANCH   7   8
ENDBRANCH   6   7
ENDBRANCH   5   6
ENDBRANCH   4   5
ENDBRANCH   3   4
ENDBRANCH   2   3
ENDBRANCH   1   2
BRANCH   1  15
ATOM     15  C   UNL     1       7.084  34.384  -1.285  1.00  0.00     0.000 C 
BRANCH  15  16
ATOM     16  C   UNL     1       6.080  34.282  -2.442  1.00  0.00     0.000 C 
BRANCH  16  17
ATOM     17  C   UNL     1       4.638  34.281  -1.914  1.00  0.00     0.000 C 
BRANCH  17  18
ATOM     18  C   UNL     1       4.040  35.694  -1.811  1.00  0.00    -0.000 C 
BRANCH  18  19
ATOM     19  C   UNL     1       4.599  36.650  -2.879  1.00  0.00    -0.000 C 
BRANCH  19  20
ATOM     20  C   UNL     1       4.984  38.021  -2.299  1.00  0.00    -0.000 C 
BRANCH  20  21
ATOM     21  C   UNL     1       6.326  37.994  -1.548  1.00  0.00    -0.000 C 
BRANCH  21  22
ATOM     22  C   UNL     1       6.568  39.266  -0.715  1.00  0.00    -0.000 C 
BRANCH  22  23
ATOM     23  C   UNL     1       6.683  39.035   0.805  1.00  0.00    -0.000 C 
BRANCH  23  24
ATOM     24  C   UNL     1       6.861  37.566   1.229  1.00  0.00    -0.000 C 
BRANCH  24  25
ATOM     25  C   UNL     1       5.653  37.020   2.004  1.00  0.00    -0.003 C 
ATOM     26  C   UNL     1       5.368  35.568   1.627  1.00  0.00     0.004 C 
ENDBRANCH  24  25
ENDBRANCH  23  24
ENDBRANCH  22  23
ENDBRANCH  21  22
ENDBRANCH  20  21
ENDBRANCH  19  20
ENDBRANCH  18  19
ENDBRANCH  17  18
ENDBRANCH  16  17
ENDBRANCH  15  16
ENDBRANCH   1  15
TORSDOF 22
ENDMDL
MODEL 4
REMARK VINA RESULT:    -4.114      1.303      2.657
REMARK INTER + INTRA:         -13.725
REMARK INTER:                  -9.380
REMARK INTRA:                  -4.346
REMARK UNBOUND:                -4.320
REMARK SMILES CCCCCCCCCCCCCCCCCCCCCCCC(=O)[O-]
REMARK SMILES IDX 13 1 14 2 15 3 16 4 17 5 18 6 19 7 20 8 21 9 22 10 23 11
REMARK SMILES IDX 24 12 25 13 26 14 12 15 11 16 10 17 9 18 8 19 7 20 6 21 5 22
REMARK SMILES IDX 4 23 3 24 2 25 1 26
REMARK H PARENT
REMARK Flexibility Score: inf
ROOT
ATOM      1  C   UNL     1       5.151  36.770   0.792  1.00  0.00     0.000 C 
ENDROOT
BRANCH   1   2
ATOM      2  C   UNL     1       4.056  35.696   0.943  1.00  0.00     0.000 C 
BRANCH   2   3
ATOM      3  C   UNL     1       2.956  35.761  -0.140  1.00  0.00     0.000 C 
BRANCH   3   4
ATOM      4  C   UNL     1       2.972  34.565  -1.114  1.00  0.00     0.000 C 
BRANCH   4   5
ATOM      5  C   UNL     1       3.862  34.774  -2.354  1.00  0.00     0.000 C 
BRANCH   5   6
ATOM      6  C   UNL     1       5.267  34.169  -2.190  1.00  0.00     0.000 C 
BRANCH   6   7
ATOM      7  C   UNL     1       6.380  35.123  -2.657  1.00  0.00     0.000 C 
BRANCH   7   8
ATOM      8  C   UNL     1       7.568  35.264  -1.685  1.00  0.00     0.000 C 
BRANCH   8   9
ATOM      9  C   UNL     1       7.676  34.108  -0.668  1.00  0.00     0.000 C 
BRANCH   9  10
ATOM     10  C   UNL     1       8.985  34.164   0.143  1.00  0.00     0.006 C 
BRANCH  10  11
ATOM     11  C   UNL     1      10.211  33.814  -0.710  1.00  0.00     0.053 C 
BRANCH  11  12
ATOM     12  C   UNL     1      10.087  32.457  -1.332  1.00  0.00     0.041 C 
ATOM     13  O   UNL     1      10.029  31.430  -0.607  1.00  0.00    -0.550 OA
ATOM     14  O   UNL     1       9.997  32.331  -2.713  1.00  0.00    -0.550 OA
ENDBRANCH  11  12
ENDBRANCH  10  11
ENDBRANCH   9  10
ENDBRANCH   8   9
ENDBRANCH   7   8
ENDBRANCH   6   7
ENDBRANCH   5   6
ENDBRANCH   4   5
ENDBRANCH   3   4
ENDBRANCH   2   3
ENDBRANCH   1   2
BRANCH   1  15
ATOM     15  C   UNL     1       4.939  37.720  -0.403  1.00  0.00     0.000 C 
BRANCH  15  16
ATOM     16  C   UNL     1       6.204  38.517  -0.756  1.00  0.00     0.000 C 
BRANCH  16  17
ATOM     17  C   UNL     1       6.230  39.858  -0.007  1.00  0.00     0.000 C 
BRANCH  17  18
ATOM     18  C   UNL     1       7.476  40.699  -0.331  1.00  0.00    -0.000 C 
BRANCH  18  19
ATOM     19  C   UNL     1       8.265  41.092   0.930  1.00  0.00    -0.000 C 
BRANCH  19  20
ATOM     20  C   UNL     1       7.767  40.362   2.188  1.00  0.00    -0.000 C 
BRANCH  20  21
ATOM     21  C   UNL     1       8.775  39.324   2.711  1.00  0.00    -0.000 C 
BRANCH  21  22
ATOM     22  C   UNL     1       8.626  37.953   2.028  1.00  0.00    -0.000 C 
BRANCH  22  23
ATOM     23  C   UNL     1       9.877  37.465   1.269  1.00  0.00    -0.000 C 
BRANCH  23  24
ATOM     24  C   UNL     1       9.888  37.780  -0.238  1.00  0.00    -0.000 C 
BRANCH  24  25
ATOM     25  C   UNL     1      11.211  38.405  -0.706  1.00  0.00    -0.003 C 
ATOM     26  C   UNL     1      11.017  39.864  -1.111  1.00  0.00     0.004 C 
ENDBRANCH  24  25
ENDBRANCH  23  24
ENDBRANCH  22  23
ENDBRANCH  21  22
ENDBRANCH  20  21
ENDBRANCH  19  20
ENDBRANCH  18  19
ENDBRANCH  17  18
ENDBRANCH  16  17
ENDBRANCH  15  16
ENDBRANCH   1  15
TORSDOF 22
ENDMDL
MODEL 5
REMARK VINA RESULT:    -4.056      2.125      4.275
REMARK INTER + INTRA:         -13.592
REMARK INTER:                  -9.393
REMARK INTRA:                  -4.200
REMARK UNBOUND:                -4.320
REMARK SMILES CCCCCCCCCCCCCCCCCCCCCCCC(=O)[O-]
REMARK SMILES IDX 13 1 14 2 15 3 16 4 17 5 18 6 19 7 20 8 21 9 22 10 23 11
REMARK SMILES IDX 24 12 25 13 26 14 12 15 11 16 10 17 9 18 8 19 7 20 6 21 5 22
REMARK SMILES IDX 4 23 3 24 2 25 1 26
REMARK H PARENT
REMARK Flexibility Score: inf
ROOT
ATOM      1  C   UNL     1       5.782  38.484  -0.744  1.00  0.00     0.000 C 
ENDROOT
BRANCH   1   2
ATOM      2  C   UNL     1       4.835  38.325  -1.950  1.00  0.00     0.000 C 
BRANCH   2   3
ATOM      3  C   UNL     1       5.009  36.996  -2.719  1.00  0.00     0.000 C 
BRANCH   3   4
ATOM      4  C   UNL     1       4.184  35.830  -2.137  1.00  0.00     0.000 C 
BRANCH   4   5
ATOM      5  C   UNL     1       4.990  34.537  -1.913  1.00  0.00     0.000 C 
BRANCH   5   6
ATOM      6  C   UNL     1       6.498  34.724  -2.153  1.00  0.00     0.000 C 
BRANCH   6   7
ATOM      7  C   UNL     1       7.359  34.034  -1.081  1.00  0.00     0.000 C 
BRANCH   7   8
ATOM      8  C   UNL     1       8.505  34.894  -0.512  1.00  0.00     0.000 C 
BRANCH   8   9
ATOM      9  C   UNL     1       8.955  36.028  -1.457  1.00  0.00     0.000 C 
BRANCH   9  10
ATOM     10  C   UNL     1       9.128  37.369  -0.720  1.00  0.00     0.006 C 
BRANCH  10  11
ATOM     11  C   UNL     1      10.537  37.951  -0.896  1.00  0.00     0.053 C 
BRANCH  11  12
ATOM     12  C   UNL     1      11.528  37.293   0.013  1.00  0.00     0.041 C 
ATOM     13  O   UNL     1      12.762  37.414  -0.200  1.00  0.00    -0.550 OA
ATOM     14  O   UNL     1      11.088  36.577   1.120  1.00  0.00    -0.550 OA
ENDBRANCH  11  12
ENDBRANCH  10  11
ENDBRANCH   9  10
ENDBRANCH   8   9
ENDBRANCH   7   8
ENDBRANCH   6   7
ENDBRANCH   5   6
ENDBRANCH   4   5
ENDBRANCH   3   4
ENDBRANCH   2   3
ENDBRANCH   1   2
BRANCH   1  15
ATOM     15  C   UNL     1       5.198  37.967   0.586  1.00  0.00     0.000 C 
BRANCH  15  16
ATOM     16  C   UNL     1       6.014  36.809   1.179  1.00  0.00     0.000 C 
BRANCH  16  17
ATOM     17  C   UNL     1       5.089  35.736   1.770  1.00  0.00     0.000 C 
BRANCH  17  18
ATOM     18  C   UNL     1       3.948  36.329   2.612  1.00  0.00    -0.000 C 
BRANCH  18  19
ATOM     19  C   UNL     1       4.262  36.320   4.119  1.00  0.00    -0.000 C 
BRANCH  19  20
ATOM     20  C   UNL     1       3.501  37.413   4.887  1.00  0.00    -0.000 C 
BRANCH  20  21
ATOM     21  C   UNL     1       4.285  38.733   4.977  1.00  0.00    -0.000 C 
BRANCH  21  22
ATOM     22  C   UNL     1       5.809  38.526   4.909  1.00  0.00    -0.000 C 
BRANCH  22  23
ATOM     23  C   UNL     1       6.532  39.365   3.836  1.00  0.00    -0.000 C 
BRANCH  23  24
ATOM     24  C   UNL     1       7.915  38.836   3.417  1.00  0.00    -0.000 C 
BRANCH  24  25
ATOM     25  C   UNL     1       8.491  39.572   2.198  1.00  0.00    -0.003 C 
ATOM     26  C   UNL     1       9.989  39.817   2.360  1.00  0.00     0.004 C 
ENDBRANCH  24  25
ENDBRANCH  23  24
ENDBRANCH  22  23
ENDBRANCH  21  22
ENDBRANCH  20  21
ENDBRANCH  19  20
ENDBRANCH  18  19
ENDBRANCH  17  18
ENDBRANCH  16  17
ENDBRANCH  15  16
ENDBRANCH   1  15
TORSDOF 22
ENDMDL
MODEL 6
REMARK VINA RESULT:    -4.048      2.489      4.441
REMARK INTER + INTRA:         -13.574
REMARK INTER:                  -9.969
REMARK INTRA:                  -3.606
REMARK UNBOUND:                -4.320
REMARK SMILES CCCCCCCCCCCCCCCCCCCCCCCC(=O)[O-]
REMARK SMILES IDX 13 1 14 2 15 3 16 4 17 5 18 6 19 7 20 8 21 9 22 10 23 11
REMARK SMILES IDX 24 12 25 13 26 14 12 15 11 16 10 17 9 18 8 19 7 20 6 21 5 22
REMARK SMILES IDX 4 23 3 24 2 25 1 26
REMARK H PARENT
REMARK Flexibility Score: inf
ROOT
ATOM      1  C   UNL     1       6.830  34.074  -2.613  1.00  0.00     0.000 C 
ENDROOT
BRANCH   1   2
ATOM      2  C   UNL     1       5.736  33.027  -2.905  1.00  0.00     0.000 C 
BRANCH   2   3
ATOM      3  C   UNL     1       4.306  33.493  -2.553  1.00  0.00     0.000 C 
BRANCH   3   4
ATOM      4  C   UNL     1       4.263  34.628  -1.510  1.00  0.00     0.000 C 
BRANCH   4   5
ATOM      5  C   UNL     1       3.233  35.731  -1.819  1.00  0.00     0.000 C 
BRANCH   5   6
ATOM      6  C   UNL     1       3.833  37.146  -1.753  1.00  0.00     0.000 C 
BRANCH   6   7
ATOM      7  C   UNL     1       5.198  37.243  -2.458  1.00  0.00     0.000 C 
BRANCH   7   8
ATOM      8  C   UNL     1       6.372  37.656  -1.549  1.00  0.00     0.000 C 
BRANCH   8   9
ATOM      9  C   UNL     1       6.008  37.705  -0.050  1.00  0.00     0.000 C 
BRANCH   9  10
ATOM     10  C   UNL     1       6.844  36.720   0.788  1.00  0.00     0.006 C 
BRANCH  10  11
ATOM     11  C   UNL     1       6.003  35.553   1.322  1.00  0.00     0.053 C 
BRANCH  11  12
ATOM     12  C   UNL     1       4.803  36.033   2.079  1.00  0.00     0.041 C 
ATOM     13  O   UNL     1       3.650  35.662   1.739  1.00  0.00    -0.550 OA
ATOM     14  O   UNL     1       4.963  36.860   3.184  1.00  0.00    -0.550 OA
ENDBRANCH  11  12
ENDBRANCH  10  11
ENDBRANCH   9  10
ENDBRANCH   8   9
ENDBRANCH   7   8
ENDBRANCH   6   7
ENDBRANCH   5   6
ENDBRANCH   4   5
ENDBRANCH   3   4
ENDBRANCH   2   3
ENDBRANCH   1   2
BRANCH   1  15
ATOM     15  C   UNL     1       8.021  33.527  -1.800  1.00  0.00     0.000 C 
BRANCH  15  16
ATOM     16  C   UNL     1       8.823  34.639  -1.109  1.00  0.00     0.000 C 
BRANCH  16  17
ATOM     17  C   UNL     1      10.303  34.248  -0.986  1.00  0.00     0.000 C 
BRANCH  17  18
ATOM     18  C   UNL     1      11.218  35.451  -0.707  1.00  0.00    -0.000 C 
BRANCH  18  19
ATOM     19  C   UNL     1      10.479  36.602  -0.001  1.00  0.00    -0.000 C 
BRANCH  19  20
ATOM     20  C   UNL     1      10.175  37.776  -0.946  1.00  0.00    -0.000 C 
BRANCH  20  21
ATOM     21  C   UNL     1      11.233  38.890  -0.869  1.00  0.00    -0.000 C 
BRANCH  21  22
ATOM     22  C   UNL     1      10.616  40.300  -0.892  1.00  0.00    -0.000 C 
BRANCH  22  23
ATOM     23  C   UNL     1       9.505  40.540   0.150  1.00  0.00    -0.000 C 
BRANCH  23  24
ATOM     24  C   UNL     1      10.002  40.895   1.562  1.00  0.00    -0.000 C 
BRANCH  24  25
ATOM     25  C   UNL     1      10.152  39.664   2.468  1.00  0.00    -0.003 C 
ATOM     26  C   UNL     1       8.834  38.903   2.584  1.00  0.00     0.004 C 
ENDBRANCH  24  25
ENDBRANCH  23  24
ENDBRANCH  22  23
ENDBRANCH  21  22
ENDBRANCH  20  21
ENDBRANCH  19  20
ENDBRANCH  18  19
ENDBRANCH  17  18
ENDBRANCH  16  17
ENDBRANCH  15  16
ENDBRANCH   1  15
TORSDOF 22
ENDMDL
MODEL 7
REMARK VINA RESULT:    -4.041      1.780      2.851
REMARK INTER + INTRA:         -13.559
REMARK INTER:                  -9.165
REMARK INTRA:                  -4.394
REMARK UNBOUND:                -4.320
REMARK SMILES CCCCCCCCCCCCCCCCCCCCCCCC(=O)[O-]
REMARK SMILES IDX 13 1 14 2 15 3 16 4 17 5 18 6 19 7 20 8 21 9 22 10 23 11
REMARK SMILES IDX 24 12 25 13 26 14 12 15 11 16 10 17 9 18 8 19 7 20 6 21 5 22
REMARK SMILES IDX 4 23 3 24 2 25 1 26
REMARK H PARENT
REMARK Flexibility Score: inf
ROOT
ATOM      1  C   UNL     1       6.488  36.636   1.361  1.00  0.00     0.000 C 
ENDROOT
BRANCH   1   2
ATOM      2  C   UNL     1       6.132  38.001   0.740  1.00  0.00     0.000 C 
BRANCH   2   3
ATOM      3  C   UNL     1       6.744  38.238  -0.658  1.00  0.00     0.000 C 
BRANCH   3   4
ATOM      4  C   UNL     1       5.715  38.168  -1.806  1.00  0.00     0.000 C 
BRANCH   4   5
ATOM      5  C   UNL     1       4.263  37.955  -1.339  1.00  0.00     0.000 C 
BRANCH   5   6
ATOM      6  C   UNL     1       3.720  36.559  -1.691  1.00  0.00     0.000 C 
BRANCH   6   7
ATOM      7  C   UNL     1       4.733  35.713  -2.482  1.00  0.00     0.000 C 
BRANCH   7   8
ATOM      8  C   UNL     1       5.297  34.495  -1.723  1.00  0.00     0.000 C 
BRANCH   8   9
ATOM      9  C   UNL     1       6.677  34.031  -2.236  1.00  0.00     0.000 C 
BRANCH   9  10
ATOM     10  C   UNL     1       7.837  34.750  -1.523  1.00  0.00     0.006 C 
BRANCH  10  11
ATOM     11  C   UNL     1       8.409  33.922  -0.364  1.00  0.00     0.053 C 
BRANCH  11  12
ATOM     12  C   UNL     1       9.631  33.160  -0.775  1.00  0.00     0.041 C 
ATOM     13  O   UNL     1       9.599  31.904  -0.849  1.00  0.00    -0.550 OA
ATOM     14  O   UNL     1      10.794  33.841  -1.113  1.00  0.00    -0.550 OA
ENDBRANCH  11  12
ENDBRANCH  10  11
ENDBRANCH   9  10
ENDBRANCH   8   9
ENDBRANCH   7   8
ENDBRANCH   6   7
ENDBRANCH   5   6
ENDBRANCH   4   5
ENDBRANCH   3   4
ENDBRANCH   2   3
ENDBRANCH   1   2
BRANCH   1  15
ATOM     15  C   UNL     1       5.268  35.838   1.865  1.00  0.00     0.000 C 
BRANCH  15  16
ATOM     16  C   UNL     1       4.202  36.735   2.509  1.00  0.00     0.000 C 
BRANCH  16  17
ATOM     17  C   UNL     1       3.994  36.361   3.984  1.00  0.00     0.000 C 
BRANCH  17  18
ATOM     18  C   UNL     1       4.707  37.322   4.950  1.00  0.00    -0.000 C 
BRANCH  18  19
ATOM     19  C   UNL     1       4.965  38.704   4.322  1.00  0.00    -0.000 C 
BRANCH  19  20
ATOM     20  C   UNL     1       6.176  39.417   4.944  1.00  0.00    -0.000 C 
BRANCH  20  21
ATOM     21  C   UNL     1       7.114  40.027   3.888  1.00  0.00    -0.000 C 
BRANCH  21  22
ATOM     22  C   UNL     1       8.241  39.066   3.468  1.00  0.00    -0.000 C 
BRANCH  22  23
ATOM     23  C   UNL     1       9.116  39.563   2.299  1.00  0.00    -0.000 C 
BRANCH  23  24
ATOM     24  C   UNL     1      10.372  38.718   2.020  1.00  0.00    -0.000 C 
BRANCH  24  25
ATOM     25  C   UNL     1      10.128  37.612   0.984  1.00  0.00    -0.003 C 
ATOM     26  C   UNL     1      10.316  36.229   1.601  1.00  0.00     0.004 C 
ENDBRANCH  24  25
ENDBRANCH  23  24
ENDBRANCH  22  23
ENDBRANCH  21  22
ENDBRANCH  20  21
ENDBRANCH  19  20
ENDBRANCH  18  19
ENDBRANCH  17  18
ENDBRANCH  16  17
ENDBRANCH  15  16
ENDBRANCH   1  15
TORSDOF 22
ENDMDL
MODEL 8
REMARK VINA RESULT:    -4.031      2.407      6.315
REMARK INTER + INTRA:         -13.536
REMARK INTER:                  -9.758
REMARK INTRA:                  -3.778
REMARK UNBOUND:                -4.320
REMARK SMILES CCCCCCCCCCCCCCCCCCCCCCCC(=O)[O-]
REMARK SMILES IDX 13 1 14 2 15 3 16 4 17 5 18 6 19 7 20 8 21 9 22 10 23 11
REMARK SMILES IDX 24 12 25 13 26 14 12 15 11 16 10 17 9 18 8 19 7 20 6 21 5 22
REMARK SMILES IDX 4 23 3 24 2 25 1 26
REMARK H PARENT
REMARK Flexibility Score: inf
ROOT
ATOM      1  C   UNL     1       5.600  37.673  -0.055  1.00  0.00     0.000 C 
ENDROOT
BRANCH   1   2
ATOM      2  C   UNL     1       6.221  36.487   0.707  1.00  0.00     0.000 C 
BRANCH   2   3
ATOM      3  C   UNL     1       5.195  35.618   1.468  1.00  0.00     0.000 C 
BRANCH   3   4
ATOM      4  C   UNL     1       4.111  36.435   2.200  1.00  0.00     0.000 C 
BRANCH   4   5
ATOM      5  C   UNL     1       4.253  36.441   3.733  1.00  0.00     0.000 C 
BRANCH   5   6
ATOM      6  C   UNL     1       4.263  37.860   4.327  1.00  0.00     0.000 C 
BRANCH   6   7
ATOM      7  C   UNL     1       5.660  38.292   4.806  1.00  0.00     0.000 C 
BRANCH   7   8
ATOM      8  C   UNL     1       6.030  39.757   4.497  1.00  0.00     0.000 C 
BRANCH   8   9
ATOM      9  C   UNL     1       7.053  39.908   3.351  1.00  0.00     0.000 C 
BRANCH   9  10
ATOM     10  C   UNL     1       7.903  38.639   3.155  1.00  0.00     0.006 C 
BRANCH  10  11
ATOM     11  C   UNL     1       8.707  38.675   1.848  1.00  0.00     0.053 C 
BRANCH  11  12
ATOM     12  C   UNL     1      10.139  39.042   2.085  1.00  0.00     0.041 C 
ATOM     13  O   UNL     1      10.427  40.095   2.712  1.00  0.00    -0.550 OA
ATOM     14  O   UNL     1      11.154  38.201   1.648  1.00  0.00    -0.550 OA
ENDBRANCH  11  12
ENDBRANCH  10  11
ENDBRANCH   9  10
ENDBRANCH   8   9
ENDBRANCH   7   8
ENDBRANCH   6   7
ENDBRANCH   5   6
ENDBRANCH   4   5
ENDBRANCH   3   4
ENDBRANCH   2   3
ENDBRANCH   1   2
BRANCH   1  15
ATOM     15  C   UNL     1       6.018  37.755  -1.537  1.00  0.00     0.000 C 
BRANCH  15  16
ATOM     16  C   UNL     1       4.835  37.557  -2.496  1.00  0.00     0.000 C 
BRANCH  16  17
ATOM     17  C   UNL     1       3.651  36.899  -1.772  1.00  0.00     0.000 C 
BRANCH  17  18
ATOM     18  C   UNL     1       3.139  35.638  -2.488  1.00  0.00    -0.000 C 
BRANCH  18  19
ATOM     19  C   UNL     1       3.509  34.345  -1.740  1.00  0.00    -0.000 C 
BRANCH  19  20
ATOM     20  C   UNL     1       4.640  33.567  -2.431  1.00  0.00    -0.000 C 
BRANCH  20  21
ATOM     21  C   UNL     1       6.037  34.098  -2.066  1.00  0.00    -0.000 C 
BRANCH  21  22
ATOM     22  C   UNL     1       7.168  33.337  -2.781  1.00  0.00    -0.000 C 
BRANCH  22  23
ATOM     23  C   UNL     1       8.488  33.241  -1.989  1.00  0.00    -0.000 C 
BRANCH  23  24
ATOM     24  C   UNL     1       8.442  33.838  -0.571  1.00  0.00    -0.000 C 
BRANCH  24  25
ATOM     25  C   UNL     1       9.642  34.747  -0.268  1.00  0.00    -0.003 C 
ATOM     26  C   UNL     1       9.511  36.088  -0.985  1.00  0.00     0.004 C 
ENDBRANCH  24  25
ENDBRANCH  23  24
ENDBRANCH  22  23
ENDBRANCH  21  22
ENDBRANCH  20  21
ENDBRANCH  19  20
ENDBRANCH  18  19
ENDBRANCH  17  18
ENDBRANCH  16  17
ENDBRANCH  15  16
ENDBRANCH   1  15
TORSDOF 22
ENDMDL
MODEL 9
REMARK VINA RESULT:    -3.997      1.869      3.274
REMARK INTER + INTRA:         -13.458
REMARK INTER:                  -9.658
REMARK INTRA:                  -3.799
REMARK UNBOUND:                -4.320
REMARK SMILES CCCCCCCCCCCCCCCCCCCCCCCC(=O)[O-]
REMARK SMILES IDX 13 1 14 2 15 3 16 4 17 5 18 6 19 7 20 8 21 9 22 10 23 11
REMARK SMILES IDX 24 12 25 13 26 14 12 15 11 16 10 17 9 18 8 19 7 20 6 21 5 22
REMARK SMILES IDX 4 23 3 24 2 25 1 26
REMARK H PARENT
REMARK Flexibility Score: inf
ROOT
ATOM      1  C   UNL     1       4.886  36.175   0.728  1.00  0.00     0.000 C 
ENDROOT
BRANCH   1   2
ATOM      2  C   UNL     1       3.581  35.722   0.044  1.00  0.00     0.000 C 
BRANCH   2   3
ATOM      3  C   UNL     1       3.366  36.318  -1.364  1.00  0.00     0.000 C 
BRANCH   3   4
ATOM      4  C   UNL     1       4.148  35.586  -2.474  1.00  0.00     0.000 C 
BRANCH   4   5
ATOM      5  C   UNL     1       4.503  34.125  -2.138  1.00  0.00     0.000 C 
BRANCH   5   6
ATOM      6  C   UNL     1       5.997  33.813  -2.331  1.00  0.00     0.000 C 
BRANCH   6   7
ATOM      7  C   UNL     1       6.833  35.073  -2.616  1.00  0.00     0.000 C 
BRANCH   7   8
ATOM      8  C   UNL     1       7.801  35.481  -1.488  1.00  0.00     0.000 C 
BRANCH   8   9
ATOM      9  C   UNL     1       7.812  34.500  -0.296  1.00  0.00     0.000 C 
BRANCH   9  10
ATOM     10  C   UNL     1       9.207  34.374   0.344  1.00  0.00     0.006 C 
BRANCH  10  11
ATOM     11  C   UNL     1      10.275  33.948  -0.672  1.00  0.00     0.053 C 
BRANCH  11  12
ATOM     12  C   UNL     1      10.068  32.541  -1.140  1.00  0.00     0.041 C 
ATOM     13  O   UNL     1       9.919  31.610  -0.306  1.00  0.00    -0.550 OA
ATOM     14  O   UNL     1      10.000  32.264  -2.500  1.00  0.00    -0.550 OA
ENDBRANCH  11  12
ENDBRANCH  10  11
ENDBRANCH   9  10
ENDBRANCH   8   9
ENDBRANCH   7   8
ENDBRANCH   6   7
ENDBRANCH   5   6
ENDBRANCH   4   5
ENDBRANCH   3   4
ENDBRANCH   2   3
ENDBRANCH   1   2
BRANCH   1  15
ATOM     15  C   UNL     1       4.930  35.895   2.244  1.00  0.00     0.000 C 
BRANCH  15  16
ATOM     16  C   UNL     1       3.951  36.776   3.035  1.00  0.00     0.000 C 
BRANCH  16  17
ATOM     17  C   UNL     1       4.430  36.959   4.483  1.00  0.00     0.000 C 
BRANCH  17  18
ATOM     18  C   UNL     1       4.196  38.382   5.014  1.00  0.00    -0.000 C 
BRANCH  18  19
ATOM     19  C   UNL     1       5.360  39.333   4.682  1.00  0.00    -0.000 C 
BRANCH  19  20
ATOM     20  C   UNL     1       6.724  38.625   4.698  1.00  0.00    -0.000 C 
BRANCH  20  21
ATOM     21  C   UNL     1       7.665  39.120   3.586  1.00  0.00    -0.000 C 
BRANCH  21  22
ATOM     22  C   UNL     1       7.211  38.679   2.182  1.00  0.00    -0.000 C 
BRANCH  22  23
ATOM     23  C   UNL     1       8.236  37.828   1.405  1.00  0.00    -0.000 C 
BRANCH  23  24
ATOM     24  C   UNL     1       9.656  37.816   1.999  1.00  0.00    -0.000 C 
BRANCH  24  25
ATOM     25  C   UNL     1      10.750  37.716   0.926  1.00  0.00    -0.003 C 
ATOM     26  C   UNL     1      10.204  38.086  -0.451  1.00  0.00     0.004 C 
ENDBRANCH  24  25
ENDBRANCH  23  24
ENDBRANCH  22  23
ENDBRANCH  21  22
ENDBRANCH  20  21
ENDBRANCH  19  20
ENDBRANCH  18  19
ENDBRANCH  17  18
ENDBRANCH  16  17
ENDBRANCH  15  16
ENDBRANCH   1  15
TORSDOF 22
ENDMDL
