MODEL 1
REMARK VINA RESULT:     3.497      0.000      0.000
REMARK INTER + INTRA:           7.142
REMARK INTER:                   5.950
REMARK INTRA:                   1.192
REMARK UNBOUND:                 1.192
REMARK SMILES CCCCCCCCCCCCCC(=O)[O-]
REMARK SMILES IDX 8 1 9 2 10 3 11 4 12 5 13 6 14 7 15 8 16 9 7 10 6 11 5 12
REMARK SMILES IDX 4 13 3 14 2 15 1 16
REMARK H PARENT
REMARK Flexibility Score: inf
ROOT
ATOM      1  C   UNL     1       9.315 -29.785 -17.454  1.00  0.00     0.000 C 
ENDROOT
BRANCH   1   2
ATOM      2  C   UNL     1       7.870 -29.628 -16.944  1.00  0.00     0.000 C 
BRANCH   2   3
ATOM      3  C   UNL     1       7.791 -28.965 -15.561  1.00  0.00     0.000 C 
BRANCH   3   4
ATOM      4  C   UNL     1       8.646 -29.727 -14.537  1.00  0.00     0.000 C 
BRANCH   4   5
ATOM      5  C   UNL     1       9.528 -30.805 -15.187  1.00  0.00     0.006 C 
BRANCH   5   6
ATOM      6  C   UNL     1       9.288 -32.200 -14.596  1.00  0.00     0.053 C 
BRANCH   6   7
ATOM      7  C   UNL     1       8.864 -33.154 -15.667  1.00  0.00     0.041 C 
ATOM      8  O   UNL     1       8.120 -34.131 -15.387  1.00  0.00    -0.550 OA
ATOM      9  O   UNL     1       9.329 -32.993 -16.966  1.00  0.00    -0.550 OA
ENDBRANCH   6   7
ENDBRANCH   5   6
ENDBRANCH   4   5
ENDBRANCH   3   4
ENDBRANCH   2   3
ENDBRANCH   1   2
BRANCH   1  10
ATOM     10  C   UNL     1       9.467 -29.811 -18.986  1.00  0.00     0.000 C 
BRANCH  10  11
ATOM     11  C   UNL     1       8.119 -29.809 -19.723  1.00  0.00    -0.000 C 
BRANCH  11  12
ATOM     12  C   UNL     1       7.373 -28.489 -19.500  1.00  0.00    -0.000 C 
BRANCH  12  13
ATOM     13  C   UNL     1       6.299 -28.274 -20.573  1.00  0.00    -0.000 C 
BRANCH  13  14
ATOM     14  C   UNL     1       6.560 -29.161 -21.800  1.00  0.00    -0.000 C 
BRANCH  14  15
ATOM     15  C   UNL     1       6.157 -28.480 -23.117  1.00  0.00    -0.003 C 
ATOM     16  C   UNL     1       5.878 -26.987 -22.949  1.00  0.00     0.004 C 
ENDBRANCH  14  15
ENDBRANCH  13  14
ENDBRANCH  12  13
ENDBRANCH  11  12
ENDBRANCH  10  11
ENDBRANCH   1  10
TORSDOF 12
ENDMDL
MODEL 2
REMARK VINA RESULT:     3.639      1.074      1.607
REMARK INTER + INTRA:           7.385
REMARK INTER:                   6.969
REMARK INTRA:                   0.416
REMARK UNBOUND:                 1.192
REMARK SMILES CCCCCCCCCCCCCC(=O)[O-]
REMARK SMILES IDX 8 1 9 2 10 3 11 4 12 5 13 6 14 7 15 8 16 9 7 10 6 11 5 12
REMARK SMILES IDX 4 13 3 14 2 15 1 16
REMARK H PARENT
REMARK Flexibility Score: inf
ROOT
ATOM      1  C   UNL     1       6.568 -28.723 -16.894  1.00  0.00     0.000 C 
ENDROOT
BRANCH   1   2
ATOM      2  C   UNL     1       8.020 -28.891 -16.410  1.00  0.00     0.000 C 
BRANCH   2   3
ATOM      3  C   UNL     1       8.125 -29.095 -14.891  1.00  0.00     0.000 C 
BRANCH   3   4
ATOM      4  C   UNL     1       8.979 -30.328 -14.561  1.00  0.00     0.000 C 
BRANCH   4   5
ATOM      5  C   UNL     1       9.952 -30.695 -15.693  1.00  0.00     0.006 C 
BRANCH   5   6
ATOM      6  C   UNL     1       9.241 -31.309 -16.907  1.00  0.00     0.053 C 
BRANCH   6   7
ATOM      7  C   UNL     1       9.252 -32.801 -16.817  1.00  0.00     0.041 C 
ATOM      8  O   UNL     1       8.823 -33.378 -15.783  1.00  0.00    -0.550 OA
ATOM      9  O   UNL     1       9.780 -33.557 -17.857  1.00  0.00    -0.550 OA
ENDBRANCH   6   7
ENDBRANCH   5   6
ENDBRANCH   4   5
ENDBRANCH   3   4
ENDBRANCH   2   3
ENDBRANCH   1   2
BRANCH   1  10
ATOM     10  C   UNL     1       6.386 -28.723 -18.423  1.00  0.00     0.000 C 
BRANCH  10  11
ATOM     11  C   UNL     1       7.695 -28.463 -19.184  1.00  0.00    -0.000 C 
BRANCH  11  12
ATOM     12  C   UNL     1       8.026 -29.629 -20.122  1.00  0.00    -0.000 C 
BRANCH  12  13
ATOM     13  C   UNL     1       6.823 -29.987 -21.003  1.00  0.00    -0.000 C 
BRANCH  13  14
ATOM     14  C   UNL     1       6.055 -28.726 -21.425  1.00  0.00    -0.000 C 
BRANCH  14  15
ATOM     15  C   UNL     1       6.504 -28.191 -22.794  1.00  0.00    -0.003 C 
ATOM     16  C   UNL     1       5.893 -26.829 -23.125  1.00  0.00     0.004 C 
ENDBRANCH  14  15
ENDBRANCH  13  14
ENDBRANCH  12  13
ENDBRANCH  11  12
ENDBRANCH  10  11
ENDBRANCH   1  10
TORSDOF 12
ENDMDL
MODEL 3
REMARK VINA RESULT:     4.124      3.247      6.685
REMARK INTER + INTRA:           8.209
REMARK INTER:                   8.705
REMARK INTRA:                  -0.495
REMARK UNBOUND:                 1.192
REMARK SMILES CCCCCCCCCCCCCC(=O)[O-]
REMARK SMILES IDX 8 1 9 2 10 3 11 4 12 5 13 6 14 7 15 8 16 9 7 10 6 11 5 12
REMARK SMILES IDX 4 13 3 14 2 15 1 16
REMARK H PARENT
REMARK Flexibility Score: inf
ROOT
ATOM      1  C   UNL     1       8.130 -28.722 -16.220  1.00  0.00     0.000 C 
ENDROOT
BRANCH   1   2
ATOM      2  C   UNL     1       6.784 -28.489 -16.929  1.00  0.00     0.000 C 
BRANCH   2   3
ATOM      3  C   UNL     1       6.710 -29.158 -18.310  1.00  0.00     0.000 C 
BRANCH   3   4
ATOM      4  C   UNL     1       8.103 -29.252 -18.950  1.00  0.00     0.000 C 
BRANCH   4   5
ATOM      5  C   UNL     1       8.044 -29.537 -20.459  1.00  0.00     0.006 C 
BRANCH   5   6
ATOM      6  C   UNL     1       6.615 -29.486 -21.015  1.00  0.00     0.053 C 
BRANCH   6   7
ATOM      7  C   UNL     1       6.384 -28.198 -21.739  1.00  0.00     0.041 C 
ATOM      8  O   UNL     1       6.034 -27.168 -21.105  1.00  0.00    -0.550 OA
ATOM      9  O   UNL     1       6.506 -28.146 -23.122  1.00  0.00    -0.550 OA
ENDBRANCH   6   7
ENDBRANCH   5   6
ENDBRANCH   4   5
ENDBRANCH   3   4
ENDBRANCH   2   3
ENDBRANCH   1   2
BRANCH   1  10
ATOM     10  C   UNL     1       8.045 -29.516 -14.903  1.00  0.00     0.000 C 
BRANCH  10  11
ATOM     11  C   UNL     1       9.261 -30.427 -14.672  1.00  0.00    -0.000 C 
BRANCH  11  12
ATOM     12  C   UNL     1      10.008 -30.688 -15.984  1.00  0.00    -0.000 C 
BRANCH  12  13
ATOM     13  C   UNL     1       9.186 -31.582 -16.920  1.00  0.00    -0.000 C 
BRANCH  13  14
ATOM     14  C   UNL     1       9.482 -33.067 -16.664  1.00  0.00    -0.000 C 
BRANCH  14  15
ATOM     15  C   UNL     1       8.443 -33.726 -15.743  1.00  0.00    -0.003 C 
ATOM     16  C   UNL     1       8.883 -33.751 -14.279  1.00  0.00     0.004 C 
ENDBRANCH  14  15
ENDBRANCH  13  14
ENDBRANCH  12  13
ENDBRANCH  11  12
ENDBRANCH  10  11
ENDBRANCH   1  10
TORSDOF 12
ENDMDL
MODEL 4
REMARK VINA RESULT:     4.481      2.139      2.896
REMARK INTER + INTRA:           8.817
REMARK INTER:                   5.820
REMARK INTRA:                   2.997
REMARK UNBOUND:                 1.192
REMARK SMILES CCCCCCCCCCCCCC(=O)[O-]
REMARK SMILES IDX 8 1 9 2 10 3 11 4 12 5 13 6 14 7 15 8 16 9 7 10 6 11 5 12
REMARK SMILES IDX 4 13 3 14 2 15 1 16
REMARK H PARENT
REMARK Flexibility Score: inf
ROOT
ATOM      1  C   UNL     1       9.886 -30.456 -17.299  1.00  0.00     0.000 C 
ENDROOT
BRANCH   1   2
ATOM      2  C   UNL     1       9.204 -31.828 -17.454  1.00  0.00     0.000 C 
BRANCH   2   3
ATOM      3  C   UNL     1       9.184 -32.639 -16.149  1.00  0.00     0.000 C 
BRANCH   3   4
ATOM      4  C   UNL     1       9.337 -31.719 -14.929  1.00  0.00     0.000 C 
BRANCH   4   5
ATOM      5  C   UNL     1       9.271 -30.229 -15.298  1.00  0.00     0.006 C 
BRANCH   5   6
ATOM      6  C   UNL     1       8.165 -29.481 -14.543  1.00  0.00     0.053 C 
BRANCH   6   7
ATOM      7  C   UNL     1       7.480 -28.508 -15.449  1.00  0.00     0.041 C 
ATOM      8  O   UNL     1       6.921 -28.909 -16.504  1.00  0.00    -0.550 OA
ATOM      9  O   UNL     1       7.502 -27.150 -15.155  1.00  0.00    -0.550 OA
ENDBRANCH   6   7
ENDBRANCH   5   6
ENDBRANCH   4   5
ENDBRANCH   3   4
ENDBRANCH   2   3
ENDBRANCH   1   2
BRANCH   1  10
ATOM     10  C   UNL     1       9.736 -29.512 -18.506  1.00  0.00     0.000 C 
BRANCH  10  11
ATOM     11  C   UNL     1       8.462 -29.781 -19.322  1.00  0.00    -0.000 C 
BRANCH  11  12
ATOM     12  C   UNL     1       7.303 -28.905 -18.835  1.00  0.00    -0.000 C 
BRANCH  12  13
ATOM     13  C   UNL     1       6.507 -28.335 -20.015  1.00  0.00    -0.000 C 
BRANCH  13  14
ATOM     14  C   UNL     1       6.803 -29.113 -21.306  1.00  0.00    -0.000 C 
BRANCH  14  15
ATOM     15  C   UNL     1       5.931 -28.653 -22.485  1.00  0.00    -0.003 C 
ATOM     16  C   UNL     1       6.387 -27.316 -23.070  1.00  0.00     0.004 C 
ENDBRANCH  14  15
ENDBRANCH  13  14
ENDBRANCH  12  13
ENDBRANCH  11  12
ENDBRANCH  10  11
ENDBRANCH   1  10
TORSDOF 12
ENDMDL
MODEL 5
REMARK VINA RESULT:     4.881      1.088      2.887
REMARK INTER + INTRA:           9.497
REMARK INTER:                   9.061
REMARK INTRA:                   0.435
REMARK UNBOUND:                 1.192
REMARK SMILES CCCCCCCCCCCCCC(=O)[O-]
REMARK SMILES IDX 8 1 9 2 10 3 11 4 12 5 13 6 14 7 15 8 16 9 7 10 6 11 5 12
REMARK SMILES IDX 4 13 3 14 2 15 1 16
REMARK H PARENT
REMARK Flexibility Score: inf
ROOT
ATOM      1  C   UNL     1       6.821 -28.153 -17.897  1.00  0.00     0.000 C 
ENDROOT
BRANCH   1   2
ATOM      2  C   UNL     1       6.950 -29.092 -16.683  1.00  0.00     0.000 C 
BRANCH   2   3
ATOM      3  C   UNL     1       8.260 -28.891 -15.906  1.00  0.00     0.000 C 
BRANCH   3   4
ATOM      4  C   UNL     1       8.229 -29.652 -14.572  1.00  0.00     0.000 C 
BRANCH   4   5
ATOM      5  C   UNL     1       9.215 -30.830 -14.539  1.00  0.00     0.006 C 
BRANCH   5   6
ATOM      6  C   UNL     1       9.659 -31.270 -15.940  1.00  0.00     0.053 C 
BRANCH   6   7
ATOM      7  C   UNL     1       9.232 -32.679 -16.203  1.00  0.00     0.041 C 
ATOM      8  O   UNL     1       9.220 -33.129 -17.379  1.00  0.00    -0.550 OA
ATOM      9  O   UNL     1       8.799 -33.482 -15.155  1.00  0.00    -0.550 OA
ENDBRANCH   6   7
ENDBRANCH   5   6
ENDBRANCH   4   5
ENDBRANCH   3   4
ENDBRANCH   2   3
ENDBRANCH   1   2
BRANCH   1  10
ATOM     10  C   UNL     1       6.229 -28.799 -19.162  1.00  0.00     0.000 C 
BRANCH  10  11
ATOM     11  C   UNL     1       6.337 -27.899 -20.403  1.00  0.00    -0.000 C 
BRANCH  11  12
ATOM     12  C   UNL     1       6.714 -28.716 -21.643  1.00  0.00    -0.000 C 
BRANCH  12  13
ATOM     13  C   UNL     1       7.585 -29.920 -21.267  1.00  0.00    -0.000 C 
BRANCH  13  14
ATOM     14  C   UNL     1       8.869 -29.469 -20.553  1.00  0.00    -0.000 C 
BRANCH  14  15
ATOM     15  C   UNL     1       9.178 -30.312 -19.306  1.00  0.00    -0.003 C 
ATOM     16  C   UNL     1      10.071 -29.580 -18.304  1.00  0.00     0.004 C 
ENDBRANCH  14  15
ENDBRANCH  13  14
ENDBRANCH  12  13
ENDBRANCH  11  12
ENDBRANCH  10  11
ENDBRANCH   1  10
TORSDOF 12
ENDMDL
MODEL 6
REMARK VINA RESULT:     4.948      1.939      2.613
REMARK INTER + INTRA:           9.611
REMARK INTER:                   6.995
REMARK INTRA:                   2.616
REMARK UNBOUND:                 1.192
REMARK SMILES CCCCCCCCCCCCCC(=O)[O-]
REMARK SMILES IDX 8 1 9 2 10 3 11 4 12 5 13 6 14 7 15 8 16 9 7 10 6 11 5 12
REMARK SMILES IDX 4 13 3 14 2 15 1 16
REMARK H PARENT
REMARK Flexibility Score: inf
ROOT
ATOM      1  C   UNL     1       9.895 -30.003 -18.369  1.00  0.00     0.000 C 
ENDROOT
BRANCH   1   2
ATOM      2  C   UNL     1       9.596 -30.712 -17.036  1.00  0.00     0.000 C 
BRANCH   2   3
ATOM      3  C   UNL     1       9.484 -32.237 -17.179  1.00  0.00     0.000 C 
BRANCH   3   4
ATOM      4  C   UNL     1       9.317 -32.906 -15.806  1.00  0.00     0.000 C 
BRANCH   4   5
ATOM      5  C   UNL     1       8.808 -31.933 -14.731  1.00  0.00     0.006 C 
BRANCH   5   6
ATOM      6  C   UNL     1       9.270 -30.490 -14.973  1.00  0.00     0.053 C 
BRANCH   6   7
ATOM      7  C   UNL     1       8.248 -29.524 -14.464  1.00  0.00     0.041 C 
ATOM      8  O   UNL     1       7.797 -29.636 -13.294  1.00  0.00    -0.550 OA
ATOM      9  O   UNL     1       7.756 -28.528 -15.299  1.00  0.00    -0.550 OA
ENDBRANCH   6   7
ENDBRANCH   5   6
ENDBRANCH   4   5
ENDBRANCH   3   4
ENDBRANCH   2   3
ENDBRANCH   1   2
BRANCH   1  10
ATOM     10  C   UNL     1       8.657 -29.634 -19.206  1.00  0.00     0.000 C 
BRANCH  10  11
ATOM     11  C   UNL     1       7.561 -28.941 -18.382  1.00  0.00    -0.000 C 
BRANCH  11  12
ATOM     12  C   UNL     1       6.231 -28.923 -19.143  1.00  0.00    -0.000 C 
BRANCH  12  13
ATOM     13  C   UNL     1       6.346 -28.107 -20.436  1.00  0.00    -0.000 C 
BRANCH  13  14
ATOM     14  C   UNL     1       6.837 -28.983 -21.598  1.00  0.00    -0.000 C 
BRANCH  14  15
ATOM     15  C   UNL     1       6.182 -28.609 -22.937  1.00  0.00    -0.003 C 
ATOM     16  C   UNL     1       6.042 -27.098 -23.125  1.00  0.00     0.004 C 
ENDBRANCH  14  15
ENDBRANCH  13  14
ENDBRANCH  12  13
ENDBRANCH  11  12
ENDBRANCH  10  11
ENDBRANCH   1  10
TORSDOF 12
ENDMDL
MODEL 7
REMARK VINA RESULT:     5.322      3.181      6.170
REMARK INTER + INTRA:          10.248
REMARK INTER:                   8.174
REMARK INTRA:                   2.074
REMARK UNBOUND:                 1.192
REMARK SMILES CCCCCCCCCCCCCC(=O)[O-]
REMARK SMILES IDX 8 1 9 2 10 3 11 4 12 5 13 6 14 7 15 8 16 9 7 10 6 11 5 12
REMARK SMILES IDX 4 13 3 14 2 15 1 16
REMARK H PARENT
REMARK Flexibility Score: inf
ROOT
ATOM      1  C   UNL     1       8.076 -29.237 -15.962  1.00  0.00     0.000 C 
ENDROOT
BRANCH   1   2
ATOM      2  C   UNL     1       7.158 -28.005 -16.054  1.00  0.00     0.000 C 
BRANCH   2   3
ATOM      3  C   UNL     1       6.092 -28.132 -17.153  1.00  0.00     0.000 C 
BRANCH   3   4
ATOM      4  C   UNL     1       6.663 -28.839 -18.391  1.00  0.00     0.000 C 
BRANCH   4   5
ATOM      5  C   UNL     1       6.347 -28.093 -19.697  1.00  0.00     0.006 C 
BRANCH   5   6
ATOM      6  C   UNL     1       6.393 -29.009 -20.928  1.00  0.00     0.053 C 
BRANCH   6   7
ATOM      7  C   UNL     1       6.723 -28.219 -22.154  1.00  0.00     0.041 C 
ATOM      8  O   UNL     1       5.875 -28.096 -23.077  1.00  0.00    -0.550 OA
ATOM      9  O   UNL     1       7.986 -27.657 -22.301  1.00  0.00    -0.550 OA
ENDBRANCH   6   7
ENDBRANCH   5   6
ENDBRANCH   4   5
ENDBRANCH   3   4
ENDBRANCH   2   3
ENDBRANCH   1   2
BRANCH   1  10
ATOM     10  C   UNL     1       8.405 -29.701 -14.531  1.00  0.00     0.000 C 
BRANCH  10  11
ATOM     11  C   UNL     1       9.527 -30.750 -14.482  1.00  0.00    -0.000 C 
BRANCH  11  12
ATOM     12  C   UNL     1       9.024 -32.115 -14.964  1.00  0.00    -0.000 C 
BRANCH  12  13
ATOM     13  C   UNL     1       9.266 -32.293 -16.468  1.00  0.00    -0.000 C 
BRANCH  13  14
ATOM     14  C   UNL     1      10.182 -31.187 -17.013  1.00  0.00    -0.000 C 
BRANCH  14  15
ATOM     15  C   UNL     1       9.407 -30.103 -17.778  1.00  0.00    -0.003 C 
ATOM     16  C   UNL     1       9.429 -30.318 -19.292  1.00  0.00     0.004 C 
ENDBRANCH  14  15
ENDBRANCH  13  14
ENDBRANCH  12  13
ENDBRANCH  11  12
ENDBRANCH  10  11
ENDBRANCH   1  10
TORSDOF 12
ENDMDL
MODEL 8
REMARK VINA RESULT:     5.407      1.731      2.731
REMARK INTER + INTRA:          10.393
REMARK INTER:                   9.733
REMARK INTRA:                   0.659
REMARK UNBOUND:                 1.192
REMARK SMILES CCCCCCCCCCCCCC(=O)[O-]
REMARK SMILES IDX 8 1 9 2 10 3 11 4 12 5 13 6 14 7 15 8 16 9 7 10 6 11 5 12
REMARK SMILES IDX 4 13 3 14 2 15 1 16
REMARK H PARENT
REMARK Flexibility Score: inf
ROOT
ATOM      1  C   UNL     1       7.857 -28.405 -15.704  1.00  0.00     0.000 C 
ENDROOT
BRANCH   1   2
ATOM      2  C   UNL     1       7.785 -29.401 -14.532  1.00  0.00     0.000 C 
BRANCH   2   3
ATOM      3  C   UNL     1       9.069 -30.228 -14.368  1.00  0.00     0.000 C 
BRANCH   3   4
ATOM      4  C   UNL     1       8.865 -31.664 -14.874  1.00  0.00     0.000 C 
BRANCH   4   5
ATOM      5  C   UNL     1       9.477 -31.894 -16.265  1.00  0.00     0.006 C 
BRANCH   5   6
ATOM      6  C   UNL     1      10.501 -30.817 -16.647  1.00  0.00     0.053 C 
BRANCH   6   7
ATOM      7  C   UNL     1      10.047 -30.075 -17.863  1.00  0.00     0.041 C 
ATOM      8  O   UNL     1       9.087 -30.511 -18.551  1.00  0.00    -0.550 OA
ATOM      9  O   UNL     1      10.717 -28.926 -18.267  1.00  0.00    -0.550 OA
ENDBRANCH   6   7
ENDBRANCH   5   6
ENDBRANCH   4   5
ENDBRANCH   3   4
ENDBRANCH   2   3
ENDBRANCH   1   2
BRANCH   1  10
ATOM     10  C   UNL     1       7.320 -28.935 -17.046  1.00  0.00     0.000 C 
BRANCH  10  11
ATOM     11  C   UNL     1       6.151 -28.102 -17.596  1.00  0.00    -0.000 C 
BRANCH  11  12
ATOM     12  C   UNL     1       6.062 -28.222 -19.121  1.00  0.00    -0.000 C 
BRANCH  12  13
ATOM     13  C   UNL     1       7.296 -28.932 -19.692  1.00  0.00    -0.000 C 
BRANCH  13  14
ATOM     14  C   UNL     1       7.106 -29.253 -21.182  1.00  0.00    -0.000 C 
BRANCH  14  15
ATOM     15  C   UNL     1       6.057 -28.352 -21.851  1.00  0.00    -0.003 C 
ATOM     16  C   UNL     1       6.580 -27.678 -23.120  1.00  0.00     0.004 C 
ENDBRANCH  14  15
ENDBRANCH  13  14
ENDBRANCH  12  13
ENDBRANCH  11  12
ENDBRANCH  10  11
ENDBRANCH   1  10
TORSDOF 12
ENDMDL
MODEL 9
REMARK VINA RESULT:     5.786      3.228      6.224
REMARK INTER + INTRA:          11.038
REMARK INTER:                  10.931
REMARK INTRA:                   0.106
REMARK UNBOUND:                 1.192
REMARK SMILES CCCCCCCCCCCCCC(=O)[O-]
REMARK SMILES IDX 8 1 9 2 10 3 11 4 12 5 13 6 14 7 15 8 16 9 7 10 6 11 5 12
REMARK SMILES IDX 4 13 3 14 2 15 1 16
REMARK H PARENT
REMARK Flexibility Score: inf
ROOT
ATOM      1  C   UNL     1       8.100 -29.213 -15.353  1.00  0.00     0.000 C 
ENDROOT
BRANCH   1   2
ATOM      2  C   UNL     1       7.787 -29.316 -16.857  1.00  0.00     0.000 C 
BRANCH   2   3
ATOM      3  C   UNL     1       9.038 -29.552 -17.716  1.00  0.00     0.000 C 
BRANCH   3   4
ATOM      4  C   UNL     1       8.666 -29.703 -19.198  1.00  0.00     0.000 C 
BRANCH   4   5
ATOM      5  C   UNL     1       7.279 -29.125 -19.523  1.00  0.00     0.006 C 
BRANCH   5   6
ATOM      6  C   UNL     1       6.789 -29.516 -20.923  1.00  0.00     0.053 C 
BRANCH   6   7
ATOM      7  C   UNL     1       6.511 -28.293 -21.738  1.00  0.00     0.041 C 
ATOM      8  O   UNL     1       6.256 -27.198 -21.171  1.00  0.00    -0.550 OA
ATOM      9  O   UNL     1       6.485 -28.373 -23.125  1.00  0.00    -0.550 OA
ENDBRANCH   6   7
ENDBRANCH   5   6
ENDBRANCH   4   5
ENDBRANCH   3   4
ENDBRANCH   2   3
ENDBRANCH   1   2
BRANCH   1  10
ATOM     10  C   UNL     1       9.230 -30.134 -14.857  1.00  0.00     0.000 C 
BRANCH  10  11
ATOM     11  C   UNL     1       9.614 -31.216 -15.879  1.00  0.00    -0.000 C 
BRANCH  11  12
ATOM     12  C   UNL     1       9.224 -32.609 -15.375  1.00  0.00    -0.000 C 
BRANCH  12  13
ATOM     13  C   UNL     1       8.907 -33.550 -16.545  1.00  0.00    -0.000 C 
BRANCH  13  14
ATOM     14  C   UNL     1       9.490 -33.010 -17.859  1.00  0.00    -0.000 C 
BRANCH  14  15
ATOM     15  C   UNL     1       9.468 -34.053 -18.987  1.00  0.00    -0.003 C 
ATOM     16  C   UNL     1       9.817 -33.456 -20.351  1.00  0.00     0.004 C 
ENDBRANCH  14  15
ENDBRANCH  13  14
ENDBRANCH  12  13
ENDBRANCH  11  12
ENDBRANCH  10  11
ENDBRANCH   1  10
TORSDOF 12
ENDMDL
