MODEL 1
REMARK VINA RESULT:    -5.084      0.000      0.000
REMARK INTER + INTRA:         -14.449
REMARK INTER:                 -11.624
REMARK INTRA:                  -2.825
REMARK UNBOUND:                -2.825
REMARK SMILES CCCCCCCCCCCCCCCCCCCCCCCC(=O)[O-]
REMARK SMILES IDX 13 1 14 2 15 3 16 4 17 5 18 6 19 7 20 8 21 9 22 10 23 11
REMARK SMILES IDX 24 12 25 13 26 14 12 15 11 16 10 17 9 18 8 19 7 20 6 21 5 22
REMARK SMILES IDX 4 23 3 24 2 25 1 26
REMARK H PARENT
REMARK Flexibility Score: inf
ROOT
ATOM      1  C   UNL     1      27.489  13.164  34.904  1.00  0.00     0.000 C 
ENDROOT
BRANCH   1   2
ATOM      2  C   UNL     1      27.889  13.743  33.536  1.00  0.00     0.000 C 
BRANCH   2   3
ATOM      3  C   UNL     1      28.432  12.680  32.564  1.00  0.00     0.000 C 
BRANCH   3   4
ATOM      4  C   UNL     1      28.788  13.226  31.161  1.00  0.00     0.000 C 
BRANCH   4   5
ATOM      5  C   UNL     1      28.754  12.177  30.031  1.00  0.00     0.000 C 
BRANCH   5   6
ATOM      6  C   UNL     1      27.347  11.602  29.785  1.00  0.00     0.000 C 
BRANCH   6   7
ATOM      7  C   UNL     1      26.279  12.698  29.612  1.00  0.00     0.000 C 
BRANCH   7   8
ATOM      8  C   UNL     1      25.126  12.664  30.640  1.00  0.00     0.000 C 
BRANCH   8   9
ATOM      9  C   UNL     1      25.100  11.427  31.559  1.00  0.00     0.000 C 
BRANCH   9  10
ATOM     10  C   UNL     1      24.055  10.383  31.122  1.00  0.00     0.006 C 
BRANCH  10  11
ATOM     11  C   UNL     1      22.618  10.865  31.366  1.00  0.00     0.053 C 
BRANCH  11  12
ATOM     12  C   UNL     1      21.947  11.276  30.090  1.00  0.00     0.041 C 
ATOM     13  O   UNL     1      22.423  10.918  28.979  1.00  0.00    -0.550 OA
ATOM     14  O   UNL     1      20.795  12.052  30.130  1.00  0.00    -0.550 OA
ENDBRANCH  11  12
ENDBRANCH  10  11
ENDBRANCH   9  10
ENDBRANCH   8   9
ENDBRANCH   7   8
ENDBRANCH   6   7
ENDBRANCH   5   6
ENDBRANCH   4   5
ENDBRANCH   3   4
ENDBRANCH   2   3
ENDBRANCH   1   2
BRANCH   1  15
ATOM     15  C   UNL     1      27.049  11.694  34.823  1.00  0.00     0.000 C 
BRANCH  15  16
ATOM     16  C   UNL     1      25.554  11.506  35.131  1.00  0.00     0.000 C 
BRANCH  16  17
ATOM     17  C   UNL     1      24.971  12.667  35.953  1.00  0.00     0.000 C 
BRANCH  17  18
ATOM     18  C   UNL     1      23.432  12.678  35.961  1.00  0.00    -0.000 C 
BRANCH  18  19
ATOM     19  C   UNL     1      22.845  12.657  34.534  1.00  0.00    -0.000 C 
BRANCH  19  20
ATOM     20  C   UNL     1      21.319  12.450  34.497  1.00  0.00    -0.000 C 
BRANCH  20  21
ATOM     21  C   UNL     1      20.508  13.446  35.344  1.00  0.00    -0.000 C 
BRANCH  21  22
ATOM     22  C   UNL     1      18.991  13.193  35.273  1.00  0.00    -0.000 C 
BRANCH  22  23
ATOM     23  C   UNL     1      18.340  13.076  36.665  1.00  0.00    -0.000 C 
BRANCH  23  24
ATOM     24  C   UNL     1      17.875  11.657  37.057  1.00  0.00    -0.000 C 
BRANCH  24  25
ATOM     25  C   UNL     1      18.174  10.565  36.015  1.00  0.00    -0.003 C 
ATOM     26  C   UNL     1      19.386   9.710  36.383  1.00  0.00     0.004 C 
ENDBRANCH  24  25
ENDBRANCH  23  24
ENDBRANCH  22  23
ENDBRANCH  21  22
ENDBRANCH  20  21
ENDBRANCH  19  20
ENDBRANCH  18  19
ENDBRANCH  17  18
ENDBRANCH  16  17
ENDBRANCH  15  16
ENDBRANCH   1  15
TORSDOF 22
ENDMDL
MODEL 2
REMARK VINA RESULT:    -5.004      1.606      7.420
REMARK INTER + INTRA:         -14.265
REMARK INTER:                 -10.895
REMARK INTRA:                  -3.370
REMARK UNBOUND:                -2.825
REMARK SMILES CCCCCCCCCCCCCCCCCCCCCCCC(=O)[O-]
REMARK SMILES IDX 13 1 14 2 15 3 16 4 17 5 18 6 19 7 20 8 21 9 22 10 23 11
REMARK SMILES IDX 24 12 25 13 26 14 12 15 11 16 10 17 9 18 8 19 7 20 6 21 5 22
REMARK SMILES IDX 4 23 3 24 2 25 1 26
REMARK H PARENT
REMARK Flexibility Score: inf
ROOT
ATOM      1  C   UNL     1      23.697  12.646  35.598  1.00  0.00     0.000 C 
ENDROOT
BRANCH   1   2
ATOM      2  C   UNL     1      22.402  12.832  34.787  1.00  0.00     0.000 C 
BRANCH   2   3
ATOM      3  C   UNL     1      21.128  12.595  35.619  1.00  0.00     0.000 C 
BRANCH   3   4
ATOM      4  C   UNL     1      20.122  13.769  35.586  1.00  0.00     0.000 C 
BRANCH   4   5
ATOM      5  C   UNL     1      18.649  13.353  35.389  1.00  0.00     0.000 C 
BRANCH   5   6
ATOM      6  C   UNL     1      18.467  11.831  35.254  1.00  0.00     0.000 C 
BRANCH   6   7
ATOM      7  C   UNL     1      18.097  11.400  33.823  1.00  0.00     0.000 C 
BRANCH   7   8
ATOM      8  C   UNL     1      18.374  12.451  32.725  1.00  0.00     0.000 C 
BRANCH   8   9
ATOM      9  C   UNL     1      19.629  12.194  31.868  1.00  0.00     0.000 C 
BRANCH   9  10
ATOM     10  C   UNL     1      20.414  10.949  32.321  1.00  0.00     0.006 C 
BRANCH  10  11
ATOM     11  C   UNL     1      21.713  10.762  31.523  1.00  0.00     0.053 C 
BRANCH  11  12
ATOM     12  C   UNL     1      21.720   9.465  30.773  1.00  0.00     0.041 C 
ATOM     13  O   UNL     1      20.634   8.922  30.433  1.00  0.00    -0.550 OA
ATOM     14  O   UNL     1      22.927   8.859  30.447  1.00  0.00    -0.550 OA
ENDBRANCH  11  12
ENDBRANCH  10  11
ENDBRANCH   9  10
ENDBRANCH   8   9
ENDBRANCH   7   8
ENDBRANCH   6   7
ENDBRANCH   5   6
ENDBRANCH   4   5
ENDBRANCH   3   4
ENDBRANCH   2   3
ENDBRANCH   1   2
BRANCH   1  15
ATOM     15  C   UNL     1      24.779  11.878  34.823  1.00  0.00     0.000 C 
BRANCH  15  16
ATOM     16  C   UNL     1      24.675  12.078  33.302  1.00  0.00     0.000 C 
BRANCH  16  17
ATOM     17  C   UNL     1      25.406  10.981  32.511  1.00  0.00     0.000 C 
BRANCH  17  18
ATOM     18  C   UNL     1      25.426  11.251  30.996  1.00  0.00    -0.000 C 
BRANCH  18  19
ATOM     19  C   UNL     1      26.791  10.905  30.364  1.00  0.00    -0.000 C 
BRANCH  19  20
ATOM     20  C   UNL     1      27.354  12.020  29.463  1.00  0.00    -0.000 C 
BRANCH  20  21
ATOM     21  C   UNL     1      27.846  13.272  30.210  1.00  0.00    -0.000 C 
BRANCH  21  22
ATOM     22  C   UNL     1      28.742  12.935  31.416  1.00  0.00    -0.000 C 
BRANCH  22  23
ATOM     23  C   UNL     1      28.174  13.462  32.747  1.00  0.00    -0.000 C 
BRANCH  23  24
ATOM     24  C   UNL     1      28.423  12.558  33.973  1.00  0.00    -0.000 C 
BRANCH  24  25
ATOM     25  C   UNL     1      27.986  13.158  35.322  1.00  0.00    -0.003 C 
ATOM     26  C   UNL     1      27.628  14.640  35.223  1.00  0.00     0.004 C 
ENDBRANCH  24  25
ENDBRANCH  23  24
ENDBRANCH  22  23
ENDBRANCH  21  22
ENDBRANCH  20  21
ENDBRANCH  19  20
ENDBRANCH  18  19
ENDBRANCH  17  18
ENDBRANCH  16  17
ENDBRANCH  15  16
ENDBRANCH   1  15
TORSDOF 22
ENDMDL
MODEL 3
REMARK VINA RESULT:    -4.965      2.748      4.571
REMARK INTER + INTRA:         -14.175
REMARK INTER:                 -11.755
REMARK INTRA:                  -2.421
REMARK UNBOUND:                -2.825
REMARK SMILES CCCCCCCCCCCCCCCCCCCCCCCC(=O)[O-]
REMARK SMILES IDX 13 1 14 2 15 3 16 4 17 5 18 6 19 7 20 8 21 9 22 10 23 11
REMARK SMILES IDX 24 12 25 13 26 14 12 15 11 16 10 17 9 18 8 19 7 20 6 21 5 22
REMARK SMILES IDX 4 23 3 24 2 25 1 26
REMARK H PARENT
REMARK Flexibility Score: inf
ROOT
ATOM      1  C   UNL     1      23.730  11.479  32.576  1.00  0.00     0.000 C 
ENDROOT
BRANCH   1   2
ATOM      2  C   UNL     1      24.581  10.670  31.582  1.00  0.00     0.000 C 
BRANCH   2   3
ATOM      3  C   UNL     1      24.002  10.664  30.155  1.00  0.00     0.000 C 
BRANCH   3   4
ATOM      4  C   UNL     1      24.837  11.466  29.129  1.00  0.00     0.000 C 
BRANCH   4   5
ATOM      5  C   UNL     1      24.878  12.988  29.378  1.00  0.00     0.000 C 
BRANCH   5   6
ATOM      6  C   UNL     1      26.268  13.490  29.809  1.00  0.00     0.000 C 
BRANCH   6   7
ATOM      7  C   UNL     1      27.395  12.502  29.453  1.00  0.00     0.000 C 
BRANCH   7   8
ATOM      8  C   UNL     1      28.371  12.173  30.604  1.00  0.00     0.000 C 
BRANCH   8   9
ATOM      9  C   UNL     1      27.758  12.206  32.018  1.00  0.00     0.000 C 
BRANCH   9  10
ATOM     10  C   UNL     1      28.539  13.117  32.984  1.00  0.00     0.006 C 
BRANCH  10  11
ATOM     11  C   UNL     1      27.628  14.141  33.677  1.00  0.00     0.053 C 
BRANCH  11  12
ATOM     12  C   UNL     1      27.526  13.882  35.150  1.00  0.00     0.041 C 
ATOM     13  O   UNL     1      27.300  14.832  35.947  1.00  0.00    -0.550 OA
ATOM     14  O   UNL     1      27.677  12.590  35.639  1.00  0.00    -0.550 OA
ENDBRANCH  11  12
ENDBRANCH  10  11
ENDBRANCH   9  10
ENDBRANCH   8   9
ENDBRANCH   7   8
ENDBRANCH   6   7
ENDBRANCH   5   6
ENDBRANCH   4   5
ENDBRANCH   3   4
ENDBRANCH   2   3
ENDBRANCH   1   2
BRANCH   1  15
ATOM     15  C   UNL     1      24.516  11.902  33.827  1.00  0.00     0.000 C 
BRANCH  15  16
ATOM     16  C   UNL     1      23.626  12.569  34.889  1.00  0.00     0.000 C 
BRANCH  16  17
ATOM     17  C   UNL     1      22.137  12.554  34.505  1.00  0.00     0.000 C 
BRANCH  17  18
ATOM     18  C   UNL     1      21.206  12.691  35.722  1.00  0.00    -0.000 C 
BRANCH  18  19
ATOM     19  C   UNL     1      20.051  13.681  35.460  1.00  0.00    -0.000 C 
BRANCH  19  20
ATOM     20  C   UNL     1      18.667  13.133  35.854  1.00  0.00    -0.000 C 
BRANCH  20  21
ATOM     21  C   UNL     1      18.565  12.601  37.293  1.00  0.00    -0.000 C 
BRANCH  21  22
ATOM     22  C   UNL     1      17.878  11.225  37.374  1.00  0.00    -0.000 C 
BRANCH  22  23
ATOM     23  C   UNL     1      18.493  10.193  36.410  1.00  0.00    -0.000 C 
BRANCH  23  24
ATOM     24  C   UNL     1      19.329   9.082  37.080  1.00  0.00    -0.000 C 
BRANCH  24  25
ATOM     25  C   UNL     1      19.228   7.700  36.410  1.00  0.00    -0.003 C 
ATOM     26  C   UNL     1      19.368   6.548  37.404  1.00  0.00     0.004 C 
ENDBRANCH  24  25
ENDBRANCH  23  24
ENDBRANCH  22  23
ENDBRANCH  21  22
ENDBRANCH  20  21
ENDBRANCH  19  20
ENDBRANCH  18  19
ENDBRANCH  17  18
ENDBRANCH  16  17
ENDBRANCH  15  16
ENDBRANCH   1  15
TORSDOF 22
ENDMDL
MODEL 4
REMARK VINA RESULT:    -4.875      2.305      4.356
REMARK INTER + INTRA:         -13.970
REMARK INTER:                 -11.225
REMARK INTRA:                  -2.745
REMARK UNBOUND:                -2.825
REMARK SMILES CCCCCCCCCCCCCCCCCCCCCCCC(=O)[O-]
REMARK SMILES IDX 13 1 14 2 15 3 16 4 17 5 18 6 19 7 20 8 21 9 22 10 23 11
REMARK SMILES IDX 24 12 25 13 26 14 12 15 11 16 10 17 9 18 8 19 7 20 6 21 5 22
REMARK SMILES IDX 4 23 3 24 2 25 1 26
REMARK H PARENT
REMARK Flexibility Score: inf
ROOT
ATOM      1  C   UNL     1      24.447  11.709  32.000  1.00  0.00     0.000 C 
ENDROOT
BRANCH   1   2
ATOM      2  C   UNL     1      25.442  10.622  31.559  1.00  0.00     0.000 C 
BRANCH   2   3
ATOM      3  C   UNL     1      26.100  10.920  30.199  1.00  0.00     0.000 C 
BRANCH   3   4
ATOM      4  C   UNL     1      25.834  12.348  29.666  1.00  0.00     0.000 C 
BRANCH   4   5
ATOM      5  C   UNL     1      27.040  13.305  29.751  1.00  0.00     0.000 C 
BRANCH   5   6
ATOM      6  C   UNL     1      28.298  12.637  30.334  1.00  0.00     0.000 C 
BRANCH   6   7
ATOM      7  C   UNL     1      28.781  13.309  31.634  1.00  0.00     0.000 C 
BRANCH   7   8
ATOM      8  C   UNL     1      28.051  12.859  32.919  1.00  0.00     0.000 C 
BRANCH   8   9
ATOM      9  C   UNL     1      27.984  13.913  34.041  1.00  0.00     0.000 C 
BRANCH   9  10
ATOM     10  C   UNL     1      27.384  13.357  35.346  1.00  0.00     0.006 C 
BRANCH  10  11
ATOM     11  C   UNL     1      26.243  12.364  35.080  1.00  0.00     0.053 C 
BRANCH  11  12
ATOM     12  C   UNL     1      24.996  12.742  35.820  1.00  0.00     0.041 C 
ATOM     13  O   UNL     1      23.866  12.410  35.371  1.00  0.00    -0.550 OA
ATOM     14  O   UNL     1      25.084  13.459  37.007  1.00  0.00    -0.550 OA
ENDBRANCH  11  12
ENDBRANCH  10  11
ENDBRANCH   9  10
ENDBRANCH   8   9
ENDBRANCH   7   8
ENDBRANCH   6   7
ENDBRANCH   5   6
ENDBRANCH   4   5
ENDBRANCH   3   4
ENDBRANCH   2   3
ENDBRANCH   1   2
BRANCH   1  15
ATOM     15  C   UNL     1      23.028  11.163  32.223  1.00  0.00     0.000 C 
BRANCH  15  16
ATOM     16  C   UNL     1      22.219  11.064  30.919  1.00  0.00     0.000 C 
BRANCH  16  17
ATOM     17  C   UNL     1      20.761  10.638  31.160  1.00  0.00     0.000 C 
BRANCH  17  18
ATOM     18  C   UNL     1      20.189  11.190  32.478  1.00  0.00    -0.000 C 
BRANCH  18  19
ATOM     19  C   UNL     1      19.651  12.628  32.320  1.00  0.00    -0.000 C 
BRANCH  19  20
ATOM     20  C   UNL     1      19.298  13.307  33.656  1.00  0.00    -0.000 C 
BRANCH  20  21
ATOM     21  C   UNL     1      20.495  13.579  34.582  1.00  0.00    -0.000 C 
BRANCH  21  22
ATOM     22  C   UNL     1      20.428  12.781  35.897  1.00  0.00    -0.000 C 
BRANCH  22  23
ATOM     23  C   UNL     1      18.983  12.499  36.351  1.00  0.00    -0.000 C 
BRANCH  23  24
ATOM     24  C   UNL     1      18.529  11.029  36.225  1.00  0.00    -0.000 C 
BRANCH  24  25
ATOM     25  C   UNL     1      19.656   9.988  36.352  1.00  0.00    -0.003 C 
ATOM     26  C   UNL     1      19.169   8.653  36.913  1.00  0.00     0.004 C 
ENDBRANCH  24  25
ENDBRANCH  23  24
ENDBRANCH  22  23
ENDBRANCH  21  22
ENDBRANCH  20  21
ENDBRANCH  19  20
ENDBRANCH  18  19
ENDBRANCH  17  18
ENDBRANCH  16  17
ENDBRANCH  15  16
ENDBRANCH   1  15
TORSDOF 22
ENDMDL
MODEL 5
REMARK VINA RESULT:    -4.868      2.520      6.017
REMARK INTER + INTRA:         -13.954
REMARK INTER:                 -10.727
REMARK INTRA:                  -3.227
REMARK UNBOUND:                -2.825
REMARK SMILES CCCCCCCCCCCCCCCCCCCCCCCC(=O)[O-]
REMARK SMILES IDX 13 1 14 2 15 3 16 4 17 5 18 6 19 7 20 8 21 9 22 10 23 11
REMARK SMILES IDX 24 12 25 13 26 14 12 15 11 16 10 17 9 18 8 19 7 20 6 21 5 22
REMARK SMILES IDX 4 23 3 24 2 25 1 26
REMARK H PARENT
REMARK Flexibility Score: inf
ROOT
ATOM      1  C   UNL     1      28.374  12.854  32.827  1.00  0.00     0.000 C 
ENDROOT
BRANCH   1   2
ATOM      2  C   UNL     1      27.792  13.951  33.736  1.00  0.00     0.000 C 
BRANCH   2   3
ATOM      3  C   UNL     1      27.084  13.390  34.983  1.00  0.00     0.000 C 
BRANCH   3   4
ATOM      4  C   UNL     1      26.724  11.888  34.886  1.00  0.00     0.000 C 
BRANCH   4   5
ATOM      5  C   UNL     1      25.469  11.472  35.680  1.00  0.00     0.000 C 
BRANCH   5   6
ATOM      6  C   UNL     1      24.508  12.644  35.945  1.00  0.00     0.000 C 
BRANCH   6   7
ATOM      7  C   UNL     1      23.415  12.773  34.867  1.00  0.00     0.000 C 
BRANCH   7   8
ATOM      8  C   UNL     1      21.964  12.628  35.378  1.00  0.00     0.000 C 
BRANCH   8   9
ATOM      9  C   UNL     1      20.871  12.727  34.296  1.00  0.00     0.000 C 
BRANCH   9  10
ATOM     10  C   UNL     1      19.453  12.523  34.861  1.00  0.00     0.006 C 
BRANCH  10  11
ATOM     11  C   UNL     1      19.338  11.231  35.683  1.00  0.00     0.053 C 
BRANCH  11  12
ATOM     12  C   UNL     1      18.491  11.425  36.904  1.00  0.00     0.041 C 
ATOM     13  O   UNL     1      18.210  12.587  37.304  1.00  0.00    -0.550 OA
ATOM     14  O   UNL     1      18.010  10.321  37.598  1.00  0.00    -0.550 OA
ENDBRANCH  11  12
ENDBRANCH  10  11
ENDBRANCH   9  10
ENDBRANCH   8   9
ENDBRANCH   7   8
ENDBRANCH   6   7
ENDBRANCH   5   6
ENDBRANCH   4   5
ENDBRANCH   3   4
ENDBRANCH   2   3
ENDBRANCH   1   2
BRANCH   1  15
ATOM     15  C   UNL     1      28.713  13.366  31.418  1.00  0.00     0.000 C 
BRANCH  15  16
ATOM     16  C   UNL     1      28.731  12.243  30.368  1.00  0.00     0.000 C 
BRANCH  16  17
ATOM     17  C   UNL     1      27.388  11.500  30.276  1.00  0.00     0.000 C 
BRANCH  17  18
ATOM     18  C   UNL     1      26.312  12.305  29.525  1.00  0.00    -0.000 C 
BRANCH  18  19
ATOM     19  C   UNL     1      25.157  12.736  30.454  1.00  0.00    -0.000 C 
BRANCH  19  20
ATOM     20  C   UNL     1      25.049  11.892  31.738  1.00  0.00    -0.000 C 
BRANCH  20  21
ATOM     21  C   UNL     1      23.720  11.138  31.909  1.00  0.00    -0.000 C 
BRANCH  21  22
ATOM     22  C   UNL     1      23.472  10.105  30.795  1.00  0.00    -0.000 C 
BRANCH  22  23
ATOM     23  C   UNL     1      22.219  10.421  29.956  1.00  0.00    -0.000 C 
BRANCH  23  24
ATOM     24  C   UNL     1      21.432  11.674  30.394  1.00  0.00    -0.000 C 
BRANCH  24  25
ATOM     25  C   UNL     1      19.989  11.406  30.859  1.00  0.00    -0.003 C 
ATOM     26  C   UNL     1      19.856  10.112  31.659  1.00  0.00     0.004 C 
ENDBRANCH  24  25
ENDBRANCH  23  24
ENDBRANCH  22  23
ENDBRANCH  21  22
ENDBRANCH  20  21
ENDBRANCH  19  20
ENDBRANCH  18  19
ENDBRANCH  17  18
ENDBRANCH  16  17
ENDBRANCH  15  16
ENDBRANCH   1  15
TORSDOF 22
ENDMDL
MODEL 6
REMARK VINA RESULT:    -4.868      2.476      6.532
REMARK INTER + INTRA:         -13.954
REMARK INTER:                 -11.256
REMARK INTRA:                  -2.698
REMARK UNBOUND:                -2.825
REMARK SMILES CCCCCCCCCCCCCCCCCCCCCCCC(=O)[O-]
REMARK SMILES IDX 13 1 14 2 15 3 16 4 17 5 18 6 19 7 20 8 21 9 22 10 23 11
REMARK SMILES IDX 24 12 25 13 26 14 12 15 11 16 10 17 9 18 8 19 7 20 6 21 5 22
REMARK SMILES IDX 4 23 3 24 2 25 1 26
REMARK H PARENT
REMARK Flexibility Score: inf
ROOT
ATOM      1  C   UNL     1      26.786  13.403  35.591  1.00  0.00     0.000 C 
ENDROOT
BRANCH   1   2
ATOM      2  C   UNL     1      26.559  11.927  35.222  1.00  0.00     0.000 C 
BRANCH   2   3
ATOM      3  C   UNL     1      25.080  11.506  35.291  1.00  0.00     0.000 C 
BRANCH   3   4
ATOM      4  C   UNL     1      24.112  12.652  35.672  1.00  0.00     0.000 C 
BRANCH   4   5
ATOM      5  C   UNL     1      22.816  12.707  34.838  1.00  0.00     0.000 C 
BRANCH   5   6
ATOM      6  C   UNL     1      21.542  12.655  35.702  1.00  0.00     0.000 C 
BRANCH   6   7
ATOM      7  C   UNL     1      20.525  13.750  35.329  1.00  0.00     0.000 C 
BRANCH   7   8
ATOM      8  C   UNL     1      19.043  13.379  35.560  1.00  0.00     0.000 C 
BRANCH   8   9
ATOM      9  C   UNL     1      18.754  12.596  36.855  1.00  0.00     0.000 C 
BRANCH   9  10
ATOM     10  C   UNL     1      18.099  11.228  36.591  1.00  0.00     0.006 C 
BRANCH  10  11
ATOM     11  C   UNL     1      19.102  10.203  36.040  1.00  0.00     0.053 C 
BRANCH  11  12
ATOM     12  C   UNL     1      18.847   8.831  36.585  1.00  0.00     0.041 C 
ATOM     13  O   UNL     1      18.816   8.638  37.830  1.00  0.00    -0.550 OA
ATOM     14  O   UNL     1      18.643   7.766  35.715  1.00  0.00    -0.550 OA
ENDBRANCH  11  12
ENDBRANCH  10  11
ENDBRANCH   9  10
ENDBRANCH   8   9
ENDBRANCH   7   8
ENDBRANCH   6   7
ENDBRANCH   5   6
ENDBRANCH   4   5
ENDBRANCH   3   4
ENDBRANCH   2   3
ENDBRANCH   1   2
BRANCH   1  15
ATOM     15  C   UNL     1      27.985  14.023  34.856  1.00  0.00     0.000 C 
BRANCH  15  16
ATOM     16  C   UNL     1      27.780  14.083  33.333  1.00  0.00     0.000 C 
BRANCH  16  17
ATOM     17  C   UNL     1      28.621  13.036  32.584  1.00  0.00     0.000 C 
BRANCH  17  18
ATOM     18  C   UNL     1      28.417  13.088  31.059  1.00  0.00    -0.000 C 
BRANCH  18  19
ATOM     19  C   UNL     1      27.444  11.997  30.566  1.00  0.00    -0.000 C 
BRANCH  19  20
ATOM     20  C   UNL     1      26.829  11.159  31.703  1.00  0.00    -0.000 C 
BRANCH  20  21
ATOM     21  C   UNL     1      25.485  10.493  31.364  1.00  0.00    -0.000 C 
BRANCH  21  22
ATOM     22  C   UNL     1      24.277  11.406  31.646  1.00  0.00    -0.000 C 
BRANCH  22  23
ATOM     23  C   UNL     1      22.933  10.659  31.568  1.00  0.00    -0.000 C 
BRANCH  23  24
ATOM     24  C   UNL     1      21.677  11.547  31.703  1.00  0.00    -0.000 C 
BRANCH  24  25
ATOM     25  C   UNL     1      20.420  10.820  32.213  1.00  0.00    -0.003 C 
ATOM     26  C   UNL     1      19.217  11.750  32.360  1.00  0.00     0.004 C 
ENDBRANCH  24  25
ENDBRANCH  23  24
ENDBRANCH  22  23
ENDBRANCH  21  22
ENDBRANCH  20  21
ENDBRANCH  19  20
ENDBRANCH  18  19
ENDBRANCH  17  18
ENDBRANCH  16  17
ENDBRANCH  15  16
ENDBRANCH   1  15
TORSDOF 22
ENDMDL
MODEL 7
REMARK VINA RESULT:    -4.818      2.305      5.492
REMARK INTER + INTRA:         -13.839
REMARK INTER:                 -10.503
REMARK INTRA:                  -3.337
REMARK UNBOUND:                -2.825
REMARK SMILES CCCCCCCCCCCCCCCCCCCCCCCC(=O)[O-]
REMARK SMILES IDX 13 1 14 2 15 3 16 4 17 5 18 6 19 7 20 8 21 9 22 10 23 11
REMARK SMILES IDX 24 12 25 13 26 14 12 15 11 16 10 17 9 18 8 19 7 20 6 21 5 22
REMARK SMILES IDX 4 23 3 24 2 25 1 26
REMARK H PARENT
REMARK Flexibility Score: inf
ROOT
ATOM      1  C   UNL     1      23.310  10.409  31.146  1.00  0.00     0.000 C 
ENDROOT
BRANCH   1   2
ATOM      2  C   UNL     1      24.171  11.615  31.561  1.00  0.00     0.000 C 
BRANCH   2   3
ATOM      3  C   UNL     1      24.425  11.683  33.079  1.00  0.00     0.000 C 
BRANCH   3   4
ATOM      4  C   UNL     1      23.241  12.253  33.895  1.00  0.00     0.000 C 
BRANCH   4   5
ATOM      5  C   UNL     1      23.576  12.611  35.357  1.00  0.00     0.000 C 
BRANCH   5   6
ATOM      6  C   UNL     1      25.030  12.281  35.739  1.00  0.00     0.000 C 
BRANCH   6   7
ATOM      7  C   UNL     1      25.857  13.536  36.076  1.00  0.00     0.000 C 
BRANCH   7   8
ATOM      8  C   UNL     1      27.159  13.706  35.261  1.00  0.00     0.000 C 
BRANCH   8   9
ATOM      9  C   UNL     1      27.983  12.419  35.059  1.00  0.00     0.000 C 
BRANCH   9  10
ATOM     10  C   UNL     1      28.320  12.154  33.580  1.00  0.00     0.006 C 
BRANCH  10  11
ATOM     11  C   UNL     1      27.745  13.235  32.652  1.00  0.00     0.053 C 
BRANCH  11  12
ATOM     12  C   UNL     1      28.171  13.028  31.230  1.00  0.00     0.041 C 
ATOM     13  O   UNL     1      29.329  13.360  30.860  1.00  0.00    -0.550 OA
ATOM     14  O   UNL     1      27.288  12.467  30.317  1.00  0.00    -0.550 OA
ENDBRANCH  11  12
ENDBRANCH  10  11
ENDBRANCH   9  10
ENDBRANCH   8   9
ENDBRANCH   7   8
ENDBRANCH   6   7
ENDBRANCH   5   6
ENDBRANCH   4   5
ENDBRANCH   3   4
ENDBRANCH   2   3
ENDBRANCH   1   2
BRANCH   1  15
ATOM     15  C   UNL     1      22.120  10.805  30.257  1.00  0.00     0.000 C 
BRANCH  15  16
ATOM     16  C   UNL     1      20.774  10.318  30.818  1.00  0.00     0.000 C 
BRANCH  16  17
ATOM     17  C   UNL     1      20.389  11.028  32.127  1.00  0.00     0.000 C 
BRANCH  17  18
ATOM     18  C   UNL     1      19.038  11.760  32.033  1.00  0.00    -0.000 C 
BRANCH  18  19
ATOM     19  C   UNL     1      18.018  11.228  33.061  1.00  0.00    -0.000 C 
BRANCH  19  20
ATOM     20  C   UNL     1      18.458   9.922  33.750  1.00  0.00    -0.000 C 
BRANCH  20  21
ATOM     21  C   UNL     1      18.226   9.881  35.270  1.00  0.00    -0.000 C 
BRANCH  21  22
ATOM     22  C   UNL     1      19.532   9.999  36.077  1.00  0.00    -0.000 C 
BRANCH  22  23
ATOM     23  C   UNL     1      20.091  11.434  36.102  1.00  0.00    -0.000 C 
BRANCH  23  24
ATOM     24  C   UNL     1      19.103  12.517  36.584  1.00  0.00    -0.000 C 
BRANCH  24  25
ATOM     25  C   UNL     1      18.956  13.728  35.644  1.00  0.00    -0.003 C 
ATOM     26  C   UNL     1      20.208  13.982  34.806  1.00  0.00     0.004 C 
ENDBRANCH  24  25
ENDBRANCH  23  24
ENDBRANCH  22  23
ENDBRANCH  21  22
ENDBRANCH  20  21
ENDBRANCH  19  20
ENDBRANCH  18  19
ENDBRANCH  17  18
ENDBRANCH  16  17
ENDBRANCH  15  16
ENDBRANCH   1  15
TORSDOF 22
ENDMDL
MODEL 8
REMARK VINA RESULT:    -4.783      2.205      4.647
REMARK INTER + INTRA:         -13.759
REMARK INTER:                 -11.158
REMARK INTRA:                  -2.600
REMARK UNBOUND:                -2.825
REMARK SMILES CCCCCCCCCCCCCCCCCCCCCCCC(=O)[O-]
REMARK SMILES IDX 13 1 14 2 15 3 16 4 17 5 18 6 19 7 20 8 21 9 22 10 23 11
REMARK SMILES IDX 24 12 25 13 26 14 12 15 11 16 10 17 9 18 8 19 7 20 6 21 5 22
REMARK SMILES IDX 4 23 3 24 2 25 1 26
REMARK H PARENT
REMARK Flexibility Score: inf
ROOT
ATOM      1  C   UNL     1      24.142  11.019  32.048  1.00  0.00     0.000 C 
ENDROOT
BRANCH   1   2
ATOM      2  C   UNL     1      24.995  12.284  31.847  1.00  0.00     0.000 C 
BRANCH   2   3
ATOM      3  C   UNL     1      25.014  12.776  30.388  1.00  0.00     0.000 C 
BRANCH   3   4
ATOM      4  C   UNL     1      26.404  13.244  29.896  1.00  0.00     0.000 C 
BRANCH   4   5
ATOM      5  C   UNL     1      27.405  12.106  29.606  1.00  0.00     0.000 C 
BRANCH   5   6
ATOM      6  C   UNL     1      28.720  12.246  30.394  1.00  0.00     0.000 C 
BRANCH   6   7
ATOM      7  C   UNL     1      28.655  13.347  31.469  1.00  0.00     0.000 C 
BRANCH   7   8
ATOM      8  C   UNL     1      28.345  12.855  32.900  1.00  0.00     0.000 C 
BRANCH   8   9
ATOM      9  C   UNL     1      27.926  13.952  33.898  1.00  0.00     0.000 C 
BRANCH   9  10
ATOM     10  C   UNL     1      27.701  13.409  35.321  1.00  0.00     0.006 C 
BRANCH  10  11
ATOM     11  C   UNL     1      26.251  13.594  35.790  1.00  0.00     0.053 C 
BRANCH  11  12
ATOM     12  C   UNL     1      25.415  12.386  35.494  1.00  0.00     0.041 C 
ATOM     13  O   UNL     1      24.159  12.445  35.589  1.00  0.00    -0.550 OA
ATOM     14  O   UNL     1      26.024  11.198  35.111  1.00  0.00    -0.550 OA
ENDBRANCH  11  12
ENDBRANCH  10  11
ENDBRANCH   9  10
ENDBRANCH   8   9
ENDBRANCH   7   8
ENDBRANCH   6   7
ENDBRANCH   5   6
ENDBRANCH   4   5
ENDBRANCH   3   4
ENDBRANCH   2   3
ENDBRANCH   1   2
BRANCH   1  15
ATOM     15  C   UNL     1      22.658  11.334  32.290  1.00  0.00     0.000 C 
BRANCH  15  16
ATOM     16  C   UNL     1      21.728  10.596  31.313  1.00  0.00     0.000 C 
BRANCH  16  17
ATOM     17  C   UNL     1      20.243  10.907  31.563  1.00  0.00     0.000 C 
BRANCH  17  18
ATOM     18  C   UNL     1      19.863  10.839  33.053  1.00  0.00    -0.000 C 
BRANCH  18  19
ATOM     19  C   UNL     1      18.387  10.435  33.257  1.00  0.00    -0.000 C 
BRANCH  19  20
ATOM     20  C   UNL     1      18.139   9.634  34.549  1.00  0.00    -0.000 C 
BRANCH  20  21
ATOM     21  C   UNL     1      18.950  10.103  35.769  1.00  0.00    -0.000 C 
BRANCH  21  22
ATOM     22  C   UNL     1      18.072  10.742  36.861  1.00  0.00    -0.000 C 
BRANCH  22  23
ATOM     23  C   UNL     1      18.525  12.166  37.233  1.00  0.00    -0.000 C 
BRANCH  23  24
ATOM     24  C   UNL     1      17.875  13.300  36.412  1.00  0.00    -0.000 C 
BRANCH  24  25
ATOM     25  C   UNL     1      18.618  13.669  35.115  1.00  0.00    -0.003 C 
ATOM     26  C   UNL     1      20.127  13.793  35.311  1.00  0.00     0.004 C 
ENDBRANCH  24  25
ENDBRANCH  23  24
ENDBRANCH  22  23
ENDBRANCH  21  22
ENDBRANCH  20  21
ENDBRANCH  19  20
ENDBRANCH  18  19
ENDBRANCH  17  18
ENDBRANCH  16  17
ENDBRANCH  15  16
ENDBRANCH   1  15
TORSDOF 22
ENDMDL
MODEL 9
REMARK VINA RESULT:    -4.742      2.087      7.183
REMARK INTER + INTRA:         -13.665
REMARK INTER:                 -10.855
REMARK INTRA:                  -2.810
REMARK UNBOUND:                -2.825
REMARK SMILES CCCCCCCCCCCCCCCCCCCCCCCC(=O)[O-]
REMARK SMILES IDX 13 1 14 2 15 3 16 4 17 5 18 6 19 7 20 8 21 9 22 10 23 11
REMARK SMILES IDX 24 12 25 13 26 14 12 15 11 16 10 17 9 18 8 19 7 20 6 21 5 22
REMARK SMILES IDX 4 23 3 24 2 25 1 26
REMARK H PARENT
REMARK Flexibility Score: inf
ROOT
ATOM      1  C   UNL     1      24.781  11.874  31.881  1.00  0.00     0.000 C 
ENDROOT
BRANCH   1   2
ATOM      2  C   UNL     1      23.336  11.475  32.227  1.00  0.00     0.000 C 
BRANCH   2   3
ATOM      3  C   UNL     1      22.579  10.853  31.040  1.00  0.00     0.000 C 
BRANCH   3   4
ATOM      4  C   UNL     1      21.171  10.319  31.395  1.00  0.00     0.000 C 
BRANCH   4   5
ATOM      5  C   UNL     1      20.426  11.130  32.475  1.00  0.00     0.000 C 
BRANCH   5   6
ATOM      6  C   UNL     1      18.901  10.921  32.440  1.00  0.00     0.000 C 
BRANCH   6   7
ATOM      7  C   UNL     1      18.445   9.718  33.287  1.00  0.00     0.000 C 
BRANCH   7   8
ATOM      8  C   UNL     1      17.998  10.057  34.726  1.00  0.00     0.000 C 
BRANCH   8   9
ATOM      9  C   UNL     1      19.076   9.874  35.812  1.00  0.00     0.000 C 
BRANCH   9  10
ATOM     10  C   UNL     1      19.885  11.160  36.070  1.00  0.00     0.006 C 
BRANCH  10  11
ATOM     11  C   UNL     1      18.984  12.342  36.456  1.00  0.00     0.053 C 
BRANCH  11  12
ATOM     12  C   UNL     1      18.994  13.411  35.406  1.00  0.00     0.041 C 
ATOM     13  O   UNL     1      17.984  13.590  34.672  1.00  0.00    -0.550 OA
ATOM     14  O   UNL     1      20.118  14.211  35.240  1.00  0.00    -0.550 OA
ENDBRANCH  11  12
ENDBRANCH  10  11
ENDBRANCH   9  10
ENDBRANCH   8   9
ENDBRANCH   7   8
ENDBRANCH   6   7
ENDBRANCH   5   6
ENDBRANCH   4   5
ENDBRANCH   3   4
ENDBRANCH   2   3
ENDBRANCH   1   2
BRANCH   1  15
ATOM     15  C   UNL     1      25.672  10.664  31.560  1.00  0.00     0.000 C 
BRANCH  15  16
ATOM     16  C   UNL     1      26.309  10.751  30.164  1.00  0.00     0.000 C 
BRANCH  16  17
ATOM     17  C   UNL     1      26.998  12.103  29.913  1.00  0.00     0.000 C 
BRANCH  17  18
ATOM     18  C   UNL     1      28.527  12.032  30.073  1.00  0.00    -0.000 C 
BRANCH  18  19
ATOM     19  C   UNL     1      29.074  13.191  30.933  1.00  0.00    -0.000 C 
BRANCH  19  20
ATOM     20  C   UNL     1      28.326  13.378  32.266  1.00  0.00    -0.000 C 
BRANCH  20  21
ATOM     21  C   UNL     1      28.581  12.280  33.313  1.00  0.00    -0.000 C 
BRANCH  21  22
ATOM     22  C   UNL     1      28.033  12.643  34.706  1.00  0.00    -0.000 C 
BRANCH  22  23
ATOM     23  C   UNL     1      26.539  13.016  34.681  1.00  0.00    -0.000 C 
BRANCH  23  24
ATOM     24  C   UNL     1      25.596  12.001  35.360  1.00  0.00    -0.000 C 
BRANCH  24  25
ATOM     25  C   UNL     1      24.504  12.622  36.250  1.00  0.00    -0.003 C 
ATOM     26  C   UNL     1      23.143  12.685  35.560  1.00  0.00     0.004 C 
ENDBRANCH  24  25
ENDBRANCH  23  24
ENDBRANCH  22  23
ENDBRANCH  21  22
ENDBRANCH  20  21
ENDBRANCH  19  20
ENDBRANCH  18  19
ENDBRANCH  17  18
ENDBRANCH  16  17
ENDBRANCH  15  16
ENDBRANCH   1  15
TORSDOF 22
ENDMDL
