MODEL 1
REMARK VINA RESULT:    -5.174      0.000      0.000
REMARK INTER + INTRA:          -6.368
REMARK INTER:                  -6.081
REMARK INTRA:                  -0.287
REMARK UNBOUND:                -0.287
REMARK SMILES O=c1c(O)c(-c2ccc(O)cc2)oc2cc(O)cc(O)c12
REMARK SMILES IDX 5 1 3 2 2 3 1 4 21 5 19 6 18 7 16 8 15 9 14 10 13 11 6 12
REMARK SMILES IDX 7 13 8 14 9 15 12 16 11 17 10 18 4 20 20 22 17 24
REMARK H PARENT 10 19 4 21 20 23 17 25
REMARK Flexibility Score: inf
ROOT
ATOM      1  C   UNL     1      75.915  89.732  11.714  1.00  0.00     0.180 A 
ATOM      2  C   UNL     1      76.177  90.946  12.372  1.00  0.00     0.208 A 
ATOM      3  C   UNL     1      75.138  91.878  12.521  1.00  0.00     0.238 A 
ATOM      4  O   UNL     1      75.366  92.939  13.159  1.00  0.00    -0.285 OA
ATOM      5  C   UNL     1      73.855  91.592  11.997  1.00  0.00     0.111 A 
ATOM      6  C   UNL     1      72.739  92.480  12.057  1.00  0.00     0.134 A 
ATOM      7  C   UNL     1      71.482  92.040  11.622  1.00  0.00     0.093 A 
ATOM      8  C   UNL     1      71.315  90.770  11.072  1.00  0.00     0.123 A 
ATOM      9  C   UNL     1      72.411  89.915  10.954  1.00  0.00     0.094 A 
ATOM     10  C   UNL     1      73.669  90.312  11.412  1.00  0.00     0.146 A 
ATOM     11  O   UNL     1      74.684  89.465  11.292  1.00  0.00    -0.452 OA
ENDROOT
BRANCH   1  12
ATOM     12  C   UNL     1      76.965  88.711  11.495  1.00  0.00     0.021 A 
ATOM     13  C   UNL     1      77.252  87.735  12.468  1.00  0.00     0.016 A 
ATOM     14  C   UNL     1      78.265  86.796  12.248  1.00  0.00     0.047 A 
ATOM     15  C   UNL     1      79.011  86.827  11.067  1.00  0.00     0.115 A 
ATOM     16  C   UNL     1      77.732  88.749  10.319  1.00  0.00     0.016 A 
ATOM     17  C   UNL     1      78.744  87.807  10.102  1.00  0.00     0.047 A 
BRANCH  15  18
ATOM     18  O   UNL     1      80.015  85.884  10.861  1.00  0.00    -0.508 OA
ATOM     19  H   UNL     1      79.966  85.213  10.104  1.00  0.00     0.293 HD
ENDBRANCH  15  18
ENDBRANCH   1  12
BRANCH   2  20
ATOM     20  O   UNL     1      77.446  91.198  12.901  1.00  0.00    -0.502 OA
ATOM     21  H   UNL     1      77.588  91.765  13.729  1.00  0.00     0.293 HD
ENDBRANCH   2  20
BRANCH   6  22
ATOM     22  O   UNL     1      72.817  93.802  12.504  1.00  0.00    -0.507 OA
ATOM     23  H   UNL     1      72.100  94.272  13.036  1.00  0.00     0.293 HD
ENDBRANCH   6  22
BRANCH   8  24
ATOM     24  O   UNL     1      70.053  90.372  10.635  1.00  0.00    -0.508 OA
ATOM     25  H   UNL     1      69.648  90.737   9.780  1.00  0.00     0.293 HD
ENDBRANCH   8  24
TORSDOF 5
ENDMDL
MODEL 2
REMARK VINA RESULT:    -4.820      1.991      2.348
REMARK INTER + INTRA:          -5.952
REMARK INTER:                  -5.685
REMARK INTRA:                  -0.267
REMARK UNBOUND:                -0.287
REMARK SMILES O=c1c(O)c(-c2ccc(O)cc2)oc2cc(O)cc(O)c12
REMARK SMILES IDX 5 1 3 2 2 3 1 4 21 5 19 6 18 7 16 8 15 9 14 10 13 11 6 12
REMARK SMILES IDX 7 13 8 14 9 15 12 16 11 17 10 18 4 20 20 22 17 24
REMARK H PARENT 10 19 4 21 20 23 17 25
REMARK Flexibility Score: inf
ROOT
ATOM      1  C   UNL     1      75.897  89.019  12.516  1.00  0.00     0.180 A 
ATOM      2  C   UNL     1      76.170  90.119  11.684  1.00  0.00     0.208 A 
ATOM      3  C   UNL     1      75.102  90.787  11.065  1.00  0.00     0.238 A 
ATOM      4  O   UNL     1      75.350  91.804  10.366  1.00  0.00    -0.285 OA
ATOM      5  C   UNL     1      73.776  90.338  11.273  1.00  0.00     0.111 A 
ATOM      6  C   UNL     1      72.621  90.915  10.664  1.00  0.00     0.134 A 
ATOM      7  C   UNL     1      71.347  90.473  11.043  1.00  0.00     0.093 A 
ATOM      8  C   UNL     1      71.188  89.433  11.958  1.00  0.00     0.123 A 
ATOM      9  C   UNL     1      72.312  88.821  12.514  1.00  0.00     0.094 A 
ATOM     10  C   UNL     1      73.595  89.265  12.183  1.00  0.00     0.146 A 
ATOM     11  O   UNL     1      74.638  88.663  12.743  1.00  0.00    -0.452 OA
ENDROOT
BRANCH   1  12
ATOM     12  C   UNL     1      76.972  88.249  13.182  1.00  0.00     0.021 A 
ATOM     13  C   UNL     1      77.339  88.506  14.516  1.00  0.00     0.016 A 
ATOM     14  C   UNL     1      78.373  87.781  15.116  1.00  0.00     0.047 A 
ATOM     15  C   UNL     1      79.061  86.803  14.392  1.00  0.00     0.115 A 
ATOM     16  C   UNL     1      77.681  87.279  12.454  1.00  0.00     0.016 A 
ATOM     17  C   UNL     1      78.714  86.554  13.058  1.00  0.00     0.047 A 
BRANCH  15  18
ATOM     18  O   UNL     1      80.088  86.088  15.004  1.00  0.00    -0.508 OA
ATOM     19  H   UNL     1      79.995  85.728  15.946  1.00  0.00     0.293 HD
ENDBRANCH  15  18
ENDBRANCH   1  12
BRANCH   2  20
ATOM     20  O   UNL     1      77.486  90.559  11.511  1.00  0.00    -0.502 OA
ATOM     21  H   UNL     1      77.723  91.345  10.918  1.00  0.00     0.293 HD
ENDBRANCH   2  20
BRANCH   6  22
ATOM     22  O   UNL     1      72.670  91.897   9.671  1.00  0.00    -0.507 OA
ATOM     23  H   UNL     1      72.908  92.864   9.830  1.00  0.00     0.293 HD
ENDBRANCH   6  22
BRANCH   8  24
ATOM     24  O   UNL     1      69.906  89.009  12.300  1.00  0.00    -0.508 OA
ATOM     25  H   UNL     1      69.090  89.578  12.107  1.00  0.00     0.293 HD
ENDBRANCH   8  24
TORSDOF 5
ENDMDL
MODEL 3
REMARK VINA RESULT:    -4.792      2.248      3.747
REMARK INTER + INTRA:          -5.919
REMARK INTER:                  -5.631
REMARK INTRA:                  -0.288
REMARK UNBOUND:                -0.287
REMARK SMILES O=c1c(O)c(-c2ccc(O)cc2)oc2cc(O)cc(O)c12
REMARK SMILES IDX 5 1 3 2 2 3 1 4 21 5 19 6 18 7 16 8 15 9 14 10 13 11 6 12
REMARK SMILES IDX 7 13 8 14 9 15 12 16 11 17 10 18 4 20 20 22 17 24
REMARK H PARENT 10 19 4 21 20 23 17 25
REMARK Flexibility Score: inf
ROOT
ATOM      1  C   UNL     1      76.006  88.080  10.252  1.00  0.00     0.180 A 
ATOM      2  C   UNL     1      75.020  87.243  10.801  1.00  0.00     0.208 A 
ATOM      3  C   UNL     1      74.020  87.806  11.609  1.00  0.00     0.238 A 
ATOM      4  O   UNL     1      73.110  87.058  12.053  1.00  0.00    -0.285 OA
ATOM      5  C   UNL     1      74.027  89.197  11.871  1.00  0.00     0.111 A 
ATOM      6  C   UNL     1      73.085  89.867  12.708  1.00  0.00     0.134 A 
ATOM      7  C   UNL     1      73.109  91.266  12.791  1.00  0.00     0.093 A 
ATOM      8  C   UNL     1      74.078  92.010  12.121  1.00  0.00     0.123 A 
ATOM      9  C   UNL     1      75.040  91.361  11.348  1.00  0.00     0.094 A 
ATOM     10  C   UNL     1      75.020  89.970  11.216  1.00  0.00     0.146 A 
ATOM     11  O   UNL     1      75.947  89.391  10.463  1.00  0.00    -0.452 OA
ENDROOT
BRANCH   1  12
ATOM     12  C   UNL     1      77.107  87.557   9.412  1.00  0.00     0.021 A 
ATOM     13  C   UNL     1      76.958  87.405   8.021  1.00  0.00     0.016 A 
ATOM     14  C   UNL     1      78.005  86.886   7.251  1.00  0.00     0.047 A 
ATOM     15  C   UNL     1      79.203  86.501   7.859  1.00  0.00     0.115 A 
ATOM     16  C   UNL     1      78.307  87.149  10.019  1.00  0.00     0.016 A 
ATOM     17  C   UNL     1      79.352  86.632   9.246  1.00  0.00     0.047 A 
BRANCH  15  18
ATOM     18  O   UNL     1      80.237  85.987   7.080  1.00  0.00    -0.508 OA
ATOM     19  H   UNL     1      80.154  85.091   6.614  1.00  0.00     0.293 HD
ENDBRANCH  15  18
ENDBRANCH   1  12
BRANCH   2  20
ATOM     20  O   UNL     1      75.020  85.875  10.511  1.00  0.00    -0.502 OA
ATOM     21  H   UNL     1      74.361  85.456   9.865  1.00  0.00     0.293 HD
ENDBRANCH   2  20
BRANCH   6  22
ATOM     22  O   UNL     1      72.132  89.212  13.493  1.00  0.00    -0.507 OA
ATOM     23  H   UNL     1      71.991  88.214  13.512  1.00  0.00     0.293 HD
ENDBRANCH   6  22
BRANCH   8  24
ATOM     24  O   UNL     1      74.081  93.399  12.240  1.00  0.00    -0.508 OA
ATOM     25  H   UNL     1      74.914  93.945  12.049  1.00  0.00     0.293 HD
ENDBRANCH   8  24
TORSDOF 5
ENDMDL
MODEL 4
REMARK VINA RESULT:    -4.633      2.482      7.101
REMARK INTER + INTRA:          -5.733
REMARK INTER:                  -5.442
REMARK INTRA:                  -0.290
REMARK UNBOUND:                -0.287
REMARK SMILES O=c1c(O)c(-c2ccc(O)cc2)oc2cc(O)cc(O)c12
REMARK SMILES IDX 5 1 3 2 2 3 1 4 21 5 19 6 18 7 16 8 15 9 14 10 13 11 6 12
REMARK SMILES IDX 7 13 8 14 9 15 12 16 11 17 10 18 4 20 20 22 17 24
REMARK H PARENT 10 19 4 21 20 23 17 25
REMARK Flexibility Score: inf
ROOT
ATOM      1  C   UNL     1      76.507  88.145  10.537  1.00  0.00     0.180 A 
ATOM      2  C   UNL     1      77.607  87.816  11.348  1.00  0.00     0.208 A 
ATOM      3  C   UNL     1      78.751  87.262  10.752  1.00  0.00     0.238 A 
ATOM      4  O   UNL     1      79.752  87.021  11.477  1.00  0.00    -0.285 OA
ATOM      5  C   UNL     1      78.777  87.031   9.356  1.00  0.00     0.111 A 
ATOM      6  C   UNL     1      79.869  86.439   8.653  1.00  0.00     0.134 A 
ATOM      7  C   UNL     1      79.837  86.378   7.254  1.00  0.00     0.093 A 
ATOM      8  C   UNL     1      78.728  86.827   6.539  1.00  0.00     0.123 A 
ATOM      9  C   UNL     1      77.630  87.353   7.219  1.00  0.00     0.094 A 
ATOM     10  C   UNL     1      77.647  87.461   8.612  1.00  0.00     0.146 A 
ATOM     11  O   UNL     1      76.586  87.977   9.221  1.00  0.00    -0.452 OA
ENDROOT
BRANCH   1  12
ATOM     12  C   UNL     1      75.256  88.708  11.094  1.00  0.00     0.021 A 
ATOM     13  C   UNL     1      74.257  87.879  11.636  1.00  0.00     0.016 A 
ATOM     14  C   UNL     1      73.074  88.432  12.135  1.00  0.00     0.047 A 
ATOM     15  C   UNL     1      72.867  89.814  12.087  1.00  0.00     0.115 A 
ATOM     16  C   UNL     1      75.033  90.094  11.031  1.00  0.00     0.016 A 
ATOM     17  C   UNL     1      73.849  90.644  11.532  1.00  0.00     0.047 A 
BRANCH  15  18
ATOM     18  O   UNL     1      71.684  90.351  12.589  1.00  0.00    -0.508 OA
ATOM     19  H   UNL     1      71.576  90.571  13.572  1.00  0.00     0.293 HD
ENDBRANCH  15  18
ENDBRANCH   1  12
BRANCH   2  20
ATOM     20  O   UNL     1      77.569  88.074  12.721  1.00  0.00    -0.502 OA
ATOM     21  H   UNL     1      78.329  87.825  13.343  1.00  0.00     0.293 HD
ENDBRANCH   2  20
BRANCH   6  22
ATOM     22  O   UNL     1      80.985  85.875   9.277  1.00  0.00    -0.507 OA
ATOM     23  H   UNL     1      81.770  86.399   9.633  1.00  0.00     0.293 HD
ENDBRANCH   6  22
BRANCH   8  24
ATOM     24  O   UNL     1      78.725  86.736   5.148  1.00  0.00    -0.508 OA
ATOM     25  H   UNL     1      79.295  86.054   4.660  1.00  0.00     0.293 HD
ENDBRANCH   8  24
TORSDOF 5
ENDMDL
MODEL 5
REMARK VINA RESULT:    -4.616     10.035     14.258
REMARK INTER + INTRA:          -5.713
REMARK INTER:                  -5.618
REMARK INTRA:                  -0.095
REMARK UNBOUND:                -0.287
REMARK SMILES O=c1c(O)c(-c2ccc(O)cc2)oc2cc(O)cc(O)c12
REMARK SMILES IDX 5 1 3 2 2 3 1 4 21 5 19 6 18 7 16 8 15 9 14 10 13 11 6 12
REMARK SMILES IDX 7 13 8 14 9 15 12 16 11 17 10 18 4 20 20 22 17 24
REMARK H PARENT 10 19 4 21 20 23 17 25
REMARK Flexibility Score: inf
ROOT
ATOM      1  C   UNL     1      68.077 100.670   7.368  1.00  0.00     0.180 A 
ATOM      2  C   UNL     1      68.634 101.463   8.384  1.00  0.00     0.208 A 
ATOM      3  C   UNL     1      69.376 100.844   9.402  1.00  0.00     0.238 A 
ATOM      4  O   UNL     1      69.919 101.565  10.280  1.00  0.00    -0.285 OA
ATOM      5  C   UNL     1      69.539  99.437   9.399  1.00  0.00     0.111 A 
ATOM      6  C   UNL     1      70.237  98.700  10.401  1.00  0.00     0.134 A 
ATOM      7  C   UNL     1      70.447  97.326  10.228  1.00  0.00     0.093 A 
ATOM      8  C   UNL     1      69.929  96.653   9.123  1.00  0.00     0.123 A 
ATOM      9  C   UNL     1      69.193  97.353   8.166  1.00  0.00     0.094 A 
ATOM     10  C   UNL     1      68.998  98.730   8.293  1.00  0.00     0.146 A 
ATOM     11  O   UNL     1      68.301  99.361   7.356  1.00  0.00    -0.452 OA
ENDROOT
BRANCH   1  12
ATOM     12  C   UNL     1      67.260 101.248   6.275  1.00  0.00     0.021 A 
ATOM     13  C   UNL     1      67.799 102.186   5.375  1.00  0.00     0.016 A 
ATOM     14  C   UNL     1      67.001 102.735   4.366  1.00  0.00     0.047 A 
ATOM     15  C   UNL     1      65.657 102.368   4.252  1.00  0.00     0.115 A 
ATOM     16  C   UNL     1      65.903 100.899   6.167  1.00  0.00     0.016 A 
ATOM     17  C   UNL     1      65.109 101.449   5.156  1.00  0.00     0.047 A 
BRANCH  15  18
ATOM     18  O   UNL     1      64.875 102.923   3.241  1.00  0.00    -0.508 OA
ATOM     19  H   UNL     1      64.743 102.452   2.354  1.00  0.00     0.293 HD
ENDBRANCH  15  18
ENDBRANCH   1  12
BRANCH   2  20
ATOM     20  O   UNL     1      68.481 102.853   8.356  1.00  0.00    -0.502 OA
ATOM     21  H   UNL     1      68.544 103.390   7.500  1.00  0.00     0.293 HD
ENDBRANCH   2  20
BRANCH   6  22
ATOM     22  O   UNL     1      70.717  99.259  11.590  1.00  0.00    -0.507 OA
ATOM     23  H   UNL     1      71.366  98.807  12.216  1.00  0.00     0.293 HD
ENDBRANCH   6  22
BRANCH   8  24
ATOM     24  O   UNL     1      70.144  95.282   8.990  1.00  0.00    -0.508 OA
ATOM     25  H   UNL     1      70.092  94.822   8.089  1.00  0.00     0.293 HD
ENDBRANCH   8  24
TORSDOF 5
ENDMDL
MODEL 6
REMARK VINA RESULT:    -4.529      1.845      6.662
REMARK INTER + INTRA:          -5.610
REMARK INTER:                  -5.388
REMARK INTRA:                  -0.222
REMARK UNBOUND:                -0.287
REMARK SMILES O=c1c(O)c(-c2ccc(O)cc2)oc2cc(O)cc(O)c12
REMARK SMILES IDX 5 1 3 2 2 3 1 4 21 5 19 6 18 7 16 8 15 9 14 10 13 11 6 12
REMARK SMILES IDX 7 13 8 14 9 15 12 16 11 17 10 18 4 20 20 22 17 24
REMARK H PARENT 10 19 4 21 20 23 17 25
REMARK Flexibility Score: inf
ROOT
ATOM      1  C   UNL     1      74.656  89.359  11.487  1.00  0.00     0.180 A 
ATOM      2  C   UNL     1      75.329  89.200  12.710  1.00  0.00     0.208 A 
ATOM      3  C   UNL     1      76.578  88.559  12.723  1.00  0.00     0.238 A 
ATOM      4  O   UNL     1      77.199  88.469  13.814  1.00  0.00    -0.285 OA
ATOM      5  C   UNL     1      77.132  88.073  11.515  1.00  0.00     0.111 A 
ATOM      6  C   UNL     1      78.372  87.373  11.417  1.00  0.00     0.134 A 
ATOM      7  C   UNL     1      78.886  87.053  10.153  1.00  0.00     0.093 A 
ATOM      8  C   UNL     1      78.175  87.347   8.991  1.00  0.00     0.123 A 
ATOM      9  C   UNL     1      76.933  87.977   9.079  1.00  0.00     0.094 A 
ATOM     10  C   UNL     1      76.412  88.342  10.322  1.00  0.00     0.146 A 
ATOM     11  O   UNL     1      75.232  88.950  10.362  1.00  0.00    -0.452 OA
ENDROOT
BRANCH   1  12
ATOM     12  C   UNL     1      73.325  90.000  11.396  1.00  0.00     0.021 A 
ATOM     13  C   UNL     1      72.168  89.357  11.874  1.00  0.00     0.016 A 
ATOM     14  C   UNL     1      70.918  89.974  11.755  1.00  0.00     0.047 A 
ATOM     15  C   UNL     1      70.804  91.228  11.149  1.00  0.00     0.115 A 
ATOM     16  C   UNL     1      73.201  91.252  10.770  1.00  0.00     0.016 A 
ATOM     17  C   UNL     1      71.949  91.865  10.654  1.00  0.00     0.047 A 
BRANCH  15  18
ATOM     18  O   UNL     1      69.553  91.829  11.039  1.00  0.00    -0.508 OA
ATOM     19  H   UNL     1      69.103  91.956  10.141  1.00  0.00     0.293 HD
ENDBRANCH  15  18
ENDBRANCH   1  12
BRANCH   2  20
ATOM     20  O   UNL     1      74.774  89.708  13.888  1.00  0.00    -0.502 OA
ATOM     21  H   UNL     1      73.809  89.545  14.150  1.00  0.00     0.293 HD
ENDBRANCH   2  20
BRANCH   6  22
ATOM     22  O   UNL     1      79.119  86.949  12.519  1.00  0.00    -0.507 OA
ATOM     23  H   UNL     1      79.708  87.548  13.079  1.00  0.00     0.293 HD
ENDBRANCH   6  22
BRANCH   8  24
ATOM     24  O   UNL     1      78.709  86.999   7.752  1.00  0.00    -0.508 OA
ATOM     25  H   UNL     1      78.118  86.856   6.941  1.00  0.00     0.293 HD
ENDBRANCH   8  24
TORSDOF 5
ENDMDL
MODEL 7
REMARK VINA RESULT:    -4.516      3.095      8.627
REMARK INTER + INTRA:          -5.595
REMARK INTER:                  -5.332
REMARK INTRA:                  -0.263
REMARK UNBOUND:                -0.287
REMARK SMILES O=c1c(O)c(-c2ccc(O)cc2)oc2cc(O)cc(O)c12
REMARK SMILES IDX 5 1 3 2 2 3 1 4 21 5 19 6 18 7 16 8 15 9 14 10 13 11 6 12
REMARK SMILES IDX 7 13 8 14 9 15 12 16 11 17 10 18 4 20 20 22 17 24
REMARK H PARENT 10 19 4 21 20 23 17 25
REMARK Flexibility Score: inf
ROOT
ATOM      1  C   UNL     1      71.181  93.739  12.017  1.00  0.00     0.180 A 
ATOM      2  C   UNL     1      70.823  92.655  11.198  1.00  0.00     0.208 A 
ATOM      3  C   UNL     1      71.732  91.598  11.033  1.00  0.00     0.238 A 
ATOM      4  O   UNL     1      71.384  90.605  10.341  1.00  0.00    -0.285 OA
ATOM      5  C   UNL     1      72.992  91.645  11.676  1.00  0.00     0.111 A 
ATOM      6  C   UNL     1      74.005  90.647  11.547  1.00  0.00     0.134 A 
ATOM      7  C   UNL     1      75.162  90.733  12.333  1.00  0.00     0.093 A 
ATOM      8  C   UNL     1      75.370  91.810  13.192  1.00  0.00     0.123 A 
ATOM      9  C   UNL     1      74.413  92.822  13.282  1.00  0.00     0.094 A 
ATOM     10  C   UNL     1      73.233  92.746  12.538  1.00  0.00     0.146 A 
ATOM     11  O   UNL     1      72.343  93.723  12.660  1.00  0.00    -0.452 OA
ENDROOT
BRANCH   1  12
ATOM     12  C   UNL     1      70.287  94.902  12.220  1.00  0.00     0.021 A 
ATOM     13  C   UNL     1      70.163  95.909  11.245  1.00  0.00     0.016 A 
ATOM     14  C   UNL     1      69.330  97.011  11.470  1.00  0.00     0.047 A 
ATOM     15  C   UNL     1      68.625  97.128  12.671  1.00  0.00     0.115 A 
ATOM     16  C   UNL     1      69.590  95.037  13.433  1.00  0.00     0.016 A 
ATOM     17  C   UNL     1      68.758  96.139  13.654  1.00  0.00     0.047 A 
BRANCH  15  18
ATOM     18  O   UNL     1      67.799  98.230  12.880  1.00  0.00    -0.508 OA
ATOM     19  H   UNL     1      67.646  98.923  12.157  1.00  0.00     0.293 HD
ENDBRANCH  15  18
ENDBRANCH   1  12
BRANCH   2  20
ATOM     20  O   UNL     1      69.565  92.618  10.590  1.00  0.00    -0.502 OA
ATOM     21  H   UNL     1      68.993  93.446  10.473  1.00  0.00     0.293 HD
ENDBRANCH   2  20
BRANCH   6  22
ATOM     22  O   UNL     1      73.938  89.578  10.650  1.00  0.00    -0.507 OA
ATOM     23  H   UNL     1      74.367  88.676  10.798  1.00  0.00     0.293 HD
ENDBRANCH   6  22
BRANCH   8  24
ATOM     24  O   UNL     1      76.540  91.870  13.947  1.00  0.00    -0.508 OA
ATOM     25  H   UNL     1      77.383  92.301  13.584  1.00  0.00     0.293 HD
ENDBRANCH   8  24
TORSDOF 5
ENDMDL
MODEL 8
REMARK VINA RESULT:    -4.475      3.366      5.221
REMARK INTER + INTRA:          -5.547
REMARK INTER:                  -5.389
REMARK INTRA:                  -0.158
REMARK UNBOUND:                -0.287
REMARK SMILES O=c1c(O)c(-c2ccc(O)cc2)oc2cc(O)cc(O)c12
REMARK SMILES IDX 5 1 3 2 2 3 1 4 21 5 19 6 18 7 16 8 15 9 14 10 13 11 6 12
REMARK SMILES IDX 7 13 8 14 9 15 12 16 11 17 10 18 4 20 20 22 17 24
REMARK H PARENT 10 19 4 21 20 23 17 25
REMARK Flexibility Score: inf
ROOT
ATOM      1  C   UNL     1      72.134  93.100  12.569  1.00  0.00     0.180 A 
ATOM      2  C   UNL     1      71.798  94.415  12.933  1.00  0.00     0.208 A 
ATOM      3  C   UNL     1      70.497  94.879  12.685  1.00  0.00     0.238 A 
ATOM      4  O   UNL     1      70.187  96.040  13.063  1.00  0.00    -0.285 OA
ATOM      5  C   UNL     1      69.552  94.028  12.063  1.00  0.00     0.111 A 
ATOM      6  C   UNL     1      68.217  94.407  11.729  1.00  0.00     0.134 A 
ATOM      7  C   UNL     1      67.329  93.443  11.235  1.00  0.00     0.093 A 
ATOM      8  C   UNL     1      67.745  92.133  11.002  1.00  0.00     0.123 A 
ATOM      9  C   UNL     1      69.064  91.767  11.269  1.00  0.00     0.094 A 
ATOM     10  C   UNL     1      69.963  92.696  11.797  1.00  0.00     0.146 A 
ATOM     11  O   UNL     1      71.207  92.305  12.047  1.00  0.00    -0.452 OA
ENDROOT
BRANCH   1  12
ATOM     12  C   UNL     1      73.493  92.547  12.775  1.00  0.00     0.021 A 
ATOM     13  C   UNL     1      74.004  92.321  14.065  1.00  0.00     0.016 A 
ATOM     14  C   UNL     1      75.299  91.821  14.234  1.00  0.00     0.047 A 
ATOM     15  C   UNL     1      76.103  91.554  13.122  1.00  0.00     0.115 A 
ATOM     16  C   UNL     1      74.313  92.296  11.661  1.00  0.00     0.016 A 
ATOM     17  C   UNL     1      75.607  91.795  11.834  1.00  0.00     0.047 A 
BRANCH  15  18
ATOM     18  O   UNL     1      77.390  91.055  13.305  1.00  0.00    -0.508 OA
ATOM     19  H   UNL     1      77.562  90.064  13.425  1.00  0.00     0.293 HD
ENDBRANCH  15  18
ENDBRANCH   1  12
BRANCH   2  20
ATOM     20  O   UNL     1      72.740  95.231  13.567  1.00  0.00    -0.502 OA
ATOM     21  H   UNL     1      73.664  94.901  13.818  1.00  0.00     0.293 HD
ENDBRANCH   2  20
BRANCH   6  22
ATOM     22  O   UNL     1      67.726  95.712  11.836  1.00  0.00    -0.507 OA
ATOM     23  H   UNL     1      67.066  96.022  12.533  1.00  0.00     0.293 HD
ENDBRANCH   6  22
BRANCH   8  24
ATOM     24  O   UNL     1      66.838  91.205  10.495  1.00  0.00    -0.508 OA
ATOM     25  H   UNL     1      65.854  91.426  10.392  1.00  0.00     0.293 HD
ENDBRANCH   8  24
TORSDOF 5
ENDMDL
MODEL 9
REMARK VINA RESULT:    -4.372      3.381      8.595
REMARK INTER + INTRA:          -5.426
REMARK INTER:                  -5.139
REMARK INTRA:                  -0.287
REMARK UNBOUND:                -0.287
REMARK SMILES O=c1c(O)c(-c2ccc(O)cc2)oc2cc(O)cc(O)c12
REMARK SMILES IDX 5 1 3 2 2 3 1 4 21 5 19 6 18 7 16 8 15 9 14 10 13 11 6 12
REMARK SMILES IDX 7 13 8 14 9 15 12 16 11 17 10 18 4 20 20 22 17 24
REMARK H PARENT 10 19 4 21 20 23 17 25
REMARK Flexibility Score: inf
ROOT
ATOM      1  C   UNL     1      77.899  86.884   9.201  1.00  0.00     0.180 A 
ATOM      2  C   UNL     1      77.782  86.535   7.845  1.00  0.00     0.208 A 
ATOM      3  C   UNL     1      78.943  86.239   7.114  1.00  0.00     0.238 A 
ATOM      4  O   UNL     1      78.826  85.875   5.915  1.00  0.00    -0.285 OA
ATOM      5  C   UNL     1      80.209  86.310   7.745  1.00  0.00     0.111 A 
ATOM      6  C   UNL     1      81.454  86.069   7.090  1.00  0.00     0.134 A 
ATOM      7  C   UNL     1      82.635  86.038   7.843  1.00  0.00     0.093 A 
ATOM      8  C   UNL     1      82.623  86.304   9.211  1.00  0.00     0.123 A 
ATOM      9  C   UNL     1      81.419  86.600   9.850  1.00  0.00     0.094 A 
ATOM     10  C   UNL     1      80.220  86.601   9.133  1.00  0.00     0.146 A 
ATOM     11  O   UNL     1      79.094  86.877   9.781  1.00  0.00    -0.452 OA
ENDROOT
BRANCH   1  12
ATOM     12  C   UNL     1      76.723  87.234  10.030  1.00  0.00     0.021 A 
ATOM     13  C   UNL     1      75.978  86.246  10.700  1.00  0.00     0.016 A 
ATOM     14  C   UNL     1      74.857  86.600  11.457  1.00  0.00     0.047 A 
ATOM     15  C   UNL     1      74.458  87.937  11.546  1.00  0.00     0.115 A 
ATOM     16  C   UNL     1      76.306  88.574  10.107  1.00  0.00     0.016 A 
ATOM     17  C   UNL     1      75.184  88.924  10.867  1.00  0.00     0.047 A 
BRANCH  15  18
ATOM     18  O   UNL     1      73.341  88.274  12.305  1.00  0.00    -0.508 OA
ATOM     19  H   UNL     1      73.202  87.903  13.237  1.00  0.00     0.293 HD
ENDBRANCH  15  18
ENDBRANCH   1  12
BRANCH   2  20
ATOM     20  O   UNL     1      76.520  86.450   7.249  1.00  0.00    -0.502 OA
ATOM     21  H   UNL     1      76.056  85.565   7.081  1.00  0.00     0.293 HD
ENDBRANCH   2  20
BRANCH   6  22
ATOM     22  O   UNL     1      81.588  85.882   5.711  1.00  0.00    -0.507 OA
ATOM     23  H   UNL     1      80.844  85.594   5.095  1.00  0.00     0.293 HD
ENDBRANCH   6  22
BRANCH   8  24
ATOM     24  O   UNL     1      83.820  86.281   9.925  1.00  0.00    -0.508 OA
ATOM     25  H   UNL     1      83.832  86.244  10.938  1.00  0.00     0.293 HD
ENDBRANCH   8  24
TORSDOF 5
ENDMDL
