MODEL 1
REMARK VINA RESULT:     0.819      0.000      0.000
REMARK INTER + INTRA:           0.817
REMARK INTER:                   1.490
REMARK INTRA:                  -0.672
REMARK UNBOUND:                -0.672
REMARK SMILES CCCCCCCCCCCCCCCC(=O)[O-]
REMARK SMILES IDX 9 1 10 2 11 3 12 4 13 5 14 6 15 7 16 8 17 9 18 10 8 11 7 12
REMARK SMILES IDX 6 13 5 14 4 15 3 16 2 17 1 18
REMARK H PARENT
REMARK Flexibility Score: inf
ROOT
ATOM      1  C   UNL     1      36.455 -35.754  -8.377  1.00  0.00     0.000 C 
ENDROOT
BRANCH   1   2
ATOM      2  C   UNL     1      36.221 -34.336  -8.930  1.00  0.00     0.000 C 
BRANCH   2   3
ATOM      3  C   UNL     1      35.059 -34.278  -9.934  1.00  0.00     0.000 C 
BRANCH   3   4
ATOM      4  C   UNL     1      35.540 -34.237 -11.392  1.00  0.00     0.000 C 
BRANCH   4   5
ATOM      5  C   UNL     1      35.180 -35.535 -12.124  1.00  0.00     0.000 C 
BRANCH   5   6
ATOM      6  C   UNL     1      34.334 -36.456 -11.236  1.00  0.00     0.006 C 
BRANCH   6   7
ATOM      7  C   UNL     1      33.216 -37.120 -12.042  1.00  0.00     0.053 C 
BRANCH   7   8
ATOM      8  C   UNL     1      31.959 -36.313 -11.960  1.00  0.00     0.041 C 
ATOM      9  O   UNL     1      30.847 -36.883 -11.811  1.00  0.00    -0.550 OA
ATOM     10  O   UNL     1      32.021 -34.926 -12.004  1.00  0.00    -0.550 OA
ENDBRANCH   7   8
ENDBRANCH   6   7
ENDBRANCH   5   6
ENDBRANCH   4   5
ENDBRANCH   3   4
ENDBRANCH   2   3
ENDBRANCH   1   2
BRANCH   1  11
ATOM     11  C   UNL     1      37.058 -36.702  -9.424  1.00  0.00     0.000 C 
BRANCH  11  12
ATOM     12  C   UNL     1      38.589 -36.602  -9.500  1.00  0.00    -0.000 C 
BRANCH  12  13
ATOM     13  C   UNL     1      39.104 -37.089 -10.860  1.00  0.00    -0.000 C 
BRANCH  13  14
ATOM     14  C   UNL     1      38.548 -36.226 -12.001  1.00  0.00    -0.000 C 
BRANCH  14  15
ATOM     15  C   UNL     1      39.123 -34.800 -12.009  1.00  0.00    -0.000 C 
BRANCH  15  16
ATOM     16  C   UNL     1      39.068 -34.103 -10.634  1.00  0.00    -0.000 C 
BRANCH  16  17
ATOM     17  C   UNL     1      38.661 -32.626 -10.746  1.00  0.00    -0.003 C 
ATOM     18  C   UNL     1      39.024 -32.056 -12.115  1.00  0.00     0.004 C 
ENDBRANCH  16  17
ENDBRANCH  15  16
ENDBRANCH  14  15
ENDBRANCH  13  14
ENDBRANCH  12  13
ENDBRANCH  11  12
ENDBRANCH   1  11
TORSDOF 14
ENDMDL
