MODEL 1
REMARK VINA RESULT:    21.032      0.000      0.000
REMARK INTER + INTRA:          38.540
REMARK INTER:                  39.476
REMARK INTRA:                  -0.936
REMARK UNBOUND:                -0.936
REMARK SMILES CCCCCCCCC=CCCCCCCCC(=O)[O-]
REMARK SMILES IDX 10 1 9 2 11 3 12 4 13 5 14 6 15 7 16 8 17 9 18 10 19 11
REMARK SMILES IDX 20 12 8 13 7 14 6 15 5 16 4 17 3 18 2 19 1 20
REMARK H PARENT
REMARK Flexibility Score: inf
ROOT
ATOM      1  C   UNL     1     -41.324  24.324 -15.417  1.00  0.00    -0.031 C 
ATOM      2  C   UNL     1     -40.970  23.936 -16.656  1.00  0.00    -0.031 C 
ENDROOT
BRANCH   1   3
ATOM      3  C   UNL     1     -42.595  23.912 -14.718  1.00  0.00     0.027 C 
BRANCH   3   4
ATOM      4  C   UNL     1     -42.363  23.475 -13.260  1.00  0.00     0.004 C 
BRANCH   4   5
ATOM      5  C   UNL     1     -41.268  24.282 -12.533  1.00  0.00     0.000 C 
BRANCH   5   6
ATOM      6  C   UNL     1     -41.656  24.652 -11.091  1.00  0.00     0.000 C 
BRANCH   6   7
ATOM      7  C   UNL     1     -43.178  24.649 -10.859  1.00  0.00     0.000 C 
BRANCH   7   8
ATOM      8  C   UNL     1     -43.612  24.905  -9.403  1.00  0.00     0.006 C 
BRANCH   8   9
ATOM      9  C   UNL     1     -45.134  24.996  -9.240  1.00  0.00     0.053 C 
BRANCH   9  10
ATOM     10  C   UNL     1     -45.486  25.688  -7.960  1.00  0.00     0.041 C 
ATOM     11  O   UNL     1     -46.501  26.432  -7.901  1.00  0.00    -0.550 OA
ATOM     12  O   UNL     1     -44.679  25.532  -6.839  1.00  0.00    -0.550 OA
ENDBRANCH   9  10
ENDBRANCH   8   9
ENDBRANCH   7   8
ENDBRANCH   6   7
ENDBRANCH   5   6
ENDBRANCH   4   5
ENDBRANCH   3   4
ENDBRANCH   1   3
BRANCH   2  13
ATOM     13  C   UNL     1     -41.740  22.950 -17.500  1.00  0.00     0.027 C 
BRANCH  13  14
ATOM     14  C   UNL     1     -40.864  22.330 -18.598  1.00  0.00     0.004 C 
BRANCH  14  15
ATOM     15  C   UNL     1     -39.482  21.916 -18.067  1.00  0.00     0.000 C 
BRANCH  15  16
ATOM     16  C   UNL     1     -38.323  22.543 -18.861  1.00  0.00     0.000 C 
BRANCH  16  17
ATOM     17  C   UNL     1     -38.721  23.826 -19.621  1.00  0.00    -0.000 C 
BRANCH  17  18
ATOM     18  C   UNL     1     -37.616  24.300 -20.580  1.00  0.00    -0.000 C 
BRANCH  18  19
ATOM     19  C   UNL     1     -38.068  25.464 -21.475  1.00  0.00    -0.003 C 
ATOM     20  C   UNL     1     -37.294  26.754 -21.207  1.00  0.00     0.004 C 
ENDBRANCH  18  19
ENDBRANCH  17  18
ENDBRANCH  16  17
ENDBRANCH  15  16
ENDBRANCH  14  15
ENDBRANCH  13  14
ENDBRANCH   2  13
TORSDOF 15
ENDMDL
MODEL 2
REMARK VINA RESULT:    21.044      5.012      9.929
REMARK INTER + INTRA:          38.562
REMARK INTER:                  39.405
REMARK INTRA:                  -0.842
REMARK UNBOUND:                -0.936
REMARK SMILES CCCCCCCCC=CCCCCCCCC(=O)[O-]
REMARK SMILES IDX 10 1 9 2 11 3 12 4 13 5 14 6 15 7 16 8 17 9 18 10 19 11
REMARK SMILES IDX 20 12 8 13 7 14 6 15 5 16 4 17 3 18 2 19 1 20
REMARK H PARENT
REMARK Flexibility Score: inf
ROOT
ATOM      1  C   UNL     1     -39.188  21.422 -18.699  1.00  0.00    -0.031 C 
ATOM      2  C   UNL     1     -40.491  21.696 -18.508  1.00  0.00    -0.031 C 
ENDROOT
BRANCH   1   3
ATOM      3  C   UNL     1     -38.082  22.446 -18.667  1.00  0.00     0.027 C 
BRANCH   3   4
ATOM      4  C   UNL     1     -37.810  23.079 -20.045  1.00  0.00     0.004 C 
BRANCH   4   5
ATOM      5  C   UNL     1     -38.148  24.581 -20.120  1.00  0.00     0.000 C 
BRANCH   5   6
ATOM      6  C   UNL     1     -37.843  25.195 -21.497  1.00  0.00     0.000 C 
BRANCH   6   7
ATOM      7  C   UNL     1     -37.406  26.669 -21.413  1.00  0.00     0.000 C 
BRANCH   7   8
ATOM      8  C   UNL     1     -38.316  27.658 -22.165  1.00  0.00     0.006 C 
BRANCH   8   9
ATOM      9  C   UNL     1     -38.193  29.097 -21.647  1.00  0.00     0.053 C 
BRANCH   9  10
ATOM     10  C   UNL     1     -39.510  29.585 -21.131  1.00  0.00     0.041 C 
ATOM     11  O   UNL     1     -39.583  30.131 -19.998  1.00  0.00    -0.550 OA
ATOM     12  O   UNL     1     -40.662  29.415 -21.889  1.00  0.00    -0.550 OA
ENDBRANCH   9  10
ENDBRANCH   8   9
ENDBRANCH   7   8
ENDBRANCH   6   7
ENDBRANCH   5   6
ENDBRANCH   4   5
ENDBRANCH   3   4
ENDBRANCH   1   3
BRANCH   2  13
ATOM     13  C   UNL     1     -41.039  23.053 -18.136  1.00  0.00     0.027 C 
BRANCH  13  14
ATOM     14  C   UNL     1     -42.184  22.947 -17.119  1.00  0.00     0.004 C 
BRANCH  14  15
ATOM     15  C   UNL     1     -41.983  23.894 -15.924  1.00  0.00     0.000 C 
BRANCH  15  16
ATOM     16  C   UNL     1     -42.897  23.557 -14.733  1.00  0.00     0.000 C 
BRANCH  16  17
ATOM     17  C   UNL     1     -42.126  23.252 -13.432  1.00  0.00    -0.000 C 
BRANCH  17  18
ATOM     18  C   UNL     1     -42.210  24.409 -12.422  1.00  0.00    -0.000 C 
BRANCH  18  19
ATOM     19  C   UNL     1     -40.880  24.656 -11.693  1.00  0.00    -0.003 C 
ATOM     20  C   UNL     1     -39.662  24.322 -12.552  1.00  0.00     0.004 C 
ENDBRANCH  18  19
ENDBRANCH  17  18
ENDBRANCH  16  17
ENDBRANCH  15  16
ENDBRANCH  14  15
ENDBRANCH  13  14
ENDBRANCH   2  13
TORSDOF 15
ENDMDL
MODEL 3
REMARK VINA RESULT:    21.103      3.690      5.167
REMARK INTER + INTRA:          38.672
REMARK INTER:                  39.434
REMARK INTRA:                  -0.762
REMARK UNBOUND:                -0.936
REMARK SMILES CCCCCCCCC=CCCCCCCCC(=O)[O-]
REMARK SMILES IDX 10 1 9 2 11 3 12 4 13 5 14 6 15 7 16 8 17 9 18 10 19 11
REMARK SMILES IDX 20 12 8 13 7 14 6 15 5 16 4 17 3 18 2 19 1 20
REMARK H PARENT
REMARK Flexibility Score: inf
ROOT
ATOM      1  C   UNL     1     -40.061  21.843 -18.488  1.00  0.00    -0.031 C 
ATOM      2  C   UNL     1     -38.754  21.861 -18.808  1.00  0.00    -0.031 C 
ENDROOT
BRANCH   1   3
ATOM      3  C   UNL     1     -40.881  23.066 -18.162  1.00  0.00     0.027 C 
BRANCH   3   4
ATOM      4  C   UNL     1     -41.966  22.795 -17.103  1.00  0.00     0.004 C 
BRANCH   4   5
ATOM      5  C   UNL     1     -42.039  23.865 -15.996  1.00  0.00     0.000 C 
BRANCH   5   6
ATOM      6  C   UNL     1     -42.928  23.442 -14.813  1.00  0.00     0.000 C 
BRANCH   6   7
ATOM      7  C   UNL     1     -42.614  24.218 -13.520  1.00  0.00     0.000 C 
BRANCH   7   8
ATOM      8  C   UNL     1     -41.604  23.531 -12.582  1.00  0.00     0.006 C 
BRANCH   8   9
ATOM      9  C   UNL     1     -40.491  24.475 -12.108  1.00  0.00     0.053 C 
BRANCH   9  10
ATOM     10  C   UNL     1     -39.255  24.285 -12.930  1.00  0.00     0.041 C 
ATOM     11  O   UNL     1     -38.290  23.615 -12.477  1.00  0.00    -0.550 OA
ATOM     12  O   UNL     1     -39.158  24.870 -14.187  1.00  0.00    -0.550 OA
ENDBRANCH   9  10
ENDBRANCH   8   9
ENDBRANCH   7   8
ENDBRANCH   6   7
ENDBRANCH   5   6
ENDBRANCH   4   5
ENDBRANCH   3   4
ENDBRANCH   1   3
BRANCH   2  13
ATOM     13  C   UNL     1     -37.930  23.112 -18.988  1.00  0.00     0.027 C 
BRANCH  13  14
ATOM     14  C   UNL     1     -38.092  23.706 -20.395  1.00  0.00     0.004 C 
BRANCH  14  15
ATOM     15  C   UNL     1     -37.216  24.953 -20.598  1.00  0.00     0.000 C 
BRANCH  15  16
ATOM     16  C   UNL     1     -37.821  25.953 -21.599  1.00  0.00     0.000 C 
BRANCH  16  17
ATOM     17  C   UNL     1     -37.380  27.412 -21.354  1.00  0.00    -0.000 C 
BRANCH  17  18
ATOM     18  C   UNL     1     -38.256  28.420 -22.118  1.00  0.00    -0.000 C 
BRANCH  18  19
ATOM     19  C   UNL     1     -38.716  29.590 -21.236  1.00  0.00    -0.003 C 
ATOM     20  C   UNL     1     -40.238  29.699 -21.140  1.00  0.00     0.004 C 
ENDBRANCH  18  19
ENDBRANCH  17  18
ENDBRANCH  16  17
ENDBRANCH  15  16
ENDBRANCH  14  15
ENDBRANCH  13  14
ENDBRANCH   2  13
TORSDOF 15
ENDMDL
MODEL 4
REMARK VINA RESULT:    21.164      2.898      5.361
REMARK INTER + INTRA:          38.787
REMARK INTER:                  39.469
REMARK INTRA:                  -0.682
REMARK UNBOUND:                -0.936
REMARK SMILES CCCCCCCCC=CCCCCCCCC(=O)[O-]
REMARK SMILES IDX 10 1 9 2 11 3 12 4 13 5 14 6 15 7 16 8 17 9 18 10 19 11
REMARK SMILES IDX 20 12 8 13 7 14 6 15 5 16 4 17 3 18 2 19 1 20
REMARK H PARENT
REMARK Flexibility Score: inf
ROOT
ATOM      1  C   UNL     1     -38.573  22.308 -18.594  1.00  0.00    -0.031 C 
ATOM      2  C   UNL     1     -37.808  23.103 -19.365  1.00  0.00    -0.031 C 
ENDROOT
BRANCH   1   3
ATOM      3  C   UNL     1     -40.076  22.219 -18.679  1.00  0.00     0.027 C 
BRANCH   3   4
ATOM      4  C   UNL     1     -40.789  23.146 -17.676  1.00  0.00     0.004 C 
BRANCH   4   5
ATOM      5  C   UNL     1     -42.275  22.801 -17.455  1.00  0.00     0.000 C 
BRANCH   5   6
ATOM      6  C   UNL     1     -42.692  22.873 -15.976  1.00  0.00     0.000 C 
BRANCH   6   7
ATOM      7  C   UNL     1     -41.993  24.012 -15.210  1.00  0.00     0.000 C 
BRANCH   7   8
ATOM      8  C   UNL     1     -42.670  24.413 -13.885  1.00  0.00     0.006 C 
BRANCH   8   9
ATOM      9  C   UNL     1     -42.078  23.690 -12.669  1.00  0.00     0.053 C 
BRANCH   9  10
ATOM     10  C   UNL     1     -40.847  24.392 -12.187  1.00  0.00     0.041 C 
ATOM     11  O   UNL     1     -40.859  25.005 -11.086  1.00  0.00    -0.550 OA
ATOM     12  O   UNL     1     -39.695  24.393 -12.964  1.00  0.00    -0.550 OA
ENDBRANCH   9  10
ENDBRANCH   8   9
ENDBRANCH   7   8
ENDBRANCH   6   7
ENDBRANCH   5   6
ENDBRANCH   4   5
ENDBRANCH   3   4
ENDBRANCH   1   3
BRANCH   2  13
ATOM     13  C   UNL     1     -38.324  23.954 -20.501  1.00  0.00     0.027 C 
BRANCH  13  14
ATOM     14  C   UNL     1     -37.400  25.145 -20.789  1.00  0.00     0.004 C 
BRANCH  14  15
ATOM     15  C   UNL     1     -38.112  26.247 -21.591  1.00  0.00     0.000 C 
BRANCH  15  16
ATOM     16  C   UNL     1     -37.334  27.573 -21.607  1.00  0.00     0.000 C 
BRANCH  16  17
ATOM     17  C   UNL     1     -38.192  28.785 -22.028  1.00  0.00    -0.000 C 
BRANCH  17  18
ATOM     18  C   UNL     1     -38.635  29.630 -20.821  1.00  0.00    -0.000 C 
BRANCH  18  19
ATOM     19  C   UNL     1     -40.085  30.124 -20.944  1.00  0.00    -0.003 C 
ATOM     20  C   UNL     1     -40.990  29.130 -21.671  1.00  0.00     0.004 C 
ENDBRANCH  18  19
ENDBRANCH  17  18
ENDBRANCH  16  17
ENDBRANCH  15  16
ENDBRANCH  14  15
ENDBRANCH  13  14
ENDBRANCH   2  13
TORSDOF 15
ENDMDL
MODEL 5
REMARK VINA RESULT:    21.385      5.892      9.899
REMARK INTER + INTRA:          39.202
REMARK INTER:                  40.209
REMARK INTRA:                  -1.007
REMARK UNBOUND:                -0.936
REMARK SMILES CCCCCCCCC=CCCCCCCCC(=O)[O-]
REMARK SMILES IDX 10 1 9 2 11 3 12 4 13 5 14 6 15 7 16 8 17 9 18 10 19 11
REMARK SMILES IDX 20 12 8 13 7 14 6 15 5 16 4 17 3 18 2 19 1 20
REMARK H PARENT
REMARK Flexibility Score: inf
ROOT
ATOM      1  C   UNL     1     -38.496  26.554 -22.183  1.00  0.00    -0.031 C 
ATOM      2  C   UNL     1     -38.608  25.315 -21.669  1.00  0.00    -0.031 C 
ENDROOT
BRANCH   1   3
ATOM      3  C   UNL     1     -37.682  27.666 -21.572  1.00  0.00     0.027 C 
BRANCH   3   4
ATOM      4  C   UNL     1     -38.222  29.066 -21.921  1.00  0.00     0.004 C 
BRANCH   4   5
ATOM      5  C   UNL     1     -38.936  29.770 -20.751  1.00  0.00     0.000 C 
BRANCH   5   6
ATOM      6  C   UNL     1     -40.466  29.616 -20.804  1.00  0.00     0.000 C 
BRANCH   6   7
ATOM      7  C   UNL     1     -40.991  29.324 -22.222  1.00  0.00     0.000 C 
BRANCH   7   8
ATOM      8  C   UNL     1     -41.975  30.371 -22.776  1.00  0.00     0.006 C 
BRANCH   8   9
ATOM      9  C   UNL     1     -43.385  30.239 -22.185  1.00  0.00     0.053 C 
BRANCH   9  10
ATOM     10  C   UNL     1     -43.867  31.561 -21.674  1.00  0.00     0.041 C 
ATOM     11  O   UNL     1     -43.795  32.585 -22.404  1.00  0.00    -0.550 OA
ATOM     12  O   UNL     1     -44.372  31.668 -20.384  1.00  0.00    -0.550 OA
ENDBRANCH   9  10
ENDBRANCH   8   9
ENDBRANCH   7   8
ENDBRANCH   6   7
ENDBRANCH   5   6
ENDBRANCH   4   5
ENDBRANCH   3   4
ENDBRANCH   1   3
BRANCH   2  13
ATOM     13  C   UNL     1     -37.859  24.817 -20.457  1.00  0.00     0.027 C 
BRANCH  13  14
ATOM     14  C   UNL     1     -37.869  23.284 -20.370  1.00  0.00     0.004 C 
BRANCH  14  15
ATOM     15  C   UNL     1     -38.111  22.790 -18.933  1.00  0.00     0.000 C 
BRANCH  15  16
ATOM     16  C   UNL     1     -38.747  21.390 -18.881  1.00  0.00     0.000 C 
BRANCH  16  17
ATOM     17  C   UNL     1     -40.256  21.412 -18.560  1.00  0.00    -0.000 C 
BRANCH  17  18
ATOM     18  C   UNL     1     -40.746  22.816 -18.165  1.00  0.00    -0.000 C 
BRANCH  18  19
ATOM     19  C   UNL     1     -42.071  22.783 -17.389  1.00  0.00    -0.003 C 
ATOM     20  C   UNL     1     -42.103  23.773 -16.226  1.00  0.00     0.004 C 
ENDBRANCH  18  19
ENDBRANCH  17  18
ENDBRANCH  16  17
ENDBRANCH  15  16
ENDBRANCH  14  15
ENDBRANCH  13  14
ENDBRANCH   2  13
TORSDOF 15
ENDMDL
MODEL 6
REMARK VINA RESULT:    21.439      4.536      8.077
REMARK INTER + INTRA:          39.303
REMARK INTER:                  40.283
REMARK INTRA:                  -0.980
REMARK UNBOUND:                -0.936
REMARK SMILES CCCCCCCCC=CCCCCCCCC(=O)[O-]
REMARK SMILES IDX 10 1 9 2 11 3 12 4 13 5 14 6 15 7 16 8 17 9 18 10 19 11
REMARK SMILES IDX 20 12 8 13 7 14 6 15 5 16 4 17 3 18 2 19 1 20
REMARK H PARENT
REMARK Flexibility Score: inf
ROOT
ATOM      1  C   UNL     1     -38.508  25.248 -21.801  1.00  0.00    -0.031 C 
ATOM      2  C   UNL     1     -38.427  26.496 -22.296  1.00  0.00    -0.031 C 
ENDROOT
BRANCH   1   3
ATOM      3  C   UNL     1     -37.845  24.784 -20.528  1.00  0.00     0.027 C 
BRANCH   3   4
ATOM      4  C   UNL     1     -37.966  23.265 -20.308  1.00  0.00     0.004 C 
BRANCH   4   5
ATOM      5  C   UNL     1     -38.023  22.852 -18.824  1.00  0.00     0.000 C 
BRANCH   5   6
ATOM      6  C   UNL     1     -38.808  21.548 -18.596  1.00  0.00     0.000 C 
BRANCH   6   7
ATOM      7  C   UNL     1     -40.333  21.748 -18.657  1.00  0.00     0.000 C 
BRANCH   7   8
ATOM      8  C   UNL     1     -40.849  23.019 -17.956  1.00  0.00     0.006 C 
BRANCH   8   9
ATOM      9  C   UNL     1     -42.162  22.792 -17.196  1.00  0.00     0.053 C 
BRANCH   9  10
ATOM     10  C   UNL     1     -42.191  23.608 -15.942  1.00  0.00     0.041 C 
ATOM     11  O   UNL     1     -43.009  23.330 -15.025  1.00  0.00    -0.550 OA
ATOM     12  O   UNL     1     -41.334  24.692 -15.795  1.00  0.00    -0.550 OA
ENDBRANCH   9  10
ENDBRANCH   8   9
ENDBRANCH   7   8
ENDBRANCH   6   7
ENDBRANCH   5   6
ENDBRANCH   4   5
ENDBRANCH   3   4
ENDBRANCH   1   3
BRANCH   2  13
ATOM     13  C   UNL     1     -37.745  27.652 -21.605  1.00  0.00     0.027 C 
BRANCH  13  14
ATOM     14  C   UNL     1     -38.347  29.002 -22.020  1.00  0.00     0.004 C 
BRANCH  14  15
ATOM     15  C   UNL     1     -38.838  29.811 -20.808  1.00  0.00     0.000 C 
BRANCH  15  16
ATOM     16  C   UNL     1     -40.372  29.852 -20.698  1.00  0.00     0.000 C 
BRANCH  16  17
ATOM     17  C   UNL     1     -41.094  29.453 -22.002  1.00  0.00    -0.000 C 
BRANCH  17  18
ATOM     18  C   UNL     1     -41.920  30.611 -22.588  1.00  0.00    -0.000 C 
BRANCH  18  19
ATOM     19  C   UNL     1     -43.411  30.514 -22.230  1.00  0.00    -0.003 C 
ATOM     20  C   UNL     1     -43.877  31.645 -21.315  1.00  0.00     0.004 C 
ENDBRANCH  18  19
ENDBRANCH  17  18
ENDBRANCH  16  17
ENDBRANCH  15  16
ENDBRANCH  14  15
ENDBRANCH  13  14
ENDBRANCH   2  13
TORSDOF 15
ENDMDL
MODEL 7
REMARK VINA RESULT:    21.900      5.531     10.171
REMARK INTER + INTRA:          40.168
REMARK INTER:                  40.903
REMARK INTRA:                  -0.735
REMARK UNBOUND:                -0.936
REMARK SMILES CCCCCCCCC=CCCCCCCCC(=O)[O-]
REMARK SMILES IDX 10 1 9 2 11 3 12 4 13 5 14 6 15 7 16 8 17 9 18 10 19 11
REMARK SMILES IDX 20 12 8 13 7 14 6 15 5 16 4 17 3 18 2 19 1 20
REMARK H PARENT
REMARK Flexibility Score: inf
ROOT
ATOM      1  C   UNL     1     -37.750  23.331 -20.149  1.00  0.00    -0.031 C 
ATOM      2  C   UNL     1     -38.139  22.403 -19.255  1.00  0.00    -0.031 C 
ENDROOT
BRANCH   1   3
ATOM      3  C   UNL     1     -38.266  24.747 -20.197  1.00  0.00     0.027 C 
BRANCH   3   4
ATOM      4  C   UNL     1     -37.869  25.486 -21.488  1.00  0.00     0.004 C 
BRANCH   4   5
ATOM      5  C   UNL     1     -37.359  26.922 -21.253  1.00  0.00     0.000 C 
BRANCH   5   6
ATOM      6  C   UNL     1     -38.006  27.949 -22.200  1.00  0.00     0.000 C 
BRANCH   6   7
ATOM      7  C   UNL     1     -38.828  29.017 -21.455  1.00  0.00     0.000 C 
BRANCH   7   8
ATOM      8  C   UNL     1     -40.352  28.914 -21.651  1.00  0.00     0.006 C 
BRANCH   8   9
ATOM      9  C   UNL     1     -41.094  30.197 -21.254  1.00  0.00     0.053 C 
BRANCH   9  10
ATOM     10  C   UNL     1     -42.098  30.569 -22.299  1.00  0.00     0.041 C 
ATOM     11  O   UNL     1     -43.300  30.768 -21.979  1.00  0.00    -0.550 OA
ATOM     12  O   UNL     1     -41.713  30.672 -23.630  1.00  0.00    -0.550 OA
ENDBRANCH   9  10
ENDBRANCH   8   9
ENDBRANCH   7   8
ENDBRANCH   6   7
ENDBRANCH   5   6
ENDBRANCH   4   5
ENDBRANCH   3   4
ENDBRANCH   1   3
BRANCH   2  13
ATOM     13  C   UNL     1     -39.075  22.663 -18.100  1.00  0.00     0.027 C 
BRANCH  13  14
ATOM     14  C   UNL     1     -40.504  22.189 -18.404  1.00  0.00     0.004 C 
BRANCH  14  15
ATOM     15  C   UNL     1     -41.554  23.249 -18.032  1.00  0.00     0.000 C 
BRANCH  15  16
ATOM     16  C   UNL     1     -42.197  22.998 -16.657  1.00  0.00     0.000 C 
BRANCH  16  17
ATOM     17  C   UNL     1     -41.963  24.144 -15.650  1.00  0.00    -0.000 C 
BRANCH  17  18
ATOM     18  C   UNL     1     -42.550  23.828 -14.263  1.00  0.00    -0.000 C 
BRANCH  18  19
ATOM     19  C   UNL     1     -41.592  24.193 -13.119  1.00  0.00    -0.003 C 
ATOM     20  C   UNL     1     -42.299  24.320 -11.771  1.00  0.00     0.004 C 
ENDBRANCH  18  19
ENDBRANCH  17  18
ENDBRANCH  16  17
ENDBRANCH  15  16
ENDBRANCH  14  15
ENDBRANCH  13  14
ENDBRANCH   2  13
TORSDOF 15
ENDMDL
MODEL 8
REMARK VINA RESULT:    22.541      5.701     10.049
REMARK INTER + INTRA:          41.372
REMARK INTER:                  42.091
REMARK INTRA:                  -0.719
REMARK UNBOUND:                -0.936
REMARK SMILES CCCCCCCCC=CCCCCCCCC(=O)[O-]
REMARK SMILES IDX 10 1 9 2 11 3 12 4 13 5 14 6 15 7 16 8 17 9 18 10 19 11
REMARK SMILES IDX 20 12 8 13 7 14 6 15 5 16 4 17 3 18 2 19 1 20
REMARK H PARENT
REMARK Flexibility Score: inf
ROOT
ATOM      1  C   UNL     1     -37.837  24.697 -21.210  1.00  0.00    -0.031 C 
ATOM      2  C   UNL     1     -38.228  23.582 -20.566  1.00  0.00    -0.031 C 
ENDROOT
BRANCH   1   3
ATOM      3  C   UNL     1     -37.405  25.972 -20.531  1.00  0.00     0.027 C 
BRANCH   3   4
ATOM      4  C   UNL     1     -37.033  27.086 -21.528  1.00  0.00     0.004 C 
BRANCH   4   5
ATOM      5  C   UNL     1     -38.219  27.984 -21.931  1.00  0.00     0.000 C 
BRANCH   5   6
ATOM      6  C   UNL     1     -38.199  29.353 -21.228  1.00  0.00     0.000 C 
BRANCH   6   7
ATOM      7  C   UNL     1     -39.596  29.817 -20.778  1.00  0.00     0.000 C 
BRANCH   7   8
ATOM      8  C   UNL     1     -40.737  29.479 -21.757  1.00  0.00     0.006 C 
BRANCH   8   9
ATOM      9  C   UNL     1     -42.106  29.975 -21.273  1.00  0.00     0.053 C 
BRANCH   9  10
ATOM     10  C   UNL     1     -42.726  30.881 -22.290  1.00  0.00     0.041 C 
ATOM     11  O   UNL     1     -43.802  31.483 -22.029  1.00  0.00    -0.550 OA
ATOM     12  O   UNL     1     -42.131  31.042 -23.536  1.00  0.00    -0.550 OA
ENDBRANCH   9  10
ENDBRANCH   8   9
ENDBRANCH   7   8
ENDBRANCH   6   7
ENDBRANCH   5   6
ENDBRANCH   4   5
ENDBRANCH   3   4
ENDBRANCH   1   3
BRANCH   2  13
ATOM     13  C   UNL     1     -38.202  23.399 -19.068  1.00  0.00     0.027 C 
BRANCH  13  14
ATOM     14  C   UNL     1     -38.488  21.947 -18.664  1.00  0.00     0.004 C 
BRANCH  14  15
ATOM     15  C   UNL     1     -39.991  21.691 -18.459  1.00  0.00     0.000 C 
BRANCH  15  16
ATOM     16  C   UNL     1     -40.799  22.987 -18.273  1.00  0.00     0.000 C 
BRANCH  16  17
ATOM     17  C   UNL     1     -41.953  22.852 -17.258  1.00  0.00    -0.000 C 
BRANCH  17  18
ATOM     18  C   UNL     1     -41.882  23.920 -16.152  1.00  0.00    -0.000 C 
BRANCH  18  19
ATOM     19  C   UNL     1     -42.843  23.631 -14.989  1.00  0.00    -0.003 C 
ATOM     20  C   UNL     1     -42.175  23.759 -13.621  1.00  0.00     0.004 C 
ENDBRANCH  18  19
ENDBRANCH  17  18
ENDBRANCH  16  17
ENDBRANCH  15  16
ENDBRANCH  14  15
ENDBRANCH  13  14
ENDBRANCH   2  13
TORSDOF 15
ENDMDL
