MODEL 1
REMARK VINA RESULT:    -3.120      0.000      0.000
REMARK INTER + INTRA:          -9.894
REMARK INTER:                  -7.134
REMARK INTRA:                  -2.760
REMARK UNBOUND:                -2.760
REMARK SMILES CCCCCCCCCCCCCCCCCCCCCCCC(=O)[O-]
REMARK SMILES IDX 13 1 14 2 15 3 16 4 17 5 18 6 19 7 20 8 21 9 22 10 23 11
REMARK SMILES IDX 24 12 25 13 26 14 12 15 11 16 10 17 9 18 8 19 7 20 6 21 5 22
REMARK SMILES IDX 4 23 3 24 2 25 1 26
REMARK H PARENT
REMARK Flexibility Score: inf
ROOT
ATOM      1  C   UNL     1     -20.962   3.532   9.335  1.00  0.00     0.000 C 
ENDROOT
BRANCH   1   2
ATOM      2  C   UNL     1     -20.122   2.889   8.219  1.00  0.00     0.000 C 
BRANCH   2   3
ATOM      3  C   UNL     1     -18.930   3.767   7.799  1.00  0.00     0.000 C 
BRANCH   3   4
ATOM      4  C   UNL     1     -19.363   5.155   7.297  1.00  0.00     0.000 C 
BRANCH   4   5
ATOM      5  C   UNL     1     -18.642   5.563   6.003  1.00  0.00     0.000 C 
BRANCH   5   6
ATOM      6  C   UNL     1     -19.494   5.232   4.769  1.00  0.00     0.000 C 
BRANCH   6   7
ATOM      7  C   UNL     1     -19.948   6.495   4.018  1.00  0.00     0.000 C 
BRANCH   7   8
ATOM      8  C   UNL     1     -19.771   6.370   2.498  1.00  0.00     0.000 C 
BRANCH   8   9
ATOM      9  C   UNL     1     -21.018   6.868   1.757  1.00  0.00     0.000 C 
BRANCH   9  10
ATOM     10  C   UNL     1     -21.367   5.947   0.581  1.00  0.00     0.006 C 
BRANCH  10  11
ATOM     11  C   UNL     1     -21.581   6.755  -0.703  1.00  0.00     0.053 C 
BRANCH  11  12
ATOM     12  C   UNL     1     -21.686   5.845  -1.886  1.00  0.00     0.041 C 
ATOM     13  O   UNL     1     -20.705   5.704  -2.664  1.00  0.00    -0.550 OA
ATOM     14  O   UNL     1     -22.882   5.195  -2.161  1.00  0.00    -0.550 OA
ENDBRANCH  11  12
ENDBRANCH  10  11
ENDBRANCH   9  10
ENDBRANCH   8   9
ENDBRANCH   7   8
ENDBRANCH   6   7
ENDBRANCH   5   6
ENDBRANCH   4   5
ENDBRANCH   3   4
ENDBRANCH   2   3
ENDBRANCH   1   2
BRANCH   1  15
ATOM     15  C   UNL     1     -21.734   2.495  10.169  1.00  0.00     0.000 C 
BRANCH  15  16
ATOM     16  C   UNL     1     -22.710   3.146  11.163  1.00  0.00     0.000 C 
BRANCH  16  17
ATOM     17  C   UNL     1     -22.023   3.553  12.479  1.00  0.00     0.000 C 
BRANCH  17  18
ATOM     18  C   UNL     1     -22.670   4.790  13.124  1.00  0.00    -0.000 C 
BRANCH  18  19
ATOM     19  C   UNL     1     -23.987   5.195  12.437  1.00  0.00    -0.000 C 
BRANCH  19  20
ATOM     20  C   UNL     1     -24.007   6.678  12.031  1.00  0.00    -0.000 C 
BRANCH  20  21
ATOM     21  C   UNL     1     -22.601   7.295  11.986  1.00  0.00    -0.000 C 
BRANCH  21  22
ATOM     22  C   UNL     1     -22.226   7.707  10.557  1.00  0.00    -0.000 C 
BRANCH  22  23
ATOM     23  C   UNL     1     -20.823   7.200  10.188  1.00  0.00    -0.000 C 
BRANCH  23  24
ATOM     24  C   UNL     1     -20.071   6.595  11.386  1.00  0.00    -0.000 C 
BRANCH  24  25
ATOM     25  C   UNL     1     -18.731   5.919  11.034  1.00  0.00    -0.003 C 
ATOM     26  C   UNL     1     -18.492   4.627  11.813  1.00  0.00     0.004 C 
ENDBRANCH  24  25
ENDBRANCH  23  24
ENDBRANCH  22  23
ENDBRANCH  21  22
ENDBRANCH  20  21
ENDBRANCH  19  20
ENDBRANCH  18  19
ENDBRANCH  17  18
ENDBRANCH  16  17
ENDBRANCH  15  16
ENDBRANCH   1  15
TORSDOF 22
ENDMDL
MODEL 2
REMARK VINA RESULT:    -3.000      4.718     11.722
REMARK INTER + INTRA:          -9.620
REMARK INTER:                  -7.629
REMARK INTRA:                  -1.991
REMARK UNBOUND:                -2.760
REMARK SMILES CCCCCCCCCCCCCCCCCCCCCCCC(=O)[O-]
REMARK SMILES IDX 13 1 14 2 15 3 16 4 17 5 18 6 19 7 20 8 21 9 22 10 23 11
REMARK SMILES IDX 24 12 25 13 26 14 12 15 11 16 10 17 9 18 8 19 7 20 6 21 5 22
REMARK SMILES IDX 4 23 3 24 2 25 1 26
REMARK H PARENT
REMARK Flexibility Score: inf
ROOT
ATOM      1  C   UNL     1     -21.160   6.773   2.816  1.00  0.00     0.000 C 
ENDROOT
BRANCH   1   2
ATOM      2  C   UNL     1     -20.254   6.002   3.791  1.00  0.00     0.000 C 
BRANCH   2   3
ATOM      3  C   UNL     1     -19.311   6.930   4.578  1.00  0.00     0.000 C 
BRANCH   3   4
ATOM      4  C   UNL     1     -18.392   6.162   5.542  1.00  0.00     0.000 C 
BRANCH   4   5
ATOM      5  C   UNL     1     -19.075   5.853   6.883  1.00  0.00     0.000 C 
BRANCH   5   6
ATOM      6  C   UNL     1     -19.210   4.338   7.098  1.00  0.00     0.000 C 
BRANCH   6   7
ATOM      7  C   UNL     1     -20.164   3.996   8.255  1.00  0.00     0.000 C 
BRANCH   7   8
ATOM      8  C   UNL     1     -20.226   2.488   8.538  1.00  0.00     0.000 C 
BRANCH   8   9
ATOM      9  C   UNL     1     -21.680   2.009   8.644  1.00  0.00     0.000 C 
BRANCH   9  10
ATOM     10  C   UNL     1     -22.045   1.670  10.094  1.00  0.00     0.006 C 
BRANCH  10  11
ATOM     11  C   UNL     1     -22.586   2.903  10.825  1.00  0.00     0.053 C 
BRANCH  11  12
ATOM     12  C   UNL     1     -21.736   3.226  12.013  1.00  0.00     0.041 C 
ATOM     13  O   UNL     1     -20.525   2.877  12.038  1.00  0.00    -0.550 OA
ATOM     14  O   UNL     1     -22.291   3.862  13.115  1.00  0.00    -0.550 OA
ENDBRANCH  11  12
ENDBRANCH  10  11
ENDBRANCH   9  10
ENDBRANCH   8   9
ENDBRANCH   7   8
ENDBRANCH   6   7
ENDBRANCH   5   6
ENDBRANCH   4   5
ENDBRANCH   3   4
ENDBRANCH   2   3
ENDBRANCH   1   2
BRANCH   1  15
ATOM     15  C   UNL     1     -20.364   7.615   1.805  1.00  0.00     0.000 C 
BRANCH  15  16
ATOM     16  C   UNL     1     -20.224   6.922   0.440  1.00  0.00     0.000 C 
BRANCH  16  17
ATOM     17  C   UNL     1     -21.018   7.638  -0.666  1.00  0.00     0.000 C 
BRANCH  17  18
ATOM     18  C   UNL     1     -22.329   6.914  -1.015  1.00  0.00    -0.000 C 
BRANCH  18  19
ATOM     19  C   UNL     1     -22.391   5.489  -0.435  1.00  0.00    -0.000 C 
BRANCH  19  20
ATOM     20  C   UNL     1     -22.657   4.425  -1.513  1.00  0.00    -0.000 C 
BRANCH  20  21
ATOM     21  C   UNL     1     -22.043   4.797  -2.870  1.00  0.00    -0.000 C 
BRANCH  21  22
ATOM     22  C   UNL     1     -20.737   4.030  -3.112  1.00  0.00    -0.000 C 
BRANCH  22  23
ATOM     23  C   UNL     1     -19.535   4.987  -3.148  1.00  0.00    -0.000 C 
BRANCH  23  24
ATOM     24  C   UNL     1     -19.051   5.287  -4.578  1.00  0.00    -0.000 C 
BRANCH  24  25
ATOM     25  C   UNL     1     -18.996   6.784  -4.940  1.00  0.00    -0.003 C 
ATOM     26  C   UNL     1     -20.236   7.553  -4.486  1.00  0.00     0.004 C 
ENDBRANCH  24  25
ENDBRANCH  23  24
ENDBRANCH  22  23
ENDBRANCH  21  22
ENDBRANCH  20  21
ENDBRANCH  19  20
ENDBRANCH  18  19
ENDBRANCH  17  18
ENDBRANCH  16  17
ENDBRANCH  15  16
ENDBRANCH   1  15
TORSDOF 22
ENDMDL
MODEL 3
REMARK VINA RESULT:    -3.000      2.846      6.996
REMARK INTER + INTRA:          -9.619
REMARK INTER:                  -6.957
REMARK INTRA:                  -2.662
REMARK UNBOUND:                -2.760
REMARK SMILES CCCCCCCCCCCCCCCCCCCCCCCC(=O)[O-]
REMARK SMILES IDX 13 1 14 2 15 3 16 4 17 5 18 6 19 7 20 8 21 9 22 10 23 11
REMARK SMILES IDX 24 12 25 13 26 14 12 15 11 16 10 17 9 18 8 19 7 20 6 21 5 22
REMARK SMILES IDX 4 23 3 24 2 25 1 26
REMARK H PARENT
REMARK Flexibility Score: inf
ROOT
ATOM      1  C   UNL     1     -20.816   6.645   1.665  1.00  0.00     0.000 C 
ENDROOT
BRANCH   1   2
ATOM      2  C   UNL     1     -19.535   6.063   1.044  1.00  0.00     0.000 C 
BRANCH   2   3
ATOM      3  C   UNL     1     -19.467   6.283  -0.478  1.00  0.00     0.000 C 
BRANCH   3   4
ATOM      4  C   UNL     1     -20.149   7.588  -0.921  1.00  0.00     0.000 C 
BRANCH   4   5
ATOM      5  C   UNL     1     -19.734   8.016  -2.337  1.00  0.00     0.000 C 
BRANCH   5   6
ATOM      6  C   UNL     1     -18.693   7.050  -2.923  1.00  0.00     0.000 C 
BRANCH   6   7
ATOM      7  C   UNL     1     -18.947   6.753  -4.410  1.00  0.00     0.000 C 
BRANCH   7   8
ATOM      8  C   UNL     1     -20.041   5.695  -4.619  1.00  0.00     0.000 C 
BRANCH   8   9
ATOM      9  C   UNL     1     -19.704   4.401  -3.868  1.00  0.00     0.000 C 
BRANCH   9  10
ATOM     10  C   UNL     1     -20.856   3.980  -2.948  1.00  0.00     0.006 C 
BRANCH  10  11
ATOM     11  C   UNL     1     -21.982   5.020  -2.968  1.00  0.00     0.053 C 
BRANCH  11  12
ATOM     12  C   UNL     1     -22.724   5.018  -1.669  1.00  0.00     0.041 C 
ATOM     13  O   UNL     1     -22.800   3.962  -0.986  1.00  0.00    -0.550 OA
ATOM     14  O   UNL     1     -23.377   6.165  -1.238  1.00  0.00    -0.550 OA
ENDBRANCH  11  12
ENDBRANCH  10  11
ENDBRANCH   9  10
ENDBRANCH   8   9
ENDBRANCH   7   8
ENDBRANCH   6   7
ENDBRANCH   5   6
ENDBRANCH   4   5
ENDBRANCH   3   4
ENDBRANCH   2   3
ENDBRANCH   1   2
BRANCH   1  15
ATOM     15  C   UNL     1     -20.585   7.215   3.075  1.00  0.00     0.000 C 
BRANCH  15  16
ATOM     16  C   UNL     1     -19.099   7.471   3.372  1.00  0.00     0.000 C 
BRANCH  16  17
ATOM     17  C   UNL     1     -18.707   7.062   4.803  1.00  0.00     0.000 C 
BRANCH  17  18
ATOM     18  C   UNL     1     -19.601   5.941   5.361  1.00  0.00    -0.000 C 
BRANCH  18  19
ATOM     19  C   UNL     1     -18.966   4.547   5.211  1.00  0.00    -0.000 C 
BRANCH  19  20
ATOM     20  C   UNL     1     -19.321   3.609   6.376  1.00  0.00    -0.000 C 
BRANCH  20  21
ATOM     21  C   UNL     1     -19.203   4.299   7.743  1.00  0.00    -0.000 C 
BRANCH  21  22
ATOM     22  C   UNL     1     -19.492   3.315   8.884  1.00  0.00    -0.000 C 
BRANCH  22  23
ATOM     23  C   UNL     1     -20.967   3.382   9.308  1.00  0.00    -0.000 C 
BRANCH  23  24
ATOM     24  C   UNL     1     -21.489   2.048   9.872  1.00  0.00    -0.000 C 
BRANCH  24  25
ATOM     25  C   UNL     1     -21.501   0.881   8.865  1.00  0.00    -0.003 C 
ATOM     26  C   UNL     1     -22.342   1.174   7.624  1.00  0.00     0.004 C 
ENDBRANCH  24  25
ENDBRANCH  23  24
ENDBRANCH  22  23
ENDBRANCH  21  22
ENDBRANCH  20  21
ENDBRANCH  19  20
ENDBRANCH  18  19
ENDBRANCH  17  18
ENDBRANCH  16  17
ENDBRANCH  15  16
ENDBRANCH   1  15
TORSDOF 22
ENDMDL
MODEL 4
REMARK VINA RESULT:    -2.992      1.414      2.178
REMARK INTER + INTRA:          -9.600
REMARK INTER:                  -6.393
REMARK INTRA:                  -3.207
REMARK UNBOUND:                -2.760
REMARK SMILES CCCCCCCCCCCCCCCCCCCCCCCC(=O)[O-]
REMARK SMILES IDX 13 1 14 2 15 3 16 4 17 5 18 6 19 7 20 8 21 9 22 10 23 11
REMARK SMILES IDX 24 12 25 13 26 14 12 15 11 16 10 17 9 18 8 19 7 20 6 21 5 22
REMARK SMILES IDX 4 23 3 24 2 25 1 26
REMARK H PARENT
REMARK Flexibility Score: inf
ROOT
ATOM      1  C   UNL     1     -20.816   2.777   9.557  1.00  0.00     0.000 C 
ENDROOT
BRANCH   1   2
ATOM      2  C   UNL     1     -19.549   1.906   9.561  1.00  0.00     0.000 C 
BRANCH   2   3
ATOM      3  C   UNL     1     -18.391   2.547   8.776  1.00  0.00     0.000 C 
BRANCH   3   4
ATOM      4  C   UNL     1     -18.862   3.258   7.498  1.00  0.00     0.000 C 
BRANCH   4   5
ATOM      5  C   UNL     1     -18.262   4.666   7.354  1.00  0.00     0.000 C 
BRANCH   5   6
ATOM      6  C   UNL     1     -19.353   5.702   7.040  1.00  0.00     0.000 C 
BRANCH   6   7
ATOM      7  C   UNL     1     -18.780   7.118   6.872  1.00  0.00     0.000 C 
BRANCH   7   8
ATOM      8  C   UNL     1     -18.481   7.461   5.405  1.00  0.00     0.000 C 
BRANCH   8   9
ATOM      9  C   UNL     1     -19.779   7.618   4.603  1.00  0.00     0.000 C 
BRANCH   9  10
ATOM     10  C   UNL     1     -19.575   7.216   3.138  1.00  0.00     0.006 C 
BRANCH  10  11
ATOM     11  C   UNL     1     -20.870   6.662   2.535  1.00  0.00     0.053 C 
BRANCH  11  12
ATOM     12  C   UNL     1     -20.668   6.294   1.099  1.00  0.00     0.041 C 
ATOM     13  O   UNL     1     -21.640   5.887   0.408  1.00  0.00    -0.550 OA
ATOM     14  O   UNL     1     -19.399   6.346   0.538  1.00  0.00    -0.550 OA
ENDBRANCH  11  12
ENDBRANCH  10  11
ENDBRANCH   9  10
ENDBRANCH   8   9
ENDBRANCH   7   8
ENDBRANCH   6   7
ENDBRANCH   5   6
ENDBRANCH   4   5
ENDBRANCH   3   4
ENDBRANCH   2   3
ENDBRANCH   1   2
BRANCH   1  15
ATOM     15  C   UNL     1     -21.996   2.111  10.285  1.00  0.00     0.000 C 
BRANCH  15  16
ATOM     16  C   UNL     1     -22.801   3.106  11.137  1.00  0.00     0.000 C 
BRANCH  16  17
ATOM     17  C   UNL     1     -22.004   3.619  12.349  1.00  0.00     0.000 C 
BRANCH  17  18
ATOM     18  C   UNL     1     -22.751   4.717  13.125  1.00  0.00    -0.000 C 
BRANCH  18  19
ATOM     19  C   UNL     1     -24.045   5.164  12.419  1.00  0.00    -0.000 C 
BRANCH  19  20
ATOM     20  C   UNL     1     -24.030   6.658  12.054  1.00  0.00    -0.000 C 
BRANCH  20  21
ATOM     21  C   UNL     1     -23.050   7.465  12.918  1.00  0.00    -0.000 C 
BRANCH  21  22
ATOM     22  C   UNL     1     -21.846   7.935  12.093  1.00  0.00    -0.000 C 
BRANCH  22  23
ATOM     23  C   UNL     1     -21.976   7.494  10.627  1.00  0.00    -0.000 C 
BRANCH  23  24
ATOM     24  C   UNL     1     -20.900   6.475  10.211  1.00  0.00    -0.000 C 
BRANCH  24  25
ATOM     25  C   UNL     1     -19.538   6.652  10.909  1.00  0.00    -0.003 C 
ATOM     26  C   UNL     1     -18.855   5.324  11.230  1.00  0.00     0.004 C 
ENDBRANCH  24  25
ENDBRANCH  23  24
ENDBRANCH  22  23
ENDBRANCH  21  22
ENDBRANCH  20  21
ENDBRANCH  19  20
ENDBRANCH  18  19
ENDBRANCH  17  18
ENDBRANCH  16  17
ENDBRANCH  15  16
ENDBRANCH   1  15
TORSDOF 22
ENDMDL
MODEL 5
REMARK VINA RESULT:    -2.975      4.290      9.187
REMARK INTER + INTRA:          -9.561
REMARK INTER:                  -6.944
REMARK INTRA:                  -2.617
REMARK UNBOUND:                -2.760
REMARK SMILES CCCCCCCCCCCCCCCCCCCCCCCC(=O)[O-]
REMARK SMILES IDX 13 1 14 2 15 3 16 4 17 5 18 6 19 7 20 8 21 9 22 10 23 11
REMARK SMILES IDX 24 12 25 13 26 14 12 15 11 16 10 17 9 18 8 19 7 20 6 21 5 22
REMARK SMILES IDX 4 23 3 24 2 25 1 26
REMARK H PARENT
REMARK Flexibility Score: inf
ROOT
ATOM      1  C   UNL     1     -21.279   1.375   8.896  1.00  0.00     0.000 C 
ENDROOT
BRANCH   1   2
ATOM      2  C   UNL     1     -22.314   1.735   9.975  1.00  0.00     0.000 C 
BRANCH   2   3
ATOM      3  C   UNL     1     -22.010   3.081  10.656  1.00  0.00     0.000 C 
BRANCH   3   4
ATOM      4  C   UNL     1     -21.042   2.941  11.842  1.00  0.00     0.000 C 
BRANCH   4   5
ATOM      5  C   UNL     1     -20.716   4.292  12.497  1.00  0.00     0.000 C 
BRANCH   5   6
ATOM      6  C   UNL     1     -19.498   4.950  11.830  1.00  0.00     0.000 C 
BRANCH   6   7
ATOM      7  C   UNL     1     -19.746   6.430  11.494  1.00  0.00     0.000 C 
BRANCH   7   8
ATOM      8  C   UNL     1     -21.177   6.687  10.999  1.00  0.00     0.000 C 
BRANCH   8   9
ATOM      9  C   UNL     1     -21.826   7.843  11.771  1.00  0.00     0.000 C 
BRANCH   9  10
ATOM     10  C   UNL     1     -22.829   7.320  12.807  1.00  0.00     0.006 C 
BRANCH  10  11
ATOM     11  C   UNL     1     -24.260   7.379  12.263  1.00  0.00     0.053 C 
BRANCH  11  12
ATOM     12  C   UNL     1     -24.880   6.017  12.264  1.00  0.00     0.041 C 
ATOM     13  O   UNL     1     -24.187   5.007  12.560  1.00  0.00    -0.550 OA
ATOM     14  O   UNL     1     -26.206   5.854  11.886  1.00  0.00    -0.550 OA
ENDBRANCH  11  12
ENDBRANCH  10  11
ENDBRANCH   9  10
ENDBRANCH   8   9
ENDBRANCH   7   8
ENDBRANCH   6   7
ENDBRANCH   5   6
ENDBRANCH   4   5
ENDBRANCH   3   4
ENDBRANCH   2   3
ENDBRANCH   1   2
BRANCH   1  15
ATOM     15  C   UNL     1     -20.657   2.615   8.232  1.00  0.00     0.000 C 
BRANCH  15  16
ATOM     16  C   UNL     1     -19.145   2.727   8.488  1.00  0.00     0.000 C 
BRANCH  16  17
ATOM     17  C   UNL     1     -18.631   4.170   8.346  1.00  0.00     0.000 C 
BRANCH  17  18
ATOM     18  C   UNL     1     -19.754   5.166   8.010  1.00  0.00    -0.000 C 
BRANCH  18  19
ATOM     19  C   UNL     1     -19.345   6.173   6.919  1.00  0.00    -0.000 C 
BRANCH  19  20
ATOM     20  C   UNL     1     -18.991   5.489   5.589  1.00  0.00    -0.000 C 
BRANCH  20  21
ATOM     21  C   UNL     1     -19.006   6.464   4.402  1.00  0.00    -0.000 C 
BRANCH  21  22
ATOM     22  C   UNL     1     -20.148   6.134   3.433  1.00  0.00    -0.000 C 
BRANCH  22  23
ATOM     23  C   UNL     1     -19.734   6.407   1.979  1.00  0.00    -0.000 C 
BRANCH  23  24
ATOM     24  C   UNL     1     -20.932   6.707   1.061  1.00  0.00    -0.000 C 
BRANCH  24  25
ATOM     25  C   UNL     1     -21.044   5.793  -0.174  1.00  0.00    -0.003 C 
ATOM     26  C   UNL     1     -22.457   5.253  -0.389  1.00  0.00     0.004 C 
ENDBRANCH  24  25
ENDBRANCH  23  24
ENDBRANCH  22  23
ENDBRANCH  21  22
ENDBRANCH  20  21
ENDBRANCH  19  20
ENDBRANCH  18  19
ENDBRANCH  17  18
ENDBRANCH  16  17
ENDBRANCH  15  16
ENDBRANCH   1  15
TORSDOF 22
ENDMDL
MODEL 6
REMARK VINA RESULT:    -2.962      1.457      3.189
REMARK INTER + INTRA:          -9.531
REMARK INTER:                  -7.345
REMARK INTRA:                  -2.186
REMARK UNBOUND:                -2.760
REMARK SMILES CCCCCCCCCCCCCCCCCCCCCCCC(=O)[O-]
REMARK SMILES IDX 13 1 14 2 15 3 16 4 17 5 18 6 19 7 20 8 21 9 22 10 23 11
REMARK SMILES IDX 24 12 25 13 26 14 12 15 11 16 10 17 9 18 8 19 7 20 6 21 5 22
REMARK SMILES IDX 4 23 3 24 2 25 1 26
REMARK H PARENT
REMARK Flexibility Score: inf
ROOT
ATOM      1  C   UNL     1     -19.798   5.644   8.127  1.00  0.00     0.000 C 
ENDROOT
BRANCH   1   2
ATOM      2  C   UNL     1     -19.113   6.840   7.444  1.00  0.00     0.000 C 
BRANCH   2   3
ATOM      3  C   UNL     1     -18.494   6.467   6.085  1.00  0.00     0.000 C 
BRANCH   3   4
ATOM      4  C   UNL     1     -19.374   5.498   5.278  1.00  0.00     0.000 C 
BRANCH   4   5
ATOM      5  C   UNL     1     -19.438   5.866   3.788  1.00  0.00     0.000 C 
BRANCH   5   6
ATOM      6  C   UNL     1     -20.792   6.500   3.433  1.00  0.00     0.000 C 
BRANCH   6   7
ATOM      7  C   UNL     1     -20.962   6.701   1.918  1.00  0.00     0.000 C 
BRANCH   7   8
ATOM      8  C   UNL     1     -19.721   6.266   1.125  1.00  0.00     0.000 C 
BRANCH   8   9
ATOM      9  C   UNL     1     -19.967   6.377  -0.385  1.00  0.00     0.000 C 
BRANCH   9  10
ATOM     10  C   UNL     1     -21.128   5.476  -0.823  1.00  0.00     0.006 C 
BRANCH  10  11
ATOM     11  C   UNL     1     -21.643   5.880  -2.209  1.00  0.00     0.053 C 
BRANCH  11  12
ATOM     12  C   UNL     1     -20.850   5.204  -3.283  1.00  0.00     0.041 C 
ATOM     13  O   UNL     1     -20.739   3.948  -3.292  1.00  0.00    -0.550 OA
ATOM     14  O   UNL     1     -20.188   5.959  -4.241  1.00  0.00    -0.550 OA
ENDBRANCH  11  12
ENDBRANCH  10  11
ENDBRANCH   9  10
ENDBRANCH   8   9
ENDBRANCH   7   8
ENDBRANCH   6   7
ENDBRANCH   5   6
ENDBRANCH   4   5
ENDBRANCH   3   4
ENDBRANCH   2   3
ENDBRANCH   1   2
BRANCH   1  15
ATOM     15  C   UNL     1     -20.535   6.040   9.417  1.00  0.00     0.000 C 
BRANCH  15  16
ATOM     16  C   UNL     1     -20.938   7.523   9.435  1.00  0.00     0.000 C 
BRANCH  16  17
ATOM     17  C   UNL     1     -22.124   7.798  10.377  1.00  0.00     0.000 C 
BRANCH  17  18
ATOM     18  C   UNL     1     -21.687   7.963  11.843  1.00  0.00    -0.000 C 
BRANCH  18  19
ATOM     19  C   UNL     1     -22.692   7.348  12.833  1.00  0.00    -0.000 C 
BRANCH  19  20
ATOM     20  C   UNL     1     -23.846   6.620  12.125  1.00  0.00    -0.000 C 
BRANCH  20  21
ATOM     21  C   UNL     1     -23.937   5.138  12.519  1.00  0.00    -0.000 C 
BRANCH  21  22
ATOM     22  C   UNL     1     -22.607   4.641  13.101  1.00  0.00    -0.000 C 
BRANCH  22  23
ATOM     23  C   UNL     1     -21.836   3.799  12.072  1.00  0.00    -0.000 C 
BRANCH  23  24
ATOM     24  C   UNL     1     -22.756   3.140  11.029  1.00  0.00    -0.000 C 
BRANCH  24  25
ATOM     25  C   UNL     1     -22.026   2.292   9.968  1.00  0.00    -0.003 C 
ATOM     26  C   UNL     1     -20.518   2.218  10.199  1.00  0.00     0.004 C 
ENDBRANCH  24  25
ENDBRANCH  23  24
ENDBRANCH  22  23
ENDBRANCH  21  22
ENDBRANCH  20  21
ENDBRANCH  19  20
ENDBRANCH  18  19
ENDBRANCH  17  18
ENDBRANCH  16  17
ENDBRANCH  15  16
ENDBRANCH   1  15
TORSDOF 22
ENDMDL
MODEL 7
REMARK VINA RESULT:    -2.952      3.442      9.496
REMARK INTER + INTRA:          -9.510
REMARK INTER:                  -7.088
REMARK INTRA:                  -2.421
REMARK UNBOUND:                -2.760
REMARK SMILES CCCCCCCCCCCCCCCCCCCCCCCC(=O)[O-]
REMARK SMILES IDX 13 1 14 2 15 3 16 4 17 5 18 6 19 7 20 8 21 9 22 10 23 11
REMARK SMILES IDX 24 12 25 13 26 14 12 15 11 16 10 17 9 18 8 19 7 20 6 21 5 22
REMARK SMILES IDX 4 23 3 24 2 25 1 26
REMARK H PARENT
REMARK Flexibility Score: inf
ROOT
ATOM      1  C   UNL     1     -20.896   6.644   9.577  1.00  0.00     0.000 C 
ENDROOT
BRANCH   1   2
ATOM      2  C   UNL     1     -19.957   7.410  10.523  1.00  0.00     0.000 C 
BRANCH   2   3
ATOM      3  C   UNL     1     -20.511   7.502  11.956  1.00  0.00     0.000 C 
BRANCH   3   4
ATOM      4  C   UNL     1     -21.963   8.003  12.000  1.00  0.00     0.000 C 
BRANCH   4   5
ATOM      5  C   UNL     1     -22.830   7.206  12.986  1.00  0.00     0.000 C 
BRANCH   5   6
ATOM      6  C   UNL     1     -24.008   6.531  12.266  1.00  0.00     0.000 C 
BRANCH   6   7
ATOM      7  C   UNL     1     -23.865   5.000  12.225  1.00  0.00     0.000 C 
BRANCH   7   8
ATOM      8  C   UNL     1     -22.599   4.509  12.941  1.00  0.00     0.000 C 
BRANCH   8   9
ATOM      9  C   UNL     1     -21.651   3.807  11.960  1.00  0.00     0.000 C 
BRANCH   9  10
ATOM     10  C   UNL     1     -22.398   3.349  10.702  1.00  0.00     0.006 C 
BRANCH  10  11
ATOM     11  C   UNL     1     -22.290   1.831  10.524  1.00  0.00     0.053 C 
BRANCH  11  12
ATOM     12  C   UNL     1     -21.535   1.500   9.275  1.00  0.00     0.041 C 
ATOM     13  O   UNL     1     -22.100   1.585   8.152  1.00  0.00    -0.550 OA
ATOM     14  O   UNL     1     -20.225   1.045   9.353  1.00  0.00    -0.550 OA
ENDBRANCH  11  12
ENDBRANCH  10  11
ENDBRANCH   9  10
ENDBRANCH   8   9
ENDBRANCH   7   8
ENDBRANCH   6   7
ENDBRANCH   5   6
ENDBRANCH   4   5
ENDBRANCH   3   4
ENDBRANCH   2   3
ENDBRANCH   1   2
BRANCH   1  15
ATOM     15  C   UNL     1     -20.148   5.643   8.680  1.00  0.00     0.000 C 
BRANCH  15  16
ATOM     16  C   UNL     1     -18.733   6.121   8.314  1.00  0.00     0.000 C 
BRANCH  16  17
ATOM     17  C   UNL     1     -18.570   6.370   6.805  1.00  0.00     0.000 C 
BRANCH  17  18
ATOM     18  C   UNL     1     -19.240   7.677   6.346  1.00  0.00    -0.000 C 
BRANCH  18  19
ATOM     19  C   UNL     1     -19.787   7.589   4.909  1.00  0.00    -0.000 C 
BRANCH  19  20
ATOM     20  C   UNL     1     -19.713   6.165   4.337  1.00  0.00    -0.000 C 
BRANCH  20  21
ATOM     21  C   UNL     1     -19.141   6.131   2.912  1.00  0.00    -0.000 C 
BRANCH  21  22
ATOM     22  C   UNL     1     -20.220   6.472   1.877  1.00  0.00    -0.000 C 
BRANCH  22  23
ATOM     23  C   UNL     1     -19.743   6.141   0.454  1.00  0.00    -0.000 C 
BRANCH  23  24
ATOM     24  C   UNL     1     -20.866   6.245  -0.593  1.00  0.00    -0.000 C 
BRANCH  24  25
ATOM     25  C   UNL     1     -22.152   5.472  -0.240  1.00  0.00    -0.003 C 
ATOM     26  C   UNL     1     -22.768   4.759  -1.443  1.00  0.00     0.004 C 
ENDBRANCH  24  25
ENDBRANCH  23  24
ENDBRANCH  22  23
ENDBRANCH  21  22
ENDBRANCH  20  21
ENDBRANCH  19  20
ENDBRANCH  18  19
ENDBRANCH  17  18
ENDBRANCH  16  17
ENDBRANCH  15  16
ENDBRANCH   1  15
TORSDOF 22
ENDMDL
MODEL 8
REMARK VINA RESULT:    -2.933      3.517     10.485
REMARK INTER + INTRA:          -9.465
REMARK INTER:                  -7.615
REMARK INTRA:                  -1.850
REMARK UNBOUND:                -2.760
REMARK SMILES CCCCCCCCCCCCCCCCCCCCCCCC(=O)[O-]
REMARK SMILES IDX 13 1 14 2 15 3 16 4 17 5 18 6 19 7 20 8 21 9 22 10 23 11
REMARK SMILES IDX 24 12 25 13 26 14 12 15 11 16 10 17 9 18 8 19 7 20 6 21 5 22
REMARK SMILES IDX 4 23 3 24 2 25 1 26
REMARK H PARENT
REMARK Flexibility Score: inf
ROOT
ATOM      1  C   UNL     1     -19.387   4.240   6.714  1.00  0.00     0.000 C 
ENDROOT
BRANCH   1   2
ATOM      2  C   UNL     1     -19.412   5.493   7.604  1.00  0.00     0.000 C 
BRANCH   2   3
ATOM      3  C   UNL     1     -20.158   5.259   8.930  1.00  0.00     0.000 C 
BRANCH   3   4
ATOM      4  C   UNL     1     -20.909   6.509   9.417  1.00  0.00     0.000 C 
BRANCH   4   5
ATOM      5  C   UNL     1     -21.011   6.573  10.949  1.00  0.00     0.000 C 
BRANCH   5   6
ATOM      6  C   UNL     1     -22.463   6.797  11.397  1.00  0.00     0.000 C 
BRANCH   6   7
ATOM      7  C   UNL     1     -22.887   5.822  12.508  1.00  0.00     0.000 C 
BRANCH   7   8
ATOM      8  C   UNL     1     -21.727   4.938  12.987  1.00  0.00     0.000 C 
BRANCH   8   9
ATOM      9  C   UNL     1     -22.049   3.452  12.786  1.00  0.00     0.000 C 
BRANCH   9  10
ATOM     10  C   UNL     1     -21.396   2.914  11.507  1.00  0.00     0.006 C 
BRANCH  10  11
ATOM     11  C   UNL     1     -22.434   2.730  10.396  1.00  0.00     0.053 C 
BRANCH  11  12
ATOM     12  C   UNL     1     -21.905   1.830   9.325  1.00  0.00     0.041 C 
ATOM     13  O   UNL     1     -20.698   1.469   9.341  1.00  0.00    -0.550 OA
ATOM     14  O   UNL     1     -22.727   1.433   8.278  1.00  0.00    -0.550 OA
ENDBRANCH  11  12
ENDBRANCH  10  11
ENDBRANCH   9  10
ENDBRANCH   8   9
ENDBRANCH   7   8
ENDBRANCH   6   7
ENDBRANCH   5   6
ENDBRANCH   4   5
ENDBRANCH   3   4
ENDBRANCH   2   3
ENDBRANCH   1   2
BRANCH   1  15
ATOM     15  C   UNL     1     -19.134   4.569   5.232  1.00  0.00     0.000 C 
BRANCH  15  16
ATOM     16  C   UNL     1     -19.650   5.963   4.841  1.00  0.00     0.000 C 
BRANCH  16  17
ATOM     17  C   UNL     1     -19.590   6.207   3.323  1.00  0.00     0.000 C 
BRANCH  17  18
ATOM     18  C   UNL     1     -20.970   6.526   2.722  1.00  0.00    -0.000 C 
BRANCH  18  19
ATOM     19  C   UNL     1     -20.926   7.703   1.731  1.00  0.00    -0.000 C 
BRANCH  19  20
ATOM     20  C   UNL     1     -21.391   7.304   0.321  1.00  0.00    -0.000 C 
BRANCH  20  21
ATOM     21  C   UNL     1     -21.236   5.799   0.055  1.00  0.00    -0.000 C 
BRANCH  21  22
ATOM     22  C   UNL     1     -21.853   5.413  -1.296  1.00  0.00    -0.000 C 
BRANCH  22  23
ATOM     23  C   UNL     1     -21.348   6.336  -2.416  1.00  0.00    -0.000 C 
BRANCH  23  24
ATOM     24  C   UNL     1     -20.572   5.580  -3.510  1.00  0.00    -0.000 C 
BRANCH  24  25
ATOM     25  C   UNL     1     -20.210   4.124  -3.156  1.00  0.00    -0.003 C 
ATOM     26  C   UNL     1     -19.119   3.547  -4.056  1.00  0.00     0.004 C 
ENDBRANCH  24  25
ENDBRANCH  23  24
ENDBRANCH  22  23
ENDBRANCH  21  22
ENDBRANCH  20  21
ENDBRANCH  19  20
ENDBRANCH  18  19
ENDBRANCH  17  18
ENDBRANCH  16  17
ENDBRANCH  15  16
ENDBRANCH   1  15
TORSDOF 22
ENDMDL
MODEL 9
REMARK VINA RESULT:    -2.932      2.113      6.869
REMARK INTER + INTRA:          -9.463
REMARK INTER:                  -7.599
REMARK INTRA:                  -1.864
REMARK UNBOUND:                -2.760
REMARK SMILES CCCCCCCCCCCCCCCCCCCCCCCC(=O)[O-]
REMARK SMILES IDX 13 1 14 2 15 3 16 4 17 5 18 6 19 7 20 8 21 9 22 10 23 11
REMARK SMILES IDX 24 12 25 13 26 14 12 15 11 16 10 17 9 18 8 19 7 20 6 21 5 22
REMARK SMILES IDX 4 23 3 24 2 25 1 26
REMARK H PARENT
REMARK Flexibility Score: inf
ROOT
ATOM      1  C   UNL     1     -18.560   6.201   1.075  1.00  0.00     0.000 C 
ENDROOT
BRANCH   1   2
ATOM      2  C   UNL     1     -19.114   7.502   0.472  1.00  0.00     0.000 C 
BRANCH   2   3
ATOM      3  C   UNL     1     -18.639   7.731  -0.974  1.00  0.00     0.000 C 
BRANCH   3   4
ATOM      4  C   UNL     1     -17.905   6.513  -1.557  1.00  0.00     0.000 C 
BRANCH   4   5
ATOM      5  C   UNL     1     -17.995   6.452  -3.090  1.00  0.00     0.000 C 
BRANCH   5   6
ATOM      6  C   UNL     1     -17.918   5.002  -3.591  1.00  0.00     0.000 C 
BRANCH   6   7
ATOM      7  C   UNL     1     -19.211   4.559  -4.296  1.00  0.00     0.000 C 
BRANCH   7   8
ATOM      8  C   UNL     1     -20.209   3.901  -3.332  1.00  0.00     0.000 C 
BRANCH   8   9
ATOM      9  C   UNL     1     -21.550   4.646  -3.337  1.00  0.00     0.000 C 
BRANCH   9  10
ATOM     10  C   UNL     1     -21.532   5.822  -2.353  1.00  0.00     0.006 C 
BRANCH  10  11
ATOM     11  C   UNL     1     -21.744   5.338  -0.915  1.00  0.00     0.053 C 
BRANCH  11  12
ATOM     12  C   UNL     1     -23.189   5.040  -0.668  1.00  0.00     0.041 C 
ATOM     13  O   UNL     1     -23.525   3.969  -0.094  1.00  0.00    -0.550 OA
ATOM     14  O   UNL     1     -24.168   5.915  -1.118  1.00  0.00    -0.550 OA
ENDBRANCH  11  12
ENDBRANCH  10  11
ENDBRANCH   9  10
ENDBRANCH   8   9
ENDBRANCH   7   8
ENDBRANCH   6   7
ENDBRANCH   5   6
ENDBRANCH   4   5
ENDBRANCH   3   4
ENDBRANCH   2   3
ENDBRANCH   1   2
BRANCH   1  15
ATOM     15  C   UNL     1     -18.362   6.289   2.598  1.00  0.00     0.000 C 
BRANCH  15  16
ATOM     16  C   UNL     1     -19.672   6.086   3.376  1.00  0.00     0.000 C 
BRANCH  16  17
ATOM     17  C   UNL     1     -19.447   6.007   4.896  1.00  0.00     0.000 C 
BRANCH  17  18
ATOM     18  C   UNL     1     -19.239   4.564   5.386  1.00  0.00    -0.000 C 
BRANCH  18  19
ATOM     19  C   UNL     1     -19.077   4.475   6.915  1.00  0.00    -0.000 C 
BRANCH  19  20
ATOM     20  C   UNL     1     -19.875   3.312   7.526  1.00  0.00    -0.000 C 
BRANCH  20  21
ATOM     21  C   UNL     1     -20.560   3.696   8.845  1.00  0.00    -0.000 C 
BRANCH  21  22
ATOM     22  C   UNL     1     -21.303   2.498   9.449  1.00  0.00    -0.000 C 
BRANCH  22  23
ATOM     23  C   UNL     1     -21.266   2.544  10.984  1.00  0.00    -0.000 C 
BRANCH  23  24
ATOM     24  C   UNL     1     -22.562   3.102  11.598  1.00  0.00    -0.000 C 
BRANCH  24  25
ATOM     25  C   UNL     1     -22.501   4.590  11.996  1.00  0.00    -0.003 C 
ATOM     26  C   UNL     1     -23.880   5.197  12.245  1.00  0.00     0.004 C 
ENDBRANCH  24  25
ENDBRANCH  23  24
ENDBRANCH  22  23
ENDBRANCH  21  22
ENDBRANCH  20  21
ENDBRANCH  19  20
ENDBRANCH  18  19
ENDBRANCH  17  18
ENDBRANCH  16  17
ENDBRANCH  15  16
ENDBRANCH   1  15
TORSDOF 22
ENDMDL
