MODEL 1
REMARK VINA RESULT:     4.768      0.000      0.000
REMARK INTER + INTRA:           7.957
REMARK INTER:                   6.997
REMARK INTRA:                   0.959
REMARK UNBOUND:                 0.959
REMARK SMILES O=c1c(O[C@@H]2O[C@H](CO)[C@@H](O)[C@H](O)[C@H]2O)c(-c2ccc(O)c(O)c2)oc2cc(O)cc(O)c12
REMARK SMILES IDX 4 1 3 2 16 3 25 4 2 5 26 6 1 7 33 8 27 9 31 10 28 11 30 12
REMARK SMILES IDX 17 13 18 14 19 15 20 16 24 17 22 18 21 19 23 21 32 23 29 25
REMARK SMILES IDX 5 27 14 28 6 29 12 30 7 31 10 32 15 33 13 35 8 37 9 38 11 40
REMARK H PARENT 21 20 23 22 32 24 29 26 15 34 13 36 9 39 11 41
REMARK Flexibility Score: inf
ROOT
ATOM      1  O   UNL     1      34.764 -31.706   9.963  1.00  0.00    -0.454 OA
ENDROOT
BRANCH   1   2
ATOM      2  C   UNL     1      35.420 -31.928   8.745  1.00  0.00     0.214 A 
ATOM      3  C   UNL     1      36.815 -31.751   8.608  1.00  0.00     0.180 A 
ATOM      4  O   UNL     1      37.383 -31.894   7.415  1.00  0.00    -0.452 OA
ATOM      5  C   UNL     1      34.678 -32.331   7.630  1.00  0.00     0.239 A 
ATOM      6  C   UNL     1      36.710 -32.241   6.324  1.00  0.00     0.146 A 
ATOM      7  O   UNL     1      33.439 -32.530   7.755  1.00  0.00    -0.285 OA
ATOM      8  C   UNL     1      35.318 -32.490   6.384  1.00  0.00     0.111 A 
ATOM      9  C   UNL     1      37.396 -32.367   5.112  1.00  0.00     0.094 A 
ATOM     10  C   UNL     1      34.634 -32.870   5.206  1.00  0.00     0.134 A 
ATOM     11  C   UNL     1      36.714 -32.742   3.950  1.00  0.00     0.123 A 
ATOM     12  C   UNL     1      35.340 -32.993   4.000  1.00  0.00     0.093 A 
BRANCH   3  13
ATOM     13  C   UNL     1      37.684 -31.421   9.759  1.00  0.00     0.025 A 
ATOM     14  C   UNL     1      37.715 -30.108  10.251  1.00  0.00     0.016 A 
ATOM     15  C   UNL     1      38.529 -29.779  11.338  1.00  0.00     0.051 A 
ATOM     16  C   UNL     1      39.330 -30.754  11.941  1.00  0.00     0.157 A 
ATOM     17  C   UNL     1      38.513 -32.392  10.348  1.00  0.00     0.062 A 
ATOM     18  C   UNL     1      39.324 -32.067  11.443  1.00  0.00     0.158 A 
BRANCH  16  19
ATOM     19  O   UNL     1      40.125 -30.399  13.031  1.00  0.00    -0.504 OA
ATOM     20  H   UNL     1      40.406 -29.441  13.202  1.00  0.00     0.293 HD
ENDBRANCH  16  19
BRANCH  18  21
ATOM     21  O   UNL     1      40.125 -33.043  12.034  1.00  0.00    -0.504 OA
ATOM     22  H   UNL     1      39.867 -33.483  12.909  1.00  0.00     0.293 HD
ENDBRANCH  18  21
ENDBRANCH   3  13
BRANCH  10  23
ATOM     23  O   UNL     1      33.262 -33.125   5.222  1.00  0.00    -0.507 OA
ATOM     24  H   UNL     1      32.617 -32.608   4.635  1.00  0.00     0.293 HD
ENDBRANCH  10  23
BRANCH  11  25
ATOM     25  O   UNL     1      37.391 -32.870   2.740  1.00  0.00    -0.508 OA
ATOM     26  H   UNL     1      38.400 -32.787   2.686  1.00  0.00     0.293 HD
ENDBRANCH  11  25
ENDBRANCH   1   2
BRANCH   1  27
ATOM     27  C   UNL     1      35.249 -30.791  10.951  1.00  0.00     0.339 C 
ATOM     28  C   UNL     1      34.595 -29.405  10.792  1.00  0.00     0.214 C 
ATOM     29  O   UNL     1      35.096 -31.325  12.258  1.00  0.00    -0.332 OA
ATOM     30  C   UNL     1      33.120 -29.438  11.209  1.00  0.00     0.180 C 
ATOM     31  C   UNL     1      33.745 -31.434  12.692  1.00  0.00     0.179 C 
ATOM     32  C   UNL     1      32.959 -30.104  12.590  1.00  0.00     0.177 C 
BRANCH  28  33
ATOM     33  O   UNL     1      35.281 -28.463  11.578  1.00  0.00    -0.384 OA
ATOM     34  H   UNL     1      36.218 -28.779  11.656  1.00  0.00     0.211 HD
ENDBRANCH  28  33
BRANCH  30  35
ATOM     35  O   UNL     1      32.368 -30.120  10.238  1.00  0.00    -0.387 OA
ATOM     36  H   UNL     1      32.221 -29.485   9.489  1.00  0.00     0.211 HD
ENDBRANCH  30  35
BRANCH  31  37
ATOM     37  C   UNL     1      33.020 -32.648  12.075  1.00  0.00     0.191 C 
BRANCH  37  38
ATOM     38  O   UNL     1      31.942 -33.022  12.889  1.00  0.00    -0.394 OA
ATOM     39  H   UNL     1      32.327 -33.219  13.784  1.00  0.00     0.210 HD
ENDBRANCH  37  38
ENDBRANCH  31  37
BRANCH  32  40
ATOM     40  O   UNL     1      33.421 -29.231  13.591  1.00  0.00    -0.387 OA
ATOM     41  H   UNL     1      34.411 -29.294  13.599  1.00  0.00     0.211 HD
ENDBRANCH  32  40
ENDBRANCH   1  27
TORSDOF 12
ENDMDL
