MODEL 1
REMARK VINA RESULT:    -4.680      0.000      0.000
REMARK INTER + INTRA:         -11.446
REMARK INTER:                  -8.783
REMARK INTRA:                  -2.663
REMARK UNBOUND:                -2.663
REMARK SMILES CCCCCCCCC=CCCCCCCCC(=O)[O-]
REMARK SMILES IDX 10 1 9 2 11 3 12 4 13 5 14 6 15 7 16 8 17 9 18 10 19 11
REMARK SMILES IDX 20 12 8 13 7 14 6 15 5 16 4 17 3 18 2 19 1 20
REMARK H PARENT
REMARK Flexibility Score: inf
ROOT
ATOM      1  C   UNL     1     116.435 123.244 129.538  1.00  0.00    -0.031 C 
ATOM      2  C   UNL     1     116.513 123.558 130.845  1.00  0.00    -0.031 C 
ENDROOT
BRANCH   1   3
ATOM      3  C   UNL     1     115.359 123.736 128.604  1.00  0.00     0.027 C 
BRANCH   3   4
ATOM      4  C   UNL     1     114.462 122.576 128.152  1.00  0.00     0.004 C 
BRANCH   4   5
ATOM      5  C   UNL     1     113.771 121.871 129.330  1.00  0.00     0.000 C 
BRANCH   5   6
ATOM      6  C   UNL     1     114.180 120.392 129.453  1.00  0.00     0.000 C 
BRANCH   6   7
ATOM      7  C   UNL     1     114.389 119.958 130.912  1.00  0.00     0.000 C 
BRANCH   7   8
ATOM      8  C   UNL     1     113.900 121.015 131.918  1.00  0.00     0.006 C 
BRANCH   8   9
ATOM      9  C   UNL     1     113.923 120.495 133.361  1.00  0.00     0.053 C 
BRANCH   9  10
ATOM     10  C   UNL     1     115.311 120.479 133.923  1.00  0.00     0.041 C 
ATOM     11  O   UNL     1     115.687 119.525 134.654  1.00  0.00    -0.550 OA
ATOM     12  O   UNL     1     116.201 121.499 133.612  1.00  0.00    -0.550 OA
ENDBRANCH   9  10
ENDBRANCH   8   9
ENDBRANCH   7   8
ENDBRANCH   6   7
ENDBRANCH   5   6
ENDBRANCH   4   5
ENDBRANCH   3   4
ENDBRANCH   1   3
BRANCH   2  13
ATOM     13  C   UNL     1     115.592 124.521 131.555  1.00  0.00     0.027 C 
BRANCH  13  14
ATOM     14  C   UNL     1     116.039 125.979 131.377  1.00  0.00     0.004 C 
BRANCH  14  15
ATOM     15  C   UNL     1     117.549 126.154 131.600  1.00  0.00     0.000 C 
BRANCH  15  16
ATOM     16  C   UNL     1     118.203 126.853 130.402  1.00  0.00     0.000 C 
BRANCH  16  17
ATOM     17  C   UNL     1     117.172 127.137 129.299  1.00  0.00    -0.000 C 
BRANCH  17  18
ATOM     18  C   UNL     1     117.606 126.567 127.933  1.00  0.00    -0.000 C 
BRANCH  18  19
ATOM     19  C   UNL     1     118.902 125.743 127.993  1.00  0.00    -0.003 C 
ATOM     20  C   UNL     1     118.904 124.559 127.028  1.00  0.00     0.004 C 
ENDBRANCH  18  19
ENDBRANCH  17  18
ENDBRANCH  16  17
ENDBRANCH  15  16
ENDBRANCH  14  15
ENDBRANCH  13  14
ENDBRANCH   2  13
TORSDOF 15
ENDMDL
MODEL 2
REMARK VINA RESULT:    -4.609      2.957      6.537
REMARK INTER + INTRA:         -11.314
REMARK INTER:                  -8.518
REMARK INTRA:                  -2.796
REMARK UNBOUND:                -2.663
REMARK SMILES CCCCCCCCC=CCCCCCCCC(=O)[O-]
REMARK SMILES IDX 10 1 9 2 11 3 12 4 13 5 14 6 15 7 16 8 17 9 18 10 19 11
REMARK SMILES IDX 20 12 8 13 7 14 6 15 5 16 4 17 3 18 2 19 1 20
REMARK H PARENT
REMARK Flexibility Score: inf
ROOT
ATOM      1  C   UNL     1     117.433 121.564 131.901  1.00  0.00    -0.031 C 
ATOM      2  C   UNL     1     117.468 120.682 132.917  1.00  0.00    -0.031 C 
ENDROOT
BRANCH   1   3
ATOM      3  C   UNL     1     116.622 122.834 131.899  1.00  0.00     0.027 C 
BRANCH   3   4
ATOM      4  C   UNL     1     117.219 123.857 130.923  1.00  0.00     0.004 C 
BRANCH   4   5
ATOM      5  C   UNL     1     116.227 124.272 129.825  1.00  0.00     0.000 C 
BRANCH   5   6
ATOM      6  C   UNL     1     116.467 123.523 128.500  1.00  0.00     0.000 C 
BRANCH   6   7
ATOM      7  C   UNL     1     117.944 123.161 128.288  1.00  0.00     0.000 C 
BRANCH   7   8
ATOM      8  C   UNL     1     118.603 123.994 127.174  1.00  0.00     0.006 C 
BRANCH   8   9
ATOM      9  C   UNL     1     119.688 124.931 127.717  1.00  0.00     0.053 C 
BRANCH   9  10
ATOM     10  C   UNL     1     119.099 126.106 128.436  1.00  0.00     0.041 C 
ATOM     11  O   UNL     1     118.272 126.855 127.853  1.00  0.00    -0.550 OA
ATOM     12  O   UNL     1     119.436 126.352 129.761  1.00  0.00    -0.550 OA
ENDBRANCH   9  10
ENDBRANCH   8   9
ENDBRANCH   7   8
ENDBRANCH   6   7
ENDBRANCH   5   6
ENDBRANCH   4   5
ENDBRANCH   3   4
ENDBRANCH   1   3
BRANCH   2  13
ATOM     13  C   UNL     1     116.772 120.871 134.244  1.00  0.00     0.027 C 
BRANCH  13  14
ATOM     14  C   UNL     1     115.524 119.985 134.368  1.00  0.00     0.004 C 
BRANCH  14  15
ATOM     15  C   UNL     1     114.245 120.720 133.938  1.00  0.00     0.000 C 
BRANCH  15  16
ATOM     16  C   UNL     1     113.760 120.224 132.570  1.00  0.00     0.000 C 
BRANCH  16  17
ATOM     17  C   UNL     1     113.420 121.404 131.646  1.00  0.00    -0.000 C 
BRANCH  17  18
ATOM     18  C   UNL     1     113.934 121.185 130.208  1.00  0.00    -0.000 C 
BRANCH  18  19
ATOM     19  C   UNL     1     114.648 119.838 130.006  1.00  0.00    -0.003 C 
ATOM     20  C   UNL     1     115.751 119.897 128.952  1.00  0.00     0.004 C 
ENDBRANCH  18  19
ENDBRANCH  17  18
ENDBRANCH  16  17
ENDBRANCH  15  16
ENDBRANCH  14  15
ENDBRANCH  13  14
ENDBRANCH   2  13
TORSDOF 15
ENDMDL
MODEL 3
REMARK VINA RESULT:    -4.588      3.087      6.365
REMARK INTER + INTRA:         -11.274
REMARK INTER:                  -8.704
REMARK INTRA:                  -2.571
REMARK UNBOUND:                -2.663
REMARK SMILES CCCCCCCCC=CCCCCCCCC(=O)[O-]
REMARK SMILES IDX 10 1 9 2 11 3 12 4 13 5 14 6 15 7 16 8 17 9 18 10 19 11
REMARK SMILES IDX 20 12 8 13 7 14 6 15 5 16 4 17 3 18 2 19 1 20
REMARK H PARENT
REMARK Flexibility Score: inf
ROOT
ATOM      1  C   UNL     1     117.712 121.125 133.670  1.00  0.00    -0.031 C 
ATOM      2  C   UNL     1     116.809 120.900 134.642  1.00  0.00    -0.031 C 
ENDROOT
BRANCH   1   3
ATOM      3  C   UNL     1     117.705 120.449 132.323  1.00  0.00     0.027 C 
BRANCH   3   4
ATOM      4  C   UNL     1     117.322 121.444 131.219  1.00  0.00     0.004 C 
BRANCH   4   5
ATOM      5  C   UNL     1     117.337 122.901 131.707  1.00  0.00     0.000 C 
BRANCH   5   6
ATOM      6  C   UNL     1     115.968 123.588 131.551  1.00  0.00     0.000 C 
BRANCH   6   7
ATOM      7  C   UNL     1     116.092 125.053 131.105  1.00  0.00     0.000 C 
BRANCH   7   8
ATOM      8  C   UNL     1     115.654 125.266 129.646  1.00  0.00     0.006 C 
BRANCH   8   9
ATOM      9  C   UNL     1     116.574 124.544 128.654  1.00  0.00     0.053 C 
BRANCH   9  10
ATOM     10  C   UNL     1     117.444 125.505 127.904  1.00  0.00     0.041 C 
ATOM     11  O   UNL     1     118.162 125.099 126.953  1.00  0.00    -0.550 OA
ATOM     12  O   UNL     1     117.437 126.855 128.233  1.00  0.00    -0.550 OA
ENDBRANCH   9  10
ENDBRANCH   8   9
ENDBRANCH   7   8
ENDBRANCH   6   7
ENDBRANCH   5   6
ENDBRANCH   4   5
ENDBRANCH   3   4
ENDBRANCH   1   3
BRANCH   2  13
ATOM     13  C   UNL     1     115.600 120.006 134.502  1.00  0.00     0.027 C 
BRANCH  13  14
ATOM     14  C   UNL     1     114.399 120.754 133.908  1.00  0.00     0.004 C 
BRANCH  14  15
ATOM     15  C   UNL     1     113.762 119.993 132.735  1.00  0.00     0.000 C 
BRANCH  15  16
ATOM     16  C   UNL     1     113.772 120.844 131.458  1.00  0.00     0.000 C 
BRANCH  16  17
ATOM     17  C   UNL     1     114.177 120.001 130.239  1.00  0.00    -0.000 C 
BRANCH  17  18
ATOM     18  C   UNL     1     114.299 120.851 128.957  1.00  0.00    -0.000 C 
BRANCH  18  19
ATOM     19  C   UNL     1     113.629 122.231 129.066  1.00  0.00    -0.003 C 
ATOM     20  C   UNL     1     113.350 122.870 127.708  1.00  0.00     0.004 C 
ENDBRANCH  18  19
ENDBRANCH  17  18
ENDBRANCH  16  17
ENDBRANCH  15  16
ENDBRANCH  14  15
ENDBRANCH  13  14
ENDBRANCH   2  13
TORSDOF 15
ENDMDL
MODEL 4
REMARK VINA RESULT:    -4.577      1.995      4.089
REMARK INTER + INTRA:         -11.254
REMARK INTER:                  -8.092
REMARK INTRA:                  -3.161
REMARK UNBOUND:                -2.663
REMARK SMILES CCCCCCCCC=CCCCCCCCC(=O)[O-]
REMARK SMILES IDX 10 1 9 2 11 3 12 4 13 5 14 6 15 7 16 8 17 9 18 10 19 11
REMARK SMILES IDX 20 12 8 13 7 14 6 15 5 16 4 17 3 18 2 19 1 20
REMARK H PARENT
REMARK Flexibility Score: inf
ROOT
ATOM      1  C   UNL     1     113.771 121.230 128.245  1.00  0.00    -0.031 C 
ATOM      2  C   UNL     1     114.081 119.926 128.366  1.00  0.00    -0.031 C 
ENDROOT
BRANCH   1   3
ATOM      3  C   UNL     1     114.284 122.318 129.155  1.00  0.00     0.027 C 
BRANCH   3   4
ATOM      4  C   UNL     1     113.118 123.102 129.772  1.00  0.00     0.004 C 
BRANCH   4   5
ATOM      5  C   UNL     1     113.083 122.997 131.305  1.00  0.00     0.000 C 
BRANCH   5   6
ATOM      6  C   UNL     1     114.184 122.073 131.857  1.00  0.00     0.000 C 
BRANCH   6   7
ATOM      7  C   UNL     1     113.623 120.751 132.405  1.00  0.00     0.000 C 
BRANCH   7   8
ATOM      8  C   UNL     1     114.553 120.098 133.442  1.00  0.00     0.006 C 
BRANCH   8   9
ATOM      9  C   UNL     1     115.474 121.121 134.119  1.00  0.00     0.053 C 
BRANCH   9  10
ATOM     10  C   UNL     1     116.649 120.462 134.774  1.00  0.00     0.041 C 
ATOM     11  O   UNL     1     116.792 119.213 134.708  1.00  0.00    -0.550 OA
ATOM     12  O   UNL     1     117.604 121.230 135.426  1.00  0.00    -0.550 OA
ENDBRANCH   9  10
ENDBRANCH   8   9
ENDBRANCH   7   8
ENDBRANCH   6   7
ENDBRANCH   5   6
ENDBRANCH   4   5
ENDBRANCH   3   4
ENDBRANCH   1   3
BRANCH   2  13
ATOM     13  C   UNL     1     115.057 119.363 129.371  1.00  0.00     0.027 C 
BRANCH  13  14
ATOM     14  C   UNL     1     116.476 119.255 128.794  1.00  0.00     0.004 C 
BRANCH  14  15
ATOM     15  C   UNL     1     117.416 120.329 129.363  1.00  0.00     0.000 C 
BRANCH  15  16
ATOM     16  C   UNL     1     117.330 120.379 130.894  1.00  0.00     0.000 C 
BRANCH  16  17
ATOM     17  C   UNL     1     117.871 121.713 131.432  1.00  0.00    -0.000 C 
BRANCH  17  18
ATOM     18  C   UNL     1     117.542 122.895 130.498  1.00  0.00    -0.000 C 
BRANCH  18  19
ATOM     19  C   UNL     1     117.125 124.173 131.245  1.00  0.00    -0.003 C 
ATOM     20  C   UNL     1     116.361 125.159 130.365  1.00  0.00     0.004 C 
ENDBRANCH  18  19
ENDBRANCH  17  18
ENDBRANCH  16  17
ENDBRANCH  15  16
ENDBRANCH  14  15
ENDBRANCH  13  14
ENDBRANCH   2  13
TORSDOF 15
ENDMDL
MODEL 5
REMARK VINA RESULT:    -4.576      3.318      6.608
REMARK INTER + INTRA:         -11.252
REMARK INTER:                  -8.645
REMARK INTRA:                  -2.607
REMARK UNBOUND:                -2.663
REMARK SMILES CCCCCCCCC=CCCCCCCCC(=O)[O-]
REMARK SMILES IDX 10 1 9 2 11 3 12 4 13 5 14 6 15 7 16 8 17 9 18 10 19 11
REMARK SMILES IDX 20 12 8 13 7 14 6 15 5 16 4 17 3 18 2 19 1 20
REMARK H PARENT
REMARK Flexibility Score: inf
ROOT
ATOM      1  C   UNL     1     114.454 119.541 128.969  1.00  0.00    -0.031 C 
ATOM      2  C   UNL     1     115.745 119.296 129.260  1.00  0.00    -0.031 C 
ENDROOT
BRANCH   1   3
ATOM      3  C   UNL     1     113.967 120.721 128.168  1.00  0.00     0.027 C 
BRANCH   3   4
ATOM      4  C   UNL     1     113.851 121.968 129.055  1.00  0.00     0.004 C 
BRANCH   4   5
ATOM      5  C   UNL     1     114.255 123.255 128.320  1.00  0.00     0.000 C 
BRANCH   5   6
ATOM      6  C   UNL     1     115.441 123.971 128.992  1.00  0.00     0.000 C 
BRANCH   6   7
ATOM      7  C   UNL     1     116.748 123.816 128.200  1.00  0.00     0.000 C 
BRANCH   7   8
ATOM      8  C   UNL     1     117.126 125.092 127.428  1.00  0.00     0.006 C 
BRANCH   8   9
ATOM      9  C   UNL     1     117.469 126.256 128.366  1.00  0.00     0.053 C 
BRANCH   9  10
ATOM     10  C   UNL     1     118.912 126.643 128.266  1.00  0.00     0.041 C 
ATOM     11  O   UNL     1     119.752 125.836 127.788  1.00  0.00    -0.550 OA
ATOM     12  O   UNL     1     119.325 127.907 128.668  1.00  0.00    -0.550 OA
ENDBRANCH   9  10
ENDBRANCH   8   9
ENDBRANCH   7   8
ENDBRANCH   6   7
ENDBRANCH   5   6
ENDBRANCH   4   5
ENDBRANCH   3   4
ENDBRANCH   1   3
BRANCH   2  13
ATOM     13  C   UNL     1     116.911 120.112 128.754  1.00  0.00     0.027 C 
BRANCH  13  14
ATOM     14  C   UNL     1     117.826 120.574 129.897  1.00  0.00     0.004 C 
BRANCH  14  15
ATOM     15  C   UNL     1     117.109 120.561 131.256  1.00  0.00     0.000 C 
BRANCH  15  16
ATOM     16  C   UNL     1     116.925 121.986 131.793  1.00  0.00     0.000 C 
BRANCH  16  17
ATOM     17  C   UNL     1     115.525 122.170 132.398  1.00  0.00    -0.000 C 
BRANCH  17  18
ATOM     18  C   UNL     1     114.747 120.841 132.481  1.00  0.00    -0.000 C 
BRANCH  18  19
ATOM     19  C   UNL     1     114.415 120.411 133.920  1.00  0.00    -0.003 C 
ATOM     20  C   UNL     1     115.620 119.849 134.670  1.00  0.00     0.004 C 
ENDBRANCH  18  19
ENDBRANCH  17  18
ENDBRANCH  16  17
ENDBRANCH  15  16
ENDBRANCH  14  15
ENDBRANCH  13  14
ENDBRANCH   2  13
TORSDOF 15
ENDMDL
MODEL 6
REMARK VINA RESULT:    -4.540      2.735      6.039
REMARK INTER + INTRA:         -11.184
REMARK INTER:                  -8.548
REMARK INTRA:                  -2.636
REMARK UNBOUND:                -2.663
REMARK SMILES CCCCCCCCC=CCCCCCCCC(=O)[O-]
REMARK SMILES IDX 10 1 9 2 11 3 12 4 13 5 14 6 15 7 16 8 17 9 18 10 19 11
REMARK SMILES IDX 20 12 8 13 7 14 6 15 5 16 4 17 3 18 2 19 1 20
REMARK H PARENT
REMARK Flexibility Score: inf
ROOT
ATOM      1  C   UNL     1     114.064 121.811 128.206  1.00  0.00    -0.031 C 
ATOM      2  C   UNL     1     113.671 122.946 128.813  1.00  0.00    -0.031 C 
ENDROOT
BRANCH   1   3
ATOM      3  C   UNL     1     114.002 120.441 128.831  1.00  0.00     0.027 C 
BRANCH   3   4
ATOM      4  C   UNL     1     114.972 119.481 128.130  1.00  0.00     0.004 C 
BRANCH   4   5
ATOM      5  C   UNL     1     116.112 119.018 129.050  1.00  0.00     0.000 C 
BRANCH   5   6
ATOM      6  C   UNL     1     116.711 120.174 129.873  1.00  0.00     0.000 C 
BRANCH   6   7
ATOM      7  C   UNL     1     117.620 121.085 129.034  1.00  0.00     0.000 C 
BRANCH   7   8
ATOM      8  C   UNL     1     117.530 122.562 129.457  1.00  0.00     0.006 C 
BRANCH   8   9
ATOM      9  C   UNL     1     117.378 123.500 128.253  1.00  0.00     0.053 C 
BRANCH   9  10
ATOM     10  C   UNL     1     117.032 124.895 128.677  1.00  0.00     0.041 C 
ATOM     11  O   UNL     1     116.646 125.121 129.853  1.00  0.00    -0.550 OA
ATOM     12  O   UNL     1     117.171 125.949 127.784  1.00  0.00    -0.550 OA
ENDBRANCH   9  10
ENDBRANCH   8   9
ENDBRANCH   7   8
ENDBRANCH   6   7
ENDBRANCH   5   6
ENDBRANCH   4   5
ENDBRANCH   3   4
ENDBRANCH   1   3
BRANCH   2  13
ATOM     13  C   UNL     1     113.024 123.012 130.176  1.00  0.00     0.027 C 
BRANCH  13  14
ATOM     14  C   UNL     1     114.021 123.437 131.264  1.00  0.00     0.004 C 
BRANCH  14  15
ATOM     15  C   UNL     1     114.588 122.234 132.034  1.00  0.00     0.000 C 
BRANCH  15  16
ATOM     16  C   UNL     1     113.544 121.117 132.154  1.00  0.00     0.000 C 
BRANCH  16  17
ATOM     17  C   UNL     1     114.027 120.013 133.107  1.00  0.00    -0.000 C 
BRANCH  17  18
ATOM     18  C   UNL     1     114.684 120.586 134.379  1.00  0.00    -0.000 C 
BRANCH  18  19
ATOM     19  C   UNL     1     116.004 119.893 134.756  1.00  0.00    -0.003 C 
ATOM     20  C   UNL     1     117.160 120.262 133.830  1.00  0.00     0.004 C 
ENDBRANCH  18  19
ENDBRANCH  17  18
ENDBRANCH  16  17
ENDBRANCH  15  16
ENDBRANCH  14  15
ENDBRANCH  13  14
ENDBRANCH   2  13
TORSDOF 15
ENDMDL
MODEL 7
REMARK VINA RESULT:    -4.529      3.325      6.046
REMARK INTER + INTRA:         -11.164
REMARK INTER:                  -8.608
REMARK INTRA:                  -2.555
REMARK UNBOUND:                -2.663
REMARK SMILES CCCCCCCCC=CCCCCCCCC(=O)[O-]
REMARK SMILES IDX 10 1 9 2 11 3 12 4 13 5 14 6 15 7 16 8 17 9 18 10 19 11
REMARK SMILES IDX 20 12 8 13 7 14 6 15 5 16 4 17 3 18 2 19 1 20
REMARK H PARENT
REMARK Flexibility Score: inf
ROOT
ATOM      1  C   UNL     1     113.535 120.973 131.850  1.00  0.00    -0.031 C 
ATOM      2  C   UNL     1     113.820 120.225 132.932  1.00  0.00    -0.031 C 
ENDROOT
BRANCH   1   3
ATOM      3  C   UNL     1     113.712 122.468 131.774  1.00  0.00     0.027 C 
BRANCH   3   4
ATOM      4  C   UNL     1     113.195 123.007 130.433  1.00  0.00     0.004 C 
BRANCH   4   5
ATOM      5  C   UNL     1     113.760 122.236 129.230  1.00  0.00     0.000 C 
BRANCH   5   6
ATOM      6  C   UNL     1     114.678 123.106 128.351  1.00  0.00     0.000 C 
BRANCH   6   7
ATOM      7  C   UNL     1     115.014 124.455 129.005  1.00  0.00     0.000 C 
BRANCH   7   8
ATOM      8  C   UNL     1     116.523 124.637 129.243  1.00  0.00     0.006 C 
BRANCH   8   9
ATOM      9  C   UNL     1     117.342 124.419 127.964  1.00  0.00     0.053 C 
BRANCH   9  10
ATOM     10  C   UNL     1     118.285 125.554 127.710  1.00  0.00     0.041 C 
ATOM     11  O   UNL     1     117.910 126.742 127.889  1.00  0.00    -0.550 OA
ATOM     12  O   UNL     1     119.590 125.299 127.308  1.00  0.00    -0.550 OA
ENDBRANCH   9  10
ENDBRANCH   8   9
ENDBRANCH   7   8
ENDBRANCH   6   7
ENDBRANCH   5   6
ENDBRANCH   4   5
ENDBRANCH   3   4
ENDBRANCH   1   3
BRANCH   2  13
ATOM     13  C   UNL     1     114.444 120.752 134.202  1.00  0.00     0.027 C 
BRANCH  13  14
ATOM     14  C   UNL     1     115.602 119.866 134.682  1.00  0.00     0.004 C 
BRANCH  14  15
ATOM     15  C   UNL     1     116.957 120.585 134.597  1.00  0.00     0.000 C 
BRANCH  15  16
ATOM     16  C   UNL     1     117.604 120.377 133.222  1.00  0.00     0.000 C 
BRANCH  16  17
ATOM     17  C   UNL     1     117.647 121.692 132.430  1.00  0.00    -0.000 C 
BRANCH  17  18
ATOM     18  C   UNL     1     117.012 121.551 131.031  1.00  0.00    -0.000 C 
BRANCH  18  19
ATOM     19  C   UNL     1     117.398 120.251 130.307  1.00  0.00    -0.003 C 
ATOM     20  C   UNL     1     116.296 119.727 129.389  1.00  0.00     0.004 C 
ENDBRANCH  18  19
ENDBRANCH  17  18
ENDBRANCH  16  17
ENDBRANCH  15  16
ENDBRANCH  14  15
ENDBRANCH  13  14
ENDBRANCH   2  13
TORSDOF 15
ENDMDL
MODEL 8
REMARK VINA RESULT:    -4.498      2.969      5.671
REMARK INTER + INTRA:         -11.105
REMARK INTER:                  -8.388
REMARK INTRA:                  -2.717
REMARK UNBOUND:                -2.663
REMARK SMILES CCCCCCCCC=CCCCCCCCC(=O)[O-]
REMARK SMILES IDX 10 1 9 2 11 3 12 4 13 5 14 6 15 7 16 8 17 9 18 10 19 11
REMARK SMILES IDX 20 12 8 13 7 14 6 15 5 16 4 17 3 18 2 19 1 20
REMARK H PARENT
REMARK Flexibility Score: inf
ROOT
ATOM      1  C   UNL     1     114.075 120.062 133.086  1.00  0.00    -0.031 C 
ATOM      2  C   UNL     1     113.654 120.853 132.082  1.00  0.00    -0.031 C 
ENDROOT
BRANCH   1   3
ATOM      3  C   UNL     1     114.785 120.553 134.321  1.00  0.00     0.027 C 
BRANCH   3   4
ATOM      4  C   UNL     1     115.986 119.656 134.649  1.00  0.00     0.004 C 
BRANCH   4   5
ATOM      5  C   UNL     1     117.307 120.439 134.710  1.00  0.00     0.000 C 
BRANCH   5   6
ATOM      6  C   UNL     1     117.527 121.321 133.467  1.00  0.00     0.000 C 
BRANCH   6   7
ATOM      7  C   UNL     1     117.661 120.498 132.177  1.00  0.00     0.000 C 
BRANCH   7   8
ATOM      8  C   UNL     1     117.266 121.297 130.922  1.00  0.00     0.006 C 
BRANCH   8   9
ATOM      9  C   UNL     1     117.173 122.803 131.200  1.00  0.00     0.053 C 
BRANCH   9  10
ATOM     10  C   UNL     1     118.333 123.548 130.614  1.00  0.00     0.041 C 
ATOM     11  O   UNL     1     118.295 123.939 129.418  1.00  0.00    -0.550 OA
ATOM     12  O   UNL     1     119.441 123.841 131.398  1.00  0.00    -0.550 OA
ENDBRANCH   9  10
ENDBRANCH   8   9
ENDBRANCH   7   8
ENDBRANCH   6   7
ENDBRANCH   5   6
ENDBRANCH   4   5
ENDBRANCH   3   4
ENDBRANCH   1   3
BRANCH   2  13
ATOM     13  C   UNL     1     113.747 122.361 132.078  1.00  0.00     0.027 C 
BRANCH  13  14
ATOM     14  C   UNL     1     112.873 122.986 130.981  1.00  0.00     0.004 C 
BRANCH  14  15
ATOM     15  C   UNL     1     113.702 123.456 129.776  1.00  0.00     0.000 C 
BRANCH  15  16
ATOM     16  C   UNL     1     112.901 123.326 128.474  1.00  0.00     0.000 C 
BRANCH  16  17
ATOM     17  C   UNL     1     113.541 122.291 127.536  1.00  0.00    -0.000 C 
BRANCH  17  18
ATOM     18  C   UNL     1     114.545 121.379 128.271  1.00  0.00    -0.000 C 
BRANCH  18  19
ATOM     19  C   UNL     1     114.018 119.956 128.519  1.00  0.00    -0.003 C 
ATOM     20  C   UNL     1     115.093 119.000 129.030  1.00  0.00     0.004 C 
ENDBRANCH  18  19
ENDBRANCH  17  18
ENDBRANCH  16  17
ENDBRANCH  15  16
ENDBRANCH  14  15
ENDBRANCH  13  14
ENDBRANCH   2  13
TORSDOF 15
ENDMDL
MODEL 9
REMARK VINA RESULT:    -4.439      1.826      3.507
REMARK INTER + INTRA:         -10.995
REMARK INTER:                  -8.121
REMARK INTRA:                  -2.874
REMARK UNBOUND:                -2.663
REMARK SMILES CCCCCCCCC=CCCCCCCCC(=O)[O-]
REMARK SMILES IDX 10 1 9 2 11 3 12 4 13 5 14 6 15 7 16 8 17 9 18 10 19 11
REMARK SMILES IDX 20 12 8 13 7 14 6 15 5 16 4 17 3 18 2 19 1 20
REMARK H PARENT
REMARK Flexibility Score: inf
ROOT
ATOM      1  C   UNL     1     115.946 119.481 129.352  1.00  0.00    -0.031 C 
ATOM      2  C   UNL     1     114.632 119.691 129.147  1.00  0.00    -0.031 C 
ENDROOT
BRANCH   1   3
ATOM      3  C   UNL     1     117.048 120.318 128.755  1.00  0.00     0.027 C 
BRANCH   3   4
ATOM      4  C   UNL     1     117.770 121.122 129.845  1.00  0.00     0.004 C 
BRANCH   4   5
ATOM      5  C   UNL     1     117.180 120.881 131.243  1.00  0.00     0.000 C 
BRANCH   5   6
ATOM      6  C   UNL     1     116.608 122.166 131.870  1.00  0.00     0.000 C 
BRANCH   6   7
ATOM      7  C   UNL     1     115.343 121.903 132.701  1.00  0.00     0.000 C 
BRANCH   7   8
ATOM      8  C   UNL     1     115.159 120.414 133.043  1.00  0.00     0.006 C 
BRANCH   8   9
ATOM      9  C   UNL     1     115.371 120.132 134.535  1.00  0.00     0.053 C 
BRANCH   9  10
ATOM     10  C   UNL     1     116.825 120.035 134.881  1.00  0.00     0.041 C 
ATOM     11  O   UNL     1     117.424 121.022 135.382  1.00  0.00    -0.550 OA
ATOM     12  O   UNL     1     117.511 118.843 134.682  1.00  0.00    -0.550 OA
ENDBRANCH   9  10
ENDBRANCH   8   9
ENDBRANCH   7   8
ENDBRANCH   6   7
ENDBRANCH   5   6
ENDBRANCH   4   5
ENDBRANCH   3   4
ENDBRANCH   1   3
BRANCH   2  13
ATOM     13  C   UNL     1     114.057 120.846 128.363  1.00  0.00     0.027 C 
BRANCH  13  14
ATOM     14  C   UNL     1     113.782 122.065 129.256  1.00  0.00     0.004 C 
BRANCH  14  15
ATOM     15  C   UNL     1     114.246 123.377 128.606  1.00  0.00     0.000 C 
BRANCH  15  16
ATOM     16  C   UNL     1     114.947 124.280 129.630  1.00  0.00     0.000 C 
BRANCH  16  17
ATOM     17  C   UNL     1     116.316 124.743 129.109  1.00  0.00    -0.000 C 
BRANCH  17  18
ATOM     18  C   UNL     1     116.732 124.002 127.821  1.00  0.00    -0.000 C 
BRANCH  18  19
ATOM     19  C   UNL     1     118.240 124.069 127.531  1.00  0.00    -0.003 C 
ATOM     20  C   UNL     1     118.766 125.499 127.425  1.00  0.00     0.004 C 
ENDBRANCH  18  19
ENDBRANCH  17  18
ENDBRANCH  16  17
ENDBRANCH  15  16
ENDBRANCH  14  15
ENDBRANCH  13  14
ENDBRANCH   2  13
TORSDOF 15
ENDMDL
