MODEL 1
REMARK VINA RESULT:    -3.977      0.000      0.000
REMARK INTER + INTRA:         -16.651
REMARK INTER:                 -10.486
REMARK INTRA:                  -6.165
REMARK UNBOUND:                -6.165
REMARK SMILES CCCCCCCCCCCCCCCCCCCCCCCCCCCCCC(=O)[O-]
REMARK SMILES IDX 16 1 17 2 18 3 19 4 20 5 21 6 22 7 23 8 24 9 25 10 26 11
REMARK SMILES IDX 27 12 28 13 29 14 30 15 31 16 32 17 15 18 14 19 13 20 12 21
REMARK SMILES IDX 11 22 10 23 9 24 8 25 7 26 6 27 5 28 4 29 3 30 2 31 1 32
REMARK H PARENT
REMARK Flexibility Score: inf
ROOT
ATOM      1  C   UNL     1      -5.871   3.309  54.754  1.00  0.00     0.000 C 
ENDROOT
BRANCH   1   2
ATOM      2  C   UNL     1      -5.996   4.622  55.545  1.00  0.00     0.000 C 
BRANCH   2   3
ATOM      3  C   UNL     1      -7.193   5.510  55.152  1.00  0.00     0.000 C 
BRANCH   3   4
ATOM      4  C   UNL     1      -7.576   6.548  56.227  1.00  0.00     0.000 C 
BRANCH   4   5
ATOM      5  C   UNL     1      -9.085   6.564  56.517  1.00  0.00     0.000 C 
BRANCH   5   6
ATOM      6  C   UNL     1      -9.412   6.318  57.999  1.00  0.00     0.000 C 
BRANCH   6   7
ATOM      7  C   UNL     1      -8.282   5.602  58.769  1.00  0.00     0.000 C 
BRANCH   7   8
ATOM      8  C   UNL     1      -7.854   6.369  60.029  1.00  0.00     0.000 C 
BRANCH   8   9
ATOM      9  C   UNL     1      -6.377   6.104  60.356  1.00  0.00     0.000 C 
BRANCH   9  10
ATOM     10  C   UNL     1      -5.555   5.690  59.123  1.00  0.00     0.000 C 
BRANCH  10  11
ATOM     11  C   UNL     1      -4.773   4.373  59.278  1.00  0.00     0.000 C 
BRANCH  11  12
ATOM     12  C   UNL     1      -5.622   3.129  58.968  1.00  0.00     0.000 C 
BRANCH  12  13
ATOM     13  C   UNL     1      -4.735   1.950  58.542  1.00  0.00     0.006 C 
BRANCH  13  14
ATOM     14  C   UNL     1      -3.663   2.364  57.524  1.00  0.00     0.053 C 
BRANCH  14  15
ATOM     15  C   UNL     1      -2.320   1.788  57.850  1.00  0.00     0.041 C 
ATOM     16  O   UNL     1      -1.612   1.270  56.947  1.00  0.00    -0.550 OA
ATOM     17  O   UNL     1      -1.845   1.830  59.156  1.00  0.00    -0.550 OA
ENDBRANCH  14  15
ENDBRANCH  13  14
ENDBRANCH  12  13
ENDBRANCH  11  12
ENDBRANCH  10  11
ENDBRANCH   9  10
ENDBRANCH   8   9
ENDBRANCH   7   8
ENDBRANCH   6   7
ENDBRANCH   5   6
ENDBRANCH   4   5
ENDBRANCH   3   4
ENDBRANCH   2   3
ENDBRANCH   1   2
BRANCH   1  18
ATOM     18  C   UNL     1      -5.908   3.535  53.232  1.00  0.00     0.000 C 
BRANCH  18  19
ATOM     19  C   UNL     1      -6.933   2.639  52.513  1.00  0.00     0.000 C 
BRANCH  19  20
ATOM     20  C   UNL     1      -7.720   3.314  51.370  1.00  0.00     0.000 C 
BRANCH  20  21
ATOM     21  C   UNL     1      -7.344   4.781  51.090  1.00  0.00     0.000 C 
BRANCH  21  22
ATOM     22  C   UNL     1      -8.290   5.786  51.764  1.00  0.00     0.000 C 
BRANCH  22  23
ATOM     23  C   UNL     1      -9.657   5.799  51.064  1.00  0.00     0.000 C 
BRANCH  23  24
ATOM     24  C   UNL     1     -10.777   5.206  51.933  1.00  0.00    -0.000 C 
BRANCH  24  25
ATOM     25  C   UNL     1     -10.316   4.935  53.377  1.00  0.00    -0.000 C 
BRANCH  25  26
ATOM     26  C   UNL     1     -10.824   3.591  53.923  1.00  0.00    -0.000 C 
BRANCH  26  27
ATOM     27  C   UNL     1      -9.751   2.834  54.723  1.00  0.00    -0.000 C 
BRANCH  27  28
ATOM     28  C   UNL     1      -9.889   3.044  56.241  1.00  0.00    -0.000 C 
BRANCH  28  29
ATOM     29  C   UNL     1      -8.740   2.400  57.036  1.00  0.00    -0.000 C 
BRANCH  29  30
ATOM     30  C   UNL     1      -8.119   1.198  56.290  1.00  0.00    -0.000 C 
BRANCH  30  31
ATOM     31  C   UNL     1      -7.750   0.025  57.215  1.00  0.00    -0.003 C 
ATOM     32  C   UNL     1      -6.526  -0.750  56.735  1.00  0.00     0.004 C 
ENDBRANCH  30  31
ENDBRANCH  29  30
ENDBRANCH  28  29
ENDBRANCH  27  28
ENDBRANCH  26  27
ENDBRANCH  25  26
ENDBRANCH  24  25
ENDBRANCH  23  24
ENDBRANCH  22  23
ENDBRANCH  21  22
ENDBRANCH  20  21
ENDBRANCH  19  20
ENDBRANCH  18  19
ENDBRANCH   1  18
TORSDOF 28
ENDMDL
MODEL 2
REMARK VINA RESULT:    -3.872      7.497     11.699
REMARK INTER + INTRA:         -16.375
REMARK INTER:                 -11.013
REMARK INTRA:                  -5.363
REMARK UNBOUND:                -6.165
REMARK SMILES CCCCCCCCCCCCCCCCCCCCCCCCCCCCCC(=O)[O-]
REMARK SMILES IDX 16 1 17 2 18 3 19 4 20 5 21 6 22 7 23 8 24 9 25 10 26 11
REMARK SMILES IDX 27 12 28 13 29 14 30 15 31 16 32 17 15 18 14 19 13 20 12 21
REMARK SMILES IDX 11 22 10 23 9 24 8 25 7 26 6 27 5 28 4 29 3 30 2 31 1 32
REMARK H PARENT
REMARK Flexibility Score: inf
ROOT
ATOM      1  C   UNL     1       1.559  -1.700  53.510  1.00  0.00     0.000 C 
ENDROOT
BRANCH   1   2
ATOM      2  C   UNL     1       2.119  -2.894  54.300  1.00  0.00     0.000 C 
BRANCH   2   3
ATOM      3  C   UNL     1       3.656  -2.951  54.396  1.00  0.00     0.000 C 
BRANCH   3   4
ATOM      4  C   UNL     1       4.188  -2.994  55.843  1.00  0.00     0.000 C 
BRANCH   4   5
ATOM      5  C   UNL     1       3.072  -3.226  56.874  1.00  0.00     0.000 C 
BRANCH   5   6
ATOM      6  C   UNL     1       3.563  -3.101  58.325  1.00  0.00     0.000 C 
BRANCH   6   7
ATOM      7  C   UNL     1       3.829  -1.646  58.764  1.00  0.00     0.000 C 
BRANCH   7   8
ATOM      8  C   UNL     1       4.491  -1.561  60.147  1.00  0.00     0.000 C 
BRANCH   8   9
ATOM      9  C   UNL     1       4.901  -2.955  60.644  1.00  0.00     0.000 C 
BRANCH   9  10
ATOM     10  C   UNL     1       4.853  -3.083  62.176  1.00  0.00     0.000 C 
BRANCH  10  11
ATOM     11  C   UNL     1       3.536  -2.617  62.825  1.00  0.00     0.000 C 
BRANCH  11  12
ATOM     12  C   UNL     1       3.347  -3.154  64.253  1.00  0.00     0.000 C 
BRANCH  12  13
ATOM     13  C   UNL     1       2.292  -4.270  64.285  1.00  0.00     0.006 C 
BRANCH  13  14
ATOM     14  C   UNL     1       0.915  -3.757  64.734  1.00  0.00     0.053 C 
BRANCH  14  15
ATOM     15  C   UNL     1      -0.186  -4.238  63.840  1.00  0.00     0.041 C 
ATOM     16  O   UNL     1      -0.958  -3.415  63.282  1.00  0.00    -0.550 OA
ATOM     17  O   UNL     1      -0.354  -5.599  63.616  1.00  0.00    -0.550 OA
ENDBRANCH  14  15
ENDBRANCH  13  14
ENDBRANCH  12  13
ENDBRANCH  11  12
ENDBRANCH  10  11
ENDBRANCH   9  10
ENDBRANCH   8   9
ENDBRANCH   7   8
ENDBRANCH   6   7
ENDBRANCH   5   6
ENDBRANCH   4   5
ENDBRANCH   3   4
ENDBRANCH   2   3
ENDBRANCH   1   2
BRANCH   1  18
ATOM     18  C   UNL     1       2.627  -0.628  53.230  1.00  0.00     0.000 C 
BRANCH  18  19
ATOM     19  C   UNL     1       2.433   0.651  54.065  1.00  0.00     0.000 C 
BRANCH  19  20
ATOM     20  C   UNL     1       2.893   0.561  55.535  1.00  0.00     0.000 C 
BRANCH  20  21
ATOM     21  C   UNL     1       1.765   0.374  56.567  1.00  0.00     0.000 C 
BRANCH  21  22
ATOM     22  C   UNL     1       0.570   1.310  56.332  1.00  0.00     0.000 C 
BRANCH  22  23
ATOM     23  C   UNL     1      -0.744   0.621  56.725  1.00  0.00     0.000 C 
BRANCH  23  24
ATOM     24  C   UNL     1      -1.714   1.561  57.458  1.00  0.00    -0.000 C 
BRANCH  24  25
ATOM     25  C   UNL     1      -1.633   1.408  58.989  1.00  0.00    -0.000 C 
BRANCH  25  26
ATOM     26  C   UNL     1      -0.423   2.133  59.598  1.00  0.00    -0.000 C 
BRANCH  26  27
ATOM     27  C   UNL     1       0.204   1.356  60.768  1.00  0.00    -0.000 C 
BRANCH  27  28
ATOM     28  C   UNL     1       1.048   0.159  60.296  1.00  0.00    -0.000 C 
BRANCH  28  29
ATOM     29  C   UNL     1       0.809  -1.105  61.140  1.00  0.00    -0.000 C 
BRANCH  29  30
ATOM     30  C   UNL     1       0.525  -2.345  60.263  1.00  0.00    -0.000 C 
BRANCH  30  31
ATOM     31  C   UNL     1      -0.622  -2.137  59.258  1.00  0.00    -0.003 C 
ATOM     32  C   UNL     1      -0.305  -2.687  57.870  1.00  0.00     0.004 C 
ENDBRANCH  30  31
ENDBRANCH  29  30
ENDBRANCH  28  29
ENDBRANCH  27  28
ENDBRANCH  26  27
ENDBRANCH  25  26
ENDBRANCH  24  25
ENDBRANCH  23  24
ENDBRANCH  22  23
ENDBRANCH  21  22
ENDBRANCH  20  21
ENDBRANCH  19  20
ENDBRANCH  18  19
ENDBRANCH   1  18
TORSDOF 28
ENDMDL
MODEL 3
REMARK VINA RESULT:    -3.855      4.197      9.309
REMARK INTER + INTRA:         -16.331
REMARK INTER:                 -12.829
REMARK INTRA:                  -3.503
REMARK UNBOUND:                -6.165
REMARK SMILES CCCCCCCCCCCCCCCCCCCCCCCCCCCCCC(=O)[O-]
REMARK SMILES IDX 16 1 17 2 18 3 19 4 20 5 21 6 22 7 23 8 24 9 25 10 26 11
REMARK SMILES IDX 27 12 28 13 29 14 30 15 31 16 32 17 15 18 14 19 13 20 12 21
REMARK SMILES IDX 11 22 10 23 9 24 8 25 7 26 6 27 5 28 4 29 3 30 2 31 1 32
REMARK H PARENT
REMARK Flexibility Score: inf
ROOT
ATOM      1  C   UNL     1      -3.919   2.530  57.435  1.00  0.00     0.000 C 
ENDROOT
BRANCH   1   2
ATOM      2  C   UNL     1      -4.568   2.561  58.829  1.00  0.00     0.000 C 
BRANCH   2   3
ATOM      3  C   UNL     1      -4.405   3.888  59.596  1.00  0.00     0.000 C 
BRANCH   3   4
ATOM      4  C   UNL     1      -4.864   5.127  58.800  1.00  0.00     0.000 C 
BRANCH   4   5
ATOM      5  C   UNL     1      -6.089   5.809  59.429  1.00  0.00     0.000 C 
BRANCH   5   6
ATOM      6  C   UNL     1      -7.369   5.622  58.599  1.00  0.00     0.000 C 
BRANCH   6   7
ATOM      7  C   UNL     1      -7.262   4.502  57.543  1.00  0.00     0.000 C 
BRANCH   7   8
ATOM      8  C   UNL     1      -7.514   5.013  56.117  1.00  0.00     0.000 C 
BRANCH   8   9
ATOM      9  C   UNL     1      -6.223   4.977  55.286  1.00  0.00     0.000 C 
BRANCH   9  10
ATOM     10  C   UNL     1      -6.024   3.642  54.548  1.00  0.00     0.000 C 
BRANCH  10  11
ATOM     11  C   UNL     1      -7.322   2.963  54.073  1.00  0.00     0.000 C 
BRANCH  11  12
ATOM     12  C   UNL     1      -7.159   2.223  52.735  1.00  0.00     0.000 C 
BRANCH  12  13
ATOM     13  C   UNL     1      -7.710   3.061  51.572  1.00  0.00     0.006 C 
BRANCH  13  14
ATOM     14  C   UNL     1      -8.889   3.947  52.000  1.00  0.00     0.053 C 
BRANCH  14  15
ATOM     15  C   UNL     1      -8.728   5.364  51.540  1.00  0.00     0.041 C 
ATOM     16  O   UNL     1      -7.663   5.993  51.777  1.00  0.00    -0.550 OA
ATOM     17  O   UNL     1      -9.754   5.987  50.839  1.00  0.00    -0.550 OA
ENDBRANCH  14  15
ENDBRANCH  13  14
ENDBRANCH  12  13
ENDBRANCH  11  12
ENDBRANCH  10  11
ENDBRANCH   9  10
ENDBRANCH   8   9
ENDBRANCH   7   8
ENDBRANCH   6   7
ENDBRANCH   5   6
ENDBRANCH   4   5
ENDBRANCH   3   4
ENDBRANCH   2   3
ENDBRANCH   1   2
BRANCH   1  18
ATOM     18  C   UNL     1      -2.664   1.640  57.392  1.00  0.00     0.000 C 
BRANCH  18  19
ATOM     19  C   UNL     1      -2.683   0.517  58.445  1.00  0.00     0.000 C 
BRANCH  19  20
ATOM     20  C   UNL     1      -1.510   0.526  59.447  1.00  0.00     0.000 C 
BRANCH  20  21
ATOM     21  C   UNL     1      -0.848   1.897  59.673  1.00  0.00     0.000 C 
BRANCH  21  22
ATOM     22  C   UNL     1       0.296   1.855  60.696  1.00  0.00     0.000 C 
BRANCH  22  23
ATOM     23  C   UNL     1       1.640   1.598  59.999  1.00  0.00     0.000 C 
BRANCH  23  24
ATOM     24  C   UNL     1       1.830   0.128  59.595  1.00  0.00    -0.000 C 
BRANCH  24  25
ATOM     25  C   UNL     1       2.536  -0.019  58.233  1.00  0.00    -0.000 C 
BRANCH  25  26
ATOM     26  C   UNL     1       1.582  -0.459  57.112  1.00  0.00    -0.000 C 
BRANCH  26  27
ATOM     27  C   UNL     1       0.816   0.721  56.490  1.00  0.00    -0.000 C 
BRANCH  27  28
ATOM     28  C   UNL     1       1.691   1.557  55.540  1.00  0.00    -0.000 C 
BRANCH  28  29
ATOM     29  C   UNL     1       2.718   0.704  54.775  1.00  0.00    -0.000 C 
BRANCH  29  30
ATOM     30  C   UNL     1       2.167   0.207  53.420  1.00  0.00    -0.000 C 
BRANCH  30  31
ATOM     31  C   UNL     1       1.890  -1.306  53.386  1.00  0.00    -0.003 C 
ATOM     32  C   UNL     1       3.035  -2.135  53.962  1.00  0.00     0.004 C 
ENDBRANCH  30  31
ENDBRANCH  29  30
ENDBRANCH  28  29
ENDBRANCH  27  28
ENDBRANCH  26  27
ENDBRANCH  25  26
ENDBRANCH  24  25
ENDBRANCH  23  24
ENDBRANCH  22  23
ENDBRANCH  21  22
ENDBRANCH  20  21
ENDBRANCH  19  20
ENDBRANCH  18  19
ENDBRANCH   1  18
TORSDOF 28
ENDMDL
MODEL 4
REMARK VINA RESULT:    -3.822      2.045      5.951
REMARK INTER + INTRA:         -16.243
REMARK INTER:                  -9.967
REMARK INTRA:                  -6.276
REMARK UNBOUND:                -6.165
REMARK SMILES CCCCCCCCCCCCCCCCCCCCCCCCCCCCCC(=O)[O-]
REMARK SMILES IDX 16 1 17 2 18 3 19 4 20 5 21 6 22 7 23 8 24 9 25 10 26 11
REMARK SMILES IDX 27 12 28 13 29 14 30 15 31 16 32 17 15 18 14 19 13 20 12 21
REMARK SMILES IDX 11 22 10 23 9 24 8 25 7 26 6 27 5 28 4 29 3 30 2 31 1 32
REMARK H PARENT
REMARK Flexibility Score: inf
ROOT
ATOM      1  C   UNL     1      -5.986   3.487  54.754  1.00  0.00     0.000 C 
ENDROOT
BRANCH   1   2
ATOM      2  C   UNL     1      -5.881   3.746  53.242  1.00  0.00     0.000 C 
BRANCH   2   3
ATOM      3  C   UNL     1      -7.007   3.126  52.393  1.00  0.00     0.000 C 
BRANCH   3   4
ATOM      4  C   UNL     1      -7.383   3.961  51.152  1.00  0.00     0.000 C 
BRANCH   4   5
ATOM      5  C   UNL     1      -7.743   5.412  51.507  1.00  0.00     0.000 C 
BRANCH   5   6
ATOM      6  C   UNL     1      -9.252   5.691  51.427  1.00  0.00     0.000 C 
BRANCH   6   7
ATOM      7  C   UNL     1      -9.842   6.273  52.729  1.00  0.00     0.000 C 
BRANCH   7   8
ATOM      8  C   UNL     1     -11.162   5.597  53.129  1.00  0.00     0.000 C 
BRANCH   8   9
ATOM      9  C   UNL     1     -10.976   4.081  53.282  1.00  0.00     0.000 C 
BRANCH   9  10
ATOM     10  C   UNL     1     -10.282   3.692  54.600  1.00  0.00     0.000 C 
BRANCH  10  11
ATOM     11  C   UNL     1      -9.573   2.325  54.580  1.00  0.00     0.000 C 
BRANCH  11  12
ATOM     12  C   UNL     1      -9.004   1.924  55.951  1.00  0.00     0.000 C 
BRANCH  12  13
ATOM     13  C   UNL     1      -9.545   2.838  57.060  1.00  0.00     0.006 C 
BRANCH  13  14
ATOM     14  C   UNL     1      -8.454   3.248  58.060  1.00  0.00     0.053 C 
BRANCH  14  15
ATOM     15  C   UNL     1      -7.580   2.095  58.448  1.00  0.00     0.041 C 
ATOM     16  O   UNL     1      -8.041   1.153  59.145  1.00  0.00    -0.550 OA
ATOM     17  O   UNL     1      -6.255   2.057  58.031  1.00  0.00    -0.550 OA
ENDBRANCH  14  15
ENDBRANCH  13  14
ENDBRANCH  12  13
ENDBRANCH  11  12
ENDBRANCH  10  11
ENDBRANCH   9  10
ENDBRANCH   8   9
ENDBRANCH   7   8
ENDBRANCH   6   7
ENDBRANCH   5   6
ENDBRANCH   4   5
ENDBRANCH   3   4
ENDBRANCH   2   3
ENDBRANCH   1   2
BRANCH   1  18
ATOM     18  C   UNL     1      -6.132   4.788  55.564  1.00  0.00     0.000 C 
BRANCH  18  19
ATOM     19  C   UNL     1      -7.380   5.603  55.178  1.00  0.00     0.000 C 
BRANCH  19  20
ATOM     20  C   UNL     1      -7.748   6.751  56.140  1.00  0.00     0.000 C 
BRANCH  20  21
ATOM     21  C   UNL     1      -8.891   6.445  57.124  1.00  0.00     0.000 C 
BRANCH  21  22
ATOM     22  C   UNL     1     -10.280   6.780  56.561  1.00  0.00     0.000 C 
BRANCH  22  23
ATOM     23  C   UNL     1     -11.343   6.720  57.666  1.00  0.00     0.000 C 
BRANCH  23  24
ATOM     24  C   UNL     1     -10.804   7.157  59.037  1.00  0.00    -0.000 C 
BRANCH  24  25
ATOM     25  C   UNL     1     -11.417   6.346  60.194  1.00  0.00    -0.000 C 
BRANCH  25  26
ATOM     26  C   UNL     1     -10.812   4.939  60.321  1.00  0.00    -0.000 C 
BRANCH  26  27
ATOM     27  C   UNL     1     -10.127   4.710  61.679  1.00  0.00    -0.000 C 
BRANCH  27  28
ATOM     28  C   UNL     1      -8.594   4.646  61.563  1.00  0.00    -0.000 C 
BRANCH  28  29
ATOM     29  C   UNL     1      -7.939   6.039  61.582  1.00  0.00    -0.000 C 
BRANCH  29  30
ATOM     30  C   UNL     1      -7.195   6.350  60.265  1.00  0.00    -0.000 C 
BRANCH  30  31
ATOM     31  C   UNL     1      -6.100   5.325  59.920  1.00  0.00    -0.003 C 
ATOM     32  C   UNL     1      -5.062   5.868  58.942  1.00  0.00     0.004 C 
ENDBRANCH  30  31
ENDBRANCH  29  30
ENDBRANCH  28  29
ENDBRANCH  27  28
ENDBRANCH  26  27
ENDBRANCH  25  26
ENDBRANCH  24  25
ENDBRANCH  23  24
ENDBRANCH  22  23
ENDBRANCH  21  22
ENDBRANCH  20  21
ENDBRANCH  19  20
ENDBRANCH  18  19
ENDBRANCH   1  18
TORSDOF 28
ENDMDL
MODEL 5
REMARK VINA RESULT:    -3.810      7.417     11.752
REMARK INTER + INTRA:         -16.212
REMARK INTER:                 -11.046
REMARK INTRA:                  -5.166
REMARK UNBOUND:                -6.165
REMARK SMILES CCCCCCCCCCCCCCCCCCCCCCCCCCCCCC(=O)[O-]
REMARK SMILES IDX 16 1 17 2 18 3 19 4 20 5 21 6 22 7 23 8 24 9 25 10 26 11
REMARK SMILES IDX 27 12 28 13 29 14 30 15 31 16 32 17 15 18 14 19 13 20 12 21
REMARK SMILES IDX 11 22 10 23 9 24 8 25 7 26 6 27 5 28 4 29 3 30 2 31 1 32
REMARK H PARENT
REMARK Flexibility Score: inf
ROOT
ATOM      1  C   UNL     1       1.632   0.174  59.882  1.00  0.00     0.000 C 
ENDROOT
BRANCH   1   2
ATOM      2  C   UNL     1       2.884  -0.344  59.154  1.00  0.00     0.000 C 
BRANCH   2   3
ATOM      3  C   UNL     1       3.730  -1.357  59.950  1.00  0.00     0.000 C 
BRANCH   3   4
ATOM      4  C   UNL     1       3.082  -2.753  60.068  1.00  0.00     0.000 C 
BRANCH   4   5
ATOM      5  C   UNL     1       3.368  -3.422  61.421  1.00  0.00     0.000 C 
BRANCH   5   6
ATOM      6  C   UNL     1       3.718  -2.411  62.525  1.00  0.00     0.000 C 
BRANCH   6   7
ATOM      7  C   UNL     1       3.632  -2.999  63.950  1.00  0.00     0.000 C 
BRANCH   7   8
ATOM      8  C   UNL     1       2.566  -4.098  64.068  1.00  0.00     0.000 C 
BRANCH   8   9
ATOM      9  C   UNL     1       1.309  -3.569  64.773  1.00  0.00     0.000 C 
BRANCH   9  10
ATOM     10  C   UNL     1       0.006  -3.983  64.066  1.00  0.00     0.000 C 
BRANCH  10  11
ATOM     11  C   UNL     1      -0.277  -3.243  62.746  1.00  0.00     0.000 C 
BRANCH  11  12
ATOM     12  C   UNL     1      -0.969  -4.130  61.697  1.00  0.00     0.000 C 
BRANCH  12  13
ATOM     13  C   UNL     1      -0.195  -4.119  60.371  1.00  0.00     0.006 C 
BRANCH  13  14
ATOM     14  C   UNL     1      -0.492  -2.867  59.533  1.00  0.00     0.053 C 
BRANCH  14  15
ATOM     15  C   UNL     1      -1.912  -2.830  59.056  1.00  0.00     0.041 C 
ATOM     16  O   UNL     1      -2.656  -1.857  59.345  1.00  0.00    -0.550 OA
ATOM     17  O   UNL     1      -2.411  -3.871  58.281  1.00  0.00    -0.550 OA
ENDBRANCH  14  15
ENDBRANCH  13  14
ENDBRANCH  12  13
ENDBRANCH  11  12
ENDBRANCH  10  11
ENDBRANCH   9  10
ENDBRANCH   8   9
ENDBRANCH   7   8
ENDBRANCH   6   7
ENDBRANCH   5   6
ENDBRANCH   4   5
ENDBRANCH   3   4
ENDBRANCH   2   3
ENDBRANCH   1   2
BRANCH   1  18
ATOM     18  C   UNL     1       1.608   1.710  59.986  1.00  0.00     0.000 C 
BRANCH  18  19
ATOM     19  C   UNL     1       0.214   2.311  59.733  1.00  0.00     0.000 C 
BRANCH  19  20
ATOM     20  C   UNL     1      -0.945   1.295  59.666  1.00  0.00     0.000 C 
BRANCH  20  21
ATOM     21  C   UNL     1      -1.914   1.479  58.484  1.00  0.00     0.000 C 
BRANCH  21  22
ATOM     22  C   UNL     1      -1.222   1.382  57.116  1.00  0.00     0.000 C 
BRANCH  22  23
ATOM     23  C   UNL     1      -0.772  -0.060  56.836  1.00  0.00     0.000 C 
BRANCH  23  24
ATOM     24  C   UNL     1       0.634  -0.136  56.222  1.00  0.00    -0.000 C 
BRANCH  24  25
ATOM     25  C   UNL     1       1.239   1.257  55.966  1.00  0.00    -0.000 C 
BRANCH  25  26
ATOM     26  C   UNL     1       2.502   1.208  55.093  1.00  0.00    -0.000 C 
BRANCH  26  27
ATOM     27  C   UNL     1       2.214   0.721  53.663  1.00  0.00    -0.000 C 
BRANCH  27  28
ATOM     28  C   UNL     1       3.121  -0.449  53.245  1.00  0.00    -0.000 C 
BRANCH  28  29
ATOM     29  C   UNL     1       2.543  -1.819  53.644  1.00  0.00    -0.000 C 
BRANCH  29  30
ATOM     30  C   UNL     1       3.566  -2.679  54.417  1.00  0.00    -0.000 C 
BRANCH  30  31
ATOM     31  C   UNL     1       3.953  -2.093  55.786  1.00  0.00    -0.003 C 
ATOM     32  C   UNL     1       4.878  -3.007  56.585  1.00  0.00     0.004 C 
ENDBRANCH  30  31
ENDBRANCH  29  30
ENDBRANCH  28  29
ENDBRANCH  27  28
ENDBRANCH  26  27
ENDBRANCH  25  26
ENDBRANCH  24  25
ENDBRANCH  23  24
ENDBRANCH  22  23
ENDBRANCH  21  22
ENDBRANCH  20  21
ENDBRANCH  19  20
ENDBRANCH  18  19
ENDBRANCH   1  18
TORSDOF 28
ENDMDL
MODEL 6
REMARK VINA RESULT:    -3.805      3.011      7.707
REMARK INTER + INTRA:         -16.197
REMARK INTER:                 -10.559
REMARK INTRA:                  -5.638
REMARK UNBOUND:                -6.165
REMARK SMILES CCCCCCCCCCCCCCCCCCCCCCCCCCCCCC(=O)[O-]
REMARK SMILES IDX 16 1 17 2 18 3 19 4 20 5 21 6 22 7 23 8 24 9 25 10 26 11
REMARK SMILES IDX 27 12 28 13 29 14 30 15 31 16 32 17 15 18 14 19 13 20 12 21
REMARK SMILES IDX 11 22 10 23 9 24 8 25 7 26 6 27 5 28 4 29 3 30 2 31 1 32
REMARK H PARENT
REMARK Flexibility Score: inf
ROOT
ATOM      1  C   UNL     1      -9.972   3.644  57.063  1.00  0.00     0.000 C 
ENDROOT
BRANCH   1   2
ATOM      2  C   UNL     1      -9.668   4.789  58.044  1.00  0.00     0.000 C 
BRANCH   2   3
ATOM      3  C   UNL     1      -8.822   5.939  57.464  1.00  0.00     0.000 C 
BRANCH   3   4
ATOM      4  C   UNL     1      -9.053   6.183  55.958  1.00  0.00     0.000 C 
BRANCH   4   5
ATOM      5  C   UNL     1      -7.783   5.954  55.124  1.00  0.00     0.000 C 
BRANCH   5   6
ATOM      6  C   UNL     1      -6.673   5.237  55.910  1.00  0.00     0.000 C 
BRANCH   6   7
ATOM      7  C   UNL     1      -5.993   4.099  55.119  1.00  0.00     0.000 C 
BRANCH   7   8
ATOM      8  C   UNL     1      -7.002   3.070  54.587  1.00  0.00     0.000 C 
BRANCH   8   9
ATOM      9  C   UNL     1      -6.597   2.579  53.190  1.00  0.00     0.000 C 
BRANCH   9  10
ATOM     10  C   UNL     1      -7.454   3.190  52.068  1.00  0.00     0.000 C 
BRANCH  10  11
ATOM     11  C   UNL     1      -6.838   4.422  51.379  1.00  0.00     0.000 C 
BRANCH  11  12
ATOM     12  C   UNL     1      -7.697   5.688  51.529  1.00  0.00     0.000 C 
BRANCH  12  13
ATOM     13  C   UNL     1      -9.172   5.390  51.220  1.00  0.00     0.006 C 
BRANCH  13  14
ATOM     14  C   UNL     1     -10.120   6.006  52.260  1.00  0.00     0.053 C 
BRANCH  14  15
ATOM     15  C   UNL     1     -10.994   4.976  52.908  1.00  0.00     0.041 C 
ATOM     16  O   UNL     1     -12.247   5.071  52.842  1.00  0.00    -0.550 OA
ATOM     17  O   UNL     1     -10.420   3.903  53.581  1.00  0.00    -0.550 OA
ENDBRANCH  14  15
ENDBRANCH  13  14
ENDBRANCH  12  13
ENDBRANCH  11  12
ENDBRANCH  10  11
ENDBRANCH   9  10
ENDBRANCH   8   9
ENDBRANCH   7   8
ENDBRANCH   6   7
ENDBRANCH   5   6
ENDBRANCH   4   5
ENDBRANCH   3   4
ENDBRANCH   2   3
ENDBRANCH   1   2
BRANCH   1  18
ATOM     18  C   UNL     1      -9.207   2.355  57.411  1.00  0.00     0.000 C 
BRANCH  18  19
ATOM     19  C   UNL     1      -8.184   2.546  58.545  1.00  0.00     0.000 C 
BRANCH  19  20
ATOM     20  C   UNL     1      -7.254   1.345  58.811  1.00  0.00     0.000 C 
BRANCH  20  21
ATOM     21  C   UNL     1      -6.414   0.884  57.606  1.00  0.00     0.000 C 
BRANCH  21  22
ATOM     22  C   UNL     1      -5.015   1.516  57.568  1.00  0.00     0.000 C 
BRANCH  22  23
ATOM     23  C   UNL     1      -4.296   1.325  58.912  1.00  0.00     0.000 C 
BRANCH  23  24
ATOM     24  C   UNL     1      -3.660   2.622  59.436  1.00  0.00    -0.000 C 
BRANCH  24  25
ATOM     25  C   UNL     1      -4.714   3.654  59.880  1.00  0.00    -0.000 C 
BRANCH  25  26
ATOM     26  C   UNL     1      -4.707   4.923  59.013  1.00  0.00    -0.000 C 
BRANCH  26  27
ATOM     27  C   UNL     1      -5.761   5.950  59.462  1.00  0.00    -0.000 C 
BRANCH  27  28
ATOM     28  C   UNL     1      -6.749   5.371  60.488  1.00  0.00    -0.000 C 
BRANCH  28  29
ATOM     29  C   UNL     1      -7.373   6.454  61.387  1.00  0.00    -0.000 C 
BRANCH  29  30
ATOM     30  C   UNL     1      -8.908   6.309  61.492  1.00  0.00    -0.000 C 
BRANCH  30  31
ATOM     31  C   UNL     1      -9.676   7.563  61.041  1.00  0.00    -0.003 C 
ATOM     32  C   UNL     1      -9.037   8.861  61.528  1.00  0.00     0.004 C 
ENDBRANCH  30  31
ENDBRANCH  29  30
ENDBRANCH  28  29
ENDBRANCH  27  28
ENDBRANCH  26  27
ENDBRANCH  25  26
ENDBRANCH  24  25
ENDBRANCH  23  24
ENDBRANCH  22  23
ENDBRANCH  21  22
ENDBRANCH  20  21
ENDBRANCH  19  20
ENDBRANCH  18  19
ENDBRANCH   1  18
TORSDOF 28
ENDMDL
MODEL 7
REMARK VINA RESULT:    -3.800      4.959      9.823
REMARK INTER + INTRA:         -16.185
REMARK INTER:                 -12.141
REMARK INTRA:                  -4.044
REMARK UNBOUND:                -6.165
REMARK SMILES CCCCCCCCCCCCCCCCCCCCCCCCCCCCCC(=O)[O-]
REMARK SMILES IDX 16 1 17 2 18 3 19 4 20 5 21 6 22 7 23 8 24 9 25 10 26 11
REMARK SMILES IDX 27 12 28 13 29 14 30 15 31 16 32 17 15 18 14 19 13 20 12 21
REMARK SMILES IDX 11 22 10 23 9 24 8 25 7 26 6 27 5 28 4 29 3 30 2 31 1 32
REMARK H PARENT
REMARK Flexibility Score: inf
ROOT
ATOM      1  C   UNL     1      -1.602   1.076  59.250  1.00  0.00     0.000 C 
ENDROOT
BRANCH   1   2
ATOM      2  C   UNL     1      -1.951   1.581  57.840  1.00  0.00     0.000 C 
BRANCH   2   3
ATOM      3  C   UNL     1      -2.732   0.582  56.964  1.00  0.00     0.000 C 
BRANCH   3   4
ATOM      4  C   UNL     1      -4.198   0.992  56.709  1.00  0.00     0.000 C 
BRANCH   4   5
ATOM      5  C   UNL     1      -4.554   2.339  57.360  1.00  0.00     0.000 C 
BRANCH   5   6
ATOM      6  C   UNL     1      -5.417   2.183  58.622  1.00  0.00     0.000 C 
BRANCH   6   7
ATOM      7  C   UNL     1      -5.052   3.176  59.745  1.00  0.00     0.000 C 
BRANCH   7   8
ATOM      8  C   UNL     1      -4.546   4.520  59.199  1.00  0.00     0.000 C 
BRANCH   8   9
ATOM      9  C   UNL     1      -5.529   5.651  59.530  1.00  0.00     0.000 C 
BRANCH   9  10
ATOM     10  C   UNL     1      -6.672   5.770  58.506  1.00  0.00     0.000 C 
BRANCH  10  11
ATOM     11  C   UNL     1      -6.217   5.909  57.041  1.00  0.00     0.000 C 
BRANCH  11  12
ATOM     12  C   UNL     1      -6.818   4.835  56.120  1.00  0.00     0.000 C 
BRANCH  12  13
ATOM     13  C   UNL     1      -7.338   5.457  54.816  1.00  0.00     0.006 C 
BRANCH  13  14
ATOM     14  C   UNL     1      -8.364   4.557  54.110  1.00  0.00     0.053 C 
BRANCH  14  15
ATOM     15  C   UNL     1      -8.822   5.137  52.807  1.00  0.00     0.041 C 
ATOM     16  O   UNL     1      -8.072   5.911  52.156  1.00  0.00    -0.550 OA
ATOM     17  O   UNL     1     -10.078   4.814  52.306  1.00  0.00    -0.550 OA
ENDBRANCH  14  15
ENDBRANCH  13  14
ENDBRANCH  12  13
ENDBRANCH  11  12
ENDBRANCH  10  11
ENDBRANCH   9  10
ENDBRANCH   8   9
ENDBRANCH   7   8
ENDBRANCH   6   7
ENDBRANCH   5   6
ENDBRANCH   4   5
ENDBRANCH   3   4
ENDBRANCH   2   3
ENDBRANCH   1   2
BRANCH   1  18
ATOM     18  C   UNL     1      -0.694   2.054  60.016  1.00  0.00     0.000 C 
BRANCH  18  19
ATOM     19  C   UNL     1       0.495   1.361  60.706  1.00  0.00     0.000 C 
BRANCH  19  20
ATOM     20  C   UNL     1       1.796   1.293  59.879  1.00  0.00     0.000 C 
BRANCH  20  21
ATOM     21  C   UNL     1       2.231  -0.121  59.454  1.00  0.00     0.000 C 
BRANCH  21  22
ATOM     22  C   UNL     1       2.520  -0.238  57.950  1.00  0.00     0.000 C 
BRANCH  22  23
ATOM     23  C   UNL     1       1.216  -0.183  57.141  1.00  0.00     0.000 C 
BRANCH  23  24
ATOM     24  C   UNL     1       1.245   0.882  56.035  1.00  0.00    -0.000 C 
BRANCH  24  25
ATOM     25  C   UNL     1       2.568   0.872  55.246  1.00  0.00    -0.000 C 
BRANCH  25  26
ATOM     26  C   UNL     1       2.355   0.819  53.725  1.00  0.00    -0.000 C 
BRANCH  26  27
ATOM     27  C   UNL     1       1.947  -0.580  53.234  1.00  0.00    -0.000 C 
BRANCH  27  28
ATOM     28  C   UNL     1       2.988  -1.656  53.587  1.00  0.00    -0.000 C 
BRANCH  28  29
ATOM     29  C   UNL     1       2.371  -2.860  54.320  1.00  0.00    -0.000 C 
BRANCH  29  30
ATOM     30  C   UNL     1       3.077  -3.148  55.664  1.00  0.00    -0.000 C 
BRANCH  30  31
ATOM     31  C   UNL     1       4.459  -2.482  55.787  1.00  0.00    -0.003 C 
ATOM     32  C   UNL     1       5.302  -3.063  56.919  1.00  0.00     0.004 C 
ENDBRANCH  30  31
ENDBRANCH  29  30
ENDBRANCH  28  29
ENDBRANCH  27  28
ENDBRANCH  26  27
ENDBRANCH  25  26
ENDBRANCH  24  25
ENDBRANCH  23  24
ENDBRANCH  22  23
ENDBRANCH  21  22
ENDBRANCH  20  21
ENDBRANCH  19  20
ENDBRANCH  18  19
ENDBRANCH   1  18
TORSDOF 28
ENDMDL
MODEL 8
REMARK VINA RESULT:    -3.793      1.433      2.337
REMARK INTER + INTRA:         -16.167
REMARK INTER:                 -10.212
REMARK INTRA:                  -5.955
REMARK UNBOUND:                -6.165
REMARK SMILES CCCCCCCCCCCCCCCCCCCCCCCCCCCCCC(=O)[O-]
REMARK SMILES IDX 16 1 17 2 18 3 19 4 20 5 21 6 22 7 23 8 24 9 25 10 26 11
REMARK SMILES IDX 27 12 28 13 29 14 30 15 31 16 32 17 15 18 14 19 13 20 12 21
REMARK SMILES IDX 11 22 10 23 9 24 8 25 7 26 6 27 5 28 4 29 3 30 2 31 1 32
REMARK H PARENT
REMARK Flexibility Score: inf
ROOT
ATOM      1  C   UNL     1      -5.600   3.962  55.924  1.00  0.00     0.000 C 
ENDROOT
BRANCH   1   2
ATOM      2  C   UNL     1      -6.643   5.080  56.090  1.00  0.00     0.000 C 
BRANCH   2   3
ATOM      3  C   UNL     1      -6.443   5.982  57.323  1.00  0.00     0.000 C 
BRANCH   3   4
ATOM      4  C   UNL     1      -5.139   5.698  58.097  1.00  0.00     0.000 C 
BRANCH   4   5
ATOM      5  C   UNL     1      -5.303   5.883  59.614  1.00  0.00     0.000 C 
BRANCH   5   6
ATOM      6  C   UNL     1      -6.765   6.101  60.035  1.00  0.00     0.000 C 
BRANCH   6   7
ATOM      7  C   UNL     1      -7.409   4.863  60.692  1.00  0.00     0.000 C 
BRANCH   7   8
ATOM      8  C   UNL     1      -8.506   4.238  59.817  1.00  0.00     0.000 C 
BRANCH   8   9
ATOM      9  C   UNL     1      -7.970   3.015  59.058  1.00  0.00     0.000 C 
BRANCH   9  10
ATOM     10  C   UNL     1      -6.842   2.289  59.811  1.00  0.00     0.000 C 
BRANCH  10  11
ATOM     11  C   UNL     1      -5.693   1.779  58.922  1.00  0.00     0.000 C 
BRANCH  11  12
ATOM     12  C   UNL     1      -4.352   2.471  59.217  1.00  0.00     0.000 C 
BRANCH  12  13
ATOM     13  C   UNL     1      -3.237   1.913  58.320  1.00  0.00     0.006 C 
BRANCH  13  14
ATOM     14  C   UNL     1      -2.046   1.384  59.133  1.00  0.00     0.053 C 
BRANCH  14  15
ATOM     15  C   UNL     1      -2.113  -0.099  59.333  1.00  0.00     0.041 C 
ATOM     16  O   UNL     1      -1.182  -0.704  59.926  1.00  0.00    -0.550 OA
ATOM     17  O   UNL     1      -3.212  -0.813  58.870  1.00  0.00    -0.550 OA
ENDBRANCH  14  15
ENDBRANCH  13  14
ENDBRANCH  12  13
ENDBRANCH  11  12
ENDBRANCH  10  11
ENDBRANCH   9  10
ENDBRANCH   8   9
ENDBRANCH   7   8
ENDBRANCH   6   7
ENDBRANCH   5   6
ENDBRANCH   4   5
ENDBRANCH   3   4
ENDBRANCH   2   3
ENDBRANCH   1   2
BRANCH   1  18
ATOM     18  C   UNL     1      -5.928   3.023  54.749  1.00  0.00     0.000 C 
BRANCH  18  19
ATOM     19  C   UNL     1      -6.072   3.763  53.407  1.00  0.00     0.000 C 
BRANCH  19  20
ATOM     20  C   UNL     1      -6.978   3.077  52.364  1.00  0.00     0.000 C 
BRANCH  20  21
ATOM     21  C   UNL     1      -7.369   3.949  51.157  1.00  0.00     0.000 C 
BRANCH  21  22
ATOM     22  C   UNL     1      -7.687   5.402  51.539  1.00  0.00     0.000 C 
BRANCH  22  23
ATOM     23  C   UNL     1      -9.150   5.740  51.216  1.00  0.00     0.000 C 
BRANCH  23  24
ATOM     24  C   UNL     1      -9.956   6.147  52.459  1.00  0.00    -0.000 C 
BRANCH  24  25
ATOM     25  C   UNL     1      -9.224   5.804  53.770  1.00  0.00    -0.000 C 
BRANCH  25  26
ATOM     26  C   UNL     1     -10.186   5.478  54.923  1.00  0.00    -0.000 C 
BRANCH  26  27
ATOM     27  C   UNL     1     -10.090   4.011  55.376  1.00  0.00    -0.000 C 
BRANCH  27  28
ATOM     28  C   UNL     1     -10.133   3.025  54.196  1.00  0.00    -0.000 C 
BRANCH  28  29
ATOM     29  C   UNL     1      -9.431   1.692  54.511  1.00  0.00    -0.000 C 
BRANCH  29  30
ATOM     30  C   UNL     1      -9.161   1.520  56.022  1.00  0.00    -0.000 C 
BRANCH  30  31
ATOM     31  C   UNL     1      -8.016   0.540  56.334  1.00  0.00    -0.003 C 
ATOM     32  C   UNL     1      -7.583  -0.276  55.120  1.00  0.00     0.004 C 
ENDBRANCH  30  31
ENDBRANCH  29  30
ENDBRANCH  28  29
ENDBRANCH  27  28
ENDBRANCH  26  27
ENDBRANCH  25  26
ENDBRANCH  24  25
ENDBRANCH  23  24
ENDBRANCH  22  23
ENDBRANCH  21  22
ENDBRANCH  20  21
ENDBRANCH  19  20
ENDBRANCH  18  19
ENDBRANCH   1  18
TORSDOF 28
ENDMDL
MODEL 9
REMARK VINA RESULT:    -3.750      6.358     10.993
REMARK INTER + INTRA:         -16.053
REMARK INTER:                 -10.166
REMARK INTRA:                  -5.887
REMARK UNBOUND:                -6.165
REMARK SMILES CCCCCCCCCCCCCCCCCCCCCCCCCCCCCC(=O)[O-]
REMARK SMILES IDX 16 1 17 2 18 3 19 4 20 5 21 6 22 7 23 8 24 9 25 10 26 11
REMARK SMILES IDX 27 12 28 13 29 14 30 15 31 16 32 17 15 18 14 19 13 20 12 21
REMARK SMILES IDX 11 22 10 23 9 24 8 25 7 26 6 27 5 28 4 29 3 30 2 31 1 32
REMARK H PARENT
REMARK Flexibility Score: inf
ROOT
ATOM      1  C   UNL     1       3.536  -2.565  54.367  1.00  0.00     0.000 C 
ENDROOT
BRANCH   1   2
ATOM      2  C   UNL     1       2.048  -2.571  53.977  1.00  0.00     0.000 C 
BRANCH   2   3
ATOM      3  C   UNL     1       1.564  -1.314  53.229  1.00  0.00     0.000 C 
BRANCH   3   4
ATOM      4  C   UNL     1       2.600  -0.171  53.199  1.00  0.00     0.000 C 
BRANCH   4   5
ATOM      5  C   UNL     1       2.011   1.168  53.670  1.00  0.00     0.000 C 
BRANCH   5   6
ATOM      6  C   UNL     1       2.345   1.484  55.137  1.00  0.00     0.000 C 
BRANCH   6   7
ATOM      7  C   UNL     1       1.238   1.063  56.126  1.00  0.00     0.000 C 
BRANCH   7   8
ATOM      8  C   UNL     1       1.596  -0.215  56.899  1.00  0.00     0.000 C 
BRANCH   8   9
ATOM      9  C   UNL     1       1.827   0.090  58.386  1.00  0.00     0.000 C 
BRANCH   9  10
ATOM     10  C   UNL     1       0.909  -0.724  59.314  1.00  0.00     0.000 C 
BRANCH  10  11
ATOM     11  C   UNL     1      -0.189   0.094  60.020  1.00  0.00     0.000 C 
BRANCH  11  12
ATOM     12  C   UNL     1      -1.505   0.143  59.226  1.00  0.00     0.000 C 
BRANCH  12  13
ATOM     13  C   UNL     1      -1.823   1.578  58.779  1.00  0.00     0.006 C 
BRANCH  13  14
ATOM     14  C   UNL     1      -2.500   1.622  57.401  1.00  0.00     0.053 C 
BRANCH  14  15
ATOM     15  C   UNL     1      -3.751   2.446  57.411  1.00  0.00     0.041 C 
ATOM     16  O   UNL     1      -4.493   2.489  56.395  1.00  0.00    -0.550 OA
ATOM     17  O   UNL     1      -4.102   3.161  58.550  1.00  0.00    -0.550 OA
ENDBRANCH  14  15
ENDBRANCH  13  14
ENDBRANCH  12  13
ENDBRANCH  11  12
ENDBRANCH  10  11
ENDBRANCH   9  10
ENDBRANCH   8   9
ENDBRANCH   7   8
ENDBRANCH   6   7
ENDBRANCH   5   6
ENDBRANCH   4   5
ENDBRANCH   3   4
ENDBRANCH   2   3
ENDBRANCH   1   2
BRANCH   1  18
ATOM     18  C   UNL     1       3.749  -2.820  55.870  1.00  0.00     0.000 C 
BRANCH  18  19
ATOM     19  C   UNL     1       4.640  -4.043  56.155  1.00  0.00     0.000 C 
BRANCH  19  20
ATOM     20  C   UNL     1       4.533  -5.196  55.135  1.00  0.00     0.000 C 
BRANCH  20  21
ATOM     21  C   UNL     1       3.600  -6.351  55.542  1.00  0.00     0.000 C 
BRANCH  21  22
ATOM     22  C   UNL     1       2.134  -6.110  55.153  1.00  0.00     0.000 C 
BRANCH  22  23
ATOM     23  C   UNL     1       1.285  -5.806  56.395  1.00  0.00     0.000 C 
BRANCH  23  24
ATOM     24  C   UNL     1       0.066  -4.925  56.083  1.00  0.00    -0.000 C 
BRANCH  24  25
ATOM     25  C   UNL     1       0.105  -3.582  56.837  1.00  0.00    -0.000 C 
BRANCH  25  26
ATOM     26  C   UNL     1      -1.225  -2.816  56.760  1.00  0.00    -0.000 C 
BRANCH  26  27
ATOM     27  C   UNL     1      -1.283  -1.852  55.563  1.00  0.00    -0.000 C 
BRANCH  27  28
ATOM     28  C   UNL     1      -2.349  -2.257  54.531  1.00  0.00    -0.000 C 
BRANCH  28  29
ATOM     29  C   UNL     1      -1.737  -2.833  53.241  1.00  0.00    -0.000 C 
BRANCH  29  30
ATOM     30  C   UNL     1      -2.397  -4.168  52.830  1.00  0.00    -0.000 C 
BRANCH  30  31
ATOM     31  C   UNL     1      -1.460  -5.382  52.960  1.00  0.00    -0.003 C 
ATOM     32  C   UNL     1      -0.105  -5.162  52.294  1.00  0.00     0.004 C 
ENDBRANCH  30  31
ENDBRANCH  29  30
ENDBRANCH  28  29
ENDBRANCH  27  28
ENDBRANCH  26  27
ENDBRANCH  25  26
ENDBRANCH  24  25
ENDBRANCH  23  24
ENDBRANCH  22  23
ENDBRANCH  21  22
ENDBRANCH  20  21
ENDBRANCH  19  20
ENDBRANCH  18  19
ENDBRANCH   1  18
TORSDOF 28
ENDMDL
