MODEL 1
REMARK VINA RESULT:    -6.114      0.000      0.000
REMARK INTER + INTRA:          -7.614
REMARK INTER:                  -7.364
REMARK INTRA:                  -0.249
REMARK UNBOUND:                -0.249
REMARK SMILES O=c1c(O)c(-c2ccc(O)c(O)c2)oc2cc(O)cc(O)c12
REMARK SMILES IDX 5 1 3 2 2 3 1 4 22 5 20 6 19 7 17 8 16 9 15 10 14 11 6 12
REMARK SMILES IDX 7 13 8 14 9 15 13 16 11 17 10 18 12 20 4 22 21 24 18 26
REMARK H PARENT 10 19 12 21 4 23 21 25 18 27
REMARK Flexibility Score: inf
ROOT
ATOM      1  C   UNL     1      34.359  19.930 -23.820  1.00  0.00     0.180 A 
ATOM      2  C   UNL     1      33.285  20.635 -24.390  1.00  0.00     0.208 A 
ATOM      3  C   UNL     1      32.286  21.152 -23.548  1.00  0.00     0.238 A 
ATOM      4  O   UNL     1      31.300  21.734 -24.067  1.00  0.00    -0.285 OA
ATOM      5  C   UNL     1      32.383  20.970 -22.147  1.00  0.00     0.111 A 
ATOM      6  C   UNL     1      31.451  21.485 -21.197  1.00  0.00     0.134 A 
ATOM      7  C   UNL     1      31.575  21.134 -19.847  1.00  0.00     0.093 A 
ATOM      8  C   UNL     1      32.636  20.340 -19.404  1.00  0.00     0.123 A 
ATOM      9  C   UNL     1      33.585  19.882 -20.315  1.00  0.00     0.094 A 
ATOM     10  C   UNL     1      33.467  20.186 -21.673  1.00  0.00     0.146 A 
ATOM     11  O   UNL     1      34.388  19.720 -22.509  1.00  0.00    -0.452 OA
ENDROOT
BRANCH   1  12
ATOM     12  C   UNL     1      35.462  19.378 -24.640  1.00  0.00     0.025 A 
ATOM     13  C   UNL     1      36.409  20.218 -25.252  1.00  0.00     0.016 A 
ATOM     14  C   UNL     1      37.456  19.673 -26.002  1.00  0.00     0.051 A 
ATOM     15  C   UNL     1      37.580  18.285 -26.139  1.00  0.00     0.157 A 
ATOM     16  C   UNL     1      35.603  17.986 -24.763  1.00  0.00     0.062 A 
ATOM     17  C   UNL     1      36.650  17.437 -25.513  1.00  0.00     0.158 A 
BRANCH  15  18
ATOM     18  O   UNL     1      38.624  17.745 -26.888  1.00  0.00    -0.504 OA
ATOM     19  H   UNL     1      38.766  16.744 -26.956  1.00  0.00     0.293 HD
ENDBRANCH  15  18
BRANCH  17  20
ATOM     20  O   UNL     1      36.750  16.051 -25.623  1.00  0.00    -0.504 OA
ATOM     21  H   UNL     1      36.009  15.489 -26.027  1.00  0.00     0.293 HD
ENDBRANCH  17  20
ENDBRANCH   1  12
BRANCH   2  22
ATOM     22  O   UNL     1      33.198  20.783 -25.776  1.00  0.00    -0.502 OA
ATOM     23  H   UNL     1      32.313  20.773 -26.270  1.00  0.00     0.293 HD
ENDBRANCH   2  22
BRANCH   6  24
ATOM     24  O   UNL     1      30.410  22.360 -21.521  1.00  0.00    -0.507 OA
ATOM     25  H   UNL     1      30.137  23.159 -20.970  1.00  0.00     0.293 HD
ENDBRANCH   6  24
BRANCH   8  26
ATOM     26  O   UNL     1      32.761  20.009 -18.056  1.00  0.00    -0.508 OA
ATOM     27  H   UNL     1      32.076  19.427 -17.588  1.00  0.00     0.293 HD
ENDBRANCH   8  26
TORSDOF 6
ENDMDL
MODEL 2
REMARK VINA RESULT:    -5.959     11.346     13.021
REMARK INTER + INTRA:          -7.428
REMARK INTER:                  -7.129
REMARK INTRA:                  -0.299
REMARK UNBOUND:                -0.249
REMARK SMILES O=c1c(O)c(-c2ccc(O)c(O)c2)oc2cc(O)cc(O)c12
REMARK SMILES IDX 5 1 3 2 2 3 1 4 22 5 20 6 19 7 17 8 16 9 15 10 14 11 6 12
REMARK SMILES IDX 7 13 8 14 9 15 13 16 11 17 10 18 12 20 4 22 21 24 18 26
REMARK H PARENT 10 19 12 21 4 23 21 25 18 27
REMARK Flexibility Score: inf
ROOT
ATOM      1  C   UNL     1      27.930  21.608 -13.402  1.00  0.00     0.180 A 
ATOM      2  C   UNL     1      28.777  22.512 -12.737  1.00  0.00     0.208 A 
ATOM      3  C   UNL     1      29.866  22.011 -12.005  1.00  0.00     0.238 A 
ATOM      4  O   UNL     1      30.588  22.821 -11.367  1.00  0.00    -0.285 OA
ATOM      5  C   UNL     1      30.103  20.616 -11.958  1.00  0.00     0.111 A 
ATOM      6  C   UNL     1      31.198  20.002 -11.280  1.00  0.00     0.134 A 
ATOM      7  C   UNL     1      31.260  18.606 -11.191  1.00  0.00     0.093 A 
ATOM      8  C   UNL     1      30.302  17.802 -11.812  1.00  0.00     0.123 A 
ATOM      9  C   UNL     1      29.263  18.391 -12.527  1.00  0.00     0.094 A 
ATOM     10  C   UNL     1      29.154  19.781 -12.603  1.00  0.00     0.146 A 
ATOM     11  O   UNL     1      28.141  20.302 -13.286  1.00  0.00    -0.452 OA
ENDROOT
BRANCH   1  12
ATOM     12  C   UNL     1      26.778  22.060 -14.215  1.00  0.00     0.025 A 
ATOM     13  C   UNL     1      25.474  22.081 -13.687  1.00  0.00     0.016 A 
ATOM     14  C   UNL     1      24.405  22.534 -14.465  1.00  0.00     0.051 A 
ATOM     15  C   UNL     1      24.623  22.983 -15.774  1.00  0.00     0.157 A 
ATOM     16  C   UNL     1      26.994  22.531 -15.520  1.00  0.00     0.062 A 
ATOM     17  C   UNL     1      25.925  22.984 -16.302  1.00  0.00     0.158 A 
BRANCH  15  18
ATOM     18  O   UNL     1      23.554  23.432 -16.547  1.00  0.00    -0.504 OA
ATOM     19  H   UNL     1      23.634  24.251 -17.139  1.00  0.00     0.293 HD
ENDBRANCH  15  18
BRANCH  17  20
ATOM     20  O   UNL     1      26.177  23.432 -17.598  1.00  0.00    -0.504 OA
ATOM     21  H   UNL     1      26.904  24.108 -17.802  1.00  0.00     0.293 HD
ENDBRANCH  17  20
ENDBRANCH   1  12
BRANCH   2  22
ATOM     22  O   UNL     1      28.513  23.883 -12.778  1.00  0.00    -0.502 OA
ATOM     23  H   UNL     1      27.669  24.262 -13.190  1.00  0.00     0.293 HD
ENDBRANCH   2  22
BRANCH   6  24
ATOM     24  O   UNL     1      32.256  20.713 -10.705  1.00  0.00    -0.507 OA
ATOM     25  H   UNL     1      32.280  21.714 -10.587  1.00  0.00     0.293 HD
ENDBRANCH   6  24
BRANCH   8  26
ATOM     26  O   UNL     1      30.381  16.413 -11.733  1.00  0.00    -0.508 OA
ATOM     27  H   UNL     1      30.204  15.825 -12.539  1.00  0.00     0.293 HD
ENDBRANCH   8  26
TORSDOF 6
ENDMDL
MODEL 3
REMARK VINA RESULT:    -5.847     12.725     14.626
REMARK INTER + INTRA:          -7.293
REMARK INTER:                  -6.976
REMARK INTRA:                  -0.317
REMARK UNBOUND:                -0.249
REMARK SMILES O=c1c(O)c(-c2ccc(O)c(O)c2)oc2cc(O)cc(O)c12
REMARK SMILES IDX 5 1 3 2 2 3 1 4 22 5 20 6 19 7 17 8 16 9 15 10 14 11 6 12
REMARK SMILES IDX 7 13 8 14 9 15 13 16 11 17 10 18 12 20 4 22 21 24 18 26
REMARK H PARENT 10 19 12 21 4 23 21 25 18 27
REMARK Flexibility Score: inf
ROOT
ATOM      1  C   UNL     1      28.107  22.200 -11.473  1.00  0.00     0.180 A 
ATOM      2  C   UNL     1      29.047  22.975 -10.773  1.00  0.00     0.208 A 
ATOM      3  C   UNL     1      30.261  22.385 -10.382  1.00  0.00     0.238 A 
ATOM      4  O   UNL     1      31.074  23.068  -9.708  1.00  0.00    -0.285 OA
ATOM      5  C   UNL     1      30.524  21.033 -10.709  1.00  0.00     0.111 A 
ATOM      6  C   UNL     1      31.735  20.346 -10.398  1.00  0.00     0.134 A 
ATOM      7  C   UNL     1      31.835  18.973 -10.654  1.00  0.00     0.093 A 
ATOM      8  C   UNL     1      30.792  18.277 -11.269  1.00  0.00     0.123 A 
ATOM      9  C   UNL     1      29.629  18.952 -11.631  1.00  0.00     0.094 A 
ATOM     10  C   UNL     1      29.486  20.314 -11.356  1.00  0.00     0.146 A 
ATOM     11  O   UNL     1      28.356  20.917 -11.707  1.00  0.00    -0.452 OA
ENDROOT
BRANCH   1  12
ATOM     12  C   UNL     1      26.817  22.757 -11.940  1.00  0.00     0.025 A 
ATOM     13  C   UNL     1      25.692  22.804 -11.098  1.00  0.00     0.016 A 
ATOM     14  C   UNL     1      24.491  23.356 -11.553  1.00  0.00     0.051 A 
ATOM     15  C   UNL     1      24.400  23.881 -12.849  1.00  0.00     0.157 A 
ATOM     16  C   UNL     1      26.726  23.303 -13.231  1.00  0.00     0.062 A 
ATOM     17  C   UNL     1      25.525  23.856 -13.690  1.00  0.00     0.158 A 
BRANCH  15  18
ATOM     18  O   UNL     1      23.201  24.429 -13.300  1.00  0.00    -0.504 OA
ATOM     19  H   UNL     1      22.987  25.412 -13.175  1.00  0.00     0.293 HD
ENDBRANCH  15  18
BRANCH  17  20
ATOM     20  O   UNL     1      25.470  24.377 -14.982  1.00  0.00    -0.504 OA
ATOM     21  H   UNL     1      26.071  24.038 -15.725  1.00  0.00     0.293 HD
ENDBRANCH  17  20
ENDBRANCH   1  12
BRANCH   2  22
ATOM     22  O   UNL     1      28.758  24.301 -10.441  1.00  0.00    -0.502 OA
ATOM     23  H   UNL     1      28.712  25.038 -11.135  1.00  0.00     0.293 HD
ENDBRANCH   2  22
BRANCH   6  24
ATOM     24  O   UNL     1      32.870  20.966  -9.867  1.00  0.00    -0.507 OA
ATOM     25  H   UNL     1      33.568  21.451 -10.410  1.00  0.00     0.293 HD
ENDBRANCH   6  24
BRANCH   8  26
ATOM     26  O   UNL     1      30.906  16.914 -11.536  1.00  0.00    -0.508 OA
ATOM     27  H   UNL     1      31.622  16.553 -12.156  1.00  0.00     0.293 HD
ENDBRANCH   8  26
TORSDOF 6
ENDMDL
MODEL 4
REMARK VINA RESULT:    -5.788     11.311     12.973
REMARK INTER + INTRA:          -7.222
REMARK INTER:                  -6.902
REMARK INTRA:                  -0.319
REMARK UNBOUND:                -0.249
REMARK SMILES O=c1c(O)c(-c2ccc(O)c(O)c2)oc2cc(O)cc(O)c12
REMARK SMILES IDX 5 1 3 2 2 3 1 4 22 5 20 6 19 7 17 8 16 9 15 10 14 11 6 12
REMARK SMILES IDX 7 13 8 14 9 15 13 16 11 17 10 18 12 20 4 22 21 24 18 26
REMARK H PARENT 10 19 12 21 4 23 21 25 18 27
REMARK Flexibility Score: inf
ROOT
ATOM      1  C   UNL     1      27.668  20.719 -13.646  1.00  0.00     0.180 A 
ATOM      2  C   UNL     1      27.911  19.340 -13.763  1.00  0.00     0.208 A 
ATOM      3  C   UNL     1      28.948  18.765 -13.008  1.00  0.00     0.238 A 
ATOM      4  O   UNL     1      29.196  17.541 -13.158  1.00  0.00    -0.285 OA
ATOM      5  C   UNL     1      29.717  19.573 -12.137  1.00  0.00     0.111 A 
ATOM      6  C   UNL     1      30.764  19.090 -11.296  1.00  0.00     0.134 A 
ATOM      7  C   UNL     1      31.544  20.000 -10.572  1.00  0.00     0.093 A 
ATOM      8  C   UNL     1      31.272  21.370 -10.608  1.00  0.00     0.123 A 
ATOM      9  C   UNL     1      30.214  21.845 -11.378  1.00  0.00     0.094 A 
ATOM     10  C   UNL     1      29.441  20.965 -12.140  1.00  0.00     0.146 A 
ATOM     11  O   UNL     1      28.448  21.462 -12.869  1.00  0.00    -0.452 OA
ENDROOT
BRANCH   1  12
ATOM     12  C   UNL     1      26.578  21.393 -14.388  1.00  0.00     0.025 A 
ATOM     13  C   UNL     1      25.252  21.369 -13.920  1.00  0.00     0.016 A 
ATOM     14  C   UNL     1      24.243  22.032 -14.625  1.00  0.00     0.051 A 
ATOM     15  C   UNL     1      24.545  22.738 -15.797  1.00  0.00     0.157 A 
ATOM     16  C   UNL     1      26.879  22.120 -15.551  1.00  0.00     0.062 A 
ATOM     17  C   UNL     1      25.871  22.784 -16.259  1.00  0.00     0.158 A 
BRANCH  15  18
ATOM     18  O   UNL     1      23.536  23.397 -16.498  1.00  0.00    -0.504 OA
ATOM     19  H   UNL     1      23.089  24.228 -16.129  1.00  0.00     0.293 HD
ENDBRANCH  15  18
BRANCH  17  20
ATOM     20  O   UNL     1      26.206  23.485 -17.417  1.00  0.00    -0.504 OA
ATOM     21  H   UNL     1      26.825  23.097 -18.121  1.00  0.00     0.293 HD
ENDBRANCH  17  20
ENDBRANCH   1  12
BRANCH   2  22
ATOM     22  O   UNL     1      27.155  18.565 -14.645  1.00  0.00    -0.502 OA
ATOM     23  H   UNL     1      27.187  17.552 -14.645  1.00  0.00     0.293 HD
ENDBRANCH   2  22
BRANCH   6  24
ATOM     24  O   UNL     1      31.058  17.735 -11.118  1.00  0.00    -0.507 OA
ATOM     25  H   UNL     1      31.943  17.304 -11.340  1.00  0.00     0.293 HD
ENDBRANCH   6  24
BRANCH   8  26
ATOM     26  O   UNL     1      32.043  22.267  -9.871  1.00  0.00    -0.508 OA
ATOM     27  H   UNL     1      32.885  21.971  -9.391  1.00  0.00     0.293 HD
ENDBRANCH   8  26
TORSDOF 6
ENDMDL
MODEL 5
REMARK VINA RESULT:    -5.692     10.153     12.240
REMARK INTER + INTRA:          -7.106
REMARK INTER:                  -6.841
REMARK INTRA:                  -0.265
REMARK UNBOUND:                -0.249
REMARK SMILES O=c1c(O)c(-c2ccc(O)c(O)c2)oc2cc(O)cc(O)c12
REMARK SMILES IDX 5 1 3 2 2 3 1 4 22 5 20 6 19 7 17 8 16 9 15 10 14 11 6 12
REMARK SMILES IDX 7 13 8 14 9 15 13 16 11 17 10 18 12 20 4 22 21 24 18 26
REMARK H PARENT 10 19 12 21 4 23 21 25 18 27
REMARK Flexibility Score: inf
ROOT
ATOM      1  C   UNL     1      28.222  21.067 -13.858  1.00  0.00     0.180 A 
ATOM      2  C   UNL     1      28.502  21.106 -15.234  1.00  0.00     0.208 A 
ATOM      3  C   UNL     1      27.689  21.886 -16.073  1.00  0.00     0.238 A 
ATOM      4  O   UNL     1      27.910  21.873 -17.311  1.00  0.00    -0.285 OA
ATOM      5  C   UNL     1      26.617  22.629 -15.522  1.00  0.00     0.111 A 
ATOM      6  C   UNL     1      25.754  23.484 -16.272  1.00  0.00     0.134 A 
ATOM      7  C   UNL     1      24.646  24.068 -15.645  1.00  0.00     0.093 A 
ATOM      8  C   UNL     1      24.407  23.880 -14.282  1.00  0.00     0.123 A 
ATOM      9  C   UNL     1      25.278  23.096 -13.529  1.00  0.00     0.094 A 
ATOM     10  C   UNL     1      26.371  22.471 -14.133  1.00  0.00     0.146 A 
ATOM     11  O   UNL     1      27.170  21.723 -13.381  1.00  0.00    -0.452 OA
ENDROOT
BRANCH   1  12
ATOM     12  C   UNL     1      29.048  20.289 -12.907  1.00  0.00     0.025 A 
ATOM     13  C   UNL     1      29.950  20.922 -12.034  1.00  0.00     0.016 A 
ATOM     14  C   UNL     1      30.703  20.169 -11.128  1.00  0.00     0.051 A 
ATOM     15  C   UNL     1      30.557  18.777 -11.072  1.00  0.00     0.157 A 
ATOM     16  C   UNL     1      28.890  18.895 -12.832  1.00  0.00     0.062 A 
ATOM     17  C   UNL     1      29.642  18.138 -11.927  1.00  0.00     0.158 A 
BRANCH  15  18
ATOM     18  O   UNL     1      31.310  18.029 -10.169  1.00  0.00    -0.504 OA
ATOM     19  H   UNL     1      32.257  18.292  -9.922  1.00  0.00     0.293 HD
ENDBRANCH  15  18
BRANCH  17  20
ATOM     20  O   UNL     1      29.467  16.756 -11.891  1.00  0.00    -0.504 OA
ATOM     21  H   UNL     1      30.241  16.112 -12.008  1.00  0.00     0.293 HD
ENDBRANCH  17  20
ENDBRANCH   1  12
BRANCH   2  22
ATOM     22  O   UNL     1      29.551  20.348 -15.760  1.00  0.00    -0.502 OA
ATOM     23  H   UNL     1      30.471  20.736 -15.930  1.00  0.00     0.293 HD
ENDBRANCH   2  22
BRANCH   6  24
ATOM     24  O   UNL     1      25.955  23.811 -17.616  1.00  0.00    -0.507 OA
ATOM     25  H   UNL     1      25.828  23.175 -18.388  1.00  0.00     0.293 HD
ENDBRANCH   6  24
BRANCH   8  26
ATOM     26  O   UNL     1      23.312  24.478 -13.663  1.00  0.00    -0.508 OA
ATOM     27  H   UNL     1      23.356  24.800 -12.703  1.00  0.00     0.293 HD
ENDBRANCH   8  26
TORSDOF 6
ENDMDL
MODEL 6
REMARK VINA RESULT:    -5.649     11.440     13.452
REMARK INTER + INTRA:          -7.053
REMARK INTER:                  -6.875
REMARK INTRA:                  -0.178
REMARK UNBOUND:                -0.249
REMARK SMILES O=c1c(O)c(-c2ccc(O)c(O)c2)oc2cc(O)cc(O)c12
REMARK SMILES IDX 5 1 3 2 2 3 1 4 22 5 20 6 19 7 17 8 16 9 15 10 14 11 6 12
REMARK SMILES IDX 7 13 8 14 9 15 13 16 11 17 10 18 12 20 4 22 21 24 18 26
REMARK H PARENT 10 19 12 21 4 23 21 25 18 27
REMARK Flexibility Score: inf
ROOT
ATOM      1  C   UNL     1      27.851  21.981 -12.409  1.00  0.00     0.180 A 
ATOM      2  C   UNL     1      26.920  22.652 -11.598  1.00  0.00     0.208 A 
ATOM      3  C   UNL     1      25.841  23.316 -12.205  1.00  0.00     0.238 A 
ATOM      4  O   UNL     1      25.043  23.960 -11.478  1.00  0.00    -0.285 OA
ATOM      5  C   UNL     1      25.700  23.289 -13.613  1.00  0.00     0.111 A 
ATOM      6  C   UNL     1      24.625  23.893 -14.331  1.00  0.00     0.134 A 
ATOM      7  C   UNL     1      24.656  23.916 -15.731  1.00  0.00     0.093 A 
ATOM      8  C   UNL     1      25.690  23.298 -16.439  1.00  0.00     0.123 A 
ATOM      9  C   UNL     1      26.712  22.653 -15.747  1.00  0.00     0.094 A 
ATOM     10  C   UNL     1      26.728  22.645 -14.350  1.00  0.00     0.146 A 
ATOM     11  O   UNL     1      27.727  22.029 -13.731  1.00  0.00    -0.452 OA
ENDROOT
BRANCH   1  12
ATOM     12  C   UNL     1      28.999  21.237 -11.842  1.00  0.00     0.025 A 
ATOM     13  C   UNL     1      29.102  19.841 -11.974  1.00  0.00     0.016 A 
ATOM     14  C   UNL     1      30.206  19.162 -11.451  1.00  0.00     0.051 A 
ATOM     15  C   UNL     1      31.229  19.867 -10.803  1.00  0.00     0.157 A 
ATOM     16  C   UNL     1      30.036  21.942 -11.210  1.00  0.00     0.062 A 
ATOM     17  C   UNL     1      31.143  21.265 -10.685  1.00  0.00     0.158 A 
BRANCH  15  18
ATOM     18  O   UNL     1      32.328  19.187 -10.281  1.00  0.00    -0.504 OA
ATOM     19  H   UNL     1      32.926  18.618 -10.867  1.00  0.00     0.293 HD
ENDBRANCH  15  18
BRANCH  17  20
ATOM     20  O   UNL     1      32.147  21.998 -10.053  1.00  0.00    -0.504 OA
ATOM     21  H   UNL     1      32.704  22.685 -10.547  1.00  0.00     0.293 HD
ENDBRANCH  17  20
ENDBRANCH   1  12
BRANCH   2  22
ATOM     22  O   UNL     1      27.091  22.685 -10.212  1.00  0.00    -0.502 OA
ATOM     23  H   UNL     1      27.627  23.407  -9.746  1.00  0.00     0.293 HD
ENDBRANCH   2  22
BRANCH   6  24
ATOM     24  O   UNL     1      23.500  24.457 -13.723  1.00  0.00    -0.507 OA
ATOM     25  H   UNL     1      23.526  25.089 -12.937  1.00  0.00     0.293 HD
ENDBRANCH   6  24
BRANCH   8  26
ATOM     26  O   UNL     1      25.704  23.310 -17.832  1.00  0.00    -0.508 OA
ATOM     27  H   UNL     1      25.238  22.591 -18.373  1.00  0.00     0.293 HD
ENDBRANCH   8  26
TORSDOF 6
ENDMDL
MODEL 7
REMARK VINA RESULT:    -5.589     15.627     16.916
REMARK INTER + INTRA:          -6.981
REMARK INTER:                  -6.706
REMARK INTRA:                  -0.275
REMARK UNBOUND:                -0.249
REMARK SMILES O=c1c(O)c(-c2ccc(O)c(O)c2)oc2cc(O)cc(O)c12
REMARK SMILES IDX 5 1 3 2 2 3 1 4 22 5 20 6 19 7 17 8 16 9 15 10 14 11 6 12
REMARK SMILES IDX 7 13 8 14 9 15 13 16 11 17 10 18 12 20 4 22 21 24 18 26
REMARK H PARENT 10 19 12 21 4 23 21 25 18 27
REMARK Flexibility Score: inf
ROOT
ATOM      1  C   UNL     1      33.931  31.719 -12.082  1.00  0.00     0.180 A 
ATOM      2  C   UNL     1      32.547  31.480 -12.043  1.00  0.00     0.208 A 
ATOM      3  C   UNL     1      31.759  31.855 -13.144  1.00  0.00     0.238 A 
ATOM      4  O   UNL     1      30.514  31.689 -13.080  1.00  0.00    -0.285 OA
ATOM      5  C   UNL     1      32.368  32.450 -14.275  1.00  0.00     0.111 A 
ATOM      6  C   UNL     1      31.673  32.833 -15.462  1.00  0.00     0.134 A 
ATOM      7  C   UNL     1      32.355  33.531 -16.466  1.00  0.00     0.093 A 
ATOM      8  C   UNL     1      33.721  33.803 -16.355  1.00  0.00     0.123 A 
ATOM      9  C   UNL     1      34.420  33.380 -15.227  1.00  0.00     0.094 A 
ATOM     10  C   UNL     1      33.760  32.713 -14.192  1.00  0.00     0.146 A 
ATOM     11  O   UNL     1      34.463  32.338 -13.130  1.00  0.00    -0.452 OA
ENDROOT
BRANCH   1  12
ATOM     12  C   UNL     1      34.830  31.329 -10.972  1.00  0.00     0.025 A 
ATOM     13  C   UNL     1      34.890  32.078  -9.783  1.00  0.00     0.016 A 
ATOM     14  C   UNL     1      35.729  31.678  -8.738  1.00  0.00     0.051 A 
ATOM     15  C   UNL     1      36.508  30.520  -8.861  1.00  0.00     0.157 A 
ATOM     16  C   UNL     1      35.597  30.158 -11.081  1.00  0.00     0.062 A 
ATOM     17  C   UNL     1      36.438  29.755 -10.038  1.00  0.00     0.158 A 
BRANCH  15  18
ATOM     18  O   UNL     1      37.344  30.124  -7.818  1.00  0.00    -0.504 OA
ATOM     19  H   UNL     1      37.980  29.342  -7.916  1.00  0.00     0.293 HD
ENDBRANCH  15  18
BRANCH  17  20
ATOM     20  O   UNL     1      37.194  28.593 -10.188  1.00  0.00    -0.504 OA
ATOM     21  H   UNL     1      37.763  28.424 -11.010  1.00  0.00     0.293 HD
ENDBRANCH  17  20
ENDBRANCH   1  12
BRANCH   2  22
ATOM     22  O   UNL     1      31.963  30.912 -10.908  1.00  0.00    -0.502 OA
ATOM     23  H   UNL     1      32.505  30.635 -10.098  1.00  0.00     0.293 HD
ENDBRANCH   2  22
BRANCH   6  24
ATOM     24  O   UNL     1      30.332  32.529 -15.713  1.00  0.00    -0.507 OA
ATOM     25  H   UNL     1      29.548  32.971 -15.259  1.00  0.00     0.293 HD
ENDBRANCH   6  24
BRANCH   8  26
ATOM     26  O   UNL     1      34.395  34.484 -17.366  1.00  0.00    -0.508 OA
ATOM     27  H   UNL     1      35.382  34.700 -17.293  1.00  0.00     0.293 HD
ENDBRANCH   8  26
TORSDOF 6
ENDMDL
MODEL 8
REMARK VINA RESULT:    -5.585     15.280     17.103
REMARK INTER + INTRA:          -6.977
REMARK INTER:                  -6.661
REMARK INTRA:                  -0.316
REMARK UNBOUND:                -0.249
REMARK SMILES O=c1c(O)c(-c2ccc(O)c(O)c2)oc2cc(O)cc(O)c12
REMARK SMILES IDX 5 1 3 2 2 3 1 4 22 5 20 6 19 7 17 8 16 9 15 10 14 11 6 12
REMARK SMILES IDX 7 13 8 14 9 15 13 16 11 17 10 18 12 20 4 22 21 24 18 26
REMARK H PARENT 10 19 12 21 4 23 21 25 18 27
REMARK Flexibility Score: inf
ROOT
ATOM      1  C   UNL     1      34.290  30.977 -11.542  1.00  0.00     0.180 A 
ATOM      2  C   UNL     1      33.095  30.247 -11.652  1.00  0.00     0.208 A 
ATOM      3  C   UNL     1      32.196  30.564 -12.684  1.00  0.00     0.238 A 
ATOM      4  O   UNL     1      31.103  29.944 -12.745  1.00  0.00    -0.285 OA
ATOM      5  C   UNL     1      32.511  31.597 -13.600  1.00  0.00     0.111 A 
ATOM      6  C   UNL     1      31.693  31.976 -14.706  1.00  0.00     0.134 A 
ATOM      7  C   UNL     1      32.040  33.098 -15.470  1.00  0.00     0.093 A 
ATOM      8  C   UNL     1      33.210  33.814 -15.206  1.00  0.00     0.123 A 
ATOM      9  C   UNL     1      34.046  33.415 -14.166  1.00  0.00     0.094 A 
ATOM     10  C   UNL     1      33.708  32.322 -13.365  1.00  0.00     0.146 A 
ATOM     11  O   UNL     1      34.527  31.983 -12.377  1.00  0.00    -0.452 OA
ENDROOT
BRANCH   1  12
ATOM     12  C   UNL     1      35.299  30.685 -10.498  1.00  0.00     0.025 A 
ATOM     13  C   UNL     1      36.222  29.635 -10.646  1.00  0.00     0.016 A 
ATOM     14  C   UNL     1      37.180  29.392  -9.658  1.00  0.00     0.051 A 
ATOM     15  C   UNL     1      37.240  30.201  -8.516  1.00  0.00     0.157 A 
ATOM     16  C   UNL     1      35.376  31.507  -9.361  1.00  0.00     0.062 A 
ATOM     17  C   UNL     1      36.334  31.266  -8.370  1.00  0.00     0.158 A 
BRANCH  15  18
ATOM     18  O   UNL     1      38.196  29.956  -7.532  1.00  0.00    -0.504 OA
ATOM     19  H   UNL     1      38.574  30.703  -6.962  1.00  0.00     0.293 HD
ENDBRANCH  15  18
BRANCH  17  20
ATOM     20  O   UNL     1      36.372  32.095  -7.249  1.00  0.00    -0.504 OA
ATOM     21  H   UNL     1      35.553  32.261  -6.675  1.00  0.00     0.293 HD
ENDBRANCH  17  20
ENDBRANCH   1  12
BRANCH   2  22
ATOM     22  O   UNL     1      32.794  29.247 -10.725  1.00  0.00    -0.502 OA
ATOM     23  H   UNL     1      31.888  29.174 -10.278  1.00  0.00     0.293 HD
ENDBRANCH   2  22
BRANCH   6  24
ATOM     24  O   UNL     1      30.553  31.274 -15.111  1.00  0.00    -0.507 OA
ATOM     25  H   UNL     1      30.292  30.359 -14.776  1.00  0.00     0.293 HD
ENDBRANCH   6  24
BRANCH   8  26
ATOM     26  O   UNL     1      33.556  34.919 -15.981  1.00  0.00    -0.508 OA
ATOM     27  H   UNL     1      33.464  35.864 -15.628  1.00  0.00     0.293 HD
ENDBRANCH   8  26
TORSDOF 6
ENDMDL
MODEL 9
REMARK VINA RESULT:    -5.481     10.749     12.560
REMARK INTER + INTRA:          -6.851
REMARK INTER:                  -6.560
REMARK INTRA:                  -0.291
REMARK UNBOUND:                -0.249
REMARK SMILES O=c1c(O)c(-c2ccc(O)c(O)c2)oc2cc(O)cc(O)c12
REMARK SMILES IDX 5 1 3 2 2 3 1 4 22 5 20 6 19 7 17 8 16 9 15 10 14 11 6 12
REMARK SMILES IDX 7 13 8 14 9 15 13 16 11 17 10 18 12 20 4 22 21 24 18 26
REMARK H PARENT 10 19 12 21 4 23 21 25 18 27
REMARK Flexibility Score: inf
ROOT
ATOM      1  C   UNL     1      32.079  31.447 -23.911  1.00  0.00     0.180 A 
ATOM      2  C   UNL     1      32.451  32.226 -22.801  1.00  0.00     0.208 A 
ATOM      3  C   UNL     1      31.514  33.117 -22.250  1.00  0.00     0.238 A 
ATOM      4  O   UNL     1      31.870  33.850 -21.292  1.00  0.00    -0.285 OA
ATOM      5  C   UNL     1      30.216  33.206 -22.806  1.00  0.00     0.111 A 
ATOM      6  C   UNL     1      29.175  34.045 -22.304  1.00  0.00     0.134 A 
ATOM      7  C   UNL     1      27.971  34.150 -23.011  1.00  0.00     0.093 A 
ATOM      8  C   UNL     1      27.746  33.397 -24.166  1.00  0.00     0.123 A 
ATOM      9  C   UNL     1      28.733  32.531 -24.630  1.00  0.00     0.094 A 
ATOM     10  C   UNL     1      29.958  32.431 -23.966  1.00  0.00     0.146 A 
ATOM     11  O   UNL     1      30.875  31.601 -24.449  1.00  0.00    -0.452 OA
ENDROOT
BRANCH   1  12
ATOM     12  C   UNL     1      33.001  30.468 -24.531  1.00  0.00     0.025 A 
ATOM     13  C   UNL     1      32.882  29.090 -24.277  1.00  0.00     0.016 A 
ATOM     14  C   UNL     1      33.749  28.182 -24.891  1.00  0.00     0.051 A 
ATOM     15  C   UNL     1      34.735  28.634 -25.777  1.00  0.00     0.157 A 
ATOM     16  C   UNL     1      33.978  30.914 -25.435  1.00  0.00     0.062 A 
ATOM     17  C   UNL     1      34.848  30.008 -26.052  1.00  0.00     0.158 A 
BRANCH  15  18
ATOM     18  O   UNL     1      35.599  27.726 -26.387  1.00  0.00    -0.504 OA
ATOM     19  H   UNL     1      36.228  27.146 -25.845  1.00  0.00     0.293 HD
ENDBRANCH  15  18
BRANCH  17  20
ATOM     20  O   UNL     1      35.814  30.489 -26.934  1.00  0.00    -0.504 OA
ATOM     21  H   UNL     1      35.636  31.274 -27.551  1.00  0.00     0.293 HD
ENDBRANCH  17  20
ENDBRANCH   1  12
BRANCH   2  22
ATOM     22  O   UNL     1      33.744  32.138 -22.282  1.00  0.00    -0.502 OA
ATOM     23  H   UNL     1      34.027  31.402 -21.646  1.00  0.00     0.293 HD
ENDBRANCH   2  22
BRANCH   6  24
ATOM     24  O   UNL     1      29.264  34.767 -21.111  1.00  0.00    -0.507 OA
ATOM     25  H   UNL     1      29.240  34.360 -20.188  1.00  0.00     0.293 HD
ENDBRANCH   6  24
BRANCH   8  26
ATOM     26  O   UNL     1      26.539  33.496 -24.855  1.00  0.00    -0.508 OA
ATOM     27  H   UNL     1      26.372  34.234 -25.528  1.00  0.00     0.293 HD
ENDBRANCH   8  26
TORSDOF 6
ENDMDL
