MODEL 1
REMARK VINA RESULT:    18.900      0.000      0.000
REMARK INTER + INTRA:          21.950
REMARK INTER:                  22.214
REMARK INTRA:                  -0.264
REMARK UNBOUND:                -0.264
REMARK SMILES O=c1c(O)c(-c2ccc(O)cc2)oc2cc(O)cc(O)c12
REMARK SMILES IDX 5 1 3 2 2 3 1 4 21 5 19 6 18 7 16 8 15 9 14 10 13 11 6 12
REMARK SMILES IDX 7 13 8 14 9 15 12 16 11 17 10 18 4 20 20 22 17 24
REMARK H PARENT 10 19 4 21 20 23 17 25
REMARK Flexibility Score: inf
ROOT
ATOM      1  C   UNL     1       7.268   3.370  18.603  1.00  0.00     0.180 A 
ATOM      2  C   UNL     1       8.634   3.124  18.374  1.00  0.00     0.208 A 
ATOM      3  C   UNL     1       9.492   4.210  18.141  1.00  0.00     0.238 A 
ATOM      4  O   UNL     1      10.703   3.981  17.884  1.00  0.00    -0.285 OA
ATOM      5  C   UNL     1       8.977   5.530  18.156  1.00  0.00     0.111 A 
ATOM      6  C   UNL     1       9.763   6.707  17.972  1.00  0.00     0.134 A 
ATOM      7  C   UNL     1       9.128   7.952  17.875  1.00  0.00     0.093 A 
ATOM      8  C   UNL     1       7.744   8.069  18.022  1.00  0.00     0.123 A 
ATOM      9  C   UNL     1       6.976   6.931  18.260  1.00  0.00     0.094 A 
ATOM     10  C   UNL     1       7.576   5.672  18.326  1.00  0.00     0.146 A 
ATOM     11  O   UNL     1       6.805   4.613  18.544  1.00  0.00    -0.452 OA
ENDROOT
BRANCH   1  12
ATOM     12  C   UNL     1       6.307   2.278  18.880  1.00  0.00     0.021 A 
ATOM     13  C   UNL     1       6.228   1.676  20.149  1.00  0.00     0.016 A 
ATOM     14  C   UNL     1       5.295   0.664  20.395  1.00  0.00     0.047 A 
ATOM     15  C   UNL     1       4.421   0.250  19.380  1.00  0.00     0.115 A 
ATOM     16  C   UNL     1       5.414   1.872  17.875  1.00  0.00     0.016 A 
ATOM     17  C   UNL     1       4.482   0.859  18.123  1.00  0.00     0.047 A 
BRANCH  15  18
ATOM     18  O   UNL     1       3.489  -0.758  19.613  1.00  0.00    -0.508 OA
ATOM     19  H   UNL     1       3.675  -1.721  19.354  1.00  0.00     0.293 HD
ENDBRANCH  15  18
ENDBRANCH   1  12
BRANCH   2  20
ATOM     20  O   UNL     1       9.116   1.813  18.342  1.00  0.00    -0.502 OA
ATOM     21  H   UNL     1       9.324   1.289  19.185  1.00  0.00     0.293 HD
ENDBRANCH   2  20
BRANCH   6  22
ATOM     22  O   UNL     1      11.160   6.712  17.907  1.00  0.00    -0.507 OA
ATOM     23  H   UNL     1      11.698   7.074  17.136  1.00  0.00     0.293 HD
ENDBRANCH   6  22
BRANCH   8  24
ATOM     24  O   UNL     1       7.123   9.312  17.940  1.00  0.00    -0.508 OA
ATOM     25  H   UNL     1       7.264  10.024  18.648  1.00  0.00     0.293 HD
ENDBRANCH   8  24
TORSDOF 5
ENDMDL
