MODEL 1
REMARK VINA RESULT:    -3.403      0.000      0.000
REMARK INTER + INTRA:          -8.221
REMARK INTER:                  -6.187
REMARK INTRA:                  -2.034
REMARK UNBOUND:                -2.034
REMARK SMILES CCCCCCCCCCCCCCCC(=O)[O-]
REMARK SMILES IDX 9 1 10 2 11 3 12 4 13 5 14 6 15 7 16 8 17 9 18 10 8 11 7 12
REMARK SMILES IDX 6 13 5 14 4 15 3 16 2 17 1 18
REMARK H PARENT
REMARK Flexibility Score: inf
ROOT
ATOM      1  C   UNL     1      60.162  33.712  60.549  1.00  0.00     0.000 C 
ENDROOT
BRANCH   1   2
ATOM      2  C   UNL     1      60.268  32.711  59.388  1.00  0.00     0.000 C 
BRANCH   2   3
ATOM      3  C   UNL     1      61.003  31.421  59.785  1.00  0.00     0.000 C 
BRANCH   3   4
ATOM      4  C   UNL     1      61.167  31.278  61.308  1.00  0.00     0.000 C 
BRANCH   4   5
ATOM      5  C   UNL     1      62.000  30.047  61.700  1.00  0.00     0.000 C 
BRANCH   5   6
ATOM      6  C   UNL     1      62.824  29.494  60.525  1.00  0.00     0.006 C 
BRANCH   6   7
ATOM      7  C   UNL     1      63.704  28.308  60.942  1.00  0.00     0.053 C 
BRANCH   7   8
ATOM      8  C   UNL     1      65.157  28.582  60.707  1.00  0.00     0.041 C 
ATOM      9  O   UNL     1      65.594  29.762  60.742  1.00  0.00    -0.550 OA
ATOM     10  O   UNL     1      66.037  27.530  60.479  1.00  0.00    -0.550 OA
ENDBRANCH   7   8
ENDBRANCH   6   7
ENDBRANCH   5   6
ENDBRANCH   4   5
ENDBRANCH   3   4
ENDBRANCH   2   3
ENDBRANCH   1   2
BRANCH   1  11
ATOM     11  C   UNL     1      60.235  35.158  60.036  1.00  0.00     0.000 C 
BRANCH  11  12
ATOM     12  C   UNL     1      61.217  36.022  60.843  1.00  0.00    -0.000 C 
BRANCH  12  13
ATOM     13  C   UNL     1      62.676  35.843  60.385  1.00  0.00    -0.000 C 
BRANCH  13  14
ATOM     14  C   UNL     1      63.673  35.886  61.554  1.00  0.00    -0.000 C 
BRANCH  14  15
ATOM     15  C   UNL     1      64.601  34.658  61.583  1.00  0.00    -0.000 C 
BRANCH  15  16
ATOM     16  C   UNL     1      63.954  33.403  60.968  1.00  0.00    -0.000 C 
BRANCH  16  17
ATOM     17  C   UNL     1      64.709  32.803  59.768  1.00  0.00    -0.003 C 
ATOM     18  C   UNL     1      63.992  33.024  58.437  1.00  0.00     0.004 C 
ENDBRANCH  16  17
ENDBRANCH  15  16
ENDBRANCH  14  15
ENDBRANCH  13  14
ENDBRANCH  12  13
ENDBRANCH  11  12
ENDBRANCH   1  11
TORSDOF 14
ENDMDL
MODEL 2
REMARK VINA RESULT:    -3.364     11.414     13.383
REMARK INTER + INTRA:          -8.151
REMARK INTER:                  -6.061
REMARK INTRA:                  -2.090
REMARK UNBOUND:                -2.034
REMARK SMILES CCCCCCCCCCCCCCCC(=O)[O-]
REMARK SMILES IDX 9 1 10 2 11 3 12 4 13 5 14 6 15 7 16 8 17 9 18 10 8 11 7 12
REMARK SMILES IDX 6 13 5 14 4 15 3 16 2 17 1 18
REMARK H PARENT
REMARK Flexibility Score: inf
ROOT
ATOM      1  C   UNL     1      57.887  27.751  51.741  1.00  0.00     0.000 C 
ENDROOT
BRANCH   1   2
ATOM      2  C   UNL     1      57.540  28.292  50.345  1.00  0.00     0.000 C 
BRANCH   2   3
ATOM      3  C   UNL     1      58.785  28.522  49.474  1.00  0.00     0.000 C 
BRANCH   3   4
ATOM      4  C   UNL     1      60.095  28.411  50.273  1.00  0.00     0.000 C 
BRANCH   4   5
ATOM      5  C   UNL     1      60.995  27.269  49.777  1.00  0.00     0.000 C 
BRANCH   5   6
ATOM      6  C   UNL     1      61.093  26.114  50.789  1.00  0.00     0.006 C 
BRANCH   6   7
ATOM      7  C   UNL     1      60.330  24.867  50.320  1.00  0.00     0.053 C 
BRANCH   7   8
ATOM      8  C   UNL     1      60.397  23.761  51.328  1.00  0.00     0.041 C 
ATOM      9  O   UNL     1      61.501  23.431  51.835  1.00  0.00    -0.550 OA
ATOM     10  O   UNL     1      59.235  23.115  51.731  1.00  0.00    -0.550 OA
ENDBRANCH   7   8
ENDBRANCH   6   7
ENDBRANCH   5   6
ENDBRANCH   4   5
ENDBRANCH   3   4
ENDBRANCH   2   3
ENDBRANCH   1   2
BRANCH   1  11
ATOM     11  C   UNL     1      57.387  26.309  51.911  1.00  0.00     0.000 C 
BRANCH  11  12
ATOM     12  C   UNL     1      56.709  25.765  50.642  1.00  0.00    -0.000 C 
BRANCH  12  13
ATOM     13  C   UNL     1      55.282  25.254  50.908  1.00  0.00    -0.000 C 
BRANCH  13  14
ATOM     14  C   UNL     1      54.410  25.244  49.642  1.00  0.00    -0.000 C 
BRANCH  14  15
ATOM     15  C   UNL     1      53.333  26.343  49.660  1.00  0.00    -0.000 C 
BRANCH  15  16
ATOM     16  C   UNL     1      53.461  27.288  50.869  1.00  0.00    -0.000 C 
BRANCH  16  17
ATOM     17  C   UNL     1      53.843  28.739  50.523  1.00  0.00    -0.003 C 
ATOM     18  C   UNL     1      54.353  29.528  51.729  1.00  0.00     0.004 C 
ENDBRANCH  16  17
ENDBRANCH  15  16
ENDBRANCH  14  15
ENDBRANCH  13  14
ENDBRANCH  12  13
ENDBRANCH  11  12
ENDBRANCH   1  11
TORSDOF 14
ENDMDL
MODEL 3
REMARK VINA RESULT:    -3.355     10.696     12.916
REMARK INTER + INTRA:          -8.135
REMARK INTER:                  -5.514
REMARK INTRA:                  -2.621
REMARK UNBOUND:                -2.034
REMARK SMILES CCCCCCCCCCCCCCCC(=O)[O-]
REMARK SMILES IDX 9 1 10 2 11 3 12 4 13 5 14 6 15 7 16 8 17 9 18 10 8 11 7 12
REMARK SMILES IDX 6 13 5 14 4 15 3 16 2 17 1 18
REMARK H PARENT
REMARK Flexibility Score: inf
ROOT
ATOM      1  C   UNL     1      57.094  26.456  53.666  1.00  0.00     0.000 C 
ENDROOT
BRANCH   1   2
ATOM      2  C   UNL     1      58.261  27.093  52.895  1.00  0.00     0.000 C 
BRANCH   2   3
ATOM      3  C   UNL     1      57.981  28.551  52.498  1.00  0.00     0.000 C 
BRANCH   3   4
ATOM      4  C   UNL     1      58.961  29.073  51.433  1.00  0.00     0.000 C 
BRANCH   4   5
ATOM      5  C   UNL     1      58.495  28.769  50.001  1.00  0.00     0.000 C 
BRANCH   5   6
ATOM      6  C   UNL     1      59.295  27.628  49.350  1.00  0.00     0.006 C 
BRANCH   6   7
ATOM      7  C   UNL     1      60.678  27.450  49.991  1.00  0.00     0.053 C 
BRANCH   7   8
ATOM      8  C   UNL     1      60.928  26.029  50.392  1.00  0.00     0.041 C 
ATOM      9  O   UNL     1      60.163  25.113  49.991  1.00  0.00    -0.550 OA
ATOM     10  O   UNL     1      62.024  25.711  51.184  1.00  0.00    -0.550 OA
ENDBRANCH   7   8
ENDBRANCH   6   7
ENDBRANCH   5   6
ENDBRANCH   4   5
ENDBRANCH   3   4
ENDBRANCH   2   3
ENDBRANCH   1   2
BRANCH   1  11
ATOM     11  C   UNL     1      56.284  25.518  52.759  1.00  0.00     0.000 C 
BRANCH  11  12
ATOM     12  C   UNL     1      57.007  25.202  51.439  1.00  0.00    -0.000 C 
BRANCH  12  13
ATOM     13  C   UNL     1      56.250  25.732  50.208  1.00  0.00    -0.000 C 
BRANCH  13  14
ATOM     14  C   UNL     1      54.725  25.597  50.348  1.00  0.00    -0.000 C 
BRANCH  14  15
ATOM     15  C   UNL     1      53.996  26.939  50.157  1.00  0.00    -0.000 C 
BRANCH  15  16
ATOM     16  C   UNL     1      54.878  28.155  50.497  1.00  0.00    -0.000 C 
BRANCH  16  17
ATOM     17  C   UNL     1      54.386  29.003  51.685  1.00  0.00    -0.003 C 
ATOM     18  C   UNL     1      53.703  28.173  52.771  1.00  0.00     0.004 C 
ENDBRANCH  16  17
ENDBRANCH  15  16
ENDBRANCH  14  15
ENDBRANCH  13  14
ENDBRANCH  12  13
ENDBRANCH  11  12
ENDBRANCH   1  11
TORSDOF 14
ENDMDL
MODEL 4
REMARK VINA RESULT:    -3.326      1.486      2.471
REMARK INTER + INTRA:          -8.081
REMARK INTER:                  -6.374
REMARK INTRA:                  -1.708
REMARK UNBOUND:                -2.034
REMARK SMILES CCCCCCCCCCCCCCCC(=O)[O-]
REMARK SMILES IDX 9 1 10 2 11 3 12 4 13 5 14 6 15 7 16 8 17 9 18 10 8 11 7 12
REMARK SMILES IDX 6 13 5 14 4 15 3 16 2 17 1 18
REMARK H PARENT
REMARK Flexibility Score: inf
ROOT
ATOM      1  C   UNL     1      60.113  33.711  57.630  1.00  0.00     0.000 C 
ENDROOT
BRANCH   1   2
ATOM      2  C   UNL     1      61.140  32.568  57.658  1.00  0.00     0.000 C 
BRANCH   2   3
ATOM      3  C   UNL     1      60.805  31.497  58.707  1.00  0.00     0.000 C 
BRANCH   3   4
ATOM      4  C   UNL     1      61.908  31.343  59.769  1.00  0.00     0.000 C 
BRANCH   4   5
ATOM      5  C   UNL     1      61.344  31.199  61.191  1.00  0.00     0.000 C 
BRANCH   5   6
ATOM      6  C   UNL     1      61.893  29.962  61.921  1.00  0.00     0.006 C 
BRANCH   6   7
ATOM      7  C   UNL     1      63.304  29.588  61.446  1.00  0.00     0.053 C 
BRANCH   7   8
ATOM      8  C   UNL     1      63.348  28.210  60.860  1.00  0.00     0.041 C 
ATOM      9  O   UNL     1      62.819  27.245  61.470  1.00  0.00    -0.550 OA
ATOM     10  O   UNL     1      63.947  27.997  59.624  1.00  0.00    -0.550 OA
ENDBRANCH   7   8
ENDBRANCH   6   7
ENDBRANCH   5   6
ENDBRANCH   4   5
ENDBRANCH   3   4
ENDBRANCH   2   3
ENDBRANCH   1   2
BRANCH   1  11
ATOM     11  C   UNL     1      59.052  33.522  58.724  1.00  0.00     0.000 C 
BRANCH  11  12
ATOM     12  C   UNL     1      59.068  34.654  59.764  1.00  0.00    -0.000 C 
BRANCH  12  13
ATOM     13  C   UNL     1      60.352  34.659  60.613  1.00  0.00    -0.000 C 
BRANCH  13  14
ATOM     14  C   UNL     1      61.004  36.049  60.694  1.00  0.00    -0.000 C 
BRANCH  14  15
ATOM     15  C   UNL     1      62.524  35.976  60.920  1.00  0.00    -0.000 C 
BRANCH  15  16
ATOM     16  C   UNL     1      63.064  34.533  60.901  1.00  0.00    -0.000 C 
BRANCH  16  17
ATOM     17  C   UNL     1      64.491  34.366  61.455  1.00  0.00    -0.003 C 
ATOM     18  C   UNL     1      65.071  35.662  62.017  1.00  0.00     0.004 C 
ENDBRANCH  16  17
ENDBRANCH  15  16
ENDBRANCH  14  15
ENDBRANCH  13  14
ENDBRANCH  12  13
ENDBRANCH  11  12
ENDBRANCH   1  11
TORSDOF 14
ENDMDL
MODEL 5
REMARK VINA RESULT:    -3.317      1.287      4.085
REMARK INTER + INTRA:          -8.064
REMARK INTER:                  -5.778
REMARK INTRA:                  -2.287
REMARK UNBOUND:                -2.034
REMARK SMILES CCCCCCCCCCCCCCCC(=O)[O-]
REMARK SMILES IDX 9 1 10 2 11 3 12 4 13 5 14 6 15 7 16 8 17 9 18 10 8 11 7 12
REMARK SMILES IDX 6 13 5 14 4 15 3 16 2 17 1 18
REMARK H PARENT
REMARK Flexibility Score: inf
ROOT
ATOM      1  C   UNL     1      61.389  35.641  59.933  1.00  0.00     0.000 C 
ENDROOT
BRANCH   1   2
ATOM      2  C   UNL     1      62.299  35.560  61.169  1.00  0.00     0.000 C 
BRANCH   2   3
ATOM      3  C   UNL     1      63.790  35.486  60.802  1.00  0.00     0.000 C 
BRANCH   3   4
ATOM      4  C   UNL     1      64.498  34.282  61.444  1.00  0.00     0.000 C 
BRANCH   4   5
ATOM      5  C   UNL     1      64.342  32.994  60.619  1.00  0.00     0.000 C 
BRANCH   5   6
ATOM      6  C   UNL     1      64.204  33.273  59.112  1.00  0.00     0.006 C 
BRANCH   6   7
ATOM      7  C   UNL     1      65.442  32.822  58.325  1.00  0.00     0.053 C 
BRANCH   7   8
ATOM      8  C   UNL     1      65.537  31.329  58.242  1.00  0.00     0.041 C 
ATOM      9  O   UNL     1      64.593  30.661  57.746  1.00  0.00    -0.550 OA
ATOM     10  O   UNL     1      66.681  30.679  58.687  1.00  0.00    -0.550 OA
ENDBRANCH   7   8
ENDBRANCH   6   7
ENDBRANCH   5   6
ENDBRANCH   4   5
ENDBRANCH   3   4
ENDBRANCH   2   3
ENDBRANCH   1   2
BRANCH   1  11
ATOM     11  C   UNL     1      60.029  34.982  60.208  1.00  0.00     0.000 C 
BRANCH  11  12
ATOM     12  C   UNL     1      60.157  33.497  60.583  1.00  0.00    -0.000 C 
BRANCH  12  13
ATOM     13  C   UNL     1      60.587  32.621  59.392  1.00  0.00    -0.000 C 
BRANCH  13  14
ATOM     14  C   UNL     1      61.106  31.242  59.828  1.00  0.00    -0.000 C 
BRANCH  14  15
ATOM     15  C   UNL     1      61.239  31.118  61.356  1.00  0.00    -0.000 C 
BRANCH  15  16
ATOM     16  C   UNL     1      62.066  29.892  61.789  1.00  0.00    -0.000 C 
BRANCH  16  17
ATOM     17  C   UNL     1      63.013  29.333  60.711  1.00  0.00    -0.003 C 
ATOM     18  C   UNL     1      64.478  29.327  61.147  1.00  0.00     0.004 C 
ENDBRANCH  16  17
ENDBRANCH  15  16
ENDBRANCH  14  15
ENDBRANCH  13  14
ENDBRANCH  12  13
ENDBRANCH  11  12
ENDBRANCH   1  11
TORSDOF 14
ENDMDL
MODEL 6
REMARK VINA RESULT:    -3.281      1.122      2.912
REMARK INTER + INTRA:          -8.000
REMARK INTER:                  -6.309
REMARK INTRA:                  -1.691
REMARK UNBOUND:                -2.034
REMARK SMILES CCCCCCCCCCCCCCCC(=O)[O-]
REMARK SMILES IDX 9 1 10 2 11 3 12 4 13 5 14 6 15 7 16 8 17 9 18 10 8 11 7 12
REMARK SMILES IDX 6 13 5 14 4 15 3 16 2 17 1 18
REMARK H PARENT
REMARK Flexibility Score: inf
ROOT
ATOM      1  C   UNL     1      63.075  31.889  60.034  1.00  0.00     0.000 C 
ENDROOT
BRANCH   1   2
ATOM      2  C   UNL     1      61.834  32.035  60.929  1.00  0.00     0.000 C 
BRANCH   2   3
ATOM      3  C   UNL     1      61.223  30.680  61.318  1.00  0.00     0.000 C 
BRANCH   3   4
ATOM      4  C   UNL     1      62.276  29.679  61.823  1.00  0.00     0.000 C 
BRANCH   4   5
ATOM      5  C   UNL     1      62.258  28.357  61.040  1.00  0.00     0.000 C 
BRANCH   5   6
ATOM      6  C   UNL     1      63.672  27.841  60.721  1.00  0.00     0.006 C 
BRANCH   6   7
ATOM      7  C   UNL     1      64.754  28.881  61.044  1.00  0.00     0.053 C 
BRANCH   7   8
ATOM      8  C   UNL     1      65.939  28.753  60.137  1.00  0.00     0.041 C 
ATOM      9  O   UNL     1      66.464  29.779  59.631  1.00  0.00    -0.550 OA
ATOM     10  O   UNL     1      66.483  27.502  59.874  1.00  0.00    -0.550 OA
ENDBRANCH   7   8
ENDBRANCH   6   7
ENDBRANCH   5   6
ENDBRANCH   4   5
ENDBRANCH   3   4
ENDBRANCH   2   3
ENDBRANCH   1   2
BRANCH   1  11
ATOM     11  C   UNL     1      64.316  32.486  60.715  1.00  0.00     0.000 C 
BRANCH  11  12
ATOM     12  C   UNL     1      64.539  33.962  60.347  1.00  0.00    -0.000 C 
BRANCH  12  13
ATOM     13  C   UNL     1      64.785  34.847  61.582  1.00  0.00    -0.000 C 
BRANCH  13  14
ATOM     14  C   UNL     1      63.762  35.988  61.706  1.00  0.00    -0.000 C 
BRANCH  14  15
ATOM     15  C   UNL     1      62.839  36.088  60.479  1.00  0.00    -0.000 C 
BRANCH  15  16
ATOM     16  C   UNL     1      61.366  35.784  60.810  1.00  0.00    -0.000 C 
BRANCH  16  17
ATOM     17  C   UNL     1      60.567  35.121  59.673  1.00  0.00    -0.003 C 
ATOM     18  C   UNL     1      59.192  34.625  60.118  1.00  0.00     0.004 C 
ENDBRANCH  16  17
ENDBRANCH  15  16
ENDBRANCH  14  15
ENDBRANCH  13  14
ENDBRANCH  12  13
ENDBRANCH  11  12
ENDBRANCH   1  11
TORSDOF 14
ENDMDL
MODEL 7
REMARK VINA RESULT:    -3.225     11.157     13.357
REMARK INTER + INTRA:          -7.898
REMARK INTER:                  -6.000
REMARK INTRA:                  -1.898
REMARK UNBOUND:                -2.034
REMARK SMILES CCCCCCCCCCCCCCCC(=O)[O-]
REMARK SMILES IDX 9 1 10 2 11 3 12 4 13 5 14 6 15 7 16 8 17 9 18 10 8 11 7 12
REMARK SMILES IDX 6 13 5 14 4 15 3 16 2 17 1 18
REMARK H PARENT
REMARK Flexibility Score: inf
ROOT
ATOM      1  C   UNL     1      56.642  25.564  52.050  1.00  0.00     0.000 C 
ENDROOT
BRANCH   1   2
ATOM      2  C   UNL     1      55.862  25.510  50.728  1.00  0.00     0.000 C 
BRANCH   2   3
ATOM      3  C   UNL     1      55.360  26.892  50.281  1.00  0.00     0.000 C 
BRANCH   3   4
ATOM      4  C   UNL     1      53.840  26.922  50.045  1.00  0.00     0.000 C 
BRANCH   4   5
ATOM      5  C   UNL     1      53.227  28.305  50.314  1.00  0.00     0.000 C 
BRANCH   5   6
ATOM      6  C   UNL     1      54.210  29.261  51.010  1.00  0.00     0.006 C 
BRANCH   6   7
ATOM      7  C   UNL     1      53.489  30.325  51.848  1.00  0.00     0.053 C 
BRANCH   7   8
ATOM      8  C   UNL     1      54.385  30.912  52.895  1.00  0.00     0.041 C 
ATOM      9  O   UNL     1      53.981  31.861  53.616  1.00  0.00    -0.550 OA
ATOM     10  O   UNL     1      55.658  30.391  53.094  1.00  0.00    -0.550 OA
ENDBRANCH   7   8
ENDBRANCH   6   7
ENDBRANCH   5   6
ENDBRANCH   4   5
ENDBRANCH   3   4
ENDBRANCH   2   3
ENDBRANCH   1   2
BRANCH   1  11
ATOM     11  C   UNL     1      58.052  24.980  51.880  1.00  0.00     0.000 C 
BRANCH  11  12
ATOM     12  C   UNL     1      58.556  25.065  50.430  1.00  0.00    -0.000 C 
BRANCH  12  13
ATOM     13  C   UNL     1      60.079  25.272  50.345  1.00  0.00    -0.000 C 
BRANCH  13  14
ATOM     14  C   UNL     1      60.460  26.693  49.899  1.00  0.00    -0.000 C 
BRANCH  14  15
ATOM     15  C   UNL     1      59.257  27.481  49.351  1.00  0.00    -0.000 C 
BRANCH  15  16
ATOM     16  C   UNL     1      59.077  28.850  50.033  1.00  0.00    -0.000 C 
BRANCH  16  17
ATOM     17  C   UNL     1      58.123  28.854  51.241  1.00  0.00    -0.003 C 
ATOM     18  C   UNL     1      58.854  28.920  52.581  1.00  0.00     0.004 C 
ENDBRANCH  16  17
ENDBRANCH  15  16
ENDBRANCH  14  15
ENDBRANCH  13  14
ENDBRANCH  12  13
ENDBRANCH  11  12
ENDBRANCH   1  11
TORSDOF 14
ENDMDL
MODEL 8
REMARK VINA RESULT:    -3.174     10.414     12.427
REMARK INTER + INTRA:          -7.806
REMARK INTER:                  -5.353
REMARK INTRA:                  -2.452
REMARK UNBOUND:                -2.034
REMARK SMILES CCCCCCCCCCCCCCCC(=O)[O-]
REMARK SMILES IDX 9 1 10 2 11 3 12 4 13 5 14 6 15 7 16 8 17 9 18 10 8 11 7 12
REMARK SMILES IDX 6 13 5 14 4 15 3 16 2 17 1 18
REMARK H PARENT
REMARK Flexibility Score: inf
ROOT
ATOM      1  C   UNL     1      56.342  29.082  53.548  1.00  0.00     0.000 C 
ENDROOT
BRANCH   1   2
ATOM      2  C   UNL     1      57.391  27.960  53.517  1.00  0.00     0.000 C 
BRANCH   2   3
ATOM      3  C   UNL     1      58.699  28.392  52.835  1.00  0.00     0.000 C 
BRANCH   3   4
ATOM      4  C   UNL     1      58.462  29.354  51.658  1.00  0.00     0.000 C 
BRANCH   4   5
ATOM      5  C   UNL     1      57.939  28.637  50.403  1.00  0.00     0.000 C 
BRANCH   5   6
ATOM      6  C   UNL     1      59.048  28.373  49.370  1.00  0.00     0.006 C 
BRANCH   6   7
ATOM      7  C   UNL     1      59.708  27.002  49.566  1.00  0.00     0.053 C 
BRANCH   7   8
ATOM      8  C   UNL     1      61.141  27.128  49.984  1.00  0.00     0.041 C 
ATOM      9  O   UNL     1      61.896  26.121  49.970  1.00  0.00    -0.550 OA
ATOM     10  O   UNL     1      61.650  28.365  50.360  1.00  0.00    -0.550 OA
ENDBRANCH   7   8
ENDBRANCH   6   7
ENDBRANCH   5   6
ENDBRANCH   4   5
ENDBRANCH   3   4
ENDBRANCH   2   3
ENDBRANCH   1   2
BRANCH   1  11
ATOM     11  C   UNL     1      54.977  28.545  54.005  1.00  0.00     0.000 C 
BRANCH  11  12
ATOM     12  C   UNL     1      53.904  28.650  52.909  1.00  0.00    -0.000 C 
BRANCH  12  13
ATOM     13  C   UNL     1      54.411  29.385  51.654  1.00  0.00    -0.000 C 
BRANCH  13  14
ATOM     14  C   UNL     1      54.123  28.610  50.358  1.00  0.00    -0.000 C 
BRANCH  14  15
ATOM     15  C   UNL     1      53.984  27.096  50.594  1.00  0.00    -0.000 C 
BRANCH  15  16
ATOM     16  C   UNL     1      55.284  26.322  50.303  1.00  0.00    -0.000 C 
BRANCH  16  17
ATOM     17  C   UNL     1      55.725  25.351  51.413  1.00  0.00    -0.003 C 
ATOM     18  C   UNL     1      57.211  25.002  51.347  1.00  0.00     0.004 C 
ENDBRANCH  16  17
ENDBRANCH  15  16
ENDBRANCH  14  15
ENDBRANCH  13  14
ENDBRANCH  12  13
ENDBRANCH  11  12
ENDBRANCH   1  11
TORSDOF 14
ENDMDL
MODEL 9
REMARK VINA RESULT:    -3.147     11.156     13.187
REMARK INTER + INTRA:          -7.757
REMARK INTER:                  -5.539
REMARK INTRA:                  -2.218
REMARK UNBOUND:                -2.034
REMARK SMILES CCCCCCCCCCCCCCCC(=O)[O-]
REMARK SMILES IDX 9 1 10 2 11 3 12 4 13 5 14 6 15 7 16 8 17 9 18 10 8 11 7 12
REMARK SMILES IDX 6 13 5 14 4 15 3 16 2 17 1 18
REMARK H PARENT
REMARK Flexibility Score: inf
ROOT
ATOM      1  C   UNL     1      59.349  25.159  51.224  1.00  0.00     0.000 C 
ENDROOT
BRANCH   1   2
ATOM      2  C   UNL     1      57.871  25.101  51.643  1.00  0.00     0.000 C 
BRANCH   2   3
ATOM      3  C   UNL     1      56.914  25.361  50.469  1.00  0.00     0.000 C 
BRANCH   3   4
ATOM      4  C   UNL     1      55.438  25.378  50.902  1.00  0.00     0.000 C 
BRANCH   4   5
ATOM      5  C   UNL     1      54.595  26.375  50.092  1.00  0.00     0.000 C 
BRANCH   5   6
ATOM      6  C   UNL     1      54.882  27.837  50.473  1.00  0.00     0.006 C 
BRANCH   6   7
ATOM      7  C   UNL     1      53.614  28.702  50.450  1.00  0.00     0.053 C 
BRANCH   7   8
ATOM      8  C   UNL     1      53.332  29.312  51.788  1.00  0.00     0.041 C 
ATOM      9  O   UNL     1      52.882  28.604  52.726  1.00  0.00    -0.550 OA
ATOM     10  O   UNL     1      53.594  30.659  52.009  1.00  0.00    -0.550 OA
ENDBRANCH   7   8
ENDBRANCH   6   7
ENDBRANCH   5   6
ENDBRANCH   4   5
ENDBRANCH   3   4
ENDBRANCH   2   3
ENDBRANCH   1   2
BRANCH   1  11
ATOM     11  C   UNL     1      59.496  25.734  49.808  1.00  0.00     0.000 C 
BRANCH  11  12
ATOM     12  C   UNL     1      59.999  27.187  49.810  1.00  0.00    -0.000 C 
BRANCH  12  13
ATOM     13  C   UNL     1      58.904  28.191  49.406  1.00  0.00    -0.000 C 
BRANCH  13  14
ATOM     14  C   UNL     1      58.375  29.002  50.599  1.00  0.00    -0.000 C 
BRANCH  14  15
ATOM     15  C   UNL     1      59.236  28.824  51.862  1.00  0.00    -0.000 C 
BRANCH  15  16
ATOM     16  C   UNL     1      58.468  29.133  53.161  1.00  0.00    -0.000 C 
BRANCH  16  17
ATOM     17  C   UNL     1      57.879  27.904  53.877  1.00  0.00    -0.003 C 
ATOM     18  C   UNL     1      56.365  27.780  53.707  1.00  0.00     0.004 C 
ENDBRANCH  16  17
ENDBRANCH  15  16
ENDBRANCH  14  15
ENDBRANCH  13  14
ENDBRANCH  12  13
ENDBRANCH  11  12
ENDBRANCH   1  11
TORSDOF 14
ENDMDL
