MODEL 1
REMARK VINA RESULT:    -6.879      0.000      0.000
REMARK INTER + INTRA:          -8.369
REMARK INTER:                  -8.086
REMARK INTRA:                  -0.283
REMARK UNBOUND:                -0.283
REMARK SMILES O=c1c(O)c(-c2ccc(O)cc2)oc2cc(O)cc(O)c12
REMARK SMILES IDX 5 1 3 2 2 3 1 4 21 5 19 6 18 7 16 8 15 9 14 10 13 11 6 12
REMARK SMILES IDX 7 13 8 14 9 15 12 16 11 17 10 18 4 20 20 22 17 24
REMARK H PARENT 10 19 4 21 20 23 17 25
REMARK Flexibility Score: inf
ROOT
ATOM      1  C   UNL     1      23.669 -33.236  -8.968  1.00  0.00     0.180 A 
ATOM      2  C   UNL     1      22.696 -33.476  -7.979  1.00  0.00     0.208 A 
ATOM      3  C   UNL     1      22.075 -34.734  -7.929  1.00  0.00     0.238 A 
ATOM      4  O   UNL     1      21.193 -34.956  -7.055  1.00  0.00    -0.285 OA
ATOM      5  C   UNL     1      22.450 -35.732  -8.851  1.00  0.00     0.111 A 
ATOM      6  C   UNL     1      21.874 -37.027  -8.866  1.00  0.00     0.134 A 
ATOM      7  C   UNL     1      22.309 -37.969  -9.811  1.00  0.00     0.093 A 
ATOM      8  C   UNL     1      23.302 -37.645 -10.736  1.00  0.00     0.123 A 
ATOM      9  C   UNL     1      23.873 -36.367 -10.727  1.00  0.00     0.094 A 
ATOM     10  C   UNL     1      23.453 -35.413  -9.795  1.00  0.00     0.146 A 
ATOM     11  O   UNL     1      24.008 -34.207  -9.811  1.00  0.00    -0.452 OA
ENDROOT
BRANCH   1  12
ATOM     12  C   UNL     1      24.355 -31.929  -9.096  1.00  0.00     0.021 A 
ATOM     13  C   UNL     1      25.661 -31.783  -8.598  1.00  0.00     0.016 A 
ATOM     14  C   UNL     1      26.336 -30.565  -8.728  1.00  0.00     0.047 A 
ATOM     15  C   UNL     1      25.723 -29.486  -9.372  1.00  0.00     0.115 A 
ATOM     16  C   UNL     1      23.751 -30.846  -9.760  1.00  0.00     0.016 A 
ATOM     17  C   UNL     1      24.429 -29.630  -9.890  1.00  0.00     0.047 A 
BRANCH  15  18
ATOM     18  O   UNL     1      26.406 -28.279  -9.494  1.00  0.00    -0.508 OA
ATOM     19  H   UNL     1      26.749 -27.953 -10.389  1.00  0.00     0.293 HD
ENDBRANCH  15  18
ENDBRANCH   1  12
BRANCH   2  20
ATOM     20  O   UNL     1      22.378 -32.485  -7.045  1.00  0.00    -0.502 OA
ATOM     21  H   UNL     1      21.801 -31.685  -7.278  1.00  0.00     0.293 HD
ENDBRANCH   2  20
BRANCH   6  22
ATOM     22  O   UNL     1      20.881 -37.382  -7.954  1.00  0.00    -0.507 OA
ATOM     23  H   UNL     1      20.814 -38.320  -7.577  1.00  0.00     0.293 HD
ENDBRANCH   6  22
BRANCH   8  24
ATOM     24  O   UNL     1      23.716 -38.599 -11.663  1.00  0.00    -0.508 OA
ATOM     25  H   UNL     1      23.238 -39.488 -11.758  1.00  0.00     0.293 HD
ENDBRANCH   8  24
TORSDOF 5
ENDMDL
MODEL 2
REMARK VINA RESULT:    -6.852      3.208      7.141
REMARK INTER + INTRA:          -8.337
REMARK INTER:                  -8.081
REMARK INTRA:                  -0.256
REMARK UNBOUND:                -0.283
REMARK SMILES O=c1c(O)c(-c2ccc(O)cc2)oc2cc(O)cc(O)c12
REMARK SMILES IDX 5 1 3 2 2 3 1 4 21 5 19 6 18 7 16 8 15 9 14 10 13 11 6 12
REMARK SMILES IDX 7 13 8 14 9 15 12 16 11 17 10 18 4 20 20 22 17 24
REMARK H PARENT 10 19 4 21 20 23 17 25
REMARK Flexibility Score: inf
ROOT
ATOM      1  C   UNL     1      20.594 -36.966  -7.543  1.00  0.00     0.180 A 
ATOM      2  C   UNL     1      21.099 -35.691  -7.221  1.00  0.00     0.208 A 
ATOM      3  C   UNL     1      22.169 -35.177  -7.969  1.00  0.00     0.238 A 
ATOM      4  O   UNL     1      22.637 -34.041  -7.682  1.00  0.00    -0.285 OA
ATOM      5  C   UNL     1      22.701 -35.932  -9.034  1.00  0.00     0.111 A 
ATOM      6  C   UNL     1      23.777 -35.483  -9.839  1.00  0.00     0.134 A 
ATOM      7  C   UNL     1      24.244 -36.290 -10.887  1.00  0.00     0.093 A 
ATOM      8  C   UNL     1      23.659 -37.531 -11.146  1.00  0.00     0.123 A 
ATOM      9  C   UNL     1      22.596 -37.980 -10.354  1.00  0.00     0.094 A 
ATOM     10  C   UNL     1      22.117 -37.191  -9.303  1.00  0.00     0.146 A 
ATOM     11  O   UNL     1      21.111 -37.643  -8.564  1.00  0.00    -0.452 OA
ENDROOT
BRANCH   1  12
ATOM     12  C   UNL     1      19.479 -37.585  -6.789  1.00  0.00     0.021 A 
ATOM     13  C   UNL     1      18.158 -37.200  -7.071  1.00  0.00     0.016 A 
ATOM     14  C   UNL     1      17.088 -37.788  -6.386  1.00  0.00     0.047 A 
ATOM     15  C   UNL     1      17.325 -38.776  -5.426  1.00  0.00     0.115 A 
ATOM     16  C   UNL     1      19.710 -38.595  -5.836  1.00  0.00     0.016 A 
ATOM     17  C   UNL     1      18.639 -39.180  -5.155  1.00  0.00     0.047 A 
BRANCH  15  18
ATOM     18  O   UNL     1      16.251 -39.352  -4.753  1.00  0.00    -0.508 OA
ATOM     19  H   UNL     1      16.339 -40.244  -4.280  1.00  0.00     0.293 HD
ENDBRANCH  15  18
ENDBRANCH   1  12
BRANCH   2  20
ATOM     20  O   UNL     1      20.520 -34.942  -6.192  1.00  0.00    -0.502 OA
ATOM     21  H   UNL     1      19.702 -35.257  -5.686  1.00  0.00     0.293 HD
ENDBRANCH   2  20
BRANCH   6  22
ATOM     22  O   UNL     1      24.382 -34.248  -9.606  1.00  0.00    -0.507 OA
ATOM     23  H   UNL     1      23.988 -33.575  -8.960  1.00  0.00     0.293 HD
ENDBRANCH   6  22
BRANCH   8  24
ATOM     24  O   UNL     1      24.141 -38.313 -12.194  1.00  0.00    -0.508 OA
ATOM     25  H   UNL     1      24.984 -38.868 -12.097  1.00  0.00     0.293 HD
ENDBRANCH   8  24
TORSDOF 5
ENDMDL
MODEL 3
REMARK VINA RESULT:    -6.618      3.062      6.312
REMARK INTER + INTRA:          -8.061
REMARK INTER:                  -7.953
REMARK INTRA:                  -0.108
REMARK UNBOUND:                -0.283
REMARK SMILES O=c1c(O)c(-c2ccc(O)cc2)oc2cc(O)cc(O)c12
REMARK SMILES IDX 5 1 3 2 2 3 1 4 21 5 19 6 18 7 16 8 15 9 14 10 13 11 6 12
REMARK SMILES IDX 7 13 8 14 9 15 12 16 11 17 10 18 4 20 20 22 17 24
REMARK H PARENT 10 19 4 21 20 23 17 25
REMARK Flexibility Score: inf
ROOT
ATOM      1  C   UNL     1      21.961 -34.154  -9.411  1.00  0.00     0.180 A 
ATOM      2  C   UNL     1      21.824 -34.016  -8.017  1.00  0.00     0.208 A 
ATOM      3  C   UNL     1      21.263 -32.836  -7.504  1.00  0.00     0.238 A 
ATOM      4  O   UNL     1      21.146 -32.696  -6.255  1.00  0.00    -0.285 OA
ATOM      5  C   UNL     1      20.829 -31.828  -8.389  1.00  0.00     0.111 A 
ATOM      6  C   UNL     1      20.250 -30.611  -7.953  1.00  0.00     0.134 A 
ATOM      7  C   UNL     1      19.836 -29.661  -8.899  1.00  0.00     0.093 A 
ATOM      8  C   UNL     1      19.989 -29.902 -10.265  1.00  0.00     0.123 A 
ATOM      9  C   UNL     1      20.562 -31.101 -10.702  1.00  0.00     0.094 A 
ATOM     10  C   UNL     1      20.983 -32.061  -9.776  1.00  0.00     0.146 A 
ATOM     11  O   UNL     1      21.528 -33.189 -10.217  1.00  0.00    -0.452 OA
ENDROOT
BRANCH   1  12
ATOM     12  C   UNL     1      22.561 -35.360 -10.028  1.00  0.00     0.021 A 
ATOM     13  C   UNL     1      23.771 -35.246 -10.733  1.00  0.00     0.016 A 
ATOM     14  C   UNL     1      24.366 -36.376 -11.304  1.00  0.00     0.047 A 
ATOM     15  C   UNL     1      23.770 -37.632 -11.163  1.00  0.00     0.115 A 
ATOM     16  C   UNL     1      21.977 -36.630  -9.873  1.00  0.00     0.016 A 
ATOM     17  C   UNL     1      22.574 -37.757 -10.444  1.00  0.00     0.047 A 
BRANCH  15  18
ATOM     18  O   UNL     1      24.374 -38.748 -11.737  1.00  0.00    -0.508 OA
ATOM     19  H   UNL     1      23.879 -39.627 -11.834  1.00  0.00     0.293 HD
ENDBRANCH  15  18
ENDBRANCH   1  12
BRANCH   2  20
ATOM     20  O   UNL     1      22.216 -35.051  -7.163  1.00  0.00    -0.502 OA
ATOM     21  H   UNL     1      21.761 -35.222  -6.274  1.00  0.00     0.293 HD
ENDBRANCH   2  20
BRANCH   6  22
ATOM     22  O   UNL     1      20.082 -30.342  -6.595  1.00  0.00    -0.507 OA
ATOM     23  H   UNL     1      20.039 -29.393  -6.241  1.00  0.00     0.293 HD
ENDBRANCH   6  22
BRANCH   8  24
ATOM     24  O   UNL     1      19.569 -28.942 -11.183  1.00  0.00    -0.508 OA
ATOM     25  H   UNL     1      18.879 -29.155 -11.895  1.00  0.00     0.293 HD
ENDBRANCH   8  24
TORSDOF 5
ENDMDL
MODEL 4
REMARK VINA RESULT:    -6.438      1.689      3.373
REMARK INTER + INTRA:          -7.850
REMARK INTER:                  -7.642
REMARK INTRA:                  -0.209
REMARK UNBOUND:                -0.283
REMARK SMILES O=c1c(O)c(-c2ccc(O)cc2)oc2cc(O)cc(O)c12
REMARK SMILES IDX 5 1 3 2 2 3 1 4 21 5 19 6 18 7 16 8 15 9 14 10 13 11 6 12
REMARK SMILES IDX 7 13 8 14 9 15 12 16 11 17 10 18 4 20 20 22 17 24
REMARK H PARENT 10 19 4 21 20 23 17 25
REMARK Flexibility Score: inf
ROOT
ATOM      1  C   UNL     1      23.179 -33.835  -8.595  1.00  0.00     0.180 A 
ATOM      2  C   UNL     1      23.581 -35.115  -9.024  1.00  0.00     0.208 A 
ATOM      3  C   UNL     1      22.783 -36.222  -8.695  1.00  0.00     0.238 A 
ATOM      4  O   UNL     1      23.139 -37.375  -9.064  1.00  0.00    -0.285 OA
ATOM      5  C   UNL     1      21.593 -36.030  -7.965  1.00  0.00     0.111 A 
ATOM      6  C   UNL     1      20.732 -37.093  -7.596  1.00  0.00     0.134 A 
ATOM      7  C   UNL     1      19.559 -36.819  -6.876  1.00  0.00     0.093 A 
ATOM      8  C   UNL     1      19.231 -35.510  -6.519  1.00  0.00     0.123 A 
ATOM      9  C   UNL     1      20.079 -34.456  -6.880  1.00  0.00     0.094 A 
ATOM     10  C   UNL     1      21.253 -34.708  -7.596  1.00  0.00     0.146 A 
ATOM     11  O   UNL     1      22.042 -33.691  -7.921  1.00  0.00    -0.452 OA
ENDROOT
BRANCH   1  12
ATOM     12  C   UNL     1      23.976 -32.621  -8.887  1.00  0.00     0.021 A 
ATOM     13  C   UNL     1      25.196 -32.419  -8.219  1.00  0.00     0.016 A 
ATOM     14  C   UNL     1      25.975 -31.291  -8.495  1.00  0.00     0.047 A 
ATOM     15  C   UNL     1      25.555 -30.362  -9.452  1.00  0.00     0.115 A 
ATOM     16  C   UNL     1      23.569 -31.693  -9.863  1.00  0.00     0.016 A 
ATOM     17  C   UNL     1      24.350 -30.567 -10.137  1.00  0.00     0.047 A 
BRANCH  15  18
ATOM     18  O   UNL     1      26.341 -29.243  -9.716  1.00  0.00    -0.508 OA
ATOM     19  H   UNL     1      27.177 -29.044  -9.180  1.00  0.00     0.293 HD
ENDBRANCH  15  18
ENDBRANCH   1  12
BRANCH   2  20
ATOM     20  O   UNL     1      24.740 -35.271  -9.790  1.00  0.00    -0.502 OA
ATOM     21  H   UNL     1      25.535 -34.650  -9.704  1.00  0.00     0.293 HD
ENDBRANCH   2  20
BRANCH   6  22
ATOM     22  O   UNL     1      21.030 -38.412  -7.939  1.00  0.00    -0.507 OA
ATOM     23  H   UNL     1      20.661 -38.841  -8.780  1.00  0.00     0.293 HD
ENDBRANCH   6  22
BRANCH   8  24
ATOM     24  O   UNL     1      18.061 -35.265  -5.805  1.00  0.00    -0.508 OA
ATOM     25  H   UNL     1      17.907 -34.385  -5.325  1.00  0.00     0.293 HD
ENDBRANCH   8  24
TORSDOF 5
ENDMDL
MODEL 5
REMARK VINA RESULT:    -6.396      1.797      2.477
REMARK INTER + INTRA:          -7.801
REMARK INTER:                  -7.506
REMARK INTRA:                  -0.294
REMARK UNBOUND:                -0.283
REMARK SMILES O=c1c(O)c(-c2ccc(O)cc2)oc2cc(O)cc(O)c12
REMARK SMILES IDX 5 1 3 2 2 3 1 4 21 5 19 6 18 7 16 8 15 9 14 10 13 11 6 12
REMARK SMILES IDX 7 13 8 14 9 15 12 16 11 17 10 18 4 20 20 22 17 24
REMARK H PARENT 10 19 4 21 20 23 17 25
REMARK Flexibility Score: inf
ROOT
ATOM      1  C   UNL     1      23.230 -31.961  -9.471  1.00  0.00     0.180 A 
ATOM      2  C   UNL     1      22.027 -31.436  -8.961  1.00  0.00     0.208 A 
ATOM      3  C   UNL     1      21.078 -32.317  -8.420  1.00  0.00     0.238 A 
ATOM      4  O   UNL     1      19.991 -31.859  -7.971  1.00  0.00    -0.285 OA
ATOM      5  C   UNL     1      21.355 -33.699  -8.378  1.00  0.00     0.111 A 
ATOM      6  C   UNL     1      20.453 -34.653  -7.846  1.00  0.00     0.134 A 
ATOM      7  C   UNL     1      20.806 -36.010  -7.831  1.00  0.00     0.093 A 
ATOM      8  C   UNL     1      22.038 -36.432  -8.337  1.00  0.00     0.123 A 
ATOM      9  C   UNL     1      22.932 -35.494  -8.864  1.00  0.00     0.094 A 
ATOM     10  C   UNL     1      22.599 -34.136  -8.889  1.00  0.00     0.146 A 
ATOM     11  O   UNL     1      23.463 -33.268  -9.400  1.00  0.00    -0.452 OA
ENDROOT
BRANCH   1  12
ATOM     12  C   UNL     1      24.272 -31.098 -10.074  1.00  0.00     0.021 A 
ATOM     13  C   UNL     1      25.374 -30.701  -9.299  1.00  0.00     0.016 A 
ATOM     14  C   UNL     1      26.381 -29.904  -9.856  1.00  0.00     0.047 A 
ATOM     15  C   UNL     1      26.307 -29.510 -11.195  1.00  0.00     0.115 A 
ATOM     16  C   UNL     1      24.214 -30.715 -11.427  1.00  0.00     0.016 A 
ATOM     17  C   UNL     1      25.221 -29.920 -11.980  1.00  0.00     0.047 A 
BRANCH  15  18
ATOM     18  O   UNL     1      27.316 -28.717 -11.735  1.00  0.00    -0.508 OA
ATOM     19  H   UNL     1      27.146 -27.757 -12.009  1.00  0.00     0.293 HD
ENDBRANCH  15  18
ENDBRANCH   1  12
BRANCH   2  20
ATOM     20  O   UNL     1      21.798 -30.056  -8.970  1.00  0.00    -0.502 OA
ATOM     21  H   UNL     1      22.366 -29.410  -8.435  1.00  0.00     0.293 HD
ENDBRANCH   2  20
BRANCH   6  22
ATOM     22  O   UNL     1      19.215 -34.264  -7.332  1.00  0.00    -0.507 OA
ATOM     23  H   UNL     1      18.400 -34.162  -7.925  1.00  0.00     0.293 HD
ENDBRANCH   6  22
BRANCH   8  24
ATOM     24  O   UNL     1      22.364 -37.785  -8.310  1.00  0.00    -0.508 OA
ATOM     25  H   UNL     1      21.851 -38.444  -7.735  1.00  0.00     0.293 HD
ENDBRANCH   8  24
TORSDOF 5
ENDMDL
MODEL 6
REMARK VINA RESULT:    -6.330      3.155      4.792
REMARK INTER + INTRA:          -7.723
REMARK INTER:                  -7.434
REMARK INTRA:                  -0.289
REMARK UNBOUND:                -0.283
REMARK SMILES O=c1c(O)c(-c2ccc(O)cc2)oc2cc(O)cc(O)c12
REMARK SMILES IDX 5 1 3 2 2 3 1 4 21 5 19 6 18 7 16 8 15 9 14 10 13 11 6 12
REMARK SMILES IDX 7 13 8 14 9 15 12 16 11 17 10 18 4 20 20 22 17 24
REMARK H PARENT 10 19 4 21 20 23 17 25
REMARK Flexibility Score: inf
ROOT
ATOM      1  C   UNL     1      23.740 -30.598  -9.753  1.00  0.00     0.180 A 
ATOM      2  C   UNL     1      23.746 -31.905  -9.228  1.00  0.00     0.208 A 
ATOM      3  C   UNL     1      22.520 -32.527  -8.942  1.00  0.00     0.238 A 
ATOM      4  O   UNL     1      22.514 -33.693  -8.462  1.00  0.00    -0.285 OA
ATOM      5  C   UNL     1      21.315 -31.844  -9.204  1.00  0.00     0.111 A 
ATOM      6  C   UNL     1      20.038 -32.402  -8.947  1.00  0.00     0.134 A 
ATOM      7  C   UNL     1      18.884 -31.661  -9.243  1.00  0.00     0.093 A 
ATOM      8  C   UNL     1      18.980 -30.379  -9.788  1.00  0.00     0.123 A 
ATOM      9  C   UNL     1      20.239 -29.823 -10.043  1.00  0.00     0.094 A 
ATOM     10  C   UNL     1      21.402 -30.544  -9.753  1.00  0.00     0.146 A 
ATOM     11  O   UNL     1      22.583 -29.991 -10.000  1.00  0.00    -0.452 OA
ENDROOT
BRANCH   1  12
ATOM     12  C   UNL     1      24.991 -29.869 -10.063  1.00  0.00     0.021 A 
ATOM     13  C   UNL     1      25.587 -29.069  -9.073  1.00  0.00     0.016 A 
ATOM     14  C   UNL     1      26.781 -28.389  -9.337  1.00  0.00     0.047 A 
ATOM     15  C   UNL     1      27.401 -28.513 -10.584  1.00  0.00     0.115 A 
ATOM     16  C   UNL     1      25.631 -30.006 -11.308  1.00  0.00     0.016 A 
ATOM     17  C   UNL     1      26.823 -29.326 -11.569  1.00  0.00     0.047 A 
BRANCH  15  18
ATOM     18  O   UNL     1      28.589 -27.830 -10.833  1.00  0.00    -0.508 OA
ATOM     19  H   UNL     1      29.227 -28.126 -11.561  1.00  0.00     0.293 HD
ENDBRANCH  15  18
ENDBRANCH   1  12
BRANCH   2  20
ATOM     20  O   UNL     1      24.954 -32.579  -9.026  1.00  0.00    -0.502 OA
ATOM     21  H   UNL     1      25.155 -33.473  -9.456  1.00  0.00     0.293 HD
ENDBRANCH   2  20
BRANCH   6  22
ATOM     22  O   UNL     1      19.909 -33.680  -8.404  1.00  0.00    -0.507 OA
ATOM     23  H   UNL     1      19.769 -33.826  -7.411  1.00  0.00     0.293 HD
ENDBRANCH   6  22
BRANCH   8  24
ATOM     24  O   UNL     1      17.819 -29.665 -10.073  1.00  0.00    -0.508 OA
ATOM     25  H   UNL     1      17.637 -28.759  -9.656  1.00  0.00     0.293 HD
ENDBRANCH   8  24
TORSDOF 5
ENDMDL
MODEL 7
REMARK VINA RESULT:    -6.263      2.181      6.634
REMARK INTER + INTRA:          -7.644
REMARK INTER:                  -7.398
REMARK INTRA:                  -0.246
REMARK UNBOUND:                -0.283
REMARK SMILES O=c1c(O)c(-c2ccc(O)cc2)oc2cc(O)cc(O)c12
REMARK SMILES IDX 5 1 3 2 2 3 1 4 21 5 19 6 18 7 16 8 15 9 14 10 13 11 6 12
REMARK SMILES IDX 7 13 8 14 9 15 12 16 11 17 10 18 4 20 20 22 17 24
REMARK H PARENT 10 19 4 21 20 23 17 25
REMARK Flexibility Score: inf
ROOT
ATOM      1  C   UNL     1      22.671 -33.297  -9.373  1.00  0.00     0.180 A 
ATOM      2  C   UNL     1      22.052 -33.070 -10.617  1.00  0.00     0.208 A 
ATOM      3  C   UNL     1      22.572 -32.077 -11.463  1.00  0.00     0.238 A 
ATOM      4  O   UNL     1      22.018 -31.858 -12.575  1.00  0.00    -0.285 OA
ATOM      5  C   UNL     1      23.708 -31.346 -11.062  1.00  0.00     0.111 A 
ATOM      6  C   UNL     1      24.295 -30.331 -11.856  1.00  0.00     0.134 A 
ATOM      7  C   UNL     1      25.432 -29.654 -11.391  1.00  0.00     0.093 A 
ATOM      8  C   UNL     1      25.991 -29.969 -10.151  1.00  0.00     0.123 A 
ATOM      9  C   UNL     1      25.415 -30.970  -9.361  1.00  0.00     0.094 A 
ATOM     10  C   UNL     1      24.281 -31.656  -9.806  1.00  0.00     0.146 A 
ATOM     11  O   UNL     1      23.751 -32.598  -9.035  1.00  0.00    -0.452 OA
ENDROOT
BRANCH   1  12
ATOM     12  C   UNL     1      22.171 -34.313  -8.418  1.00  0.00     0.021 A 
ATOM     13  C   UNL     1      22.904 -35.495  -8.221  1.00  0.00     0.016 A 
ATOM     14  C   UNL     1      22.462 -36.458  -7.308  1.00  0.00     0.047 A 
ATOM     15  C   UNL     1      21.294 -36.245  -6.570  1.00  0.00     0.115 A 
ATOM     16  C   UNL     1      21.007 -34.095  -7.658  1.00  0.00     0.016 A 
ATOM     17  C   UNL     1      20.569 -35.059  -6.746  1.00  0.00     0.047 A 
BRANCH  15  18
ATOM     18  O   UNL     1      20.865 -37.212  -5.665  1.00  0.00    -0.508 OA
ATOM     19  H   UNL     1      21.504 -37.897  -5.280  1.00  0.00     0.293 HD
ENDBRANCH  15  18
ENDBRANCH   1  12
BRANCH   2  20
ATOM     20  O   UNL     1      20.957 -33.844 -11.012  1.00  0.00    -0.502 OA
ATOM     21  H   UNL     1      20.041 -33.443 -11.177  1.00  0.00     0.293 HD
ENDBRANCH   2  20
BRANCH   6  22
ATOM     22  O   UNL     1      23.761 -29.993 -13.100  1.00  0.00    -0.507 OA
ATOM     23  H   UNL     1      22.848 -30.318 -13.394  1.00  0.00     0.293 HD
ENDBRANCH   6  22
BRANCH   8  24
ATOM     24  O   UNL     1      27.121 -29.283  -9.712  1.00  0.00    -0.508 OA
ATOM     25  H   UNL     1      27.367 -29.240  -8.729  1.00  0.00     0.293 HD
ENDBRANCH   8  24
TORSDOF 5
ENDMDL
MODEL 8
REMARK VINA RESULT:    -6.146      3.638      6.380
REMARK INTER + INTRA:          -7.506
REMARK INTER:                  -7.212
REMARK INTRA:                  -0.294
REMARK UNBOUND:                -0.283
REMARK SMILES O=c1c(O)c(-c2ccc(O)cc2)oc2cc(O)cc(O)c12
REMARK SMILES IDX 5 1 3 2 2 3 1 4 21 5 19 6 18 7 16 8 15 9 14 10 13 11 6 12
REMARK SMILES IDX 7 13 8 14 9 15 12 16 11 17 10 18 4 20 20 22 17 24
REMARK H PARENT 10 19 4 21 20 23 17 25
REMARK Flexibility Score: inf
ROOT
ATOM      1  C   UNL     1      21.526 -31.473  -9.859  1.00  0.00     0.180 A 
ATOM      2  C   UNL     1      21.859 -32.250  -8.732  1.00  0.00     0.208 A 
ATOM      3  C   UNL     1      23.197 -32.294  -8.310  1.00  0.00     0.238 A 
ATOM      4  O   UNL     1      23.509 -32.996  -7.309  1.00  0.00    -0.285 OA
ATOM      5  C   UNL     1      24.172 -31.550  -9.005  1.00  0.00     0.111 A 
ATOM      6  C   UNL     1      25.541 -31.538  -8.643  1.00  0.00     0.134 A 
ATOM      7  C   UNL     1      26.449 -30.763  -9.380  1.00  0.00     0.093 A 
ATOM      8  C   UNL     1      26.017 -30.003 -10.468  1.00  0.00     0.123 A 
ATOM      9  C   UNL     1      24.665 -30.011 -10.832  1.00  0.00     0.094 A 
ATOM     10  C   UNL     1      23.745 -30.778 -10.111  1.00  0.00     0.146 A 
ATOM     11  O   UNL     1      22.469 -30.772 -10.480  1.00  0.00    -0.452 OA
ENDROOT
BRANCH   1  12
ATOM     12  C   UNL     1      20.141 -31.390 -10.376  1.00  0.00     0.021 A 
ATOM     13  C   UNL     1      19.336 -30.294 -10.023  1.00  0.00     0.016 A 
ATOM     14  C   UNL     1      18.032 -30.184 -10.518  1.00  0.00     0.047 A 
ATOM     15  C   UNL     1      17.524 -31.157 -11.383  1.00  0.00     0.115 A 
ATOM     16  C   UNL     1      19.630 -32.356 -11.262  1.00  0.00     0.016 A 
ATOM     17  C   UNL     1      18.327 -32.243 -11.756  1.00  0.00     0.047 A 
BRANCH  15  18
ATOM     18  O   UNL     1      16.224 -31.036 -11.867  1.00  0.00    -0.508 OA
ATOM     19  H   UNL     1      15.495 -31.684 -11.597  1.00  0.00     0.293 HD
ENDBRANCH  15  18
ENDBRANCH   1  12
BRANCH   2  20
ATOM     20  O   UNL     1      20.865 -32.939  -8.031  1.00  0.00    -0.502 OA
ATOM     21  H   UNL     1      20.736 -32.836  -7.031  1.00  0.00     0.293 HD
ENDBRANCH   2  20
BRANCH   6  22
ATOM     22  O   UNL     1      26.004 -32.286  -7.560  1.00  0.00    -0.507 OA
ATOM     23  H   UNL     1      25.942 -31.942  -6.609  1.00  0.00     0.293 HD
ENDBRANCH   6  22
BRANCH   8  24
ATOM     24  O   UNL     1      26.938 -29.241 -11.183  1.00  0.00    -0.508 OA
ATOM     25  H   UNL     1      26.996 -28.235 -11.070  1.00  0.00     0.293 HD
ENDBRANCH   8  24
TORSDOF 5
ENDMDL
MODEL 9
REMARK VINA RESULT:    -6.117      2.480      6.554
REMARK INTER + INTRA:          -7.473
REMARK INTER:                  -7.375
REMARK INTRA:                  -0.098
REMARK UNBOUND:                -0.283
REMARK SMILES O=c1c(O)c(-c2ccc(O)cc2)oc2cc(O)cc(O)c12
REMARK SMILES IDX 5 1 3 2 2 3 1 4 21 5 19 6 18 7 16 8 15 9 14 10 13 11 6 12
REMARK SMILES IDX 7 13 8 14 9 15 12 16 11 17 10 18 4 20 20 22 17 24
REMARK H PARENT 10 19 4 21 20 23 17 25
REMARK Flexibility Score: inf
ROOT
ATOM      1  C   UNL     1      22.214 -33.896  -7.994  1.00  0.00     0.180 A 
ATOM      2  C   UNL     1      21.925 -32.740  -8.746  1.00  0.00     0.208 A 
ATOM      3  C   UNL     1      22.975 -31.873  -9.088  1.00  0.00     0.238 A 
ATOM      4  O   UNL     1      22.726 -30.829  -9.751  1.00  0.00    -0.285 OA
ATOM      5  C   UNL     1      24.292 -32.185  -8.693  1.00  0.00     0.111 A 
ATOM      6  C   UNL     1      25.406 -31.366  -9.000  1.00  0.00     0.134 A 
ATOM      7  C   UNL     1      26.688 -31.750  -8.578  1.00  0.00     0.093 A 
ATOM      8  C   UNL     1      26.877 -32.931  -7.859  1.00  0.00     0.123 A 
ATOM      9  C   UNL     1      25.780 -33.744  -7.552  1.00  0.00     0.094 A 
ATOM     10  C   UNL     1      24.494 -33.378  -7.961  1.00  0.00     0.146 A 
ATOM     11  O   UNL     1      23.470 -34.165  -7.652  1.00  0.00    -0.452 OA
ENDROOT
BRANCH   1  12
ATOM     12  C   UNL     1      21.158 -34.849  -7.579  1.00  0.00     0.021 A 
ATOM     13  C   UNL     1      21.276 -36.205  -7.928  1.00  0.00     0.016 A 
ATOM     14  C   UNL     1      20.302 -37.126  -7.528  1.00  0.00     0.047 A 
ATOM     15  C   UNL     1      19.211 -36.707  -6.761  1.00  0.00     0.115 A 
ATOM     16  C   UNL     1      20.068 -34.438  -6.790  1.00  0.00     0.016 A 
ATOM     17  C   UNL     1      19.097 -35.360  -6.391  1.00  0.00     0.047 A 
BRANCH  15  18
ATOM     18  O   UNL     1      18.249 -37.635  -6.369  1.00  0.00    -0.508 OA
ATOM     19  H   UNL     1      18.398 -38.251  -5.580  1.00  0.00     0.293 HD
ENDBRANCH  15  18
ENDBRANCH   1  12
BRANCH   2  20
ATOM     20  O   UNL     1      20.617 -32.480  -9.168  1.00  0.00    -0.502 OA
ATOM     21  H   UNL     1      20.287 -31.543  -9.364  1.00  0.00     0.293 HD
ENDBRANCH   2  20
BRANCH   6  22
ATOM     22  O   UNL     1      25.250 -30.180  -9.718  1.00  0.00    -0.507 OA
ATOM     23  H   UNL     1      24.445 -30.018 -10.312  1.00  0.00     0.293 HD
ENDBRANCH   6  22
BRANCH   8  24
ATOM     24  O   UNL     1      28.160 -33.290  -7.453  1.00  0.00    -0.508 OA
ATOM     25  H   UNL     1      28.620 -34.116  -7.818  1.00  0.00     0.293 HD
ENDBRANCH   8  24
TORSDOF 5
ENDMDL
