MODEL 1
REMARK VINA RESULT:    -2.278      0.000      0.000
REMARK INTER + INTRA:          -7.453
REMARK INTER:                  -5.208
REMARK INTRA:                  -2.245
REMARK UNBOUND:                -2.245
REMARK SMILES CCCCCCCCCCCCCCCCCCCCCCCC(=O)[O-]
REMARK SMILES IDX 13 1 14 2 15 3 16 4 17 5 18 6 19 7 20 8 21 9 22 10 23 11
REMARK SMILES IDX 24 12 25 13 26 14 12 15 11 16 10 17 9 18 8 19 7 20 6 21 5 22
REMARK SMILES IDX 4 23 3 24 2 25 1 26
REMARK H PARENT
REMARK Flexibility Score: inf
ROOT
ATOM      1  C   UNL     1     -12.378  -8.409  -7.359  1.00  0.00     0.000 C 
ENDROOT
BRANCH   1   2
ATOM      2  C   UNL     1     -12.320  -9.868  -6.881  1.00  0.00     0.000 C 
BRANCH   2   3
ATOM      3  C   UNL     1     -13.732 -10.433  -6.673  1.00  0.00     0.000 C 
BRANCH   3   4
ATOM      4  C   UNL     1     -14.080 -10.646  -5.187  1.00  0.00     0.000 C 
BRANCH   4   5
ATOM      5  C   UNL     1     -15.587 -10.729  -4.875  1.00  0.00     0.000 C 
BRANCH   5   6
ATOM      6  C   UNL     1     -16.497 -11.002  -6.089  1.00  0.00     0.000 C 
BRANCH   6   7
ATOM      7  C   UNL     1     -17.445  -9.835  -6.436  1.00  0.00     0.000 C 
BRANCH   7   8
ATOM      8  C   UNL     1     -16.994  -9.055  -7.684  1.00  0.00     0.000 C 
BRANCH   8   9
ATOM      9  C   UNL     1     -16.696  -7.578  -7.383  1.00  0.00     0.000 C 
BRANCH   9  10
ATOM     10  C   UNL     1     -15.703  -7.400  -6.222  1.00  0.00     0.006 C 
BRANCH  10  11
ATOM     11  C   UNL     1     -16.398  -6.964  -4.925  1.00  0.00     0.053 C 
BRANCH  11  12
ATOM     12  C   UNL     1     -17.681  -6.240  -5.198  1.00  0.00     0.041 C 
ATOM     13  O   UNL     1     -17.663  -5.093  -5.717  1.00  0.00    -0.550 OA
ATOM     14  O   UNL     1     -18.897  -6.858  -4.936  1.00  0.00    -0.550 OA
ENDBRANCH  11  12
ENDBRANCH  10  11
ENDBRANCH   9  10
ENDBRANCH   8   9
ENDBRANCH   7   8
ENDBRANCH   6   7
ENDBRANCH   5   6
ENDBRANCH   4   5
ENDBRANCH   3   4
ENDBRANCH   2   3
ENDBRANCH   1   2
BRANCH   1  15
ATOM     15  C   UNL     1     -12.241  -7.400  -6.208  1.00  0.00     0.000 C 
BRANCH  15  16
ATOM     16  C   UNL     1     -11.612  -8.017  -4.946  1.00  0.00     0.000 C 
BRANCH  16  17
ATOM     17  C   UNL     1     -10.079  -7.883  -4.933  1.00  0.00     0.000 C 
BRANCH  17  18
ATOM     18  C   UNL     1      -9.336  -9.231  -4.982  1.00  0.00    -0.000 C 
BRANCH  18  19
ATOM     19  C   UNL     1      -8.769  -9.535  -6.382  1.00  0.00    -0.000 C 
BRANCH  19  20
ATOM     20  C   UNL     1      -8.280 -10.990  -6.524  1.00  0.00    -0.000 C 
BRANCH  20  21
ATOM     21  C   UNL     1      -6.761 -11.125  -6.731  1.00  0.00    -0.000 C 
BRANCH  21  22
ATOM     22  C   UNL     1      -5.965  -9.990  -6.061  1.00  0.00    -0.000 C 
BRANCH  22  23
ATOM     23  C   UNL     1      -4.444 -10.237  -6.116  1.00  0.00    -0.000 C 
BRANCH  23  24
ATOM     24  C   UNL     1      -3.737  -9.473  -7.249  1.00  0.00    -0.000 C 
BRANCH  24  25
ATOM     25  C   UNL     1      -3.907 -10.141  -8.621  1.00  0.00    -0.003 C 
ATOM     26  C   UNL     1      -2.704 -11.016  -8.960  1.00  0.00     0.004 C 
ENDBRANCH  24  25
ENDBRANCH  23  24
ENDBRANCH  22  23
ENDBRANCH  21  22
ENDBRANCH  20  21
ENDBRANCH  19  20
ENDBRANCH  18  19
ENDBRANCH  17  18
ENDBRANCH  16  17
ENDBRANCH  15  16
ENDBRANCH   1  15
TORSDOF 22
ENDMDL
MODEL 2
REMARK VINA RESULT:    -2.203      4.231     10.575
REMARK INTER + INTRA:          -7.281
REMARK INTER:                  -5.841
REMARK INTRA:                  -1.439
REMARK UNBOUND:                -2.245
REMARK SMILES CCCCCCCCCCCCCCCCCCCCCCCC(=O)[O-]
REMARK SMILES IDX 13 1 14 2 15 3 16 4 17 5 18 6 19 7 20 8 21 9 22 10 23 11
REMARK SMILES IDX 24 12 25 13 26 14 12 15 11 16 10 17 9 18 8 19 7 20 6 21 5 22
REMARK SMILES IDX 4 23 3 24 2 25 1 26
REMARK H PARENT
REMARK Flexibility Score: inf
ROOT
ATOM      1  C   UNL     1     -12.768  -7.631  -6.511  1.00  0.00     0.000 C 
ENDROOT
BRANCH   1   2
ATOM      2  C   UNL     1     -11.706  -8.612  -7.033  1.00  0.00     0.000 C 
BRANCH   2   3
ATOM      3  C   UNL     1     -10.326  -8.288  -6.445  1.00  0.00     0.000 C 
BRANCH   3   4
ATOM      4  C   UNL     1      -9.299  -9.416  -6.667  1.00  0.00     0.000 C 
BRANCH   4   5
ATOM      5  C   UNL     1      -8.355  -9.681  -5.478  1.00  0.00     0.000 C 
BRANCH   5   6
ATOM      6  C   UNL     1      -6.937 -10.152  -5.856  1.00  0.00     0.000 C 
BRANCH   6   7
ATOM      7  C   UNL     1      -5.999  -9.012  -6.310  1.00  0.00     0.000 C 
BRANCH   7   8
ATOM      8  C   UNL     1      -4.789  -9.524  -7.113  1.00  0.00     0.000 C 
BRANCH   8   9
ATOM      9  C   UNL     1      -3.621  -9.951  -6.212  1.00  0.00     0.000 C 
BRANCH   9  10
ATOM     10  C   UNL     1      -3.354  -8.950  -5.074  1.00  0.00     0.006 C 
BRANCH  10  11
ATOM     11  C   UNL     1      -2.354  -7.861  -5.483  1.00  0.00     0.053 C 
BRANCH  11  12
ATOM     12  C   UNL     1      -3.012  -6.520  -5.605  1.00  0.00     0.041 C 
ATOM     13  O   UNL     1      -2.312  -5.481  -5.741  1.00  0.00    -0.550 OA
ATOM     14  O   UNL     1      -4.397  -6.424  -5.631  1.00  0.00    -0.550 OA
ENDBRANCH  11  12
ENDBRANCH  10  11
ENDBRANCH   9  10
ENDBRANCH   8   9
ENDBRANCH   7   8
ENDBRANCH   6   7
ENDBRANCH   5   6
ENDBRANCH   4   5
ENDBRANCH   3   4
ENDBRANCH   2   3
ENDBRANCH   1   2
BRANCH   1  15
ATOM     15  C   UNL     1     -13.404  -8.091  -5.190  1.00  0.00     0.000 C 
BRANCH  15  16
ATOM     16  C   UNL     1     -13.686  -9.604  -5.159  1.00  0.00     0.000 C 
BRANCH  16  17
ATOM     17  C   UNL     1     -14.784 -10.013  -6.157  1.00  0.00     0.000 C 
BRANCH  17  18
ATOM     18  C   UNL     1     -15.761 -11.069  -5.608  1.00  0.00    -0.000 C 
BRANCH  18  19
ATOM     19  C   UNL     1     -16.958 -10.433  -4.875  1.00  0.00    -0.000 C 
BRANCH  19  20
ATOM     20  C   UNL     1     -17.659  -9.345  -5.712  1.00  0.00    -0.000 C 
BRANCH  20  21
ATOM     21  C   UNL     1     -18.319  -8.235  -4.875  1.00  0.00    -0.000 C 
BRANCH  21  22
ATOM     22  C   UNL     1     -17.545  -6.905  -4.937  1.00  0.00    -0.000 C 
BRANCH  22  23
ATOM     23  C   UNL     1     -17.409  -6.379  -6.380  1.00  0.00    -0.000 C 
BRANCH  23  24
ATOM     24  C   UNL     1     -16.071  -6.746  -7.045  1.00  0.00    -0.000 C 
BRANCH  24  25
ATOM     25  C   UNL     1     -16.228  -7.193  -8.505  1.00  0.00    -0.003 C 
ATOM     26  C   UNL     1     -16.697  -8.643  -8.589  1.00  0.00     0.004 C 
ENDBRANCH  24  25
ENDBRANCH  23  24
ENDBRANCH  22  23
ENDBRANCH  21  22
ENDBRANCH  20  21
ENDBRANCH  19  20
ENDBRANCH  18  19
ENDBRANCH  17  18
ENDBRANCH  16  17
ENDBRANCH  15  16
ENDBRANCH   1  15
TORSDOF 22
ENDMDL
MODEL 3
REMARK VINA RESULT:    -2.180      4.318     10.472
REMARK INTER + INTRA:          -7.229
REMARK INTER:                  -6.181
REMARK INTRA:                  -1.048
REMARK UNBOUND:                -2.245
REMARK SMILES CCCCCCCCCCCCCCCCCCCCCCCC(=O)[O-]
REMARK SMILES IDX 13 1 14 2 15 3 16 4 17 5 18 6 19 7 20 8 21 9 22 10 23 11
REMARK SMILES IDX 24 12 25 13 26 14 12 15 11 16 10 17 9 18 8 19 7 20 6 21 5 22
REMARK SMILES IDX 4 23 3 24 2 25 1 26
REMARK H PARENT
REMARK Flexibility Score: inf
ROOT
ATOM      1  C   UNL     1      -9.851  -7.646  -6.649  1.00  0.00     0.000 C 
ENDROOT
BRANCH   1   2
ATOM      2  C   UNL     1      -8.911  -7.864  -5.453  1.00  0.00     0.000 C 
BRANCH   2   3
ATOM      3  C   UNL     1      -7.938  -9.020  -5.724  1.00  0.00     0.000 C 
BRANCH   3   4
ATOM      4  C   UNL     1      -6.467  -8.566  -5.787  1.00  0.00     0.000 C 
BRANCH   4   5
ATOM      5  C   UNL     1      -5.857  -8.523  -7.201  1.00  0.00     0.000 C 
BRANCH   5   6
ATOM      6  C   UNL     1      -5.556  -9.897  -7.831  1.00  0.00     0.000 C 
BRANCH   6   7
ATOM      7  C   UNL     1      -4.871 -10.891  -6.868  1.00  0.00     0.000 C 
BRANCH   7   8
ATOM      8  C   UNL     1      -3.405 -10.521  -6.579  1.00  0.00     0.000 C 
BRANCH   8   9
ATOM      9  C   UNL     1      -3.169 -10.151  -5.106  1.00  0.00     0.000 C 
BRANCH   9  10
ATOM     10  C   UNL     1      -2.956  -8.642  -4.902  1.00  0.00     0.006 C 
BRANCH  10  11
ATOM     11  C   UNL     1      -2.845  -7.886  -6.233  1.00  0.00     0.053 C 
BRANCH  11  12
ATOM     12  C   UNL     1      -3.214  -6.442  -6.085  1.00  0.00     0.041 C 
ATOM     13  O   UNL     1      -3.123  -5.661  -7.068  1.00  0.00    -0.550 OA
ATOM     14  O   UNL     1      -3.718  -5.973  -4.879  1.00  0.00    -0.550 OA
ENDBRANCH  11  12
ENDBRANCH  10  11
ENDBRANCH   9  10
ENDBRANCH   8   9
ENDBRANCH   7   8
ENDBRANCH   6   7
ENDBRANCH   5   6
ENDBRANCH   4   5
ENDBRANCH   3   4
ENDBRANCH   2   3
ENDBRANCH   1   2
BRANCH   1  15
ATOM     15  C   UNL     1     -10.674  -8.897  -6.994  1.00  0.00     0.000 C 
BRANCH  15  16
ATOM     16  C   UNL     1     -10.346 -10.095  -6.085  1.00  0.00     0.000 C 
BRANCH  16  17
ATOM     17  C   UNL     1     -11.562 -11.016  -5.873  1.00  0.00     0.000 C 
BRANCH  17  18
ATOM     18  C   UNL     1     -12.916 -10.321  -6.108  1.00  0.00    -0.000 C 
BRANCH  18  19
ATOM     19  C   UNL     1     -13.386  -9.526  -4.875  1.00  0.00    -0.000 C 
BRANCH  19  20
ATOM     20  C   UNL     1     -12.985  -8.039  -4.937  1.00  0.00    -0.000 C 
BRANCH  20  21
ATOM     21  C   UNL     1     -14.122  -7.098  -5.373  1.00  0.00    -0.000 C 
BRANCH  21  22
ATOM     22  C   UNL     1     -14.566  -7.335  -6.828  1.00  0.00    -0.000 C 
BRANCH  22  23
ATOM     23  C   UNL     1     -16.101  -7.323  -6.977  1.00  0.00    -0.000 C 
BRANCH  23  24
ATOM     24  C   UNL     1     -16.823  -8.233  -5.968  1.00  0.00    -0.000 C 
BRANCH  24  25
ATOM     25  C   UNL     1     -16.802  -9.714  -6.373  1.00  0.00    -0.003 C 
ATOM     26  C   UNL     1     -16.974  -9.875  -7.881  1.00  0.00     0.004 C 
ENDBRANCH  24  25
ENDBRANCH  23  24
ENDBRANCH  22  23
ENDBRANCH  21  22
ENDBRANCH  20  21
ENDBRANCH  19  20
ENDBRANCH  18  19
ENDBRANCH  17  18
ENDBRANCH  16  17
ENDBRANCH  15  16
ENDBRANCH   1  15
TORSDOF 22
ENDMDL
MODEL 4
REMARK VINA RESULT:    -2.125      4.570     10.255
REMARK INTER + INTRA:          -7.103
REMARK INTER:                  -5.572
REMARK INTRA:                  -1.531
REMARK UNBOUND:                -2.245
REMARK SMILES CCCCCCCCCCCCCCCCCCCCCCCC(=O)[O-]
REMARK SMILES IDX 13 1 14 2 15 3 16 4 17 5 18 6 19 7 20 8 21 9 22 10 23 11
REMARK SMILES IDX 24 12 25 13 26 14 12 15 11 16 10 17 9 18 8 19 7 20 6 21 5 22
REMARK SMILES IDX 4 23 3 24 2 25 1 26
REMARK H PARENT
REMARK Flexibility Score: inf
ROOT
ATOM      1  C   UNL     1     -12.797  -6.752  -5.863  1.00  0.00     0.000 C 
ENDROOT
BRANCH   1   2
ATOM      2  C   UNL     1     -11.966  -7.587  -4.876  1.00  0.00     0.000 C 
BRANCH   2   3
ATOM      3  C   UNL     1     -10.465  -7.325  -5.065  1.00  0.00     0.000 C 
BRANCH   3   4
ATOM      4  C   UNL     1      -9.669  -8.603  -5.390  1.00  0.00     0.000 C 
BRANCH   4   5
ATOM      5  C   UNL     1      -9.528  -8.921  -6.891  1.00  0.00     0.000 C 
BRANCH   5   6
ATOM      6  C   UNL     1      -8.474  -9.988  -7.243  1.00  0.00     0.000 C 
BRANCH   6   7
ATOM      7  C   UNL     1      -8.103 -10.914  -6.064  1.00  0.00     0.000 C 
BRANCH   7   8
ATOM      8  C   UNL     1      -6.616 -10.820  -5.680  1.00  0.00     0.000 C 
BRANCH   8   9
ATOM      9  C   UNL     1      -5.836  -9.842  -6.573  1.00  0.00     0.000 C 
BRANCH   9  10
ATOM     10  C   UNL     1      -4.322  -9.873  -6.303  1.00  0.00     0.006 C 
BRANCH  10  11
ATOM     11  C   UNL     1      -3.910  -8.888  -5.201  1.00  0.00     0.053 C 
BRANCH  11  12
ATOM     12  C   UNL     1      -2.580  -8.259  -5.486  1.00  0.00     0.041 C 
ATOM     13  O   UNL     1      -1.552  -8.977  -5.603  1.00  0.00    -0.550 OA
ATOM     14  O   UNL     1      -2.487  -6.888  -5.684  1.00  0.00    -0.550 OA
ENDBRANCH  11  12
ENDBRANCH  10  11
ENDBRANCH   9  10
ENDBRANCH   8   9
ENDBRANCH   7   8
ENDBRANCH   6   7
ENDBRANCH   5   6
ENDBRANCH   4   5
ENDBRANCH   3   4
ENDBRANCH   2   3
ENDBRANCH   1   2
BRANCH   1  15
ATOM     15  C   UNL     1     -13.485  -7.609  -6.936  1.00  0.00     0.000 C 
BRANCH  15  16
ATOM     16  C   UNL     1     -13.282  -9.119  -6.713  1.00  0.00     0.000 C 
BRANCH  16  17
ATOM     17  C   UNL     1     -13.703  -9.561  -5.299  1.00  0.00     0.000 C 
BRANCH  17  18
ATOM     18  C   UNL     1     -14.511 -10.872  -5.273  1.00  0.00    -0.000 C 
BRANCH  18  19
ATOM     19  C   UNL     1     -15.256 -11.125  -6.598  1.00  0.00    -0.000 C 
BRANCH  19  20
ATOM     20  C   UNL     1     -16.788 -11.082  -6.438  1.00  0.00    -0.000 C 
BRANCH  20  21
ATOM     21  C   UNL     1     -17.266 -10.430  -5.128  1.00  0.00    -0.000 C 
BRANCH  21  22
ATOM     22  C   UNL     1     -18.015  -9.106  -5.361  1.00  0.00    -0.000 C 
BRANCH  22  23
ATOM     23  C   UNL     1     -17.204  -7.887  -4.876  1.00  0.00    -0.000 C 
BRANCH  23  24
ATOM     24  C   UNL     1     -16.870  -6.885  -5.995  1.00  0.00    -0.000 C 
BRANCH  24  25
ATOM     25  C   UNL     1     -16.564  -7.564  -7.338  1.00  0.00    -0.003 C 
ATOM     26  C   UNL     1     -16.561  -6.551  -8.479  1.00  0.00     0.004 C 
ENDBRANCH  24  25
ENDBRANCH  23  24
ENDBRANCH  22  23
ENDBRANCH  21  22
ENDBRANCH  20  21
ENDBRANCH  19  20
ENDBRANCH  18  19
ENDBRANCH  17  18
ENDBRANCH  16  17
ENDBRANCH  15  16
ENDBRANCH   1  15
TORSDOF 22
ENDMDL
MODEL 5
REMARK VINA RESULT:    -1.819      4.564     10.288
REMARK INTER + INTRA:          -6.404
REMARK INTER:                  -5.203
REMARK INTRA:                  -1.201
REMARK UNBOUND:                -2.245
REMARK SMILES CCCCCCCCCCCCCCCCCCCCCCCC(=O)[O-]
REMARK SMILES IDX 13 1 14 2 15 3 16 4 17 5 18 6 19 7 20 8 21 9 22 10 23 11
REMARK SMILES IDX 24 12 25 13 26 14 12 15 11 16 10 17 9 18 8 19 7 20 6 21 5 22
REMARK SMILES IDX 4 23 3 24 2 25 1 26
REMARK H PARENT
REMARK Flexibility Score: inf
ROOT
ATOM      1  C   UNL     1     -12.430  -8.385  -4.910  1.00  0.00     0.000 C 
ENDROOT
BRANCH   1   2
ATOM      2  C   UNL     1     -11.613  -7.863  -6.102  1.00  0.00     0.000 C 
BRANCH   2   3
ATOM      3  C   UNL     1     -11.162  -9.020  -7.006  1.00  0.00     0.000 C 
BRANCH   3   4
ATOM      4  C   UNL     1     -10.986 -10.345  -6.241  1.00  0.00     0.000 C 
BRANCH   4   5
ATOM      5  C   UNL     1     -10.105 -10.259  -4.979  1.00  0.00     0.000 C 
BRANCH   5   6
ATOM      6  C   UNL     1      -8.658 -10.763  -5.151  1.00  0.00     0.000 C 
BRANCH   6   7
ATOM      7  C   UNL     1      -7.589  -9.659  -5.005  1.00  0.00     0.000 C 
BRANCH   7   8
ATOM      8  C   UNL     1      -6.161 -10.182  -5.240  1.00  0.00     0.000 C 
BRANCH   8   9
ATOM      9  C   UNL     1      -5.959 -10.733  -6.660  1.00  0.00     0.000 C 
BRANCH   9  10
ATOM     10  C   UNL     1      -5.815  -9.620  -7.712  1.00  0.00     0.006 C 
BRANCH  10  11
ATOM     11  C   UNL     1      -4.352  -9.385  -8.111  1.00  0.00     0.053 C 
BRANCH  11  12
ATOM     12  C   UNL     1      -3.850 -10.451  -9.037  1.00  0.00     0.041 C 
ATOM     13  O   UNL     1      -4.583 -10.878  -9.968  1.00  0.00    -0.550 OA
ATOM     14  O   UNL     1      -2.552 -10.928  -8.909  1.00  0.00    -0.550 OA
ENDBRANCH  11  12
ENDBRANCH  10  11
ENDBRANCH   9  10
ENDBRANCH   8   9
ENDBRANCH   7   8
ENDBRANCH   6   7
ENDBRANCH   5   6
ENDBRANCH   4   5
ENDBRANCH   3   4
ENDBRANCH   2   3
ENDBRANCH   1   2
BRANCH   1  15
ATOM     15  C   UNL     1     -13.909  -8.614  -5.257  1.00  0.00     0.000 C 
BRANCH  15  16
ATOM     16  C   UNL     1     -14.397 -10.024  -4.880  1.00  0.00     0.000 C 
BRANCH  16  17
ATOM     17  C   UNL     1     -14.619 -10.915  -6.116  1.00  0.00     0.000 C 
BRANCH  17  18
ATOM     18  C   UNL     1     -16.094 -11.024  -6.547  1.00  0.00    -0.000 C 
BRANCH  18  19
ATOM     19  C   UNL     1     -17.064 -10.705  -5.395  1.00  0.00    -0.000 C 
BRANCH  19  20
ATOM     20  C   UNL     1     -17.946  -9.474  -5.681  1.00  0.00    -0.000 C 
BRANCH  20  21
ATOM     21  C   UNL     1     -17.540  -8.213  -4.897  1.00  0.00    -0.000 C 
BRANCH  21  22
ATOM     22  C   UNL     1     -16.904  -7.135  -5.793  1.00  0.00    -0.000 C 
BRANCH  22  23
ATOM     23  C   UNL     1     -16.308  -7.731  -7.084  1.00  0.00    -0.000 C 
BRANCH  23  24
ATOM     24  C   UNL     1     -15.785  -6.670  -8.068  1.00  0.00    -0.000 C 
BRANCH  24  25
ATOM     25  C   UNL     1     -16.844  -6.221  -9.086  1.00  0.00    -0.003 C 
ATOM     26  C   UNL     1     -17.663  -5.052  -8.548  1.00  0.00     0.004 C 
ENDBRANCH  24  25
ENDBRANCH  23  24
ENDBRANCH  22  23
ENDBRANCH  21  22
ENDBRANCH  20  21
ENDBRANCH  19  20
ENDBRANCH  18  19
ENDBRANCH  17  18
ENDBRANCH  16  17
ENDBRANCH  15  16
ENDBRANCH   1  15
TORSDOF 22
ENDMDL
MODEL 6
REMARK VINA RESULT:    -1.805      3.258      9.252
REMARK INTER + INTRA:          -6.371
REMARK INTER:                  -5.007
REMARK INTRA:                  -1.365
REMARK UNBOUND:                -2.245
REMARK SMILES CCCCCCCCCCCCCCCCCCCCCCCC(=O)[O-]
REMARK SMILES IDX 13 1 14 2 15 3 16 4 17 5 18 6 19 7 20 8 21 9 22 10 23 11
REMARK SMILES IDX 24 12 25 13 26 14 12 15 11 16 10 17 9 18 8 19 7 20 6 21 5 22
REMARK SMILES IDX 4 23 3 24 2 25 1 26
REMARK H PARENT
REMARK Flexibility Score: inf
ROOT
ATOM      1  C   UNL     1     -12.786  -7.092  -7.043  1.00  0.00     0.000 C 
ENDROOT
BRANCH   1   2
ATOM      2  C   UNL     1     -11.804  -8.213  -7.416  1.00  0.00     0.000 C 
BRANCH   2   3
ATOM      3  C   UNL     1     -10.943  -8.610  -6.208  1.00  0.00     0.000 C 
BRANCH   3   4
ATOM      4  C   UNL     1     -10.238  -9.967  -6.394  1.00  0.00     0.000 C 
BRANCH   4   5
ATOM      5  C   UNL     1      -9.751 -10.633  -5.092  1.00  0.00     0.000 C 
BRANCH   5   6
ATOM      6  C   UNL     1      -8.222 -10.689  -4.912  1.00  0.00     0.000 C 
BRANCH   6   7
ATOM      7  C   UNL     1      -7.448 -10.975  -6.217  1.00  0.00     0.000 C 
BRANCH   7   8
ATOM      8  C   UNL     1      -5.931 -11.108  -5.990  1.00  0.00     0.000 C 
BRANCH   8   9
ATOM      9  C   UNL     1      -5.307  -9.831  -5.408  1.00  0.00     0.000 C 
BRANCH   9  10
ATOM     10  C   UNL     1      -5.618  -8.582  -6.250  1.00  0.00     0.006 C 
BRANCH  10  11
ATOM     11  C   UNL     1      -6.060  -7.394  -5.386  1.00  0.00     0.053 C 
BRANCH  11  12
ATOM     12  C   UNL     1      -7.461  -6.967  -5.703  1.00  0.00     0.041 C 
ATOM     13  O   UNL     1      -8.068  -7.465  -6.686  1.00  0.00    -0.550 OA
ATOM     14  O   UNL     1      -8.116  -6.064  -4.875  1.00  0.00    -0.550 OA
ENDBRANCH  11  12
ENDBRANCH  10  11
ENDBRANCH   9  10
ENDBRANCH   8   9
ENDBRANCH   7   8
ENDBRANCH   6   7
ENDBRANCH   5   6
ENDBRANCH   4   5
ENDBRANCH   3   4
ENDBRANCH   2   3
ENDBRANCH   1   2
BRANCH   1  15
ATOM     15  C   UNL     1     -12.937  -6.913  -5.525  1.00  0.00     0.000 C 
BRANCH  15  16
ATOM     16  C   UNL     1     -13.790  -8.018  -4.877  1.00  0.00     0.000 C 
BRANCH  16  17
ATOM     17  C   UNL     1     -14.242  -9.079  -5.897  1.00  0.00     0.000 C 
BRANCH  17  18
ATOM     18  C   UNL     1     -14.198 -10.521  -5.356  1.00  0.00    -0.000 C 
BRANCH  18  19
ATOM     19  C   UNL     1     -15.600 -11.061  -5.018  1.00  0.00    -0.000 C 
BRANCH  19  20
ATOM     20  C   UNL     1     -16.529 -11.118  -6.246  1.00  0.00    -0.000 C 
BRANCH  20  21
ATOM     21  C   UNL     1     -17.902 -10.460  -6.027  1.00  0.00    -0.000 C 
BRANCH  21  22
ATOM     22  C   UNL     1     -17.895  -9.438  -4.875  1.00  0.00    -0.000 C 
BRANCH  22  23
ATOM     23  C   UNL     1     -18.057  -7.991  -5.383  1.00  0.00    -0.000 C 
BRANCH  23  24
ATOM     24  C   UNL     1     -16.723  -7.313  -5.744  1.00  0.00    -0.000 C 
BRANCH  24  25
ATOM     25  C   UNL     1     -16.803  -6.479  -7.030  1.00  0.00    -0.003 C 
ATOM     26  C   UNL     1     -16.322  -7.279  -8.237  1.00  0.00     0.004 C 
ENDBRANCH  24  25
ENDBRANCH  23  24
ENDBRANCH  22  23
ENDBRANCH  21  22
ENDBRANCH  20  21
ENDBRANCH  19  20
ENDBRANCH  18  19
ENDBRANCH  17  18
ENDBRANCH  16  17
ENDBRANCH  15  16
ENDBRANCH   1  15
TORSDOF 22
ENDMDL
MODEL 7
REMARK VINA RESULT:    -1.557      4.698     10.306
REMARK INTER + INTRA:          -5.805
REMARK INTER:                  -5.714
REMARK INTRA:                  -0.092
REMARK UNBOUND:                -2.245
REMARK SMILES CCCCCCCCCCCCCCCCCCCCCCCC(=O)[O-]
REMARK SMILES IDX 13 1 14 2 15 3 16 4 17 5 18 6 19 7 20 8 21 9 22 10 23 11
REMARK SMILES IDX 24 12 25 13 26 14 12 15 11 16 10 17 9 18 8 19 7 20 6 21 5 22
REMARK SMILES IDX 4 23 3 24 2 25 1 26
REMARK H PARENT
REMARK Flexibility Score: inf
ROOT
ATOM      1  C   UNL     1     -10.729  -8.883  -7.826  1.00  0.00     0.000 C 
ENDROOT
BRANCH   1   2
ATOM      2  C   UNL     1      -9.230  -8.738  -7.521  1.00  0.00     0.000 C 
BRANCH   2   3
ATOM      3  C   UNL     1      -8.999  -7.746  -6.373  1.00  0.00     0.000 C 
BRANCH   3   4
ATOM      4  C   UNL     1      -8.702  -8.439  -5.030  1.00  0.00     0.000 C 
BRANCH   4   5
ATOM      5  C   UNL     1      -7.317  -9.108  -4.932  1.00  0.00     0.000 C 
BRANCH   5   6
ATOM      6  C   UNL     1      -7.201 -10.486  -5.613  1.00  0.00     0.000 C 
BRANCH   6   7
ATOM      7  C   UNL     1      -6.722 -10.421  -7.079  1.00  0.00     0.000 C 
BRANCH   7   8
ATOM      8  C   UNL     1      -5.278  -9.904  -7.209  1.00  0.00     0.000 C 
BRANCH   8   9
ATOM      9  C   UNL     1      -5.099  -8.497  -6.617  1.00  0.00     0.000 C 
BRANCH   9  10
ATOM     10  C   UNL     1      -3.859  -7.775  -7.171  1.00  0.00     0.006 C 
BRANCH  10  11
ATOM     11  C   UNL     1      -3.650  -6.401  -6.522  1.00  0.00     0.053 C 
BRANCH  11  12
ATOM     12  C   UNL     1      -2.536  -6.423  -5.520  1.00  0.00     0.041 C 
ATOM     13  O   UNL     1      -2.030  -5.345  -5.112  1.00  0.00    -0.550 OA
ATOM     14  O   UNL     1      -2.100  -7.631  -4.992  1.00  0.00    -0.550 OA
ENDBRANCH  11  12
ENDBRANCH  10  11
ENDBRANCH   9  10
ENDBRANCH   8   9
ENDBRANCH   7   8
ENDBRANCH   6   7
ENDBRANCH   5   6
ENDBRANCH   4   5
ENDBRANCH   3   4
ENDBRANCH   2   3
ENDBRANCH   1   2
BRANCH   1  15
ATOM     15  C   UNL     1     -11.590  -8.972  -6.556  1.00  0.00     0.000 C 
BRANCH  15  16
ATOM     16  C   UNL     1     -11.863 -10.423  -6.123  1.00  0.00     0.000 C 
BRANCH  16  17
ATOM     17  C   UNL     1     -13.303 -10.866  -6.442  1.00  0.00     0.000 C 
BRANCH  17  18
ATOM     18  C   UNL     1     -14.166 -11.122  -5.192  1.00  0.00    -0.000 C 
BRANCH  18  19
ATOM     19  C   UNL     1     -15.354 -10.146  -5.093  1.00  0.00    -0.000 C 
BRANCH  19  20
ATOM     20  C   UNL     1     -16.656 -10.733  -5.674  1.00  0.00    -0.000 C 
BRANCH  20  21
ATOM     21  C   UNL     1     -16.583 -11.062  -7.175  1.00  0.00    -0.000 C 
BRANCH  21  22
ATOM     22  C   UNL     1     -17.190  -9.954  -8.057  1.00  0.00    -0.000 C 
BRANCH  22  23
ATOM     23  C   UNL     1     -17.137  -8.574  -7.372  1.00  0.00    -0.000 C 
BRANCH  23  24
ATOM     24  C   UNL     1     -15.843  -7.792  -7.661  1.00  0.00    -0.000 C 
BRANCH  24  25
ATOM     25  C   UNL     1     -15.216  -7.181  -6.400  1.00  0.00    -0.003 C 
ATOM     26  C   UNL     1     -16.261  -6.982  -5.306  1.00  0.00     0.004 C 
ENDBRANCH  24  25
ENDBRANCH  23  24
ENDBRANCH  22  23
ENDBRANCH  21  22
ENDBRANCH  20  21
ENDBRANCH  19  20
ENDBRANCH  18  19
ENDBRANCH  17  18
ENDBRANCH  16  17
ENDBRANCH  15  16
ENDBRANCH   1  15
TORSDOF 22
ENDMDL
MODEL 8
REMARK VINA RESULT:     0.322      1.687      2.373
REMARK INTER + INTRA:          -1.509
REMARK INTER:                  -0.116
REMARK INTRA:                  -1.393
REMARK UNBOUND:                -2.245
REMARK SMILES CCCCCCCCCCCCCCCCCCCCCCCC(=O)[O-]
REMARK SMILES IDX 13 1 14 2 15 3 16 4 17 5 18 6 19 7 20 8 21 9 22 10 23 11
REMARK SMILES IDX 24 12 25 13 26 14 12 15 11 16 10 17 9 18 8 19 7 20 6 21 5 22
REMARK SMILES IDX 4 23 3 24 2 25 1 26
REMARK H PARENT
REMARK Flexibility Score: inf
ROOT
ATOM      1  C   UNL     1     -12.434  -7.756  -7.426  1.00  0.00     0.000 C 
ENDROOT
BRANCH   1   2
ATOM      2  C   UNL     1     -13.467  -8.709  -6.804  1.00  0.00     0.000 C 
BRANCH   2   3
ATOM      3  C   UNL     1     -13.195  -8.907  -5.306  1.00  0.00     0.000 C 
BRANCH   3   4
ATOM      4  C   UNL     1     -13.255 -10.385  -4.875  1.00  0.00     0.000 C 
BRANCH   4   5
ATOM      5  C   UNL     1     -14.660 -11.017  -4.903  1.00  0.00     0.000 C 
BRANCH   5   6
ATOM      6  C   UNL     1     -15.333 -11.066  -6.288  1.00  0.00     0.000 C 
BRANCH   6   7
ATOM      7  C   UNL     1     -16.860 -10.842  -6.251  1.00  0.00     0.000 C 
BRANCH   7   8
ATOM      8  C   UNL     1     -17.317 -10.077  -4.997  1.00  0.00     0.000 C 
BRANCH   8   9
ATOM      9  C   UNL     1     -17.832  -8.666  -5.320  1.00  0.00     0.000 C 
BRANCH   9  10
ATOM     10  C   UNL     1     -16.698  -7.689  -5.675  1.00  0.00     0.006 C 
BRANCH  10  11
ATOM     11  C   UNL     1     -17.223  -6.400  -6.321  1.00  0.00     0.053 C 
BRANCH  11  12
ATOM     12  C   UNL     1     -16.879  -6.327  -7.777  1.00  0.00     0.041 C 
ATOM     13  O   UNL     1     -17.416  -5.458  -8.513  1.00  0.00    -0.550 OA
ATOM     14  O   UNL     1     -15.919  -7.179  -8.308  1.00  0.00    -0.550 OA
ENDBRANCH  11  12
ENDBRANCH  10  11
ENDBRANCH   9  10
ENDBRANCH   8   9
ENDBRANCH   7   8
ENDBRANCH   6   7
ENDBRANCH   5   6
ENDBRANCH   4   5
ENDBRANCH   3   4
ENDBRANCH   2   3
ENDBRANCH   1   2
BRANCH   1  15
ATOM     15  C   UNL     1     -11.163  -8.481  -7.896  1.00  0.00     0.000 C 
BRANCH  15  16
ATOM     16  C   UNL     1     -10.111  -8.622  -6.781  1.00  0.00     0.000 C 
BRANCH  16  17
ATOM     17  C   UNL     1      -9.971 -10.074  -6.291  1.00  0.00     0.000 C 
BRANCH  17  18
ATOM     18  C   UNL     1      -9.231 -10.209  -4.947  1.00  0.00    -0.000 C 
BRANCH  18  19
ATOM     19  C   UNL     1      -7.916 -11.000  -5.080  1.00  0.00    -0.000 C 
BRANCH  19  20
ATOM     20  C   UNL     1      -6.669 -10.095  -5.038  1.00  0.00    -0.000 C 
BRANCH  20  21
ATOM     21  C   UNL     1      -5.553 -10.516  -6.010  1.00  0.00    -0.000 C 
BRANCH  21  22
ATOM     22  C   UNL     1      -5.953 -10.340  -7.487  1.00  0.00    -0.000 C 
BRANCH  22  23
ATOM     23  C   UNL     1      -4.891  -9.558  -8.286  1.00  0.00    -0.000 C 
BRANCH  23  24
ATOM     24  C   UNL     1      -4.798  -8.072  -7.895  1.00  0.00    -0.000 C 
BRANCH  24  25
ATOM     25  C   UNL     1      -3.966  -7.835  -6.628  1.00  0.00    -0.003 C 
ATOM     26  C   UNL     1      -3.444  -6.401  -6.571  1.00  0.00     0.004 C 
ENDBRANCH  24  25
ENDBRANCH  23  24
ENDBRANCH  22  23
ENDBRANCH  21  22
ENDBRANCH  20  21
ENDBRANCH  19  20
ENDBRANCH  18  19
ENDBRANCH  17  18
ENDBRANCH  16  17
ENDBRANCH  15  16
ENDBRANCH   1  15
TORSDOF 22
ENDMDL
