MODEL 1
REMARK VINA RESULT:    -3.937      0.000      0.000
REMARK INTER + INTRA:          -8.768
REMARK INTER:                  -7.390
REMARK INTRA:                  -1.378
REMARK UNBOUND:                -1.378
REMARK SMILES CCCCCCCCC=CCCCCCCCC(=O)[O-]
REMARK SMILES IDX 10 1 9 2 11 3 12 4 13 5 14 6 15 7 16 8 17 9 18 10 19 11
REMARK SMILES IDX 20 12 8 13 7 14 6 15 5 16 4 17 3 18 2 19 1 20
REMARK H PARENT
REMARK Flexibility Score: inf
ROOT
ATOM      1  C   UNL     1      13.246   2.019 -18.145  1.00  0.00    -0.031 C 
ATOM      2  C   UNL     1      12.688   1.012 -17.447  1.00  0.00    -0.031 C 
ENDROOT
BRANCH   1   3
ATOM      3  C   UNL     1      12.760   2.524 -19.483  1.00  0.00     0.027 C 
BRANCH   3   4
ATOM      4  C   UNL     1      13.713   3.580 -20.059  1.00  0.00     0.004 C 
BRANCH   4   5
ATOM      5  C   UNL     1      12.975   4.875 -20.441  1.00  0.00     0.000 C 
BRANCH   5   6
ATOM      6  C   UNL     1      13.918   5.954 -20.993  1.00  0.00     0.000 C 
BRANCH   6   7
ATOM      7  C   UNL     1      15.376   5.747 -20.547  1.00  0.00     0.000 C 
BRANCH   7   8
ATOM      8  C   UNL     1      16.385   6.051 -21.668  1.00  0.00     0.006 C 
BRANCH   8   9
ATOM      9  C   UNL     1      16.212   5.135 -22.885  1.00  0.00     0.053 C 
BRANCH   9  10
ATOM     10  C   UNL     1      17.442   5.159 -23.735  1.00  0.00     0.041 C 
ATOM     11  O   UNL     1      17.346   5.273 -24.986  1.00  0.00    -0.550 OA
ATOM     12  O   UNL     1      18.698   5.104 -23.143  1.00  0.00    -0.550 OA
ENDBRANCH   9  10
ENDBRANCH   8   9
ENDBRANCH   7   8
ENDBRANCH   6   7
ENDBRANCH   5   6
ENDBRANCH   4   5
ENDBRANCH   3   4
ENDBRANCH   1   3
BRANCH   2  13
ATOM     13  C   UNL     1      11.447   0.259 -17.859  1.00  0.00     0.027 C 
BRANCH  13  14
ATOM     14  C   UNL     1      11.775  -0.983 -18.702  1.00  0.00     0.004 C 
BRANCH  14  15
ATOM     15  C   UNL     1      13.197  -1.504 -18.429  1.00  0.00     0.000 C 
BRANCH  15  16
ATOM     16  C   UNL     1      14.061  -1.560 -19.699  1.00  0.00     0.000 C 
BRANCH  16  17
ATOM     17  C   UNL     1      13.474  -0.735 -20.853  1.00  0.00    -0.000 C 
BRANCH  17  18
ATOM     18  C   UNL     1      12.891  -1.650 -21.940  1.00  0.00    -0.000 C 
BRANCH  18  19
ATOM     19  C   UNL     1      11.421  -1.333 -22.254  1.00  0.00    -0.003 C 
ATOM     20  C   UNL     1      10.695  -2.494 -22.934  1.00  0.00     0.004 C 
ENDBRANCH  18  19
ENDBRANCH  17  18
ENDBRANCH  16  17
ENDBRANCH  15  16
ENDBRANCH  14  15
ENDBRANCH  13  14
ENDBRANCH   2  13
TORSDOF 15
ENDMDL
MODEL 2
REMARK VINA RESULT:    -3.870      1.016      1.845
REMARK INTER + INTRA:          -8.642
REMARK INTER:                  -7.341
REMARK INTRA:                  -1.300
REMARK UNBOUND:                -1.378
REMARK SMILES CCCCCCCCC=CCCCCCCCC(=O)[O-]
REMARK SMILES IDX 10 1 9 2 11 3 12 4 13 5 14 6 15 7 16 8 17 9 18 10 19 11
REMARK SMILES IDX 20 12 8 13 7 14 6 15 5 16 4 17 3 18 2 19 1 20
REMARK H PARENT
REMARK Flexibility Score: inf
ROOT
ATOM      1  C   UNL     1      13.162   1.943 -17.643  1.00  0.00    -0.031 C 
ATOM      2  C   UNL     1      12.794   0.939 -16.824  1.00  0.00    -0.031 C 
ENDROOT
BRANCH   1   3
ATOM      3  C   UNL     1      13.022   1.934 -19.147  1.00  0.00     0.027 C 
BRANCH   3   4
ATOM      4  C   UNL     1      12.831   3.354 -19.696  1.00  0.00     0.004 C 
BRANCH   4   5
ATOM      5  C   UNL     1      13.970   3.762 -20.647  1.00  0.00     0.000 C 
BRANCH   5   6
ATOM      6  C   UNL     1      14.284   5.265 -20.585  1.00  0.00     0.000 C 
BRANCH   6   7
ATOM      7  C   UNL     1      15.747   5.577 -20.948  1.00  0.00     0.000 C 
BRANCH   7   8
ATOM      8  C   UNL     1      15.919   5.957 -22.428  1.00  0.00     0.006 C 
BRANCH   8   9
ATOM      9  C   UNL     1      16.469   4.804 -23.276  1.00  0.00     0.053 C 
BRANCH   9  10
ATOM     10  C   UNL     1      17.583   5.284 -24.150  1.00  0.00     0.041 C 
ATOM     11  O   UNL     1      17.366   5.556 -25.361  1.00  0.00    -0.550 OA
ATOM     12  O   UNL     1      18.851   5.480 -23.618  1.00  0.00    -0.550 OA
ENDBRANCH   9  10
ENDBRANCH   8   9
ENDBRANCH   7   8
ENDBRANCH   6   7
ENDBRANCH   5   6
ENDBRANCH   4   5
ENDBRANCH   3   4
ENDBRANCH   1   3
BRANCH   2  13
ATOM     13  C   UNL     1      12.125  -0.338 -17.270  1.00  0.00     0.027 C 
BRANCH  13  14
ATOM     14  C   UNL     1      10.608  -0.166 -17.450  1.00  0.00     0.004 C 
BRANCH  14  15
ATOM     15  C   UNL     1      10.153  -0.527 -18.876  1.00  0.00     0.000 C 
BRANCH  15  16
ATOM     16  C   UNL     1      11.199  -1.353 -19.640  1.00  0.00     0.000 C 
BRANCH  16  17
ATOM     17  C   UNL     1      11.240  -1.019 -21.138  1.00  0.00    -0.000 C 
BRANCH  17  18
ATOM     18  C   UNL     1      12.648  -1.241 -21.711  1.00  0.00    -0.000 C 
BRANCH  18  19
ATOM     19  C   UNL     1      13.745  -0.609 -20.842  1.00  0.00    -0.003 C 
ATOM     20  C   UNL     1      14.544  -1.645 -20.049  1.00  0.00     0.004 C 
ENDBRANCH  18  19
ENDBRANCH  17  18
ENDBRANCH  16  17
ENDBRANCH  15  16
ENDBRANCH  14  15
ENDBRANCH  13  14
ENDBRANCH   2  13
TORSDOF 15
ENDMDL
MODEL 3
REMARK VINA RESULT:    -3.688      2.862      6.805
REMARK INTER + INTRA:          -8.300
REMARK INTER:                  -6.809
REMARK INTRA:                  -1.491
REMARK UNBOUND:                -1.378
REMARK SMILES CCCCCCCCC=CCCCCCCCC(=O)[O-]
REMARK SMILES IDX 10 1 9 2 11 3 12 4 13 5 14 6 15 7 16 8 17 9 18 10 19 11
REMARK SMILES IDX 20 12 8 13 7 14 6 15 5 16 4 17 3 18 2 19 1 20
REMARK H PARENT
REMARK Flexibility Score: inf
ROOT
ATOM      1  C   UNL     1      12.498   0.576 -16.711  1.00  0.00    -0.031 C 
ATOM      2  C   UNL     1      13.080   1.602 -17.362  1.00  0.00    -0.031 C 
ENDROOT
BRANCH   1   3
ATOM      3  C   UNL     1      11.814  -0.597 -17.372  1.00  0.00     0.027 C 
BRANCH   3   4
ATOM      4  C   UNL     1      10.332  -0.299 -17.639  1.00  0.00     0.004 C 
BRANCH   4   5
ATOM      5  C   UNL     1       9.960  -0.504 -19.117  1.00  0.00     0.000 C 
BRANCH   5   6
ATOM      6  C   UNL     1      10.863  -1.529 -19.820  1.00  0.00     0.000 C 
BRANCH   6   7
ATOM      7  C   UNL     1      11.392  -1.019 -21.172  1.00  0.00     0.000 C 
BRANCH   7   8
ATOM      8  C   UNL     1      12.862  -0.573 -21.100  1.00  0.00     0.006 C 
BRANCH   8   9
ATOM      9  C   UNL     1      13.842  -1.748 -21.201  1.00  0.00     0.053 C 
BRANCH   9  10
ATOM     10  C   UNL     1      14.791  -1.735 -20.045  1.00  0.00     0.041 C 
ATOM     11  O   UNL     1      14.352  -1.733 -18.864  1.00  0.00    -0.550 OA
ATOM     12  O   UNL     1      16.162  -1.777 -20.268  1.00  0.00    -0.550 OA
ENDBRANCH   9  10
ENDBRANCH   8   9
ENDBRANCH   7   8
ENDBRANCH   6   7
ENDBRANCH   5   6
ENDBRANCH   4   5
ENDBRANCH   3   4
ENDBRANCH   1   3
BRANCH   2  13
ATOM     13  C   UNL     1      13.194   1.719 -18.862  1.00  0.00     0.027 C 
BRANCH  13  14
ATOM     14  C   UNL     1      12.725   3.090 -19.374  1.00  0.00     0.004 C 
BRANCH  14  15
ATOM     15  C   UNL     1      13.775   3.755 -20.281  1.00  0.00     0.000 C 
BRANCH  15  16
ATOM     16  C   UNL     1      13.341   5.147 -20.768  1.00  0.00     0.000 C 
BRANCH  16  17
ATOM     17  C   UNL     1      14.520   6.122 -20.906  1.00  0.00    -0.000 C 
BRANCH  17  18
ATOM     18  C   UNL     1      15.791   5.384 -21.354  1.00  0.00    -0.000 C 
BRANCH  18  19
ATOM     19  C   UNL     1      16.255   5.806 -22.756  1.00  0.00    -0.003 C 
ATOM     20  C   UNL     1      16.398   4.624 -23.715  1.00  0.00     0.004 C 
ENDBRANCH  18  19
ENDBRANCH  17  18
ENDBRANCH  16  17
ENDBRANCH  15  16
ENDBRANCH  14  15
ENDBRANCH  13  14
ENDBRANCH   2  13
TORSDOF 15
ENDMDL
MODEL 4
REMARK VINA RESULT:    -3.607      1.197      3.404
REMARK INTER + INTRA:          -8.147
REMARK INTER:                  -6.586
REMARK INTRA:                  -1.561
REMARK UNBOUND:                -1.378
REMARK SMILES CCCCCCCCC=CCCCCCCCC(=O)[O-]
REMARK SMILES IDX 10 1 9 2 11 3 12 4 13 5 14 6 15 7 16 8 17 9 18 10 19 11
REMARK SMILES IDX 20 12 8 13 7 14 6 15 5 16 4 17 3 18 2 19 1 20
REMARK H PARENT
REMARK Flexibility Score: inf
ROOT
ATOM      1  C   UNL     1      13.549  -0.086 -21.003  1.00  0.00    -0.031 C 
ATOM      2  C   UNL     1      12.866  -1.052 -21.644  1.00  0.00    -0.031 C 
ENDROOT
BRANCH   1   3
ATOM      3  C   UNL     1      12.928   1.106 -20.312  1.00  0.00     0.027 C 
BRANCH   3   4
ATOM      4  C   UNL     1      13.293   2.415 -21.025  1.00  0.00     0.004 C 
BRANCH   4   5
ATOM      5  C   UNL     1      13.602   3.547 -20.030  1.00  0.00     0.000 C 
BRANCH   5   6
ATOM      6  C   UNL     1      13.735   4.917 -20.714  1.00  0.00     0.000 C 
BRANCH   6   7
ATOM      7  C   UNL     1      15.166   5.477 -20.638  1.00  0.00     0.000 C 
BRANCH   7   8
ATOM      8  C   UNL     1      15.735   5.832 -22.022  1.00  0.00     0.006 C 
BRANCH   8   9
ATOM      9  C   UNL     1      17.221   5.479 -22.160  1.00  0.00     0.053 C 
BRANCH   9  10
ATOM     10  C   UNL     1      17.531   5.071 -23.565  1.00  0.00     0.041 C 
ATOM     11  O   UNL     1      16.836   4.190 -24.138  1.00  0.00    -0.550 OA
ATOM     12  O   UNL     1      18.557   5.698 -24.261  1.00  0.00    -0.550 OA
ENDBRANCH   9  10
ENDBRANCH   8   9
ENDBRANCH   7   8
ENDBRANCH   6   7
ENDBRANCH   5   6
ENDBRANCH   4   5
ENDBRANCH   3   4
ENDBRANCH   1   3
BRANCH   2  13
ATOM     13  C   UNL     1      11.361  -1.136 -21.728  1.00  0.00     0.027 C 
BRANCH  13  14
ATOM     14  C   UNL     1      10.768  -2.037 -20.633  1.00  0.00     0.004 C 
BRANCH  14  15
ATOM     15  C   UNL     1       9.858  -1.252 -19.672  1.00  0.00     0.000 C 
BRANCH  15  16
ATOM     16  C   UNL     1      10.622  -0.678 -18.469  1.00  0.00     0.000 C 
BRANCH  16  17
ATOM     17  C   UNL     1      11.843  -1.526 -18.082  1.00  0.00    -0.000 C 
BRANCH  17  18
ATOM     18  C   UNL     1      12.545  -0.944 -16.846  1.00  0.00    -0.000 C 
BRANCH  18  19
ATOM     19  C   UNL     1      12.179   0.527 -16.597  1.00  0.00    -0.003 C 
ATOM     20  C   UNL     1      13.328   1.486 -16.911  1.00  0.00     0.004 C 
ENDBRANCH  18  19
ENDBRANCH  17  18
ENDBRANCH  16  17
ENDBRANCH  15  16
ENDBRANCH  14  15
ENDBRANCH  13  14
ENDBRANCH   2  13
TORSDOF 15
ENDMDL
MODEL 5
REMARK VINA RESULT:    -3.576      4.064      6.753
REMARK INTER + INTRA:          -8.089
REMARK INTER:                  -6.617
REMARK INTRA:                  -1.472
REMARK UNBOUND:                -1.378
REMARK SMILES CCCCCCCCC=CCCCCCCCC(=O)[O-]
REMARK SMILES IDX 10 1 9 2 11 3 12 4 13 5 14 6 15 7 16 8 17 9 18 10 19 11
REMARK SMILES IDX 20 12 8 13 7 14 6 15 5 16 4 17 3 18 2 19 1 20
REMARK H PARENT
REMARK Flexibility Score: inf
ROOT
ATOM      1  C   UNL     1      13.202   1.312 -16.785  1.00  0.00    -0.031 C 
ATOM      2  C   UNL     1      13.357   1.940 -17.966  1.00  0.00    -0.031 C 
ENDROOT
BRANCH   1   3
ATOM      3  C   UNL     1      12.079   0.358 -16.448  1.00  0.00     0.027 C 
BRANCH   3   4
ATOM      4  C   UNL     1      12.462  -1.090 -16.778  1.00  0.00     0.004 C 
BRANCH   4   5
ATOM      5  C   UNL     1      11.711  -1.619 -18.012  1.00  0.00     0.000 C 
BRANCH   5   6
ATOM      6  C   UNL     1      10.435  -0.818 -18.317  1.00  0.00     0.000 C 
BRANCH   6   7
ATOM      7  C   UNL     1       9.490  -1.559 -19.279  1.00  0.00     0.000 C 
BRANCH   7   8
ATOM      8  C   UNL     1      10.247  -2.320 -20.380  1.00  0.00     0.006 C 
BRANCH   8   9
ATOM      9  C   UNL     1      10.814  -1.391 -21.460  1.00  0.00     0.053 C 
BRANCH   9  10
ATOM     10  C   UNL     1      11.106  -2.160 -22.709  1.00  0.00     0.041 C 
ATOM     11  O   UNL     1      12.182  -1.966 -23.336  1.00  0.00    -0.550 OA
ATOM     12  O   UNL     1      10.214  -3.127 -23.155  1.00  0.00    -0.550 OA
ENDBRANCH   9  10
ENDBRANCH   8   9
ENDBRANCH   7   8
ENDBRANCH   6   7
ENDBRANCH   5   6
ENDBRANCH   4   5
ENDBRANCH   3   4
ENDBRANCH   1   3
BRANCH   2  13
ATOM     13  C   UNL     1      12.466   1.750 -19.169  1.00  0.00     0.027 C 
BRANCH  13  14
ATOM     14  C   UNL     1      13.238   1.890 -20.490  1.00  0.00     0.004 C 
BRANCH  14  15
ATOM     15  C   UNL     1      13.526   0.523 -21.136  1.00  0.00     0.000 C 
BRANCH  15  16
ATOM     16  C   UNL     1      13.786  -0.580 -20.098  1.00  0.00     0.000 C 
BRANCH  16  17
ATOM     17  C   UNL     1      14.684  -1.703 -20.637  1.00  0.00    -0.000 C 
BRANCH  17  18
ATOM     18  C   UNL     1      15.994  -1.788 -19.839  1.00  0.00    -0.000 C 
BRANCH  18  19
ATOM     19  C   UNL     1      17.226  -1.445 -20.689  1.00  0.00    -0.003 C 
ATOM     20  C   UNL     1      18.512  -1.364 -19.865  1.00  0.00     0.004 C 
ENDBRANCH  18  19
ENDBRANCH  17  18
ENDBRANCH  16  17
ENDBRANCH  15  16
ENDBRANCH  14  15
ENDBRANCH  13  14
ENDBRANCH   2  13
TORSDOF 15
ENDMDL
MODEL 6
REMARK VINA RESULT:    -3.454      3.360      7.958
REMARK INTER + INTRA:          -7.860
REMARK INTER:                  -6.791
REMARK INTRA:                  -1.069
REMARK UNBOUND:                -1.378
REMARK SMILES CCCCCCCCC=CCCCCCCCC(=O)[O-]
REMARK SMILES IDX 10 1 9 2 11 3 12 4 13 5 14 6 15 7 16 8 17 9 18 10 19 11
REMARK SMILES IDX 20 12 8 13 7 14 6 15 5 16 4 17 3 18 2 19 1 20
REMARK H PARENT
REMARK Flexibility Score: inf
ROOT
ATOM      1  C   UNL     1      12.905   1.784 -19.558  1.00  0.00    -0.031 C 
ATOM      2  C   UNL     1      13.240   2.719 -20.468  1.00  0.00    -0.031 C 
ENDROOT
BRANCH   1   3
ATOM      3  C   UNL     1      12.899   1.989 -18.061  1.00  0.00     0.027 C 
BRANCH   3   4
ATOM      4  C   UNL     1      12.902   0.648 -17.316  1.00  0.00     0.004 C 
BRANCH   4   5
ATOM      5  C   UNL     1      12.934  -0.548 -18.282  1.00  0.00     0.000 C 
BRANCH   5   6
ATOM      6  C   UNL     1      11.714  -1.469 -18.127  1.00  0.00     0.000 C 
BRANCH   6   7
ATOM      7  C   UNL     1      10.484  -0.953 -18.895  1.00  0.00     0.000 C 
BRANCH   7   8
ATOM      8  C   UNL     1      10.347  -1.592 -20.287  1.00  0.00     0.006 C 
BRANCH   8   9
ATOM      9  C   UNL     1      11.410  -1.094 -21.274  1.00  0.00     0.053 C 
BRANCH   9  10
ATOM     10  C   UNL     1      11.398  -1.926 -22.517  1.00  0.00     0.041 C 
ATOM     11  O   UNL     1      12.407  -1.953 -23.271  1.00  0.00    -0.550 OA
ATOM     12  O   UNL     1      10.292  -2.711 -22.818  1.00  0.00    -0.550 OA
ENDBRANCH   9  10
ENDBRANCH   8   9
ENDBRANCH   7   8
ENDBRANCH   6   7
ENDBRANCH   5   6
ENDBRANCH   4   5
ENDBRANCH   3   4
ENDBRANCH   1   3
BRANCH   2  13
ATOM     13  C   UNL     1      13.610   4.146 -20.143  1.00  0.00     0.027 C 
BRANCH  13  14
ATOM     14  C   UNL     1      14.537   4.760 -21.204  1.00  0.00     0.004 C 
BRANCH  14  15
ATOM     15  C   UNL     1      15.491   5.805 -20.598  1.00  0.00     0.000 C 
BRANCH  15  16
ATOM     16  C   UNL     1      16.742   6.035 -21.460  1.00  0.00     0.000 C 
BRANCH  16  17
ATOM     17  C   UNL     1      16.558   5.564 -22.910  1.00  0.00    -0.000 C 
BRANCH  17  18
ATOM     18  C   UNL     1      17.917   5.339 -23.590  1.00  0.00    -0.000 C 
BRANCH  18  19
ATOM     19  C   UNL     1      19.100   5.653 -22.662  1.00  0.00    -0.003 C 
ATOM     20  C   UNL     1      20.455   5.359 -23.307  1.00  0.00     0.004 C 
ENDBRANCH  18  19
ENDBRANCH  17  18
ENDBRANCH  16  17
ENDBRANCH  15  16
ENDBRANCH  14  15
ENDBRANCH  13  14
ENDBRANCH   2  13
TORSDOF 15
ENDMDL
MODEL 7
REMARK VINA RESULT:    -3.411      3.677      7.457
REMARK INTER + INTRA:          -7.780
REMARK INTER:                  -6.895
REMARK INTRA:                  -0.885
REMARK UNBOUND:                -1.378
REMARK SMILES CCCCCCCCC=CCCCCCCCC(=O)[O-]
REMARK SMILES IDX 10 1 9 2 11 3 12 4 13 5 14 6 15 7 16 8 17 9 18 10 19 11
REMARK SMILES IDX 20 12 8 13 7 14 6 15 5 16 4 17 3 18 2 19 1 20
REMARK H PARENT
REMARK Flexibility Score: inf
ROOT
ATOM      1  C   UNL     1      12.235   0.896 -17.531  1.00  0.00    -0.031 C 
ATOM      2  C   UNL     1      12.938   1.899 -18.092  1.00  0.00    -0.031 C 
ENDROOT
BRANCH   1   3
ATOM      3  C   UNL     1      11.339  -0.063 -18.280  1.00  0.00     0.027 C 
BRANCH   3   4
ATOM      4  C   UNL     1      12.013  -1.429 -18.458  1.00  0.00     0.004 C 
BRANCH   4   5
ATOM      5  C   UNL     1      13.528  -1.299 -18.689  1.00  0.00     0.000 C 
BRANCH   5   6
ATOM      6  C   UNL     1      13.941  -1.643 -20.129  1.00  0.00     0.000 C 
BRANCH   6   7
ATOM      7  C   UNL     1      13.609  -0.515 -21.122  1.00  0.00     0.000 C 
BRANCH   7   8
ATOM      8  C   UNL     1      12.180  -0.621 -21.679  1.00  0.00     0.006 C 
BRANCH   8   9
ATOM      9  C   UNL     1      11.975  -1.866 -22.551  1.00  0.00     0.053 C 
BRANCH   9  10
ATOM     10  C   UNL     1      10.617  -2.449 -22.316  1.00  0.00     0.041 C 
ATOM     11  O   UNL     1      10.056  -3.129 -23.216  1.00  0.00    -0.550 OA
ATOM     12  O   UNL     1       9.992  -2.285 -21.087  1.00  0.00    -0.550 OA
ENDBRANCH   9  10
ENDBRANCH   8   9
ENDBRANCH   7   8
ENDBRANCH   6   7
ENDBRANCH   5   6
ENDBRANCH   4   5
ENDBRANCH   3   4
ENDBRANCH   1   3
BRANCH   2  13
ATOM     13  C   UNL     1      12.992   2.193 -19.571  1.00  0.00     0.027 C 
BRANCH  13  14
ATOM     14  C   UNL     1      12.932   3.700 -19.866  1.00  0.00     0.004 C 
BRANCH  14  15
ATOM     15  C   UNL     1      14.032   4.138 -20.850  1.00  0.00     0.000 C 
BRANCH  15  16
ATOM     16  C   UNL     1      14.497   5.583 -20.613  1.00  0.00     0.000 C 
BRANCH  16  17
ATOM     17  C   UNL     1      15.919   5.841 -21.134  1.00  0.00    -0.000 C 
BRANCH  17  18
ATOM     18  C   UNL     1      15.911   6.084 -22.651  1.00  0.00    -0.000 C 
BRANCH  18  19
ATOM     19  C   UNL     1      16.752   5.052 -23.418  1.00  0.00    -0.003 C 
ATOM     20  C   UNL     1      18.230   5.085 -23.028  1.00  0.00     0.004 C 
ENDBRANCH  18  19
ENDBRANCH  17  18
ENDBRANCH  16  17
ENDBRANCH  15  16
ENDBRANCH  14  15
ENDBRANCH  13  14
ENDBRANCH   2  13
TORSDOF 15
ENDMDL
MODEL 8
REMARK VINA RESULT:    -3.227      3.632      8.219
REMARK INTER + INTRA:          -7.435
REMARK INTER:                  -6.188
REMARK INTRA:                  -1.247
REMARK UNBOUND:                -1.378
REMARK SMILES CCCCCCCCC=CCCCCCCCC(=O)[O-]
REMARK SMILES IDX 10 1 9 2 11 3 12 4 13 5 14 6 15 7 16 8 17 9 18 10 19 11
REMARK SMILES IDX 20 12 8 13 7 14 6 15 5 16 4 17 3 18 2 19 1 20
REMARK H PARENT
REMARK Flexibility Score: inf
ROOT
ATOM      1  C   UNL     1      13.066   1.809 -19.726  1.00  0.00    -0.031 C 
ATOM      2  C   UNL     1      13.103   3.146 -19.575  1.00  0.00    -0.031 C 
ENDROOT
BRANCH   1   3
ATOM      3  C   UNL     1      13.270   1.075 -21.031  1.00  0.00     0.027 C 
BRANCH   3   4
ATOM      4  C   UNL     1      13.654  -0.391 -20.790  1.00  0.00     0.004 C 
BRANCH   4   5
ATOM      5  C   UNL     1      12.684  -1.362 -21.486  1.00  0.00     0.000 C 
BRANCH   5   6
ATOM      6  C   UNL     1      11.214  -0.940 -21.338  1.00  0.00     0.000 C 
BRANCH   6   7
ATOM      7  C   UNL     1      10.329  -2.071 -20.787  1.00  0.00     0.000 C 
BRANCH   7   8
ATOM      8  C   UNL     1      10.066  -1.934 -19.279  1.00  0.00     0.006 C 
BRANCH   8   9
ATOM      9  C   UNL     1      10.469  -0.560 -18.730  1.00  0.00     0.053 C 
BRANCH   9  10
ATOM     10  C   UNL     1      11.574  -0.700 -17.732  1.00  0.00     0.041 C 
ATOM     11  O   UNL     1      11.652   0.093 -16.756  1.00  0.00    -0.550 OA
ATOM     12  O   UNL     1      12.492  -1.737 -17.851  1.00  0.00    -0.550 OA
ENDBRANCH   9  10
ENDBRANCH   8   9
ENDBRANCH   7   8
ENDBRANCH   6   7
ENDBRANCH   5   6
ENDBRANCH   4   5
ENDBRANCH   3   4
ENDBRANCH   1   3
BRANCH   2  13
ATOM     13  C   UNL     1      13.414   4.132 -20.675  1.00  0.00     0.027 C 
BRANCH  13  14
ATOM     14  C   UNL     1      14.559   5.083 -20.295  1.00  0.00     0.004 C 
BRANCH  14  15
ATOM     15  C   UNL     1      14.871   6.085 -21.421  1.00  0.00     0.000 C 
BRANCH  15  16
ATOM     16  C   UNL     1      16.317   5.973 -21.929  1.00  0.00     0.000 C 
BRANCH  16  17
ATOM     17  C   UNL     1      16.396   5.644 -23.427  1.00  0.00    -0.000 C 
BRANCH  17  18
ATOM     18  C   UNL     1      17.801   5.151 -23.807  1.00  0.00    -0.000 C 
BRANCH  18  19
ATOM     19  C   UNL     1      18.875   5.605 -22.808  1.00  0.00    -0.003 C 
ATOM     20  C   UNL     1      20.295   5.459 -23.357  1.00  0.00     0.004 C 
ENDBRANCH  18  19
ENDBRANCH  17  18
ENDBRANCH  16  17
ENDBRANCH  15  16
ENDBRANCH  14  15
ENDBRANCH  13  14
ENDBRANCH   2  13
TORSDOF 15
ENDMDL
MODEL 9
REMARK VINA RESULT:    -3.227      3.437      7.722
REMARK INTER + INTRA:          -7.435
REMARK INTER:                  -5.985
REMARK INTRA:                  -1.450
REMARK UNBOUND:                -1.378
REMARK SMILES CCCCCCCCC=CCCCCCCCC(=O)[O-]
REMARK SMILES IDX 10 1 9 2 11 3 12 4 13 5 14 6 15 7 16 8 17 9 18 10 19 11
REMARK SMILES IDX 20 12 8 13 7 14 6 15 5 16 4 17 3 18 2 19 1 20
REMARK H PARENT
REMARK Flexibility Score: inf
ROOT
ATOM      1  C   UNL     1      13.389  -1.392 -21.058  1.00  0.00    -0.031 C 
ATOM      2  C   UNL     1      13.497  -0.212 -20.419  1.00  0.00    -0.031 C 
ENDROOT
BRANCH   1   3
ATOM      3  C   UNL     1      12.933  -1.570 -22.487  1.00  0.00     0.027 C 
BRANCH   3   4
ATOM      4  C   UNL     1      11.501  -2.117 -22.550  1.00  0.00     0.004 C 
BRANCH   4   5
ATOM      5  C   UNL     1      10.568  -1.406 -21.555  1.00  0.00     0.000 C 
BRANCH   5   6
ATOM      6  C   UNL     1       9.793  -2.388 -20.663  1.00  0.00     0.000 C 
BRANCH   6   7
ATOM      7  C   UNL     1       9.845  -2.000 -19.175  1.00  0.00     0.000 C 
BRANCH   7   8
ATOM      8  C   UNL     1      10.300  -0.547 -18.960  1.00  0.00     0.006 C 
BRANCH   8   9
ATOM      9  C   UNL     1      10.507  -0.204 -17.480  1.00  0.00     0.053 C 
BRANCH   9  10
ATOM     10  C   UNL     1      11.961  -0.250 -17.132  1.00  0.00     0.041 C 
ATOM     11  O   UNL     1      12.603  -1.330 -17.235  1.00  0.00    -0.550 OA
ATOM     12  O   UNL     1      12.621   0.908 -16.742  1.00  0.00    -0.550 OA
ENDBRANCH   9  10
ENDBRANCH   8   9
ENDBRANCH   7   8
ENDBRANCH   6   7
ENDBRANCH   5   6
ENDBRANCH   4   5
ENDBRANCH   3   4
ENDBRANCH   1   3
BRANCH   2  13
ATOM     13  C   UNL     1      13.235   1.136 -21.046  1.00  0.00     0.027 C 
BRANCH  13  14
ATOM     14  C   UNL     1      13.153   2.257 -19.998  1.00  0.00     0.004 C 
BRANCH  14  15
ATOM     15  C   UNL     1      13.117   3.651 -20.648  1.00  0.00     0.000 C 
BRANCH  15  16
ATOM     16  C   UNL     1      14.263   4.557 -20.169  1.00  0.00     0.000 C 
BRANCH  16  17
ATOM     17  C   UNL     1      14.584   5.682 -21.164  1.00  0.00    -0.000 C 
BRANCH  17  18
ATOM     18  C   UNL     1      16.053   5.614 -21.612  1.00  0.00    -0.000 C 
BRANCH  18  19
ATOM     19  C   UNL     1      16.219   5.829 -23.124  1.00  0.00    -0.003 C 
ATOM     20  C   UNL     1      16.640   4.557 -23.861  1.00  0.00     0.004 C 
ENDBRANCH  18  19
ENDBRANCH  17  18
ENDBRANCH  16  17
ENDBRANCH  15  16
ENDBRANCH  14  15
ENDBRANCH  13  14
ENDBRANCH   2  13
TORSDOF 15
ENDMDL
