MODEL 1
REMARK VINA RESULT:    -3.784      0.000      0.000
REMARK INTER + INTRA:          -9.930
REMARK INTER:                  -7.103
REMARK INTRA:                  -2.827
REMARK UNBOUND:                -2.827
REMARK SMILES CCCCCCCCC=CCCCCCCCC(=O)[O-]
REMARK SMILES IDX 10 1 9 2 11 3 12 4 13 5 14 6 15 7 16 8 17 9 18 10 19 11
REMARK SMILES IDX 20 12 8 13 7 14 6 15 5 16 4 17 3 18 2 19 1 20
REMARK H PARENT
REMARK Flexibility Score: inf
ROOT
ATOM      1  C   UNL     1     -43.061 -50.019  38.567  1.00  0.00    -0.031 C 
ATOM      2  C   UNL     1     -42.682 -50.974  37.695  1.00  0.00    -0.031 C 
ENDROOT
BRANCH   1   3
ATOM      3  C   UNL     1     -43.000 -48.535  38.310  1.00  0.00     0.027 C 
BRANCH   3   4
ATOM      4  C   UNL     1     -44.400 -47.915  38.419  1.00  0.00     0.004 C 
BRANCH   4   5
ATOM      5  C   UNL     1     -45.275 -48.197  37.185  1.00  0.00     0.000 C 
BRANCH   5   6
ATOM      6  C   UNL     1     -46.542 -49.030  37.463  1.00  0.00     0.000 C 
BRANCH   6   7
ATOM      7  C   UNL     1     -46.403 -50.539  37.190  1.00  0.00     0.000 C 
BRANCH   7   8
ATOM      8  C   UNL     1     -46.869 -51.404  38.372  1.00  0.00     0.006 C 
BRANCH   8   9
ATOM      9  C   UNL     1     -46.491 -50.787  39.726  1.00  0.00     0.053 C 
BRANCH   9  10
ATOM     10  C   UNL     1     -47.156 -51.499  40.865  1.00  0.00     0.041 C 
ATOM     11  O   UNL     1     -48.189 -51.016  41.399  1.00  0.00    -0.550 OA
ATOM     12  O   UNL     1     -46.618 -52.683  41.353  1.00  0.00    -0.550 OA
ENDBRANCH   9  10
ENDBRANCH   8   9
ENDBRANCH   7   8
ENDBRANCH   6   7
ENDBRANCH   5   6
ENDBRANCH   4   5
ENDBRANCH   3   4
ENDBRANCH   1   3
BRANCH   2  13
ATOM     13  C   UNL     1     -42.164 -50.724  36.299  1.00  0.00     0.027 C 
BRANCH  13  14
ATOM     14  C   UNL     1     -43.311 -50.641  35.279  1.00  0.00     0.004 C 
BRANCH  14  15
ATOM     15  C   UNL     1     -43.036 -49.630  34.153  1.00  0.00     0.000 C 
BRANCH  15  16
ATOM     16  C   UNL     1     -42.767 -48.182  34.617  1.00  0.00     0.000 C 
BRANCH  16  17
ATOM     17  C   UNL     1     -41.337 -47.654  34.375  1.00  0.00    -0.000 C 
BRANCH  17  18
ATOM     18  C   UNL     1     -40.426 -47.659  35.623  1.00  0.00    -0.000 C 
BRANCH  18  19
ATOM     19  C   UNL     1     -39.157 -48.513  35.461  1.00  0.00    -0.003 C 
ATOM     20  C   UNL     1     -38.932 -48.987  34.027  1.00  0.00     0.004 C 
ENDBRANCH  18  19
ENDBRANCH  17  18
ENDBRANCH  16  17
ENDBRANCH  15  16
ENDBRANCH  14  15
ENDBRANCH  13  14
ENDBRANCH   2  13
TORSDOF 15
ENDMDL
MODEL 2
REMARK VINA RESULT:    -3.774      1.738      4.004
REMARK INTER + INTRA:          -9.910
REMARK INTER:                  -7.943
REMARK INTRA:                  -1.967
REMARK UNBOUND:                -2.827
REMARK SMILES CCCCCCCCC=CCCCCCCCC(=O)[O-]
REMARK SMILES IDX 10 1 9 2 11 3 12 4 13 5 14 6 15 7 16 8 17 9 18 10 19 11
REMARK SMILES IDX 20 12 8 13 7 14 6 15 5 16 4 17 3 18 2 19 1 20
REMARK H PARENT
REMARK Flexibility Score: inf
ROOT
ATOM      1  C   UNL     1     -42.580 -47.990  34.219  1.00  0.00    -0.031 C 
ATOM      2  C   UNL     1     -41.281 -47.644  34.291  1.00  0.00    -0.031 C 
ENDROOT
BRANCH   1   3
ATOM      3  C   UNL     1     -43.111 -49.397  34.330  1.00  0.00     0.027 C 
BRANCH   3   4
ATOM      4  C   UNL     1     -43.611 -49.669  35.756  1.00  0.00     0.004 C 
BRANCH   4   5
ATOM      5  C   UNL     1     -44.096 -48.396  36.471  1.00  0.00     0.000 C 
BRANCH   5   6
ATOM      6  C   UNL     1     -45.196 -48.623  37.527  1.00  0.00     0.000 C 
BRANCH   6   7
ATOM      7  C   UNL     1     -46.549 -49.100  36.968  1.00  0.00     0.000 C 
BRANCH   7   8
ATOM      8  C   UNL     1     -46.863 -50.560  37.331  1.00  0.00     0.006 C 
BRANCH   8   9
ATOM      9  C   UNL     1     -46.134 -51.010  38.604  1.00  0.00     0.053 C 
BRANCH   9  10
ATOM     10  C   UNL     1     -46.994 -51.900  39.450  1.00  0.00     0.041 C 
ATOM     11  O   UNL     1     -46.918 -51.848  40.706  1.00  0.00    -0.550 OA
ATOM     12  O   UNL     1     -47.860 -52.805  38.849  1.00  0.00    -0.550 OA
ENDBRANCH   9  10
ENDBRANCH   8   9
ENDBRANCH   7   8
ENDBRANCH   6   7
ENDBRANCH   5   6
ENDBRANCH   4   5
ENDBRANCH   3   4
ENDBRANCH   1   3
BRANCH   2  13
ATOM     13  C   UNL     1     -40.136 -48.598  34.530  1.00  0.00     0.027 C 
BRANCH  13  14
ATOM     14  C   UNL     1     -39.458 -48.338  35.885  1.00  0.00     0.004 C 
BRANCH  14  15
ATOM     15  C   UNL     1     -40.444 -47.862  36.965  1.00  0.00     0.000 C 
BRANCH  15  16
ATOM     16  C   UNL     1     -40.798 -48.909  38.044  1.00  0.00     0.000 C 
BRANCH  16  17
ATOM     17  C   UNL     1     -41.605 -48.383  39.249  1.00  0.00    -0.000 C 
BRANCH  17  18
ATOM     18  C   UNL     1     -41.328 -46.909  39.621  1.00  0.00    -0.000 C 
BRANCH  18  19
ATOM     19  C   UNL     1     -42.600 -46.076  39.847  1.00  0.00    -0.003 C 
ATOM     20  C   UNL     1     -42.638 -45.398  41.214  1.00  0.00     0.004 C 
ENDBRANCH  18  19
ENDBRANCH  17  18
ENDBRANCH  16  17
ENDBRANCH  15  16
ENDBRANCH  14  15
ENDBRANCH  13  14
ENDBRANCH   2  13
TORSDOF 15
ENDMDL
MODEL 3
REMARK VINA RESULT:    -3.753      2.819      5.769
REMARK INTER + INTRA:          -9.872
REMARK INTER:                  -7.348
REMARK INTRA:                  -2.524
REMARK UNBOUND:                -2.827
REMARK SMILES CCCCCCCCC=CCCCCCCCC(=O)[O-]
REMARK SMILES IDX 10 1 9 2 11 3 12 4 13 5 14 6 15 7 16 8 17 9 18 10 19 11
REMARK SMILES IDX 20 12 8 13 7 14 6 15 5 16 4 17 3 18 2 19 1 20
REMARK H PARENT
REMARK Flexibility Score: inf
ROOT
ATOM      1  C   UNL     1     -41.647 -47.542  34.254  1.00  0.00    -0.031 C 
ATOM      2  C   UNL     1     -42.771 -48.282  34.180  1.00  0.00    -0.031 C 
ENDROOT
BRANCH   1   3
ATOM      3  C   UNL     1     -40.264 -48.087  34.504  1.00  0.00     0.027 C 
BRANCH   3   4
ATOM      4  C   UNL     1     -39.897 -47.957  35.988  1.00  0.00     0.004 C 
BRANCH   4   5
ATOM      5  C   UNL     1     -40.003 -49.291  36.748  1.00  0.00     0.000 C 
BRANCH   5   6
ATOM      6  C   UNL     1     -40.999 -49.291  37.924  1.00  0.00     0.000 C 
BRANCH   6   7
ATOM      7  C   UNL     1     -41.618 -47.920  38.254  1.00  0.00     0.000 C 
BRANCH   7   8
ATOM      8  C   UNL     1     -42.423 -47.928  39.564  1.00  0.00     0.006 C 
BRANCH   8   9
ATOM      9  C   UNL     1     -43.668 -47.033  39.484  1.00  0.00     0.053 C 
BRANCH   9  10
ATOM     10  C   UNL     1     -43.505 -45.784  40.297  1.00  0.00     0.041 C 
ATOM     11  O   UNL     1     -44.177 -44.756  40.022  1.00  0.00    -0.550 OA
ATOM     12  O   UNL     1     -42.589 -45.749  41.341  1.00  0.00    -0.550 OA
ENDBRANCH   9  10
ENDBRANCH   8   9
ENDBRANCH   7   8
ENDBRANCH   6   7
ENDBRANCH   5   6
ENDBRANCH   4   5
ENDBRANCH   3   4
ENDBRANCH   1   3
BRANCH   2  13
ATOM     13  C   UNL     1     -42.833 -49.786  34.299  1.00  0.00     0.027 C 
BRANCH  13  14
ATOM     14  C   UNL     1     -43.702 -50.221  35.490  1.00  0.00     0.004 C 
BRANCH  14  15
ATOM     15  C   UNL     1     -44.343 -49.033  36.227  1.00  0.00     0.000 C 
BRANCH  15  16
ATOM     16  C   UNL     1     -45.772 -49.278  36.757  1.00  0.00     0.000 C 
BRANCH  16  17
ATOM     17  C   UNL     1     -45.872 -49.761  38.220  1.00  0.00    -0.000 C 
BRANCH  17  18
ATOM     18  C   UNL     1     -46.505 -51.159  38.398  1.00  0.00    -0.000 C 
BRANCH  18  19
ATOM     19  C   UNL     1     -45.533 -52.320  38.130  1.00  0.00    -0.003 C 
ATOM     20  C   UNL     1     -45.786 -53.017  36.795  1.00  0.00     0.004 C 
ENDBRANCH  18  19
ENDBRANCH  17  18
ENDBRANCH  16  17
ENDBRANCH  15  16
ENDBRANCH  14  15
ENDBRANCH  13  14
ENDBRANCH   2  13
TORSDOF 15
ENDMDL
MODEL 4
REMARK VINA RESULT:    -3.722      3.182      6.261
REMARK INTER + INTRA:          -9.812
REMARK INTER:                  -7.277
REMARK INTRA:                  -2.535
REMARK UNBOUND:                -2.827
REMARK SMILES CCCCCCCCC=CCCCCCCCC(=O)[O-]
REMARK SMILES IDX 10 1 9 2 11 3 12 4 13 5 14 6 15 7 16 8 17 9 18 10 19 11
REMARK SMILES IDX 20 12 8 13 7 14 6 15 5 16 4 17 3 18 2 19 1 20
REMARK H PARENT
REMARK Flexibility Score: inf
ROOT
ATOM      1  C   UNL     1     -44.518 -48.687  36.578  1.00  0.00    -0.031 C 
ATOM      2  C   UNL     1     -43.451 -48.376  37.339  1.00  0.00    -0.031 C 
ENDROOT
BRANCH   1   3
ATOM      3  C   UNL     1     -45.946 -48.729  37.060  1.00  0.00     0.027 C 
BRANCH   3   4
ATOM      4  C   UNL     1     -46.433 -50.181  37.164  1.00  0.00     0.004 C 
BRANCH   4   5
ATOM      5  C   UNL     1     -45.360 -51.201  36.744  1.00  0.00     0.000 C 
BRANCH   5   6
ATOM      6  C   UNL     1     -45.701 -52.670  37.065  1.00  0.00     0.000 C 
BRANCH   6   7
ATOM      7  C   UNL     1     -47.173 -52.933  37.433  1.00  0.00     0.000 C 
BRANCH   7   8
ATOM      8  C   UNL     1     -47.345 -54.126  38.387  1.00  0.00     0.006 C 
BRANCH   8   9
ATOM      9  C   UNL     1     -46.211 -55.150  38.244  1.00  0.00     0.053 C 
BRANCH   9  10
ATOM     10  C   UNL     1     -46.687 -56.545  38.516  1.00  0.00     0.041 C 
ATOM     11  O   UNL     1     -45.972 -57.341  39.180  1.00  0.00    -0.550 OA
ATOM     12  O   UNL     1     -47.909 -56.973  38.013  1.00  0.00    -0.550 OA
ENDBRANCH   9  10
ENDBRANCH   8   9
ENDBRANCH   7   8
ENDBRANCH   6   7
ENDBRANCH   5   6
ENDBRANCH   4   5
ENDBRANCH   3   4
ENDBRANCH   1   3
BRANCH   2  13
ATOM     13  C   UNL     1     -43.504 -47.984  38.796  1.00  0.00     0.027 C 
BRANCH  13  14
ATOM     14  C   UNL     1     -43.166 -49.171  39.712  1.00  0.00     0.004 C 
BRANCH  14  15
ATOM     15  C   UNL     1     -44.397 -49.725  40.450  1.00  0.00     0.000 C 
BRANCH  15  16
ATOM     16  C   UNL     1     -44.514 -51.264  40.475  1.00  0.00     0.000 C 
BRANCH  16  17
ATOM     17  C   UNL     1     -45.884 -51.825  40.911  1.00  0.00    -0.000 C 
BRANCH  17  18
ATOM     18  C   UNL     1     -47.090 -50.915  40.586  1.00  0.00    -0.000 C 
BRANCH  18  19
ATOM     19  C   UNL     1     -48.354 -51.245  41.397  1.00  0.00    -0.003 C 
ATOM     20  C   UNL     1     -48.862 -52.666  41.163  1.00  0.00     0.004 C 
ENDBRANCH  18  19
ENDBRANCH  17  18
ENDBRANCH  16  17
ENDBRANCH  15  16
ENDBRANCH  14  15
ENDBRANCH  13  14
ENDBRANCH   2  13
TORSDOF 15
ENDMDL
MODEL 5
REMARK VINA RESULT:    -3.719      1.306      2.088
REMARK INTER + INTRA:          -9.807
REMARK INTER:                  -6.779
REMARK INTRA:                  -3.029
REMARK UNBOUND:                -2.827
REMARK SMILES CCCCCCCCC=CCCCCCCCC(=O)[O-]
REMARK SMILES IDX 10 1 9 2 11 3 12 4 13 5 14 6 15 7 16 8 17 9 18 10 19 11
REMARK SMILES IDX 20 12 8 13 7 14 6 15 5 16 4 17 3 18 2 19 1 20
REMARK H PARENT
REMARK Flexibility Score: inf
ROOT
ATOM      1  C   UNL     1     -42.854 -51.341  36.844  1.00  0.00    -0.031 C 
ATOM      2  C   UNL     1     -42.791 -51.646  35.533  1.00  0.00    -0.031 C 
ENDROOT
BRANCH   1   3
ATOM      3  C   UNL     1     -41.761 -50.662  37.631  1.00  0.00     0.027 C 
BRANCH   3   4
ATOM      4  C   UNL     1     -42.365 -49.729  38.690  1.00  0.00     0.004 C 
BRANCH   4   5
ATOM      5  C   UNL     1     -43.001 -48.468  38.080  1.00  0.00     0.000 C 
BRANCH   5   6
ATOM      6  C   UNL     1     -44.529 -48.360  38.256  1.00  0.00     0.000 C 
BRANCH   6   7
ATOM      7  C   UNL     1     -45.346 -48.501  36.959  1.00  0.00     0.000 C 
BRANCH   7   8
ATOM      8  C   UNL     1     -46.278 -49.723  36.971  1.00  0.00     0.006 C 
BRANCH   8   9
ATOM      9  C   UNL     1     -46.354 -50.381  38.355  1.00  0.00     0.053 C 
BRANCH   9  10
ATOM     10  C   UNL     1     -46.807 -51.806  38.268  1.00  0.00     0.041 C 
ATOM     11  O   UNL     1     -47.302 -52.250  37.198  1.00  0.00    -0.550 OA
ATOM     12  O   UNL     1     -46.708 -52.637  39.377  1.00  0.00    -0.550 OA
ENDBRANCH   9  10
ENDBRANCH   8   9
ENDBRANCH   7   8
ENDBRANCH   6   7
ENDBRANCH   5   6
ENDBRANCH   4   5
ENDBRANCH   3   4
ENDBRANCH   1   3
BRANCH   2  13
ATOM     13  C   UNL     1     -41.631 -51.332  34.620  1.00  0.00     0.027 C 
BRANCH  13  14
ATOM     14  C   UNL     1     -42.034 -50.340  33.517  1.00  0.00     0.004 C 
BRANCH  14  15
ATOM     15  C   UNL     1     -43.151 -49.379  33.958  1.00  0.00     0.000 C 
BRANCH  15  16
ATOM     16  C   UNL     1     -42.672 -48.009  34.488  1.00  0.00     0.000 C 
BRANCH  16  17
ATOM     17  C   UNL     1     -41.168 -47.712  34.315  1.00  0.00    -0.000 C 
BRANCH  17  18
ATOM     18  C   UNL     1     -40.327 -47.857  35.603  1.00  0.00    -0.000 C 
BRANCH  18  19
ATOM     19  C   UNL     1     -39.049 -48.692  35.420  1.00  0.00    -0.003 C 
ATOM     20  C   UNL     1     -38.595 -48.781  33.965  1.00  0.00     0.004 C 
ENDBRANCH  18  19
ENDBRANCH  17  18
ENDBRANCH  16  17
ENDBRANCH  15  16
ENDBRANCH  14  15
ENDBRANCH  13  14
ENDBRANCH   2  13
TORSDOF 15
ENDMDL
MODEL 6
REMARK VINA RESULT:    -3.713      2.988      5.231
REMARK INTER + INTRA:          -9.796
REMARK INTER:                  -7.114
REMARK INTRA:                  -2.682
REMARK UNBOUND:                -2.827
REMARK SMILES CCCCCCCCC=CCCCCCCCC(=O)[O-]
REMARK SMILES IDX 10 1 9 2 11 3 12 4 13 5 14 6 15 7 16 8 17 9 18 10 19 11
REMARK SMILES IDX 20 12 8 13 7 14 6 15 5 16 4 17 3 18 2 19 1 20
REMARK H PARENT
REMARK Flexibility Score: inf
ROOT
ATOM      1  C   UNL     1     -40.545 -48.844  37.693  1.00  0.00    -0.031 C 
ATOM      2  C   UNL     1     -41.654 -48.683  38.441  1.00  0.00    -0.031 C 
ENDROOT
BRANCH   1   3
ATOM      3  C   UNL     1     -40.025 -47.851  36.685  1.00  0.00     0.027 C 
BRANCH   3   4
ATOM      4  C   UNL     1     -40.095 -48.439  35.269  1.00  0.00     0.004 C 
BRANCH   4   5
ATOM      5  C   UNL     1     -41.069 -47.677  34.354  1.00  0.00     0.000 C 
BRANCH   5   6
ATOM      6  C   UNL     1     -42.560 -47.989  34.589  1.00  0.00     0.000 C 
BRANCH   6   7
ATOM      7  C   UNL     1     -42.975 -49.444  34.302  1.00  0.00     0.000 C 
BRANCH   7   8
ATOM      8  C   UNL     1     -43.609 -50.134  35.520  1.00  0.00     0.006 C 
BRANCH   8   9
ATOM      9  C   UNL     1     -44.695 -49.270  36.176  1.00  0.00     0.053 C 
BRANCH   9  10
ATOM     10  C   UNL     1     -45.390 -50.001  37.284  1.00  0.00     0.041 C 
ATOM     11  O   UNL     1     -44.742 -50.400  38.287  1.00  0.00    -0.550 OA
ATOM     12  O   UNL     1     -46.751 -50.266  37.195  1.00  0.00    -0.550 OA
ENDBRANCH   9  10
ENDBRANCH   8   9
ENDBRANCH   7   8
ENDBRANCH   6   7
ENDBRANCH   5   6
ENDBRANCH   4   5
ENDBRANCH   3   4
ENDBRANCH   1   3
BRANCH   2  13
ATOM     13  C   UNL     1     -42.548 -47.466  38.423  1.00  0.00     0.027 C 
BRANCH  13  14
ATOM     14  C   UNL     1     -43.422 -47.390  39.685  1.00  0.00     0.004 C 
BRANCH  14  15
ATOM     15  C   UNL     1     -43.595 -45.954  40.206  1.00  0.00     0.000 C 
BRANCH  15  16
ATOM     16  C   UNL     1     -42.591 -45.523  41.298  1.00  0.00     0.000 C 
BRANCH  16  17
ATOM     17  C   UNL     1     -41.448 -44.597  40.830  1.00  0.00    -0.000 C 
BRANCH  17  18
ATOM     18  C   UNL     1     -40.033 -45.204  40.953  1.00  0.00    -0.000 C 
BRANCH  18  19
ATOM     19  C   UNL     1     -40.026 -46.725  41.180  1.00  0.00    -0.003 C 
ATOM     20  C   UNL     1     -38.738 -47.396  40.708  1.00  0.00     0.004 C 
ENDBRANCH  18  19
ENDBRANCH  17  18
ENDBRANCH  16  17
ENDBRANCH  15  16
ENDBRANCH  14  15
ENDBRANCH  13  14
ENDBRANCH   2  13
TORSDOF 15
ENDMDL
MODEL 7
REMARK VINA RESULT:    -3.654      1.942      2.720
REMARK INTER + INTRA:          -9.685
REMARK INTER:                  -6.596
REMARK INTRA:                  -3.089
REMARK UNBOUND:                -2.827
REMARK SMILES CCCCCCCCC=CCCCCCCCC(=O)[O-]
REMARK SMILES IDX 10 1 9 2 11 3 12 4 13 5 14 6 15 7 16 8 17 9 18 10 19 11
REMARK SMILES IDX 20 12 8 13 7 14 6 15 5 16 4 17 3 18 2 19 1 20
REMARK H PARENT
REMARK Flexibility Score: inf
ROOT
ATOM      1  C   UNL     1     -42.725 -49.537  37.562  1.00  0.00    -0.031 C 
ATOM      2  C   UNL     1     -43.003 -50.310  36.494  1.00  0.00    -0.031 C 
ENDROOT
BRANCH   1   3
ATOM      3  C   UNL     1     -43.200 -48.120  37.756  1.00  0.00     0.027 C 
BRANCH   3   4
ATOM      4  C   UNL     1     -43.586 -47.880  39.222  1.00  0.00     0.004 C 
BRANCH   4   5
ATOM      5  C   UNL     1     -43.007 -48.943  40.172  1.00  0.00     0.000 C 
BRANCH   5   6
ATOM      6  C   UNL     1     -44.058 -49.811  40.893  1.00  0.00     0.000 C 
BRANCH   6   7
ATOM      7  C   UNL     1     -44.034 -51.306  40.521  1.00  0.00     0.000 C 
BRANCH   7   8
ATOM      8  C   UNL     1     -45.218 -51.718  39.632  1.00  0.00     0.006 C 
BRANCH   8   9
ATOM      9  C   UNL     1     -46.207 -50.565  39.414  1.00  0.00     0.053 C 
BRANCH   9  10
ATOM     10  C   UNL     1     -46.518 -50.370  37.961  1.00  0.00     0.041 C 
ATOM     11  O   UNL     1     -46.784 -49.222  37.517  1.00  0.00    -0.550 OA
ATOM     12  O   UNL     1     -46.541 -51.462  37.102  1.00  0.00    -0.550 OA
ENDBRANCH   9  10
ENDBRANCH   8   9
ENDBRANCH   7   8
ENDBRANCH   6   7
ENDBRANCH   5   6
ENDBRANCH   4   5
ENDBRANCH   3   4
ENDBRANCH   1   3
BRANCH   2  13
ATOM     13  C   UNL     1     -43.866 -49.902  35.325  1.00  0.00     0.027 C 
BRANCH  13  14
ATOM     14  C   UNL     1     -43.015 -49.515  34.104  1.00  0.00     0.004 C 
BRANCH  14  15
ATOM     15  C   UNL     1     -42.649 -48.022  34.081  1.00  0.00     0.000 C 
BRANCH  15  16
ATOM     16  C   UNL     1     -41.159 -47.704  34.331  1.00  0.00     0.000 C 
BRANCH  16  17
ATOM     17  C   UNL     1     -40.218 -48.924  34.418  1.00  0.00    -0.000 C 
BRANCH  17  18
ATOM     18  C   UNL     1     -39.423 -49.035  35.738  1.00  0.00    -0.000 C 
BRANCH  18  19
ATOM     19  C   UNL     1     -39.255 -47.697  36.477  1.00  0.00    -0.003 C 
ATOM     20  C   UNL     1     -39.497 -47.808  37.980  1.00  0.00     0.004 C 
ENDBRANCH  18  19
ENDBRANCH  17  18
ENDBRANCH  16  17
ENDBRANCH  15  16
ENDBRANCH  14  15
ENDBRANCH  13  14
ENDBRANCH   2  13
TORSDOF 15
ENDMDL
MODEL 8
REMARK VINA RESULT:    -3.635      2.100      4.483
REMARK INTER + INTRA:          -9.650
REMARK INTER:                  -7.478
REMARK INTRA:                  -2.172
REMARK UNBOUND:                -2.827
REMARK SMILES CCCCCCCCC=CCCCCCCCC(=O)[O-]
REMARK SMILES IDX 10 1 9 2 11 3 12 4 13 5 14 6 15 7 16 8 17 9 18 10 19 11
REMARK SMILES IDX 20 12 8 13 7 14 6 15 5 16 4 17 3 18 2 19 1 20
REMARK H PARENT
REMARK Flexibility Score: inf
ROOT
ATOM      1  C   UNL     1     -47.000 -53.315  37.436  1.00  0.00    -0.031 C 
ATOM      2  C   UNL     1     -47.251 -52.008  37.226  1.00  0.00    -0.031 C 
ENDROOT
BRANCH   1   3
ATOM      3  C   UNL     1     -45.632 -53.915  37.637  1.00  0.00     0.027 C 
BRANCH   3   4
ATOM      4  C   UNL     1     -45.609 -54.781  38.905  1.00  0.00     0.004 C 
BRANCH   4   5
ATOM      5  C   UNL     1     -47.013 -55.035  39.479  1.00  0.00     0.000 C 
BRANCH   5   6
ATOM      6  C   UNL     1     -47.253 -54.457  40.888  1.00  0.00     0.000 C 
BRANCH   6   7
ATOM      7  C   UNL     1     -48.175 -53.225  40.939  1.00  0.00     0.000 C 
BRANCH   7   8
ATOM      8  C   UNL     1     -47.397 -51.899  40.949  1.00  0.00     0.006 C 
BRANCH   8   9
ATOM      9  C   UNL     1     -45.932 -52.090  41.364  1.00  0.00     0.053 C 
BRANCH   9  10
ATOM     10  C   UNL     1     -45.013 -51.211  40.571  1.00  0.00     0.041 C 
ATOM     11  O   UNL     1     -45.219 -49.970  40.507  1.00  0.00    -0.550 OA
ATOM     12  O   UNL     1     -43.943 -51.767  39.880  1.00  0.00    -0.550 OA
ENDBRANCH   9  10
ENDBRANCH   8   9
ENDBRANCH   7   8
ENDBRANCH   6   7
ENDBRANCH   5   6
ENDBRANCH   4   5
ENDBRANCH   3   4
ENDBRANCH   1   3
BRANCH   2  13
ATOM     13  C   UNL     1     -46.209 -50.916  37.189  1.00  0.00     0.027 C 
BRANCH  13  14
ATOM     14  C   UNL     1     -46.853 -49.526  37.058  1.00  0.00     0.004 C 
BRANCH  14  15
ATOM     15  C   UNL     1     -45.861 -48.382  37.322  1.00  0.00     0.000 C 
BRANCH  15  16
ATOM     16  C   UNL     1     -44.373 -48.794  37.366  1.00  0.00     0.000 C 
BRANCH  16  17
ATOM     17  C   UNL     1     -43.507 -48.306  36.186  1.00  0.00    -0.000 C 
BRANCH  17  18
ATOM     18  C   UNL     1     -43.477 -49.256  34.968  1.00  0.00    -0.000 C 
BRANCH  18  19
ATOM     19  C   UNL     1     -42.618 -48.741  33.800  1.00  0.00    -0.003 C 
ATOM     20  C   UNL     1     -41.569 -47.720  34.232  1.00  0.00     0.004 C 
ENDBRANCH  18  19
ENDBRANCH  17  18
ENDBRANCH  16  17
ENDBRANCH  15  16
ENDBRANCH  14  15
ENDBRANCH  13  14
ENDBRANCH   2  13
TORSDOF 15
ENDMDL
MODEL 9
REMARK VINA RESULT:    -3.568      1.446      2.775
REMARK INTER + INTRA:          -9.523
REMARK INTER:                  -6.826
REMARK INTRA:                  -2.697
REMARK UNBOUND:                -2.827
REMARK SMILES CCCCCCCCC=CCCCCCCCC(=O)[O-]
REMARK SMILES IDX 10 1 9 2 11 3 12 4 13 5 14 6 15 7 16 8 17 9 18 10 19 11
REMARK SMILES IDX 20 12 8 13 7 14 6 15 5 16 4 17 3 18 2 19 1 20
REMARK H PARENT
REMARK Flexibility Score: inf
ROOT
ATOM      1  C   UNL     1     -41.462 -48.594  39.151  1.00  0.00    -0.031 C 
ATOM      2  C   UNL     1     -40.390 -48.433  38.351  1.00  0.00    -0.031 C 
ENDROOT
BRANCH   1   3
ATOM      3  C   UNL     1     -42.782 -49.186  38.725  1.00  0.00     0.027 C 
BRANCH   3   4
ATOM      4  C   UNL     1     -43.793 -48.073  38.418  1.00  0.00     0.004 C 
BRANCH   4   5
ATOM      5  C   UNL     1     -44.576 -48.321  37.116  1.00  0.00     0.000 C 
BRANCH   5   6
ATOM      6  C   UNL     1     -46.103 -48.147  37.234  1.00  0.00     0.000 C 
BRANCH   6   7
ATOM      7  C   UNL     1     -46.893 -49.452  37.445  1.00  0.00     0.000 C 
BRANCH   7   8
ATOM      8  C   UNL     1     -46.142 -50.693  36.935  1.00  0.00     0.006 C 
BRANCH   8   9
ATOM      9  C   UNL     1     -45.920 -51.732  38.043  1.00  0.00     0.053 C 
BRANCH   9  10
ATOM     10  C   UNL     1     -47.210 -52.347  38.492  1.00  0.00     0.041 C 
ATOM     11  O   UNL     1     -47.907 -53.019  37.687  1.00  0.00    -0.550 OA
ATOM     12  O   UNL     1     -47.656 -52.153  39.794  1.00  0.00    -0.550 OA
ENDBRANCH   9  10
ENDBRANCH   8   9
ENDBRANCH   7   8
ENDBRANCH   6   7
ENDBRANCH   5   6
ENDBRANCH   4   5
ENDBRANCH   3   4
ENDBRANCH   1   3
BRANCH   2  13
ATOM     13  C   UNL     1     -40.313 -48.848  36.902  1.00  0.00     0.027 C 
BRANCH  13  14
ATOM     14  C   UNL     1     -40.426 -47.638  35.962  1.00  0.00     0.004 C 
BRANCH  14  15
ATOM     15  C   UNL     1     -40.840 -48.028  34.533  1.00  0.00     0.000 C 
BRANCH  15  16
ATOM     16  C   UNL     1     -42.350 -47.917  34.229  1.00  0.00     0.000 C 
BRANCH  16  17
ATOM     17  C   UNL     1     -43.050 -49.230  33.821  1.00  0.00    -0.000 C 
BRANCH  17  18
ATOM     18  C   UNL     1     -42.320 -50.518  34.264  1.00  0.00    -0.000 C 
BRANCH  18  19
ATOM     19  C   UNL     1     -42.936 -51.184  35.506  1.00  0.00    -0.003 C 
ATOM     20  C   UNL     1     -41.972 -52.131  36.217  1.00  0.00     0.004 C 
ENDBRANCH  18  19
ENDBRANCH  17  18
ENDBRANCH  16  17
ENDBRANCH  15  16
ENDBRANCH  14  15
ENDBRANCH  13  14
ENDBRANCH   2  13
TORSDOF 15
ENDMDL
