MODEL 1
REMARK VINA RESULT:    -3.979      0.000      0.000
REMARK INTER + INTRA:          -7.337
REMARK INTER:                  -6.771
REMARK INTRA:                  -0.565
REMARK UNBOUND:                -0.565
REMARK SMILES CCCCCCCCCCCCCC(=O)[O-]
REMARK SMILES IDX 8 1 9 2 10 3 11 4 12 5 13 6 14 7 15 8 16 9 7 10 6 11 5 12
REMARK SMILES IDX 4 13 3 14 2 15 1 16
REMARK H PARENT
REMARK Flexibility Score: inf
ROOT
ATOM      1  C   UNL     1      14.819   3.437  -1.024  1.00  0.00     0.000 C 
ENDROOT
BRANCH   1   2
ATOM      2  C   UNL     1      13.804   3.498  -2.172  1.00  0.00     0.000 C 
BRANCH   2   3
ATOM      3  C   UNL     1      12.878   4.711  -2.024  1.00  0.00     0.000 C 
BRANCH   3   4
ATOM      4  C   UNL     1      12.309   4.796  -0.600  1.00  0.00     0.000 C 
BRANCH   4   5
ATOM      5  C   UNL     1      10.865   5.320  -0.570  1.00  0.00     0.006 C 
BRANCH   5   6
ATOM      6  C   UNL     1      10.753   6.776  -1.040  1.00  0.00     0.053 C 
BRANCH   6   7
ATOM      7  C   UNL     1       9.389   7.043  -1.594  1.00  0.00     0.041 C 
ATOM      8  O   UNL     1       8.661   7.934  -1.082  1.00  0.00    -0.550 OA
ATOM      9  O   UNL     1       8.902   6.275  -2.644  1.00  0.00    -0.550 OA
ENDBRANCH   6   7
ENDBRANCH   5   6
ENDBRANCH   4   5
ENDBRANCH   3   4
ENDBRANCH   2   3
ENDBRANCH   1   2
BRANCH   1  10
ATOM     10  C   UNL     1      16.056   2.624  -1.424  1.00  0.00     0.000 C 
BRANCH  10  11
ATOM     11  C   UNL     1      15.651   1.294  -2.079  1.00  0.00    -0.000 C 
BRANCH  11  12
ATOM     12  C   UNL     1      16.781   0.678  -2.921  1.00  0.00    -0.000 C 
BRANCH  12  13
ATOM     13  C   UNL     1      18.029   1.575  -2.980  1.00  0.00    -0.000 C 
BRANCH  13  14
ATOM     14  C   UNL     1      19.329   0.791  -2.730  1.00  0.00    -0.000 C 
BRANCH  14  15
ATOM     15  C   UNL     1      20.533   1.709  -2.470  1.00  0.00    -0.003 C 
ATOM     16  C   UNL     1      21.524   1.054  -1.511  1.00  0.00     0.004 C 
ENDBRANCH  14  15
ENDBRANCH  13  14
ENDBRANCH  12  13
ENDBRANCH  11  12
ENDBRANCH  10  11
ENDBRANCH   1  10
TORSDOF 12
ENDMDL
MODEL 2
REMARK VINA RESULT:    -3.855      4.661      9.301
REMARK INTER + INTRA:          -7.125
REMARK INTER:                  -6.525
REMARK INTRA:                  -0.600
REMARK UNBOUND:                -0.565
REMARK SMILES CCCCCCCCCCCCCC(=O)[O-]
REMARK SMILES IDX 8 1 9 2 10 3 11 4 12 5 13 6 14 7 15 8 16 9 7 10 6 11 5 12
REMARK SMILES IDX 4 13 3 14 2 15 1 16
REMARK H PARENT
REMARK Flexibility Score: inf
ROOT
ATOM      1  C   UNL     1      14.419   3.502  -1.224  1.00  0.00     0.000 C 
ENDROOT
BRANCH   1   2
ATOM      2  C   UNL     1      15.722   2.770  -1.568  1.00  0.00     0.000 C 
BRANCH   2   3
ATOM      3  C   UNL     1      15.460   1.288  -1.861  1.00  0.00     0.000 C 
BRANCH   3   4
ATOM      4  C   UNL     1      16.548   0.708  -2.778  1.00  0.00     0.000 C 
BRANCH   4   5
ATOM      5  C   UNL     1      17.882   1.463  -2.663  1.00  0.00     0.006 C 
BRANCH   5   6
ATOM      6  C   UNL     1      19.093   0.574  -2.976  1.00  0.00     0.053 C 
BRANCH   6   7
ATOM      7  C   UNL     1      20.309   1.082  -2.269  1.00  0.00     0.041 C 
ATOM      8  O   UNL     1      20.658   2.286  -2.393  1.00  0.00    -0.550 OA
ATOM      9  O   UNL     1      21.086   0.216  -1.511  1.00  0.00    -0.550 OA
ENDBRANCH   6   7
ENDBRANCH   5   6
ENDBRANCH   4   5
ENDBRANCH   3   4
ENDBRANCH   2   3
ENDBRANCH   1   2
BRANCH   1  10
ATOM     10  C   UNL     1      13.550   3.698  -2.473  1.00  0.00     0.000 C 
BRANCH  10  11
ATOM     11  C   UNL     1      12.204   4.343  -2.110  1.00  0.00    -0.000 C 
BRANCH  11  12
ATOM     12  C   UNL     1      12.143   4.808  -0.645  1.00  0.00    -0.000 C 
BRANCH  12  13
ATOM     13  C   UNL     1      11.400   6.145  -0.481  1.00  0.00    -0.000 C 
BRANCH  13  14
ATOM     14  C   UNL     1      10.349   6.373  -1.581  1.00  0.00    -0.000 C 
BRANCH  14  15
ATOM     15  C   UNL     1       9.260   7.372  -1.162  1.00  0.00    -0.003 C 
ATOM     16  C   UNL     1       9.520   8.750  -1.765  1.00  0.00     0.004 C 
ENDBRANCH  14  15
ENDBRANCH  13  14
ENDBRANCH  12  13
ENDBRANCH  11  12
ENDBRANCH  10  11
ENDBRANCH   1  10
TORSDOF 12
ENDMDL
MODEL 3
REMARK VINA RESULT:    -3.765      4.485      8.655
REMARK INTER + INTRA:          -6.972
REMARK INTER:                  -5.935
REMARK INTRA:                  -1.036
REMARK UNBOUND:                -0.565
REMARK SMILES CCCCCCCCCCCCCC(=O)[O-]
REMARK SMILES IDX 8 1 9 2 10 3 11 4 12 5 13 6 14 7 15 8 16 9 7 10 6 11 5 12
REMARK SMILES IDX 4 13 3 14 2 15 1 16
REMARK H PARENT
REMARK Flexibility Score: inf
ROOT
ATOM      1  C   UNL     1      13.174   4.237  -2.583  1.00  0.00     0.000 C 
ENDROOT
BRANCH   1   2
ATOM      2  C   UNL     1      13.804   2.851  -2.769  1.00  0.00     0.000 C 
BRANCH   2   3
ATOM      3  C   UNL     1      15.103   2.725  -1.965  1.00  0.00     0.000 C 
BRANCH   3   4
ATOM      4  C   UNL     1      15.485   1.250  -1.767  1.00  0.00     0.000 C 
BRANCH   4   5
ATOM      5  C   UNL     1      16.618   0.801  -2.703  1.00  0.00     0.006 C 
BRANCH   5   6
ATOM      6  C   UNL     1      17.628   1.921  -2.990  1.00  0.00     0.053 C 
BRANCH   6   7
ATOM      7  C   UNL     1      19.024   1.436  -2.762  1.00  0.00     0.041 C 
ATOM      8  O   UNL     1      19.256   0.203  -2.645  1.00  0.00    -0.550 OA
ATOM      9  O   UNL     1      20.064   2.347  -2.630  1.00  0.00    -0.550 OA
ENDBRANCH   6   7
ENDBRANCH   5   6
ENDBRANCH   4   5
ENDBRANCH   3   4
ENDBRANCH   2   3
ENDBRANCH   1   2
BRANCH   1  10
ATOM     10  C   UNL     1      13.210   4.666  -1.111  1.00  0.00     0.000 C 
BRANCH  10  11
ATOM     11  C   UNL     1      11.797   4.976  -0.595  1.00  0.00    -0.000 C 
BRANCH  11  12
ATOM     12  C   UNL     1      10.702   4.651  -1.625  1.00  0.00    -0.000 C 
BRANCH  12  13
ATOM     13  C   UNL     1       9.933   5.902  -2.082  1.00  0.00    -0.000 C 
BRANCH  13  14
ATOM     14  C   UNL     1      10.278   7.144  -1.245  1.00  0.00    -0.000 C 
BRANCH  14  15
ATOM     15  C   UNL     1      10.733   8.332  -2.105  1.00  0.00    -0.003 C 
ATOM     16  C   UNL     1      12.240   8.291  -2.344  1.00  0.00     0.004 C 
ENDBRANCH  14  15
ENDBRANCH  13  14
ENDBRANCH  12  13
ENDBRANCH  11  12
ENDBRANCH  10  11
ENDBRANCH   1  10
TORSDOF 12
ENDMDL
MODEL 4
REMARK VINA RESULT:    -3.719      2.560      4.323
REMARK INTER + INTRA:          -6.893
REMARK INTER:                  -5.821
REMARK INTRA:                  -1.071
REMARK UNBOUND:                -0.565
REMARK SMILES CCCCCCCCCCCCCC(=O)[O-]
REMARK SMILES IDX 8 1 9 2 10 3 11 4 12 5 13 6 14 7 15 8 16 9 7 10 6 11 5 12
REMARK SMILES IDX 4 13 3 14 2 15 1 16
REMARK H PARENT
REMARK Flexibility Score: inf
ROOT
ATOM      1  C   UNL     1      11.051   5.301  -0.486  1.00  0.00     0.000 C 
ENDROOT
BRANCH   1   2
ATOM      2  C   UNL     1      10.111   5.001  -1.660  1.00  0.00     0.000 C 
BRANCH   2   3
ATOM      3  C   UNL     1       9.362   6.264  -2.101  1.00  0.00     0.000 C 
BRANCH   3   4
ATOM      4  C   UNL     1      10.020   7.524  -1.517  1.00  0.00     0.000 C 
BRANCH   4   5
ATOM      5  C   UNL     1      10.803   8.324  -2.568  1.00  0.00     0.006 C 
BRANCH   5   6
ATOM      6  C   UNL     1      12.209   8.711  -2.091  1.00  0.00     0.053 C 
BRANCH   6   7
ATOM      7  C   UNL     1      12.318  10.195  -1.937  1.00  0.00     0.041 C 
ATOM      8  O   UNL     1      11.661  10.789  -1.041  1.00  0.00    -0.550 OA
ATOM      9  O   UNL     1      13.107  10.930  -2.813  1.00  0.00    -0.550 OA
ENDBRANCH   6   7
ENDBRANCH   5   6
ENDBRANCH   4   5
ENDBRANCH   3   4
ENDBRANCH   2   3
ENDBRANCH   1   2
BRANCH   1  10
ATOM     10  C   UNL     1      12.514   5.052  -0.874  1.00  0.00     0.000 C 
BRANCH  10  11
ATOM     11  C   UNL     1      12.615   4.469  -2.292  1.00  0.00    -0.000 C 
BRANCH  11  12
ATOM     12  C   UNL     1      13.666   3.351  -2.402  1.00  0.00    -0.000 C 
BRANCH  12  13
ATOM     13  C   UNL     1      14.693   3.393  -1.258  1.00  0.00    -0.000 C 
BRANCH  13  14
ATOM     14  C   UNL     1      15.891   2.462  -1.508  1.00  0.00    -0.000 C 
BRANCH  14  15
ATOM     15  C   UNL     1      15.477   1.113  -2.116  1.00  0.00    -0.003 C 
ATOM     16  C   UNL     1      16.600   0.528  -2.968  1.00  0.00     0.004 C 
ENDBRANCH  14  15
ENDBRANCH  13  14
ENDBRANCH  12  13
ENDBRANCH  11  12
ENDBRANCH  10  11
ENDBRANCH   1  10
TORSDOF 12
ENDMDL
MODEL 5
REMARK VINA RESULT:    -3.676      4.122      7.967
REMARK INTER + INTRA:          -6.821
REMARK INTER:                  -5.883
REMARK INTRA:                  -0.938
REMARK UNBOUND:                -0.565
REMARK SMILES CCCCCCCCCCCCCC(=O)[O-]
REMARK SMILES IDX 8 1 9 2 10 3 11 4 12 5 13 6 14 7 15 8 16 9 7 10 6 11 5 12
REMARK SMILES IDX 4 13 3 14 2 15 1 16
REMARK H PARENT
REMARK Flexibility Score: inf
ROOT
ATOM      1  C   UNL     1      12.080   5.054  -0.715  1.00  0.00     0.000 C 
ENDROOT
BRANCH   1   2
ATOM      2  C   UNL     1      12.126   4.481  -2.137  1.00  0.00     0.000 C 
BRANCH   2   3
ATOM      3  C   UNL     1      13.424   3.701  -2.374  1.00  0.00     0.000 C 
BRANCH   3   4
ATOM      4  C   UNL     1      14.250   3.604  -1.082  1.00  0.00     0.000 C 
BRANCH   4   5
ATOM      5  C   UNL     1      15.573   2.849  -1.280  1.00  0.00     0.006 C 
BRANCH   5   6
ATOM      6  C   UNL     1      15.871   2.553  -2.756  1.00  0.00     0.053 C 
BRANCH   6   7
ATOM      7  C   UNL     1      16.847   1.426  -2.876  1.00  0.00     0.041 C 
ATOM      8  O   UNL     1      16.447   0.233  -2.826  1.00  0.00    -0.550 OA
ATOM      9  O   UNL     1      18.205   1.692  -2.994  1.00  0.00    -0.550 OA
ENDBRANCH   6   7
ENDBRANCH   5   6
ENDBRANCH   4   5
ENDBRANCH   3   4
ENDBRANCH   2   3
ENDBRANCH   1   2
BRANCH   1  10
ATOM     10  C   UNL     1      10.808   5.882  -0.495  1.00  0.00     0.000 C 
BRANCH  10  11
ATOM     11  C   UNL     1      10.279   6.440  -1.825  1.00  0.00    -0.000 C 
BRANCH  11  12
ATOM     12  C   UNL     1      10.434   7.967  -1.933  1.00  0.00    -0.000 C 
BRANCH  12  13
ATOM     13  C   UNL     1      11.507   8.379  -2.956  1.00  0.00    -0.000 C 
BRANCH  13  14
ATOM     14  C   UNL     1      12.926   8.350  -2.363  1.00  0.00    -0.000 C 
BRANCH  14  15
ATOM     15  C   UNL     1      13.660   9.691  -2.518  1.00  0.00    -0.003 C 
ATOM     16  C   UNL     1      15.164   9.517  -2.330  1.00  0.00     0.004 C 
ENDBRANCH  14  15
ENDBRANCH  13  14
ENDBRANCH  12  13
ENDBRANCH  11  12
ENDBRANCH  10  11
ENDBRANCH   1  10
TORSDOF 12
ENDMDL
MODEL 6
REMARK VINA RESULT:    -3.597      2.913      5.352
REMARK INTER + INTRA:          -6.686
REMARK INTER:                  -5.875
REMARK INTRA:                  -0.811
REMARK UNBOUND:                -0.565
REMARK SMILES CCCCCCCCCCCCCC(=O)[O-]
REMARK SMILES IDX 8 1 9 2 10 3 11 4 12 5 13 6 14 7 15 8 16 9 7 10 6 11 5 12
REMARK SMILES IDX 4 13 3 14 2 15 1 16
REMARK H PARENT
REMARK Flexibility Score: inf
ROOT
ATOM      1  C   UNL     1      10.819   6.585  -0.414  1.00  0.00     0.000 C 
ENDROOT
BRANCH   1   2
ATOM      2  C   UNL     1       9.750   7.008  -1.429  1.00  0.00     0.000 C 
BRANCH   2   3
ATOM      3  C   UNL     1      10.118   8.339  -2.094  1.00  0.00     0.000 C 
BRANCH   3   4
ATOM      4  C   UNL     1      11.549   8.760  -1.723  1.00  0.00     0.000 C 
BRANCH   4   5
ATOM      5  C   UNL     1      11.671  10.268  -1.453  1.00  0.00     0.006 C 
BRANCH   5   6
ATOM      6  C   UNL     1      10.318  10.989  -1.498  1.00  0.00     0.053 C 
BRANCH   6   7
ATOM      7  C   UNL     1      10.415  12.324  -0.830  1.00  0.00     0.041 C 
ATOM      8  O   UNL     1       9.393  12.852  -0.317  1.00  0.00    -0.550 OA
ATOM      9  O   UNL     1      11.624  13.008  -0.817  1.00  0.00    -0.550 OA
ENDBRANCH   6   7
ENDBRANCH   5   6
ENDBRANCH   4   5
ENDBRANCH   3   4
ENDBRANCH   2   3
ENDBRANCH   1   2
BRANCH   1  10
ATOM     10  C   UNL     1      11.143   5.091  -0.545  1.00  0.00     0.000 C 
BRANCH  10  11
ATOM     11  C   UNL     1      10.819   4.580  -1.957  1.00  0.00    -0.000 C 
BRANCH  11  12
ATOM     12  C   UNL     1      11.992   3.820  -2.598  1.00  0.00    -0.000 C 
BRANCH  12  13
ATOM     13  C   UNL     1      13.303   3.986  -1.810  1.00  0.00    -0.000 C 
BRANCH  13  14
ATOM     14  C   UNL     1      14.440   3.113  -2.367  1.00  0.00    -0.000 C 
BRANCH  14  15
ATOM     15  C   UNL     1      15.501   2.775  -1.310  1.00  0.00    -0.003 C 
ATOM     16  C   UNL     1      16.667   2.009  -1.928  1.00  0.00     0.004 C 
ENDBRANCH  14  15
ENDBRANCH  13  14
ENDBRANCH  12  13
ENDBRANCH  11  12
ENDBRANCH  10  11
ENDBRANCH   1  10
TORSDOF 12
ENDMDL
MODEL 7
REMARK VINA RESULT:    -3.573      4.001      9.013
REMARK INTER + INTRA:          -6.644
REMARK INTER:                  -5.805
REMARK INTRA:                  -0.840
REMARK UNBOUND:                -0.565
REMARK SMILES CCCCCCCCCCCCCC(=O)[O-]
REMARK SMILES IDX 8 1 9 2 10 3 11 4 12 5 13 6 14 7 15 8 16 9 7 10 6 11 5 12
REMARK SMILES IDX 4 13 3 14 2 15 1 16
REMARK H PARENT
REMARK Flexibility Score: inf
ROOT
ATOM      1  C   UNL     1      10.813   6.499  -0.497  1.00  0.00     0.000 C 
ENDROOT
BRANCH   1   2
ATOM      2  C   UNL     1      11.007   5.000  -0.758  1.00  0.00     0.000 C 
BRANCH   2   3
ATOM      3  C   UNL     1      12.495   4.650  -0.874  1.00  0.00     0.000 C 
BRANCH   3   4
ATOM      4  C   UNL     1      12.937   4.614  -2.345  1.00  0.00     0.000 C 
BRANCH   4   5
ATOM      5  C   UNL     1      14.025   3.561  -2.611  1.00  0.00     0.006 C 
BRANCH   5   6
ATOM      6  C   UNL     1      14.771   3.146  -1.336  1.00  0.00     0.053 C 
BRANCH   6   7
ATOM      7  C   UNL     1      15.797   2.103  -1.648  1.00  0.00     0.041 C 
ATOM      8  O   UNL     1      17.021   2.399  -1.649  1.00  0.00    -0.550 OA
ATOM      9  O   UNL     1      15.400   0.816  -1.987  1.00  0.00    -0.550 OA
ENDBRANCH   6   7
ENDBRANCH   5   6
ENDBRANCH   4   5
ENDBRANCH   3   4
ENDBRANCH   2   3
ENDBRANCH   1   2
BRANCH   1  10
ATOM     10  C   UNL     1       9.749   7.088  -1.431  1.00  0.00     0.000 C 
BRANCH  10  11
ATOM     11  C   UNL     1      10.384   8.039  -2.457  1.00  0.00    -0.000 C 
BRANCH  11  12
ATOM     12  C   UNL     1      11.752   8.576  -2.003  1.00  0.00    -0.000 C 
BRANCH  12  13
ATOM     13  C   UNL     1      11.717  10.079  -1.677  1.00  0.00    -0.000 C 
BRANCH  13  14
ATOM     14  C   UNL     1      10.285  10.639  -1.635  1.00  0.00    -0.000 C 
BRANCH  14  15
ATOM     15  C   UNL     1      10.246  12.145  -1.337  1.00  0.00    -0.003 C 
ATOM     16  C   UNL     1      11.155  12.496  -0.162  1.00  0.00     0.004 C 
ENDBRANCH  14  15
ENDBRANCH  13  14
ENDBRANCH  12  13
ENDBRANCH  11  12
ENDBRANCH  10  11
ENDBRANCH   1  10
TORSDOF 12
ENDMDL
MODEL 8
REMARK VINA RESULT:    -3.513      1.299      2.143
REMARK INTER + INTRA:          -6.544
REMARK INTER:                  -5.925
REMARK INTRA:                  -0.618
REMARK UNBOUND:                -0.565
REMARK SMILES CCCCCCCCCCCCCC(=O)[O-]
REMARK SMILES IDX 8 1 9 2 10 3 11 4 12 5 13 6 14 7 15 8 16 9 7 10 6 11 5 12
REMARK SMILES IDX 4 13 3 14 2 15 1 16
REMARK H PARENT
REMARK Flexibility Score: inf
ROOT
ATOM      1  C   UNL     1      13.049   4.149  -1.788  1.00  0.00     0.000 C 
ENDROOT
BRANCH   1   2
ATOM      2  C   UNL     1      12.589   4.719  -0.440  1.00  0.00     0.000 C 
BRANCH   2   3
ATOM      3  C   UNL     1      11.123   5.163  -0.502  1.00  0.00     0.000 C 
BRANCH   3   4
ATOM      4  C   UNL     1      10.521   4.877  -1.887  1.00  0.00     0.000 C 
BRANCH   4   5
ATOM      5  C   UNL     1       9.760   6.081  -2.462  1.00  0.00     0.006 C 
BRANCH   5   6
ATOM      6  C   UNL     1       9.480   7.162  -1.409  1.00  0.00     0.053 C 
BRANCH   6   7
ATOM      7  C   UNL     1      10.118   8.456  -1.806  1.00  0.00     0.041 C 
ATOM      8  O   UNL     1      11.363   8.519  -1.988  1.00  0.00    -0.550 OA
ATOM      9  O   UNL     1       9.346   9.603  -1.929  1.00  0.00    -0.550 OA
ENDBRANCH   6   7
ENDBRANCH   5   6
ENDBRANCH   4   5
ENDBRANCH   3   4
ENDBRANCH   2   3
ENDBRANCH   1   2
BRANCH   1  10
ATOM     10  C   UNL     1      14.439   3.512  -1.671  1.00  0.00     0.000 C 
BRANCH  10  11
ATOM     11  C   UNL     1      14.524   2.224  -2.504  1.00  0.00    -0.000 C 
BRANCH  11  12
ATOM     12  C   UNL     1      15.398   1.144  -1.842  1.00  0.00    -0.000 C 
BRANCH  12  13
ATOM     13  C   UNL     1      16.511   0.635  -2.774  1.00  0.00    -0.000 C 
BRANCH  13  14
ATOM     14  C   UNL     1      17.693   1.615  -2.868  1.00  0.00    -0.000 C 
BRANCH  14  15
ATOM     15  C   UNL     1      19.053   0.921  -2.696  1.00  0.00    -0.003 C 
ATOM     16  C   UNL     1      20.198   1.925  -2.804  1.00  0.00     0.004 C 
ENDBRANCH  14  15
ENDBRANCH  13  14
ENDBRANCH  12  13
ENDBRANCH  11  12
ENDBRANCH  10  11
ENDBRANCH   1  10
TORSDOF 12
ENDMDL
MODEL 9
REMARK VINA RESULT:    -3.456      2.676      3.254
REMARK INTER + INTRA:          -6.445
REMARK INTER:                  -5.891
REMARK INTRA:                  -0.554
REMARK UNBOUND:                -0.565
REMARK SMILES CCCCCCCCCCCCCC(=O)[O-]
REMARK SMILES IDX 8 1 9 2 10 3 11 4 12 5 13 6 14 7 15 8 16 9 7 10 6 11 5 12
REMARK SMILES IDX 4 13 3 14 2 15 1 16
REMARK H PARENT
REMARK Flexibility Score: inf
ROOT
ATOM      1  C   UNL     1      13.379   4.543  -1.605  1.00  0.00     0.000 C 
ENDROOT
BRANCH   1   2
ATOM      2  C   UNL     1      12.310   4.681  -0.513  1.00  0.00     0.000 C 
BRANCH   2   3
ATOM      3  C   UNL     1      11.340   5.823  -0.835  1.00  0.00     0.000 C 
BRANCH   3   4
ATOM      4  C   UNL     1      11.610   6.395  -2.235  1.00  0.00     0.000 C 
BRANCH   4   5
ATOM      5  C   UNL     1      11.972   7.888  -2.205  1.00  0.00     0.006 C 
BRANCH   5   6
ATOM      6  C   UNL     1      13.358   8.173  -2.800  1.00  0.00     0.053 C 
BRANCH   6   7
ATOM      7  C   UNL     1      13.840   9.524  -2.376  1.00  0.00     0.041 C 
ATOM      8  O   UNL     1      13.048  10.503  -2.360  1.00  0.00    -0.550 OA
ATOM      9  O   UNL     1      15.175   9.713  -2.045  1.00  0.00    -0.550 OA
ENDBRANCH   6   7
ENDBRANCH   5   6
ENDBRANCH   4   5
ENDBRANCH   3   4
ENDBRANCH   2   3
ENDBRANCH   1   2
BRANCH   1  10
ATOM     10  C   UNL     1      14.472   3.553  -1.185  1.00  0.00     0.000 C 
BRANCH  10  11
ATOM     11  C   UNL     1      14.677   2.473  -2.257  1.00  0.00    -0.000 C 
BRANCH  11  12
ATOM     12  C   UNL     1      15.517   1.287  -1.754  1.00  0.00    -0.000 C 
BRANCH  12  13
ATOM     13  C   UNL     1      16.541   0.806  -2.797  1.00  0.00    -0.000 C 
BRANCH  13  14
ATOM     14  C   UNL     1      17.845   1.621  -2.760  1.00  0.00    -0.000 C 
BRANCH  14  15
ATOM     15  C   UNL     1      19.099   0.735  -2.813  1.00  0.00    -0.003 C 
ATOM     16  C   UNL     1      20.363   1.560  -2.584  1.00  0.00     0.004 C 
ENDBRANCH  14  15
ENDBRANCH  13  14
ENDBRANCH  12  13
ENDBRANCH  11  12
ENDBRANCH  10  11
ENDBRANCH   1  10
TORSDOF 12
ENDMDL
