MODEL 1
REMARK VINA RESULT:    45.653      0.000      0.000
REMARK INTER + INTRA:          55.447
REMARK INTER:                  54.994
REMARK INTRA:                   0.453
REMARK UNBOUND:                 0.453
REMARK SMILES O=c1c(O)c(-c2ccc(O)c(O)c2)oc2cc(O)cc(O)c12
REMARK SMILES IDX 5 1 3 2 2 3 1 4 22 5 20 6 19 7 17 8 16 9 15 10 14 11 6 12
REMARK SMILES IDX 7 13 8 14 9 15 13 16 11 17 10 18 12 20 4 22 21 24 18 26
REMARK H PARENT 10 19 12 21 4 23 21 25 18 27
REMARK Flexibility Score: inf
ROOT
ATOM      1  C   UNL     1     -33.921  40.559 -22.320  1.00  0.00     0.180 A 
ATOM      2  C   UNL     1     -33.779  40.480 -23.716  1.00  0.00     0.208 A 
ATOM      3  C   UNL     1     -32.497  40.600 -24.279  1.00  0.00     0.238 A 
ATOM      4  O   UNL     1     -32.370  40.473 -25.524  1.00  0.00    -0.285 OA
ATOM      5  C   UNL     1     -31.378  40.814 -23.440  1.00  0.00     0.111 A 
ATOM      6  C   UNL     1     -30.040  40.990 -23.903  1.00  0.00     0.134 A 
ATOM      7  C   UNL     1     -28.991  41.063 -22.977  1.00  0.00     0.093 A 
ATOM      8  C   UNL     1     -29.242  41.034 -21.603  1.00  0.00     0.123 A 
ATOM      9  C   UNL     1     -30.550  40.922 -21.140  1.00  0.00     0.094 A 
ATOM     10  C   UNL     1     -31.613  40.810 -22.040  1.00  0.00     0.146 A 
ATOM     11  O   UNL     1     -32.843  40.695 -21.556  1.00  0.00    -0.452 OA
ENDROOT
BRANCH   1  12
ATOM     12  C   UNL     1     -35.241  40.467 -21.657  1.00  0.00     0.025 A 
ATOM     13  C   UNL     1     -36.393  40.097 -22.369  1.00  0.00     0.016 A 
ATOM     14  C   UNL     1     -37.632  40.042 -21.726  1.00  0.00     0.051 A 
ATOM     15  C   UNL     1     -37.749  40.364 -20.370  1.00  0.00     0.157 A 
ATOM     16  C   UNL     1     -35.360  40.813 -20.301  1.00  0.00     0.062 A 
ATOM     17  C   UNL     1     -36.598  40.759 -19.649  1.00  0.00     0.158 A 
BRANCH  15  18
ATOM     18  O   UNL     1     -39.015  40.283 -19.787  1.00  0.00    -0.504 OA
ATOM     19  H   UNL     1     -39.387  39.447 -19.358  1.00  0.00     0.293 HD
ENDBRANCH  15  18
BRANCH  17  20
ATOM     20  O   UNL     1     -36.637  41.104 -18.296  1.00  0.00    -0.504 OA
ATOM     21  H   UNL     1     -35.825  41.370 -17.757  1.00  0.00     0.293 HD
ENDBRANCH  17  20
ENDBRANCH   1  12
BRANCH   2  22
ATOM     22  O   UNL     1     -34.894  40.246 -24.525  1.00  0.00    -0.502 OA
ATOM     23  H   UNL     1     -35.620  40.938 -24.664  1.00  0.00     0.293 HD
ENDBRANCH   2  22
BRANCH   6  24
ATOM     24  O   UNL     1     -29.692  41.124 -25.251  1.00  0.00    -0.507 OA
ATOM     25  H   UNL     1     -29.613  40.358 -25.903  1.00  0.00     0.293 HD
ENDBRANCH   6  24
BRANCH   8  26
ATOM     26  O   UNL     1     -28.195  41.125 -20.688  1.00  0.00    -0.508 OA
ATOM     27  H   UNL     1     -27.751  42.011 -20.477  1.00  0.00     0.293 HD
ENDBRANCH   8  26
TORSDOF 6
ENDMDL
