MODEL 1
REMARK VINA RESULT:    -7.495      0.000      0.000
REMARK INTER + INTRA:         -13.543
REMARK INTER:                 -12.314
REMARK INTRA:                  -1.229
REMARK UNBOUND:                -1.229
REMARK SMILES C[C@@H]1O[C@@H](OC[C@@H]2O[C@@H](Oc3c(-c4ccc(O)c(O)c4)oc4cc(O)cc(O)c4c3=O)[C@@H](O)[C@@H](O)[C@@H]2O)[C@@H](O)[C@H](O)[C@@H]1O
REMARK SMILES IDX 7 1 36 2 34 3 32 4 9 5 8 6 6 7 5 8 4 9 1 10 2 11 42 12 3 13
REMARK SMILES IDX 40 14 38 15 43 16 41 18 39 20 37 22 35 24 10 26 11 27 12 28
REMARK SMILES IDX 30 29 21 30 29 31 31 32 22 33 27 34 23 35 26 36 24 37 13 38
REMARK SMILES IDX 20 39 14 40 18 41 15 42 16 43 19 44 17 46 28 48 25 50 33 52
REMARK H PARENT 43 17 41 19 39 21 37 23 35 25 19 45 17 47 28 49 25 51 33 53
REMARK Flexibility Score: inf
ROOT
ATOM      1  C   UNL     1     145.150 149.269 151.138  1.00  0.00     0.180 C 
ATOM      2  C   UNL     1     145.101 150.344 152.257  1.00  0.00     0.177 C 
ATOM      3  C   UNL     1     146.162 149.991 153.335  1.00  0.00     0.180 C 
ATOM      4  C   UNL     1     147.577 149.885 152.741  1.00  0.00     0.214 C 
ATOM      5  C   UNL     1     147.625 149.068 151.416  1.00  0.00     0.339 C 
ATOM      6  O   UNL     1     146.488 149.237 150.532  1.00  0.00    -0.332 OA
ENDROOT
BRANCH   1   7
ATOM      7  C   UNL     1     144.451 147.895 151.566  1.00  0.00     0.198 C 
BRANCH   7   8
ATOM      8  O   UNL     1     143.139 147.740 151.066  1.00  0.00    -0.347 OA
BRANCH   8   9
ATOM      9  C   UNL     1     142.666 146.436 150.630  1.00  0.00     0.281 C 
ATOM     10  C   UNL     1     141.875 143.518 150.327  1.00  0.00     0.041 C 
ATOM     11  C   UNL     1     143.330 144.145 150.258  1.00  0.00     0.150 C 
ATOM     12  C   UNL     1     143.807 144.373 148.761  1.00  0.00     0.174 C 
ATOM     13  O   UNL     1     143.465 145.337 151.035  1.00  0.00    -0.344 OA
ATOM     14  C   UNL     1     143.493 145.795 148.316  1.00  0.00     0.179 C 
ATOM     15  C   UNL     1     142.252 146.314 149.126  1.00  0.00     0.202 C 
BRANCH  12  16
ATOM     16  O   UNL     1     143.236 143.532 147.804  1.00  0.00    -0.388 OA
ATOM     17  H   UNL     1     143.387 143.956 146.887  1.00  0.00     0.211 HD
ENDBRANCH  12  16
BRANCH  14  18
ATOM     18  O   UNL     1     143.325 145.976 146.891  1.00  0.00    -0.387 OA
ATOM     19  H   UNL     1     144.066 145.507 146.389  1.00  0.00     0.211 HD
ENDBRANCH  14  18
BRANCH  15  20
ATOM     20  O   UNL     1     141.876 147.624 148.903  1.00  0.00    -0.385 OA
ATOM     21  H   UNL     1     142.436 147.860 148.177  1.00  0.00     0.211 HD
ENDBRANCH  15  20
ENDBRANCH   8   9
ENDBRANCH   7   8
ENDBRANCH   1   7
BRANCH   2  22
ATOM     22  O   UNL     1     143.771 150.418 152.802  1.00  0.00    -0.387 OA
ATOM     23  H   UNL     1     143.575 151.315 153.115  1.00  0.00     0.211 HD
ENDBRANCH   2  22
BRANCH   3  24
ATOM     24  O   UNL     1     146.187 150.886 154.401  1.00  0.00    -0.387 OA
ATOM     25  H   UNL     1     145.249 151.277 154.474  1.00  0.00     0.211 HD
ENDBRANCH   3  24
BRANCH   5  26
ATOM     26  O   UNL     1     148.919 149.225 150.770  1.00  0.00    -0.454 OA
BRANCH  26  27
ATOM     27  C   UNL     1     149.341 148.108 150.060  1.00  0.00     0.214 A 
ATOM     28  C   UNL     1     150.741 148.173 149.932  1.00  0.00     0.180 A 
ATOM     29  C   UNL     1     148.655 147.128 149.181  1.00  0.00     0.239 A 
ATOM     30  O   UNL     1     151.403 147.107 149.480  1.00  0.00    -0.452 OA
ATOM     31  C   UNL     1     149.426 146.402 148.252  1.00  0.00     0.111 A 
ATOM     32  O   UNL     1     147.406 147.094 149.009  1.00  0.00    -0.285 OA
ATOM     33  C   UNL     1     150.856 146.405 148.503  1.00  0.00     0.146 A 
ATOM     34  C   UNL     1     148.809 146.384 146.522  1.00  0.00     0.134 A 
ATOM     35  C   UNL     1     151.647 145.924 147.518  1.00  0.00     0.094 A 
ATOM     36  C   UNL     1     149.448 145.371 146.618  1.00  0.00     0.093 A 
ATOM     37  C   UNL     1     150.926 145.260 146.547  1.00  0.00     0.123 A 
BRANCH  28  38
ATOM     38  C   UNL     1     151.661 149.354 149.702  1.00  0.00     0.025 A 
ATOM     39  C   UNL     1     152.664 149.404 148.638  1.00  0.00     0.062 A 
ATOM     40  C   UNL     1     152.026 150.061 150.895  1.00  0.00     0.016 A 
ATOM     41  C   UNL     1     153.927 149.906 148.816  1.00  0.00     0.158 A 
ATOM     42  C   UNL     1     153.218 150.776 151.006  1.00  0.00     0.051 A 
ATOM     43  C   UNL     1     154.222 150.642 149.998  1.00  0.00     0.157 A 
BRANCH  41  44
ATOM     44  O   UNL     1     154.895 149.518 147.807  1.00  0.00    -0.504 OA
ATOM     45  H   UNL     1     155.841 149.137 147.933  1.00  0.00     0.293 HD
ENDBRANCH  41  44
BRANCH  43  46
ATOM     46  O   UNL     1     155.385 151.365 150.167  1.00  0.00    -0.504 OA
ATOM     47  H   UNL     1     156.339 150.944 150.086  1.00  0.00     0.293 HD
ENDBRANCH  43  46
ENDBRANCH  28  38
BRANCH  34  48
ATOM     48  O   UNL     1     149.151 145.831 145.023  1.00  0.00    -0.507 OA
ATOM     49  H   UNL     1     148.949 146.492 144.233  1.00  0.00     0.293 HD
ENDBRANCH  34  48
BRANCH  37  50
ATOM     50  O   UNL     1     151.514 144.411 145.643  1.00  0.00    -0.508 OA
ATOM     51  H   UNL     1     151.301 144.434 144.657  1.00  0.00     0.293 HD
ENDBRANCH  37  50
ENDBRANCH  26  27
ENDBRANCH   5  26
BRANCH   4  52
ATOM     52  O   UNL     1     148.158 151.130 152.572  1.00  0.00    -0.384 OA
ATOM     53  H   UNL     1     147.449 151.713 152.253  1.00  0.00     0.211 HD
ENDBRANCH   4  52
TORSDOF 16
ENDMDL
