MODEL 1
REMARK VINA RESULT:    -3.339      0.000      0.000
REMARK INTER + INTRA:          -7.074
REMARK INTER:                  -5.682
REMARK INTRA:                  -1.392
REMARK UNBOUND:                -1.392
REMARK SMILES CCCCCCCCCCCCCC(=O)[O-]
REMARK SMILES IDX 8 1 9 2 10 3 11 4 12 5 13 6 14 7 15 8 16 9 7 10 6 11 5 12
REMARK SMILES IDX 4 13 3 14 2 15 1 16
REMARK H PARENT
REMARK Flexibility Score: inf
ROOT
ATOM      1  C   UNL     1       5.245  25.039   8.483  1.00  0.00     0.000 C 
ENDROOT
BRANCH   1   2
ATOM      2  C   UNL     1       4.476  23.875   9.129  1.00  0.00     0.000 C 
BRANCH   2   3
ATOM      3  C   UNL     1       3.946  24.226  10.530  1.00  0.00     0.000 C 
BRANCH   3   4
ATOM      4  C   UNL     1       4.999  24.009  11.630  1.00  0.00     0.000 C 
BRANCH   4   5
ATOM      5  C   UNL     1       4.398  24.051  13.044  1.00  0.00     0.006 C 
BRANCH   5   6
ATOM      6  C   UNL     1       4.003  25.480  13.428  1.00  0.00     0.053 C 
BRANCH   6   7
ATOM      7  C   UNL     1       2.569  25.530  13.853  1.00  0.00     0.041 C 
ATOM      8  O   UNL     1       1.650  25.374  13.006  1.00  0.00    -0.550 OA
ATOM      9  O   UNL     1       2.248  25.699  15.194  1.00  0.00    -0.550 OA
ENDBRANCH   6   7
ENDBRANCH   5   6
ENDBRANCH   4   5
ENDBRANCH   3   4
ENDBRANCH   2   3
ENDBRANCH   1   2
BRANCH   1  10
ATOM     10  C   UNL     1       4.800  25.312   7.035  1.00  0.00     0.000 C 
BRANCH  10  11
ATOM     11  C   UNL     1       4.428  24.028   6.277  1.00  0.00    -0.000 C 
BRANCH  11  12
ATOM     12  C   UNL     1       3.104  24.160   5.505  1.00  0.00    -0.000 C 
BRANCH  12  13
ATOM     13  C   UNL     1       2.300  25.402   5.921  1.00  0.00    -0.000 C 
BRANCH  13  14
ATOM     14  C   UNL     1       0.897  25.052   6.448  1.00  0.00    -0.000 C 
BRANCH  14  15
ATOM     15  C   UNL     1       0.902  24.703   7.945  1.00  0.00    -0.003 C 
ATOM     16  C   UNL     1       1.196  25.913   8.831  1.00  0.00     0.004 C 
ENDBRANCH  14  15
ENDBRANCH  13  14
ENDBRANCH  12  13
ENDBRANCH  11  12
ENDBRANCH  10  11
ENDBRANCH   1  10
TORSDOF 12
ENDMDL
MODEL 2
REMARK VINA RESULT:    -3.251      1.070      2.354
REMARK INTER + INTRA:          -6.924
REMARK INTER:                  -5.842
REMARK INTRA:                  -1.082
REMARK UNBOUND:                -1.392
REMARK SMILES CCCCCCCCCCCCCC(=O)[O-]
REMARK SMILES IDX 8 1 9 2 10 3 11 4 12 5 13 6 14 7 15 8 16 9 7 10 6 11 5 12
REMARK SMILES IDX 4 13 3 14 2 15 1 16
REMARK H PARENT
REMARK Flexibility Score: inf
ROOT
ATOM      1  C   UNL     1       3.665  24.482  10.724  1.00  0.00     0.000 C 
ENDROOT
BRANCH   1   2
ATOM      2  C   UNL     1       4.755  23.925  11.653  1.00  0.00     0.000 C 
BRANCH   2   3
ATOM      3  C   UNL     1       4.458  24.196  13.138  1.00  0.00     0.000 C 
BRANCH   3   4
ATOM      4  C   UNL     1       4.243  25.689  13.434  1.00  0.00     0.000 C 
BRANCH   4   5
ATOM      5  C   UNL     1       2.903  25.971  14.129  1.00  0.00     0.006 C 
BRANCH   5   6
ATOM      6  C   UNL     1       2.199  24.664  14.510  1.00  0.00     0.053 C 
BRANCH   6   7
ATOM      7  C   UNL     1       0.799  24.652  13.985  1.00  0.00     0.041 C 
ATOM      8  O   UNL     1      -0.175  24.547  14.778  1.00  0.00    -0.550 OA
ATOM      9  O   UNL     1       0.565  24.805  12.625  1.00  0.00    -0.550 OA
ENDBRANCH   6   7
ENDBRANCH   5   6
ENDBRANCH   4   5
ENDBRANCH   3   4
ENDBRANCH   2   3
ENDBRANCH   1   2
BRANCH   1  10
ATOM     10  C   UNL     1       3.860  24.056   9.258  1.00  0.00     0.000 C 
BRANCH  10  11
ATOM     11  C   UNL     1       4.875  24.938   8.514  1.00  0.00    -0.000 C 
BRANCH  11  12
ATOM     12  C   UNL     1       4.566  25.055   7.011  1.00  0.00    -0.000 C 
BRANCH  12  13
ATOM     13  C   UNL     1       3.155  24.559   6.658  1.00  0.00    -0.000 C 
BRANCH  13  14
ATOM     14  C   UNL     1       2.327  25.614   5.902  1.00  0.00    -0.000 C 
BRANCH  14  15
ATOM     15  C   UNL     1       0.954  25.857   6.548  1.00  0.00    -0.003 C 
ATOM     16  C   UNL     1       1.025  25.931   8.073  1.00  0.00     0.004 C 
ENDBRANCH  14  15
ENDBRANCH  13  14
ENDBRANCH  12  13
ENDBRANCH  11  12
ENDBRANCH  10  11
ENDBRANCH   1  10
TORSDOF 12
ENDMDL
MODEL 3
REMARK VINA RESULT:    -3.236      1.132      2.998
REMARK INTER + INTRA:          -6.897
REMARK INTER:                  -5.601
REMARK INTRA:                  -1.296
REMARK UNBOUND:                -1.392
REMARK SMILES CCCCCCCCCCCCCC(=O)[O-]
REMARK SMILES IDX 8 1 9 2 10 3 11 4 12 5 13 6 14 7 15 8 16 9 7 10 6 11 5 12
REMARK SMILES IDX 4 13 3 14 2 15 1 16
REMARK H PARENT
REMARK Flexibility Score: inf
ROOT
ATOM      1  C   UNL     1       0.784  24.983  10.000  1.00  0.00     0.000 C 
ENDROOT
BRANCH   1   2
ATOM      2  C   UNL     1       2.205  25.562  10.091  1.00  0.00     0.000 C 
BRANCH   2   3
ATOM      3  C   UNL     1       3.234  24.524  10.573  1.00  0.00     0.000 C 
BRANCH   3   4
ATOM      4  C   UNL     1       3.472  24.590  12.090  1.00  0.00     0.000 C 
BRANCH   4   5
ATOM      5  C   UNL     1       3.092  25.951  12.693  1.00  0.00     0.006 C 
BRANCH   5   6
ATOM      6  C   UNL     1       2.922  25.848  14.212  1.00  0.00     0.053 C 
BRANCH   6   7
ATOM      7  C   UNL     1       1.516  25.472  14.557  1.00  0.00     0.041 C 
ATOM      8  O   UNL     1       1.220  25.133  15.733  1.00  0.00    -0.550 OA
ATOM      9  O   UNL     1       0.521  25.543  13.591  1.00  0.00    -0.550 OA
ENDBRANCH   6   7
ENDBRANCH   5   6
ENDBRANCH   4   5
ENDBRANCH   3   4
ENDBRANCH   2   3
ENDBRANCH   1   2
BRANCH   1  10
ATOM     10  C   UNL     1       0.114  25.267   8.644  1.00  0.00     0.000 C 
BRANCH  10  11
ATOM     11  C   UNL     1       1.031  26.034   7.678  1.00  0.00    -0.000 C 
BRANCH  11  12
ATOM     12  C   UNL     1       1.281  25.269   6.367  1.00  0.00    -0.000 C 
BRANCH  12  13
ATOM     13  C   UNL     1       2.751  25.328   5.921  1.00  0.00    -0.000 C 
BRANCH  13  14
ATOM     14  C   UNL     1       3.448  23.957   5.994  1.00  0.00    -0.000 C 
BRANCH  14  15
ATOM     15  C   UNL     1       4.519  23.901   7.095  1.00  0.00    -0.003 C 
ATOM     16  C   UNL     1       5.039  25.284   7.483  1.00  0.00     0.004 C 
ENDBRANCH  14  15
ENDBRANCH  13  14
ENDBRANCH  12  13
ENDBRANCH  11  12
ENDBRANCH  10  11
ENDBRANCH   1  10
TORSDOF 12
ENDMDL
MODEL 4
REMARK VINA RESULT:    -3.224      1.688      3.086
REMARK INTER + INTRA:          -6.878
REMARK INTER:                  -5.586
REMARK INTRA:                  -1.291
REMARK UNBOUND:                -1.392
REMARK SMILES CCCCCCCCCCCCCC(=O)[O-]
REMARK SMILES IDX 8 1 9 2 10 3 11 4 12 5 13 6 14 7 15 8 16 9 7 10 6 11 5 12
REMARK SMILES IDX 4 13 3 14 2 15 1 16
REMARK H PARENT
REMARK Flexibility Score: inf
ROOT
ATOM      1  C   UNL     1       2.252  23.951  10.299  1.00  0.00     0.000 C 
ENDROOT
BRANCH   1   2
ATOM      2  C   UNL     1       0.997  24.636  10.864  1.00  0.00     0.000 C 
BRANCH   2   3
ATOM      3  C   UNL     1       0.605  24.096  12.250  1.00  0.00     0.000 C 
BRANCH   3   4
ATOM      4  C   UNL     1       0.374  25.217  13.277  1.00  0.00     0.000 C 
BRANCH   4   5
ATOM      5  C   UNL     1       1.342  25.141  14.468  1.00  0.00     0.006 C 
BRANCH   5   6
ATOM      6  C   UNL     1       2.637  24.423  14.075  1.00  0.00     0.053 C 
BRANCH   6   7
ATOM      7  C   UNL     1       3.667  25.411  13.626  1.00  0.00     0.041 C 
ATOM      8  O   UNL     1       4.858  25.046  13.438  1.00  0.00    -0.550 OA
ATOM      9  O   UNL     1       3.302  26.726  13.368  1.00  0.00    -0.550 OA
ENDBRANCH   6   7
ENDBRANCH   5   6
ENDBRANCH   4   5
ENDBRANCH   3   4
ENDBRANCH   2   3
ENDBRANCH   1   2
BRANCH   1  10
ATOM     10  C   UNL     1       3.392  24.945  10.014  1.00  0.00     0.000 C 
BRANCH  10  11
ATOM     11  C   UNL     1       4.515  24.330   9.163  1.00  0.00    -0.000 C 
BRANCH  11  12
ATOM     12  C   UNL     1       4.948  25.246   8.005  1.00  0.00    -0.000 C 
BRANCH  12  13
ATOM     13  C   UNL     1       4.580  24.670   6.628  1.00  0.00    -0.000 C 
BRANCH  13  14
ATOM     14  C   UNL     1       3.076  24.368   6.495  1.00  0.00    -0.000 C 
BRANCH  14  15
ATOM     15  C   UNL     1       2.250  25.626   6.181  1.00  0.00    -0.003 C 
ATOM     16  C   UNL     1       1.113  25.849   7.177  1.00  0.00     0.004 C 
ENDBRANCH  14  15
ENDBRANCH  13  14
ENDBRANCH  12  13
ENDBRANCH  11  12
ENDBRANCH  10  11
ENDBRANCH   1  10
TORSDOF 12
ENDMDL
MODEL 5
REMARK VINA RESULT:    -3.188      3.083      6.217
REMARK INTER + INTRA:          -6.817
REMARK INTER:                  -5.747
REMARK INTRA:                  -1.070
REMARK UNBOUND:                -1.392
REMARK SMILES CCCCCCCCCCCCCC(=O)[O-]
REMARK SMILES IDX 8 1 9 2 10 3 11 4 12 5 13 6 14 7 15 8 16 9 7 10 6 11 5 12
REMARK SMILES IDX 4 13 3 14 2 15 1 16
REMARK H PARENT
REMARK Flexibility Score: inf
ROOT
ATOM      1  C   UNL     1       5.263  25.236   8.232  1.00  0.00     0.000 C 
ENDROOT
BRANCH   1   2
ATOM      2  C   UNL     1       4.784  25.175   6.773  1.00  0.00     0.000 C 
BRANCH   2   3
ATOM      3  C   UNL     1       3.968  23.905   6.474  1.00  0.00     0.000 C 
BRANCH   3   4
ATOM      4  C   UNL     1       2.578  24.219   5.898  1.00  0.00     0.000 C 
BRANCH   4   5
ATOM      5  C   UNL     1       2.145  25.671   6.148  1.00  0.00     0.006 C 
BRANCH   5   6
ATOM      6  C   UNL     1       0.935  25.728   7.087  1.00  0.00     0.053 C 
BRANCH   6   7
ATOM      7  C   UNL     1      -0.282  26.179   6.344  1.00  0.00     0.041 C 
ATOM      8  O   UNL     1      -0.820  27.284   6.619  1.00  0.00    -0.550 OA
ATOM      9  O   UNL     1      -0.796  25.401   5.314  1.00  0.00    -0.550 OA
ENDBRANCH   6   7
ENDBRANCH   5   6
ENDBRANCH   4   5
ENDBRANCH   3   4
ENDBRANCH   2   3
ENDBRANCH   1   2
BRANCH   1  10
ATOM     10  C   UNL     1       4.429  24.343   9.168  1.00  0.00     0.000 C 
BRANCH  10  11
ATOM     11  C   UNL     1       3.299  25.112   9.871  1.00  0.00    -0.000 C 
BRANCH  11  12
ATOM     12  C   UNL     1       2.691  24.326  11.045  1.00  0.00    -0.000 C 
BRANCH  12  13
ATOM     13  C   UNL     1       3.396  24.618  12.379  1.00  0.00    -0.000 C 
BRANCH  13  14
ATOM     14  C   UNL     1       3.040  26.004  12.947  1.00  0.00    -0.000 C 
BRANCH  14  15
ATOM     15  C   UNL     1       2.825  25.977  14.469  1.00  0.00    -0.003 C 
ATOM     16  C   UNL     1       1.586  25.180  14.876  1.00  0.00     0.004 C 
ENDBRANCH  14  15
ENDBRANCH  13  14
ENDBRANCH  12  13
ENDBRANCH  11  12
ENDBRANCH  10  11
ENDBRANCH   1  10
TORSDOF 12
ENDMDL
MODEL 6
REMARK VINA RESULT:    -3.185      1.321      2.045
REMARK INTER + INTRA:          -6.811
REMARK INTER:                  -5.479
REMARK INTRA:                  -1.332
REMARK UNBOUND:                -1.392
REMARK SMILES CCCCCCCCCCCCCC(=O)[O-]
REMARK SMILES IDX 8 1 9 2 10 3 11 4 12 5 13 6 14 7 15 8 16 9 7 10 6 11 5 12
REMARK SMILES IDX 4 13 3 14 2 15 1 16
REMARK H PARENT
REMARK Flexibility Score: inf
ROOT
ATOM      1  C   UNL     1       4.877  23.943   9.125  1.00  0.00     0.000 C 
ENDROOT
BRANCH   1   2
ATOM      2  C   UNL     1       3.820  24.112  10.229  1.00  0.00     0.000 C 
BRANCH   2   3
ATOM      3  C   UNL     1       2.755  25.163   9.869  1.00  0.00     0.000 C 
BRANCH   3   4
ATOM      4  C   UNL     1       1.465  25.000  10.689  1.00  0.00     0.000 C 
BRANCH   4   5
ATOM      5  C   UNL     1       1.705  24.321  12.046  1.00  0.00     0.006 C 
BRANCH   5   6
ATOM      6  C   UNL     1       1.027  25.103  13.176  1.00  0.00     0.053 C 
BRANCH   6   7
ATOM      7  C   UNL     1       2.048  25.637  14.130  1.00  0.00     0.041 C 
ATOM      8  O   UNL     1       1.999  25.330  15.350  1.00  0.00    -0.550 OA
ATOM      9  O   UNL     1       3.084  26.436  13.663  1.00  0.00    -0.550 OA
ENDBRANCH   6   7
ENDBRANCH   5   6
ENDBRANCH   4   5
ENDBRANCH   3   4
ENDBRANCH   2   3
ENDBRANCH   1   2
BRANCH   1  10
ATOM     10  C   UNL     1       5.261  25.278   8.462  1.00  0.00     0.000 C 
BRANCH  10  11
ATOM     11  C   UNL     1       4.917  25.317   6.965  1.00  0.00    -0.000 C 
BRANCH  11  12
ATOM     12  C   UNL     1       4.302  23.999   6.466  1.00  0.00    -0.000 C 
BRANCH  12  13
ATOM     13  C   UNL     1       2.847  24.166   5.999  1.00  0.00    -0.000 C 
BRANCH  13  14
ATOM     14  C   UNL     1       2.344  25.615   6.134  1.00  0.00    -0.000 C 
BRANCH  14  15
ATOM     15  C   UNL     1       0.814  25.718   6.022  1.00  0.00    -0.003 C 
ATOM     16  C   UNL     1       0.153  26.127   7.338  1.00  0.00     0.004 C 
ENDBRANCH  14  15
ENDBRANCH  13  14
ENDBRANCH  12  13
ENDBRANCH  11  12
ENDBRANCH  10  11
ENDBRANCH   1  10
TORSDOF 12
ENDMDL
MODEL 7
REMARK VINA RESULT:    -3.103      1.345      3.010
REMARK INTER + INTRA:          -6.672
REMARK INTER:                  -5.362
REMARK INTRA:                  -1.310
REMARK UNBOUND:                -1.392
REMARK SMILES CCCCCCCCCCCCCC(=O)[O-]
REMARK SMILES IDX 8 1 9 2 10 3 11 4 12 5 13 6 14 7 15 8 16 9 7 10 6 11 5 12
REMARK SMILES IDX 4 13 3 14 2 15 1 16
REMARK H PARENT
REMARK Flexibility Score: inf
ROOT
ATOM      1  C   UNL     1       2.791  25.527  10.585  1.00  0.00     0.000 C 
ENDROOT
BRANCH   1   2
ATOM      2  C   UNL     1       3.353  24.193  11.103  1.00  0.00     0.000 C 
BRANCH   2   3
ATOM      3  C   UNL     1       4.499  24.388  12.110  1.00  0.00     0.000 C 
BRANCH   3   4
ATOM      4  C   UNL     1       4.062  25.176  13.357  1.00  0.00     0.000 C 
BRANCH   4   5
ATOM      5  C   UNL     1       3.028  24.419  14.205  1.00  0.00     0.006 C 
BRANCH   5   6
ATOM      6  C   UNL     1       2.050  25.392  14.871  1.00  0.00     0.053 C 
BRANCH   6   7
ATOM      7  C   UNL     1       0.638  24.970  14.618  1.00  0.00     0.041 C 
ATOM      8  O   UNL     1       0.025  24.265  15.463  1.00  0.00    -0.550 OA
ATOM      9  O   UNL     1      -0.019  25.396  13.471  1.00  0.00    -0.550 OA
ENDBRANCH   6   7
ENDBRANCH   5   6
ENDBRANCH   4   5
ENDBRANCH   3   4
ENDBRANCH   2   3
ENDBRANCH   1   2
BRANCH   1  10
ATOM     10  C   UNL     1       1.387  25.381   9.972  1.00  0.00     0.000 C 
BRANCH  10  11
ATOM     11  C   UNL     1       1.392  25.510   8.440  1.00  0.00    -0.000 C 
BRANCH  11  12
ATOM     12  C   UNL     1       1.865  24.224   7.742  1.00  0.00    -0.000 C 
BRANCH  12  13
ATOM     13  C   UNL     1       2.512  24.498   6.375  1.00  0.00    -0.000 C 
BRANCH  13  14
ATOM     14  C   UNL     1       3.879  25.198   6.496  1.00  0.00    -0.000 C 
BRANCH  14  15
ATOM     15  C   UNL     1       4.744  24.606   7.620  1.00  0.00    -0.003 C 
ATOM     16  C   UNL     1       5.743  25.614   8.187  1.00  0.00     0.004 C 
ENDBRANCH  14  15
ENDBRANCH  13  14
ENDBRANCH  12  13
ENDBRANCH  11  12
ENDBRANCH  10  11
ENDBRANCH   1  10
TORSDOF 12
ENDMDL
MODEL 8
REMARK VINA RESULT:    -3.096      2.613      5.943
REMARK INTER + INTRA:          -6.660
REMARK INTER:                  -5.528
REMARK INTRA:                  -1.132
REMARK UNBOUND:                -1.392
REMARK SMILES CCCCCCCCCCCCCC(=O)[O-]
REMARK SMILES IDX 8 1 9 2 10 3 11 4 12 5 13 6 14 7 15 8 16 9 7 10 6 11 5 12
REMARK SMILES IDX 4 13 3 14 2 15 1 16
REMARK H PARENT
REMARK Flexibility Score: inf
ROOT
ATOM      1  C   UNL     1       4.970  24.017  10.570  1.00  0.00     0.000 C 
ENDROOT
BRANCH   1   2
ATOM      2  C   UNL     1       4.477  23.992   9.115  1.00  0.00     0.000 C 
BRANCH   2   3
ATOM      3  C   UNL     1       5.180  25.041   8.236  1.00  0.00     0.000 C 
BRANCH   3   4
ATOM      4  C   UNL     1       4.562  25.145   6.832  1.00  0.00     0.000 C 
BRANCH   4   5
ATOM      5  C   UNL     1       3.112  24.641   6.782  1.00  0.00     0.006 C 
BRANCH   5   6
ATOM      6  C   UNL     1       2.240  25.565   5.926  1.00  0.00     0.053 C 
BRANCH   6   7
ATOM      7  C   UNL     1       0.913  25.787   6.580  1.00  0.00     0.041 C 
ATOM      8  O   UNL     1      -0.151  25.547   5.951  1.00  0.00    -0.550 OA
ATOM      9  O   UNL     1       0.852  26.211   7.901  1.00  0.00    -0.550 OA
ENDBRANCH   6   7
ENDBRANCH   5   6
ENDBRANCH   4   5
ENDBRANCH   3   4
ENDBRANCH   2   3
ENDBRANCH   1   2
BRANCH   1  10
ATOM     10  C   UNL     1       3.845  24.332  11.573  1.00  0.00     0.000 C 
BRANCH  10  11
ATOM     11  C   UNL     1       2.813  25.325  11.013  1.00  0.00    -0.000 C 
BRANCH  11  12
ATOM     12  C   UNL     1       1.375  24.786  11.088  1.00  0.00    -0.000 C 
BRANCH  12  13
ATOM     13  C   UNL     1       1.082  24.069  12.416  1.00  0.00    -0.000 C 
BRANCH  13  14
ATOM     14  C   UNL     1       0.496  25.012  13.482  1.00  0.00    -0.000 C 
BRANCH  14  15
ATOM     15  C   UNL     1       1.286  24.971  14.800  1.00  0.00    -0.003 C 
ATOM     16  C   UNL     1       2.580  25.781  14.737  1.00  0.00     0.004 C 
ENDBRANCH  14  15
ENDBRANCH  13  14
ENDBRANCH  12  13
ENDBRANCH  11  12
ENDBRANCH  10  11
ENDBRANCH   1  10
TORSDOF 12
ENDMDL
MODEL 9
REMARK VINA RESULT:    -3.043      1.814      3.491
REMARK INTER + INTRA:          -6.569
REMARK INTER:                  -5.362
REMARK INTRA:                  -1.207
REMARK UNBOUND:                -1.392
REMARK SMILES CCCCCCCCCCCCCC(=O)[O-]
REMARK SMILES IDX 8 1 9 2 10 3 11 4 12 5 13 6 14 7 15 8 16 9 7 10 6 11 5 12
REMARK SMILES IDX 4 13 3 14 2 15 1 16
REMARK H PARENT
REMARK Flexibility Score: inf
ROOT
ATOM      1  C   UNL     1       1.120  24.617  10.177  1.00  0.00     0.000 C 
ENDROOT
BRANCH   1   2
ATOM      2  C   UNL     1      -0.176  24.819  10.979  1.00  0.00     0.000 C 
BRANCH   2   3
ATOM      3  C   UNL     1      -0.258  23.894  12.206  1.00  0.00     0.000 C 
BRANCH   3   4
ATOM      4  C   UNL     1       0.966  24.025  13.126  1.00  0.00     0.000 C 
BRANCH   4   5
ATOM      5  C   UNL     1       0.960  25.326  13.943  1.00  0.00     0.006 C 
BRANCH   5   6
ATOM      6  C   UNL     1       2.327  25.571  14.590  1.00  0.00     0.053 C 
BRANCH   6   7
ATOM      7  C   UNL     1       3.374  25.772  13.541  1.00  0.00     0.041 C 
ATOM      8  O   UNL     1       3.298  26.746  12.746  1.00  0.00    -0.550 OA
ATOM      9  O   UNL     1       4.462  24.912  13.472  1.00  0.00    -0.550 OA
ENDBRANCH   6   7
ENDBRANCH   5   6
ENDBRANCH   4   5
ENDBRANCH   3   4
ENDBRANCH   2   3
ENDBRANCH   1   2
BRANCH   1  10
ATOM     10  C   UNL     1       1.489  25.846   9.326  1.00  0.00     0.000 C 
BRANCH  10  11
ATOM     11  C   UNL     1       0.982  25.739   7.879  1.00  0.00    -0.000 C 
BRANCH  11  12
ATOM     12  C   UNL     1       1.723  24.658   7.073  1.00  0.00    -0.000 C 
BRANCH  12  13
ATOM     13  C   UNL     1       2.760  25.251   6.105  1.00  0.00    -0.000 C 
BRANCH  13  14
ATOM     14  C   UNL     1       4.200  25.143   6.640  1.00  0.00    -0.000 C 
BRANCH  14  15
ATOM     15  C   UNL     1       4.345  24.060   7.720  1.00  0.00    -0.003 C 
ATOM     16  C   UNL     1       4.907  24.608   9.032  1.00  0.00     0.004 C 
ENDBRANCH  14  15
ENDBRANCH  13  14
ENDBRANCH  12  13
ENDBRANCH  11  12
ENDBRANCH  10  11
ENDBRANCH   1  10
TORSDOF 12
ENDMDL
