MODEL 1
REMARK VINA RESULT:    -6.415      0.000      0.000
REMARK INTER + INTRA:          -8.028
REMARK INTER:                  -7.727
REMARK INTRA:                  -0.301
REMARK UNBOUND:                -0.301
REMARK SMILES O=c1c(O)c(-c2ccc(O)c(O)c2)oc2cc(O)cc(O)c12
REMARK SMILES IDX 5 1 3 2 2 3 1 4 22 5 20 6 19 7 17 8 16 9 15 10 14 11 6 12
REMARK SMILES IDX 7 13 8 14 9 15 13 16 11 17 10 18 12 20 4 22 21 24 18 26
REMARK H PARENT 10 19 12 21 4 23 21 25 18 27
REMARK Flexibility Score: inf
ROOT
ATOM      1  C   UNL     1      -1.987   6.239  13.823  1.00  0.00     0.180 A 
ATOM      2  C   UNL     1      -0.721   6.439  14.402  1.00  0.00     0.208 A 
ATOM      3  C   UNL     1       0.173   7.333  13.790  1.00  0.00     0.238 A 
ATOM      4  O   UNL     1       1.283   7.550  14.342  1.00  0.00    -0.285 OA
ATOM      5  C   UNL     1      -0.203   8.002  12.599  1.00  0.00     0.111 A 
ATOM      6  C   UNL     1       0.639   8.897  11.873  1.00  0.00     0.134 A 
ATOM      7  C   UNL     1       0.118   9.602  10.782  1.00  0.00     0.093 A 
ATOM      8  C   UNL     1      -1.191   9.396  10.350  1.00  0.00     0.123 A 
ATOM      9  C   UNL     1      -2.005   8.478  11.016  1.00  0.00     0.094 A 
ATOM     10  C   UNL     1      -1.525   7.786  12.131  1.00  0.00     0.146 A 
ATOM     11  O   UNL     1      -2.333   6.930  12.743  1.00  0.00    -0.452 OA
ENDROOT
BRANCH   1  12
ATOM     12  C   UNL     1      -2.974   5.294  14.394  1.00  0.00     0.025 A 
ATOM     13  C   UNL     1      -3.056   3.989  13.884  1.00  0.00     0.016 A 
ATOM     14  C   UNL     1      -3.965   3.075  14.421  1.00  0.00     0.051 A 
ATOM     15  C   UNL     1      -4.794   3.444  15.484  1.00  0.00     0.157 A 
ATOM     16  C   UNL     1      -3.795   5.658  15.477  1.00  0.00     0.062 A 
ATOM     17  C   UNL     1      -4.706   4.740  16.020  1.00  0.00     0.158 A 
BRANCH  15  18
ATOM     18  O   UNL     1      -5.694   2.511  15.998  1.00  0.00    -0.504 OA
ATOM     19  H   UNL     1      -5.978   1.691  15.474  1.00  0.00     0.293 HD
ENDBRANCH  15  18
BRANCH  17  20
ATOM     20  O   UNL     1      -5.520   5.111  17.089  1.00  0.00    -0.504 OA
ATOM     21  H   UNL     1      -6.372   4.606  17.307  1.00  0.00     0.293 HD
ENDBRANCH  17  20
ENDBRANCH   1  12
BRANCH   2  22
ATOM     22  O   UNL     1      -0.380   5.786  15.589  1.00  0.00    -0.502 OA
ATOM     23  H   UNL     1      -0.828   5.996  16.473  1.00  0.00     0.293 HD
ENDBRANCH   2  22
BRANCH   6  24
ATOM     24  O   UNL     1       1.990   9.107  12.165  1.00  0.00    -0.507 OA
ATOM     25  H   UNL     1       2.440   8.844  13.028  1.00  0.00     0.293 HD
ENDBRANCH   6  24
BRANCH   8  26
ATOM     26  O   UNL     1      -1.672  10.103   9.250  1.00  0.00    -0.508 OA
ATOM     27  H   UNL     1      -2.659  10.113   9.016  1.00  0.00     0.293 HD
ENDBRANCH   8  26
TORSDOF 6
ENDMDL
MODEL 2
REMARK VINA RESULT:    -6.399      1.684      7.064
REMARK INTER + INTRA:          -8.009
REMARK INTER:                  -7.714
REMARK INTRA:                  -0.295
REMARK UNBOUND:                -0.301
REMARK SMILES O=c1c(O)c(-c2ccc(O)c(O)c2)oc2cc(O)cc(O)c12
REMARK SMILES IDX 5 1 3 2 2 3 1 4 22 5 20 6 19 7 17 8 16 9 15 10 14 11 6 12
REMARK SMILES IDX 7 13 8 14 9 15 13 16 11 17 10 18 12 20 4 22 21 24 18 26
REMARK H PARENT 10 19 12 21 4 23 21 25 18 27
REMARK Flexibility Score: inf
ROOT
ATOM      1  C   UNL     1      -1.479   6.329  14.138  1.00  0.00     0.180 A 
ATOM      2  C   UNL     1      -2.504   6.804  14.976  1.00  0.00     0.208 A 
ATOM      3  C   UNL     1      -3.475   5.902  15.442  1.00  0.00     0.238 A 
ATOM      4  O   UNL     1      -4.358   6.321  16.234  1.00  0.00    -0.285 OA
ATOM      5  C   UNL     1      -3.419   4.542  15.051  1.00  0.00     0.111 A 
ATOM      6  C   UNL     1      -4.373   3.550  15.431  1.00  0.00     0.134 A 
ATOM      7  C   UNL     1      -4.147   2.210  15.095  1.00  0.00     0.093 A 
ATOM      8  C   UNL     1      -3.038   1.835  14.339  1.00  0.00     0.123 A 
ATOM      9  C   UNL     1      -2.129   2.805  13.911  1.00  0.00     0.094 A 
ATOM     10  C   UNL     1      -2.309   4.145  14.261  1.00  0.00     0.146 A 
ATOM     11  O   UNL     1      -1.417   5.035  13.844  1.00  0.00    -0.452 OA
ENDROOT
BRANCH   1  12
ATOM     12  C   UNL     1      -0.435   7.222  13.587  1.00  0.00     0.025 A 
ATOM     13  C   UNL     1      -0.734   8.031  12.479  1.00  0.00     0.016 A 
ATOM     14  C   UNL     1       0.229   8.896  11.954  1.00  0.00     0.051 A 
ATOM     15  C   UNL     1       1.497   8.979  12.536  1.00  0.00     0.157 A 
ATOM     16  C   UNL     1       0.835   7.321  14.183  1.00  0.00     0.062 A 
ATOM     17  C   UNL     1       1.802   8.192  13.659  1.00  0.00     0.158 A 
BRANCH  15  18
ATOM     18  O   UNL     1       2.438   9.850  11.989  1.00  0.00    -0.504 OA
ATOM     19  H   UNL     1       3.367   9.956  12.383  1.00  0.00     0.293 HD
ENDBRANCH  15  18
BRANCH  17  20
ATOM     20  O   UNL     1       3.060   8.279  14.252  1.00  0.00    -0.504 OA
ATOM     21  H   UNL     1       3.461   9.171  14.519  1.00  0.00     0.293 HD
ENDBRANCH  17  20
ENDBRANCH   1  12
BRANCH   2  22
ATOM     22  O   UNL     1      -2.528   8.145  15.366  1.00  0.00    -0.502 OA
ATOM     23  H   UNL     1      -1.690   8.712  15.414  1.00  0.00     0.293 HD
ENDBRANCH   2  22
BRANCH   6  24
ATOM     24  O   UNL     1      -5.563   3.831  16.110  1.00  0.00    -0.507 OA
ATOM     25  H   UNL     1      -6.026   3.199  16.744  1.00  0.00     0.293 HD
ENDBRANCH   6  24
BRANCH   8  26
ATOM     26  O   UNL     1      -2.852   0.494  14.009  1.00  0.00    -0.508 OA
ATOM     27  H   UNL     1      -3.343   0.066  13.231  1.00  0.00     0.293 HD
ENDBRANCH   8  26
TORSDOF 6
ENDMDL
MODEL 3
REMARK VINA RESULT:    -6.382      1.578      7.006
REMARK INTER + INTRA:          -7.989
REMARK INTER:                  -7.663
REMARK INTRA:                  -0.325
REMARK UNBOUND:                -0.301
REMARK SMILES O=c1c(O)c(-c2ccc(O)c(O)c2)oc2cc(O)cc(O)c12
REMARK SMILES IDX 5 1 3 2 2 3 1 4 22 5 20 6 19 7 17 8 16 9 15 10 14 11 6 12
REMARK SMILES IDX 7 13 8 14 9 15 13 16 11 17 10 18 12 20 4 22 21 24 18 26
REMARK H PARENT 10 19 12 21 4 23 21 25 18 27
REMARK Flexibility Score: inf
ROOT
ATOM      1  C   UNL     1      -1.780   6.462  13.265  1.00  0.00     0.180 A 
ATOM      2  C   UNL     1      -2.544   6.928  14.350  1.00  0.00     0.208 A 
ATOM      3  C   UNL     1      -3.247   6.000  15.135  1.00  0.00     0.238 A 
ATOM      4  O   UNL     1      -3.885   6.417  16.137  1.00  0.00    -0.285 OA
ATOM      5  C   UNL     1      -3.190   4.621  14.818  1.00  0.00     0.111 A 
ATOM      6  C   UNL     1      -3.895   3.598  15.522  1.00  0.00     0.134 A 
ATOM      7  C   UNL     1      -3.662   2.255  15.203  1.00  0.00     0.093 A 
ATOM      8  C   UNL     1      -2.802   1.900  14.164  1.00  0.00     0.123 A 
ATOM      9  C   UNL     1      -2.154   2.894  13.430  1.00  0.00     0.094 A 
ATOM     10  C   UNL     1      -2.338   4.242  13.748  1.00  0.00     0.146 A 
ATOM     11  O   UNL     1      -1.695   5.157  13.033  1.00  0.00    -0.452 OA
ENDROOT
BRANCH   1  12
ATOM     12  C   UNL     1      -1.033   7.380  12.376  1.00  0.00     0.025 A 
ATOM     13  C   UNL     1       0.343   7.569  12.578  1.00  0.00     0.016 A 
ATOM     14  C   UNL     1       1.072   8.416  11.739  1.00  0.00     0.051 A 
ATOM     15  C   UNL     1       0.442   9.072  10.678  1.00  0.00     0.157 A 
ATOM     16  C   UNL     1      -1.661   8.026  11.296  1.00  0.00     0.062 A 
ATOM     17  C   UNL     1      -0.930   8.874  10.450  1.00  0.00     0.158 A 
BRANCH  15  18
ATOM     18  O   UNL     1       1.195   9.913   9.858  1.00  0.00    -0.504 OA
ATOM     19  H   UNL     1       1.812  10.622  10.236  1.00  0.00     0.293 HD
ENDBRANCH  15  18
BRANCH  17  20
ATOM     20  O   UNL     1      -1.561   9.515   9.386  1.00  0.00    -0.504 OA
ATOM     21  H   UNL     1      -1.109   9.619   8.485  1.00  0.00     0.293 HD
ENDBRANCH  17  20
ENDBRANCH   1  12
BRANCH   2  22
ATOM     22  O   UNL     1      -2.569   8.290  14.659  1.00  0.00    -0.502 OA
ATOM     23  H   UNL     1      -2.883   8.992  13.999  1.00  0.00     0.293 HD
ENDBRANCH   2  22
BRANCH   6  24
ATOM     24  O   UNL     1      -4.846   3.848  16.515  1.00  0.00    -0.507 OA
ATOM     25  H   UNL     1      -4.724   4.494  17.279  1.00  0.00     0.293 HD
ENDBRANCH   6  24
BRANCH   8  26
ATOM     26  O   UNL     1      -2.606   0.554  13.863  1.00  0.00    -0.508 OA
ATOM     27  H   UNL     1      -1.872   0.013  14.306  1.00  0.00     0.293 HD
ENDBRANCH   8  26
TORSDOF 6
ENDMDL
MODEL 4
REMARK VINA RESULT:    -6.330      3.614      3.745
REMARK INTER + INTRA:          -7.926
REMARK INTER:                  -7.770
REMARK INTRA:                  -0.156
REMARK UNBOUND:                -0.301
REMARK SMILES O=c1c(O)c(-c2ccc(O)c(O)c2)oc2cc(O)cc(O)c12
REMARK SMILES IDX 5 1 3 2 2 3 1 4 22 5 20 6 19 7 17 8 16 9 15 10 14 11 6 12
REMARK SMILES IDX 7 13 8 14 9 15 13 16 11 17 10 18 12 20 4 22 21 24 18 26
REMARK H PARENT 10 19 12 21 4 23 21 25 18 27
REMARK Flexibility Score: inf
ROOT
ATOM      1  C   UNL     1      -2.563   3.709  12.541  1.00  0.00     0.180 A 
ATOM      2  C   UNL     1      -1.240   3.248  12.421  1.00  0.00     0.208 A 
ATOM      3  C   UNL     1      -0.550   3.467  11.218  1.00  0.00     0.238 A 
ATOM      4  O   UNL     1       0.652   3.100  11.134  1.00  0.00    -0.285 OA
ATOM      5  C   UNL     1      -1.196   4.128  10.145  1.00  0.00     0.111 A 
ATOM      6  C   UNL     1      -0.605   4.367   8.867  1.00  0.00     0.134 A 
ATOM      7  C   UNL     1      -1.289   5.146   7.925  1.00  0.00     0.093 A 
ATOM      8  C   UNL     1      -2.566   5.638   8.189  1.00  0.00     0.123 A 
ATOM      9  C   UNL     1      -3.178   5.360   9.413  1.00  0.00     0.094 A 
ATOM     10  C   UNL     1      -2.506   4.616  10.387  1.00  0.00     0.146 A 
ATOM     11  O   UNL     1      -3.118   4.383  11.541  1.00  0.00    -0.452 OA
ENDROOT
BRANCH   1  12
ATOM     12  C   UNL     1      -3.363   3.493  13.768  1.00  0.00     0.025 A 
ATOM     13  C   UNL     1      -3.676   2.184  14.166  1.00  0.00     0.016 A 
ATOM     14  C   UNL     1      -4.414   1.956  15.331  1.00  0.00     0.051 A 
ATOM     15  C   UNL     1      -4.835   3.028  16.123  1.00  0.00     0.157 A 
ATOM     16  C   UNL     1      -3.771   4.569  14.576  1.00  0.00     0.062 A 
ATOM     17  C   UNL     1      -4.508   4.342  15.748  1.00  0.00     0.158 A 
BRANCH  15  18
ATOM     18  O   UNL     1      -5.571   2.770  17.278  1.00  0.00    -0.504 OA
ATOM     19  H   UNL     1      -5.649   3.446  18.030  1.00  0.00     0.293 HD
ENDBRANCH  15  18
BRANCH  17  20
ATOM     20  O   UNL     1      -4.914   5.415  16.539  1.00  0.00    -0.504 OA
ATOM     21  H   UNL     1      -4.257   5.925  17.120  1.00  0.00     0.293 HD
ENDBRANCH  17  20
ENDBRANCH   1  12
BRANCH   2  22
ATOM     22  O   UNL     1      -0.614   2.617  13.500  1.00  0.00    -0.502 OA
ATOM     23  H   UNL     1      -0.980   2.663  14.443  1.00  0.00     0.293 HD
ENDBRANCH   2  22
BRANCH   6  24
ATOM     24  O   UNL     1       0.628   3.844   8.467  1.00  0.00    -0.507 OA
ATOM     25  H   UNL     1       1.358   3.545   9.097  1.00  0.00     0.293 HD
ENDBRANCH   6  24
BRANCH   8  26
ATOM     26  O   UNL     1      -3.224   6.396   7.223  1.00  0.00    -0.508 OA
ATOM     27  H   UNL     1      -2.831   6.534   6.299  1.00  0.00     0.293 HD
ENDBRANCH   8  26
TORSDOF 6
ENDMDL
MODEL 5
REMARK VINA RESULT:    -6.248      3.648      4.574
REMARK INTER + INTRA:          -7.828
REMARK INTER:                  -7.580
REMARK INTRA:                  -0.248
REMARK UNBOUND:                -0.301
REMARK SMILES O=c1c(O)c(-c2ccc(O)c(O)c2)oc2cc(O)cc(O)c12
REMARK SMILES IDX 5 1 3 2 2 3 1 4 22 5 20 6 19 7 17 8 16 9 15 10 14 11 6 12
REMARK SMILES IDX 7 13 8 14 9 15 13 16 11 17 10 18 12 20 4 22 21 24 18 26
REMARK H PARENT 10 19 12 21 4 23 21 25 18 27
REMARK Flexibility Score: inf
ROOT
ATOM      1  C   UNL     1      -2.125   3.835  11.824  1.00  0.00     0.180 A 
ATOM      2  C   UNL     1      -2.776   3.417  10.650  1.00  0.00     0.208 A 
ATOM      3  C   UNL     1      -2.158   3.649   9.410  1.00  0.00     0.238 A 
ATOM      4  O   UNL     1      -2.719   3.225   8.366  1.00  0.00    -0.285 OA
ATOM      5  C   UNL     1      -0.907   4.311   9.359  1.00  0.00     0.111 A 
ATOM      6  C   UNL     1      -0.211   4.634   8.156  1.00  0.00     0.134 A 
ATOM      7  C   UNL     1       1.080   5.172   8.228  1.00  0.00     0.093 A 
ATOM      8  C   UNL     1       1.672   5.459   9.457  1.00  0.00     0.123 A 
ATOM      9  C   UNL     1       0.976   5.202  10.640  1.00  0.00     0.094 A 
ATOM     10  C   UNL     1      -0.299   4.632  10.600  1.00  0.00     0.146 A 
ATOM     11  O   UNL     1      -0.923   4.394  11.747  1.00  0.00    -0.452 OA
ENDROOT
BRANCH   1  12
ATOM     12  C   UNL     1      -2.725   3.649  13.166  1.00  0.00     0.025 A 
ATOM     13  C   UNL     1      -2.722   2.373  13.751  1.00  0.00     0.016 A 
ATOM     14  C   UNL     1      -3.264   2.178  15.024  1.00  0.00     0.051 A 
ATOM     15  C   UNL     1      -3.801   3.254  15.736  1.00  0.00     0.157 A 
ATOM     16  C   UNL     1      -3.248   4.734  13.892  1.00  0.00     0.062 A 
ATOM     17  C   UNL     1      -3.789   4.540  15.171  1.00  0.00     0.158 A 
BRANCH  15  18
ATOM     18  O   UNL     1      -4.337   3.028  17.003  1.00  0.00    -0.504 OA
ATOM     19  H   UNL     1      -4.549   2.096  17.341  1.00  0.00     0.293 HD
ENDBRANCH  15  18
BRANCH  17  20
ATOM     20  O   UNL     1      -4.311   5.620  15.881  1.00  0.00    -0.504 OA
ATOM     21  H   UNL     1      -5.050   6.200  15.499  1.00  0.00     0.293 HD
ENDBRANCH  17  20
ENDBRANCH   1  12
BRANCH   2  22
ATOM     22  O   UNL     1      -4.000   2.747  10.725  1.00  0.00    -0.502 OA
ATOM     23  H   UNL     1      -4.772   3.085  11.287  1.00  0.00     0.293 HD
ENDBRANCH   2  22
BRANCH   6  24
ATOM     24  O   UNL     1      -0.749   4.473   6.875  1.00  0.00    -0.507 OA
ATOM     25  H   UNL     1      -0.324   4.813   6.026  1.00  0.00     0.293 HD
ENDBRANCH   6  24
BRANCH   8  26
ATOM     26  O   UNL     1       2.952   6.008   9.492  1.00  0.00    -0.508 OA
ATOM     27  H   UNL     1       3.542   5.928  10.314  1.00  0.00     0.293 HD
ENDBRANCH   8  26
TORSDOF 6
ENDMDL
MODEL 6
REMARK VINA RESULT:    -6.181      2.056      7.271
REMARK INTER + INTRA:          -7.747
REMARK INTER:                  -7.422
REMARK INTRA:                  -0.325
REMARK UNBOUND:                -0.301
REMARK SMILES O=c1c(O)c(-c2ccc(O)c(O)c2)oc2cc(O)cc(O)c12
REMARK SMILES IDX 5 1 3 2 2 3 1 4 22 5 20 6 19 7 17 8 16 9 15 10 14 11 6 12
REMARK SMILES IDX 7 13 8 14 9 15 13 16 11 17 10 18 12 20 4 22 21 24 18 26
REMARK H PARENT 10 19 12 21 4 23 21 25 18 27
REMARK Flexibility Score: inf
ROOT
ATOM      1  C   UNL     1      -1.228   7.517  11.825  1.00  0.00     0.180 A 
ATOM      2  C   UNL     1      -1.633   6.845  10.657  1.00  0.00     0.208 A 
ATOM      3  C   UNL     1      -2.357   5.648  10.778  1.00  0.00     0.238 A 
ATOM      4  O   UNL     1      -2.764   5.080   9.730  1.00  0.00    -0.285 OA
ATOM      5  C   UNL     1      -2.653   5.129  12.061  1.00  0.00     0.111 A 
ATOM      6  C   UNL     1      -3.345   3.903  12.300  1.00  0.00     0.134 A 
ATOM      7  C   UNL     1      -3.697   3.552  13.609  1.00  0.00     0.093 A 
ATOM      8  C   UNL     1      -3.326   4.348  14.692  1.00  0.00     0.123 A 
ATOM      9  C   UNL     1      -2.596   5.518  14.475  1.00  0.00     0.094 A 
ATOM     10  C   UNL     1      -2.262   5.914  13.177  1.00  0.00     0.146 A 
ATOM     11  O   UNL     1      -1.578   7.038  13.013  1.00  0.00    -0.452 OA
ENDROOT
BRANCH   1  12
ATOM     12  C   UNL     1      -0.440   8.770  11.779  1.00  0.00     0.025 A 
ATOM     13  C   UNL     1      -1.108  10.003  11.738  1.00  0.00     0.016 A 
ATOM     14  C   UNL     1      -0.385  11.199  11.715  1.00  0.00     0.051 A 
ATOM     15  C   UNL     1       1.012  11.181  11.748  1.00  0.00     0.157 A 
ATOM     16  C   UNL     1       0.965   8.754  11.832  1.00  0.00     0.062 A 
ATOM     17  C   UNL     1       1.693   9.953  11.812  1.00  0.00     0.158 A 
BRANCH  15  18
ATOM     18  O   UNL     1       1.707  12.390  11.722  1.00  0.00    -0.504 OA
ATOM     19  H   UNL     1       1.245  13.272  11.532  1.00  0.00     0.293 HD
ENDBRANCH  15  18
BRANCH  17  20
ATOM     20  O   UNL     1       3.085   9.928  11.859  1.00  0.00    -0.504 OA
ATOM     21  H   UNL     1       3.623  10.754  12.098  1.00  0.00     0.293 HD
ENDBRANCH  17  20
ENDBRANCH   1  12
BRANCH   2  22
ATOM     22  O   UNL     1      -1.350   7.387   9.400  1.00  0.00    -0.502 OA
ATOM     23  H   UNL     1      -1.033   8.341   9.279  1.00  0.00     0.293 HD
ENDBRANCH   2  22
BRANCH   6  24
ATOM     24  O   UNL     1      -3.682   2.990  11.297  1.00  0.00    -0.507 OA
ATOM     25  H   UNL     1      -4.490   3.066  10.697  1.00  0.00     0.293 HD
ENDBRANCH   6  24
BRANCH   8  26
ATOM     26  O   UNL     1      -3.679   3.961  15.982  1.00  0.00    -0.508 OA
ATOM     27  H   UNL     1      -4.584   4.194  16.378  1.00  0.00     0.293 HD
ENDBRANCH   8  26
TORSDOF 6
ENDMDL
MODEL 7
REMARK VINA RESULT:    -6.154      1.991      6.957
REMARK INTER + INTRA:          -7.715
REMARK INTER:                  -7.883
REMARK INTRA:                   0.169
REMARK UNBOUND:                -0.301
REMARK SMILES O=c1c(O)c(-c2ccc(O)c(O)c2)oc2cc(O)cc(O)c12
REMARK SMILES IDX 5 1 3 2 2 3 1 4 22 5 20 6 19 7 17 8 16 9 15 10 14 11 6 12
REMARK SMILES IDX 7 13 8 14 9 15 13 16 11 17 10 18 12 20 4 22 21 24 18 26
REMARK H PARENT 10 19 12 21 4 23 21 25 18 27
REMARK Flexibility Score: inf
ROOT
ATOM      1  C   UNL     1      -1.992   6.403  12.495  1.00  0.00     0.180 A 
ATOM      2  C   UNL     1      -1.408   5.340  11.784  1.00  0.00     0.208 A 
ATOM      3  C   UNL     1      -1.579   4.029  12.258  1.00  0.00     0.238 A 
ATOM      4  O   UNL     1      -1.100   3.077  11.588  1.00  0.00    -0.285 OA
ATOM      5  C   UNL     1      -2.317   3.799  13.444  1.00  0.00     0.111 A 
ATOM      6  C   UNL     1      -2.518   2.516  14.036  1.00  0.00     0.134 A 
ATOM      7  C   UNL     1      -3.374   2.390  15.137  1.00  0.00     0.093 A 
ATOM      8  C   UNL     1      -3.983   3.507  15.707  1.00  0.00     0.123 A 
ATOM      9  C   UNL     1      -3.745   4.775  15.172  1.00  0.00     0.094 A 
ATOM     10  C   UNL     1      -2.925   4.928  14.052  1.00  0.00     0.146 A 
ATOM     11  O   UNL     1      -2.733   6.148  13.567  1.00  0.00    -0.452 OA
ENDROOT
BRANCH   1  12
ATOM     12  C   UNL     1      -1.834   7.814  12.074  1.00  0.00     0.025 A 
ATOM     13  C   UNL     1      -1.593   8.801  13.042  1.00  0.00     0.016 A 
ATOM     14  C   UNL     1      -1.422  10.135  12.665  1.00  0.00     0.051 A 
ATOM     15  C   UNL     1      -1.472  10.501  11.317  1.00  0.00     0.157 A 
ATOM     16  C   UNL     1      -1.866   8.181  10.717  1.00  0.00     0.062 A 
ATOM     17  C   UNL     1      -1.690   9.520  10.336  1.00  0.00     0.158 A 
BRANCH  15  18
ATOM     18  O   UNL     1      -1.300  11.841  10.971  1.00  0.00    -0.504 OA
ATOM     19  H   UNL     1      -2.054  12.400  10.589  1.00  0.00     0.293 HD
ENDBRANCH  15  18
BRANCH  17  20
ATOM     20  O   UNL     1      -1.729   9.875   8.989  1.00  0.00    -0.504 OA
ATOM     21  H   UNL     1      -1.926  10.826   8.696  1.00  0.00     0.293 HD
ENDBRANCH  17  20
ENDBRANCH   1  12
BRANCH   2  22
ATOM     22  O   UNL     1      -0.702   5.588  10.604  1.00  0.00    -0.502 OA
ATOM     23  H   UNL     1       0.231   5.984  10.601  1.00  0.00     0.293 HD
ENDBRANCH   2  22
BRANCH   6  24
ATOM     24  O   UNL     1      -1.885   1.347  13.601  1.00  0.00    -0.507 OA
ATOM     25  H   UNL     1      -2.363   0.520  13.278  1.00  0.00     0.293 HD
ENDBRANCH   6  24
BRANCH   8  26
ATOM     26  O   UNL     1      -4.816   3.348  16.811  1.00  0.00    -0.508 OA
ATOM     27  H   UNL     1      -5.264   4.142  17.257  1.00  0.00     0.293 HD
ENDBRANCH   8  26
TORSDOF 6
ENDMDL
MODEL 8
REMARK VINA RESULT:    -5.951      1.985      2.265
REMARK INTER + INTRA:          -7.470
REMARK INTER:                  -7.161
REMARK INTRA:                  -0.309
REMARK UNBOUND:                -0.301
REMARK SMILES O=c1c(O)c(-c2ccc(O)c(O)c2)oc2cc(O)cc(O)c12
REMARK SMILES IDX 5 1 3 2 2 3 1 4 22 5 20 6 19 7 17 8 16 9 15 10 14 11 6 12
REMARK SMILES IDX 7 13 8 14 9 15 13 16 11 17 10 18 12 20 4 22 21 24 18 26
REMARK H PARENT 10 19 12 21 4 23 21 25 18 27
REMARK Flexibility Score: inf
ROOT
ATOM      1  C   UNL     1      -1.721   6.323  12.528  1.00  0.00     0.180 A 
ATOM      2  C   UNL     1      -0.485   6.208  11.869  1.00  0.00     0.208 A 
ATOM      3  C   UNL     1       0.070   7.345  11.259  1.00  0.00     0.238 A 
ATOM      4  O   UNL     1       1.202   7.249  10.717  1.00  0.00    -0.285 OA
ATOM      5  C   UNL     1      -0.626   8.578  11.301  1.00  0.00     0.111 A 
ATOM      6  C   UNL     1      -0.177   9.783  10.682  1.00  0.00     0.134 A 
ATOM      7  C   UNL     1      -0.879  10.974  10.899  1.00  0.00     0.093 A 
ATOM      8  C   UNL     1      -2.049  10.992  11.657  1.00  0.00     0.123 A 
ATOM      9  C   UNL     1      -2.531   9.807  12.217  1.00  0.00     0.094 A 
ATOM     10  C   UNL     1      -1.832   8.610  12.049  1.00  0.00     0.146 A 
ATOM     11  O   UNL     1      -2.317   7.507  12.607  1.00  0.00    -0.452 OA
ENDROOT
BRANCH   1  12
ATOM     12  C   UNL     1      -2.381   5.165  13.172  1.00  0.00     0.025 A 
ATOM     13  C   UNL     1      -3.134   4.277  12.389  1.00  0.00     0.016 A 
ATOM     14  C   UNL     1      -3.749   3.166  12.972  1.00  0.00     0.051 A 
ATOM     15  C   UNL     1      -3.609   2.917  14.340  1.00  0.00     0.157 A 
ATOM     16  C   UNL     1      -2.225   4.902  14.545  1.00  0.00     0.062 A 
ATOM     17  C   UNL     1      -2.839   3.785  15.131  1.00  0.00     0.158 A 
BRANCH  15  18
ATOM     18  O   UNL     1      -4.236   1.802  14.894  1.00  0.00    -0.504 OA
ATOM     19  H   UNL     1      -5.246   1.724  14.952  1.00  0.00     0.293 HD
ENDBRANCH  15  18
BRANCH  17  20
ATOM     20  O   UNL     1      -2.685   3.536  16.494  1.00  0.00    -0.504 OA
ATOM     21  H   UNL     1      -1.787   3.276  16.887  1.00  0.00     0.293 HD
ENDBRANCH  17  20
ENDBRANCH   1  12
BRANCH   2  22
ATOM     22  O   UNL     1       0.195   4.987  11.858  1.00  0.00    -0.502 OA
ATOM     23  H   UNL     1       0.655   4.628  11.029  1.00  0.00     0.293 HD
ENDBRANCH   2  22
BRANCH   6  24
ATOM     24  O   UNL     1       0.930   9.857   9.830  1.00  0.00    -0.507 OA
ATOM     25  H   UNL     1       1.386   9.063   9.410  1.00  0.00     0.293 HD
ENDBRANCH   6  24
BRANCH   8  26
ATOM     26  O   UNL     1      -2.732  12.192  11.840  1.00  0.00    -0.508 OA
ATOM     27  H   UNL     1      -3.451  12.291  12.549  1.00  0.00     0.293 HD
ENDBRANCH   8  26
TORSDOF 6
ENDMDL
MODEL 9
REMARK VINA RESULT:    -5.871      3.967      6.972
REMARK INTER + INTRA:          -7.374
REMARK INTER:                  -7.441
REMARK INTRA:                   0.067
REMARK UNBOUND:                -0.301
REMARK SMILES O=c1c(O)c(-c2ccc(O)c(O)c2)oc2cc(O)cc(O)c12
REMARK SMILES IDX 5 1 3 2 2 3 1 4 22 5 20 6 19 7 17 8 16 9 15 10 14 11 6 12
REMARK SMILES IDX 7 13 8 14 9 15 13 16 11 17 10 18 12 20 4 22 21 24 18 26
REMARK H PARENT 10 19 12 21 4 23 21 25 18 27
REMARK Flexibility Score: inf
ROOT
ATOM      1  C   UNL     1      -1.529   4.229  11.602  1.00  0.00     0.180 A 
ATOM      2  C   UNL     1      -1.283   5.507  12.135  1.00  0.00     0.208 A 
ATOM      3  C   UNL     1      -1.949   5.893  13.310  1.00  0.00     0.238 A 
ATOM      4  O   UNL     1      -1.684   7.017  13.812  1.00  0.00    -0.285 OA
ATOM      5  C   UNL     1      -2.863   5.006  13.927  1.00  0.00     0.111 A 
ATOM      6  C   UNL     1      -3.623   5.309  15.097  1.00  0.00     0.134 A 
ATOM      7  C   UNL     1      -4.399   4.309  15.695  1.00  0.00     0.093 A 
ATOM      8  C   UNL     1      -4.494   3.038  15.130  1.00  0.00     0.123 A 
ATOM      9  C   UNL     1      -3.803   2.748  13.953  1.00  0.00     0.094 A 
ATOM     10  C   UNL     1      -2.992   3.714  13.353  1.00  0.00     0.146 A 
ATOM     11  O   UNL     1      -2.342   3.396  12.240  1.00  0.00    -0.452 OA
ENDROOT
BRANCH   1  12
ATOM     12  C   UNL     1      -0.886   3.759  10.354  1.00  0.00     0.025 A 
ATOM     13  C   UNL     1       0.504   3.887  10.204  1.00  0.00     0.016 A 
ATOM     14  C   UNL     1       1.135   3.433   9.042  1.00  0.00     0.051 A 
ATOM     15  C   UNL     1       0.392   2.832   8.023  1.00  0.00     0.157 A 
ATOM     16  C   UNL     1      -1.629   3.136   9.335  1.00  0.00     0.062 A 
ATOM     17  C   UNL     1      -0.997   2.677   8.170  1.00  0.00     0.158 A 
BRANCH  15  18
ATOM     18  O   UNL     1       1.049   2.390   6.875  1.00  0.00    -0.504 OA
ATOM     19  H   UNL     1       1.205   2.995   6.077  1.00  0.00     0.293 HD
ENDBRANCH  15  18
BRANCH  17  20
ATOM     20  O   UNL     1      -1.742   2.066   7.164  1.00  0.00    -0.504 OA
ATOM     21  H   UNL     1      -2.097   1.122   7.264  1.00  0.00     0.293 HD
ENDBRANCH  17  20
ENDBRANCH   1  12
BRANCH   2  22
ATOM     22  O   UNL     1      -0.360   6.359  11.522  1.00  0.00    -0.502 OA
ATOM     23  H   UNL     1      -0.636   7.067  10.852  1.00  0.00     0.293 HD
ENDBRANCH   2  22
BRANCH   6  24
ATOM     24  O   UNL     1      -3.671   6.574  15.690  1.00  0.00    -0.507 OA
ATOM     25  H   UNL     1      -2.884   7.040  16.116  1.00  0.00     0.293 HD
ENDBRANCH   6  24
BRANCH   8  26
ATOM     26  O   UNL     1      -5.288   2.071  15.743  1.00  0.00    -0.508 OA
ATOM     27  H   UNL     1      -5.703   1.311  15.214  1.00  0.00     0.293 HD
ENDBRANCH   8  26
TORSDOF 6
ENDMDL
