MODEL 1
REMARK VINA RESULT:     8.812      0.000      0.000
REMARK INTER + INTRA:           9.582
REMARK INTER:                   9.585
REMARK INTRA:                  -0.003
REMARK UNBOUND:                -0.003
REMARK SMILES C[C@@H]1[C@H]2C3=CC[C@H]4[C@]5(C)CC[C@H](O)C(C)(C)[C@@H]5CC[C@@]4(C)[C@]3(C)CC[C@@]2(C(=O)[O-])CC[C@@H]1C
REMARK SMILES IDX 26 1 30 2 25 3 3 4 31 5 24 6 4 7 2 8 32 9 22 10 5 11 1 12
REMARK SMILES IDX 33 13 23 14 20 15 6 16 7 17 19 18 21 19 8 20 18 21 17 22
REMARK SMILES IDX 10 23 9 24 14 25 11 26 12 27 15 28 16 29 27 30 28 31 29 32
REMARK SMILES IDX 13 33
REMARK H PARENT 13 34
REMARK Flexibility Score: inf
ROOT
ATOM      1  C   UNL     1     139.462 155.298 121.002  1.00  0.00     0.017 C 
ATOM      2  C   UNL     1     138.090 156.040 120.925  1.00  0.00     0.014 C 
ATOM      3  C   UNL     1     139.821 154.765 119.568  1.00  0.00     0.014 C 
ATOM      4  C   UNL     1     139.359 154.133 122.071  1.00  0.00     0.030 C 
ATOM      5  C   UNL     1     137.574 156.534 122.283  1.00  0.00     0.004 C 
ATOM      6  C   UNL     1     140.203 153.278 119.544  1.00  0.00     0.013 C 
ATOM      7  C   UNL     1     138.629 152.895 121.479  1.00  0.00    -0.063 C 
ATOM      8  C   UNL     1     138.821 154.642 123.460  1.00  0.00    -0.003 C 
ATOM      9  C   UNL     1     137.463 155.376 123.288  1.00  0.00    -0.011 C 
ATOM     10  C   UNL     1     139.061 152.366 120.102  1.00  0.00    -0.006 C 
ATOM     11  C   UNL     1     137.800 152.109 122.211  1.00  0.00    -0.027 C 
ATOM     12  C   UNL     1     139.863 155.468 124.250  1.00  0.00     0.008 C 
ATOM     13  C   UNL     1     136.878 155.864 124.621  1.00  0.00     0.008 C 
ATOM     14  C   UNL     1     137.861 152.518 119.112  1.00  0.00     0.017 C 
ATOM     15  C   UNL     1     139.524 150.832 120.270  1.00  0.00    -0.020 C 
ATOM     16  C   UNL     1     137.293 150.786 121.707  1.00  0.00     0.032 C 
ATOM     17  C   UNL     1     138.394 149.942 120.988  1.00  0.00     0.006 C 
ATOM     18  C   UNL     1     139.957 150.231 118.896  1.00  0.00     0.008 C 
ATOM     19  C   UNL     1     140.798 150.791 121.184  1.00  0.00     0.012 C 
ATOM     20  C   UNL     1     137.830 148.703 120.162  1.00  0.00    -0.025 C 
ATOM     21  C   UNL     1     140.138 148.702 118.876  1.00  0.00     0.005 C 
ATOM     22  C   UNL     1     139.033 147.843 119.578  1.00  0.00     0.003 C 
ATOM     23  C   UNL     1     136.875 147.809 121.031  1.00  0.00     0.010 C 
ATOM     24  C   UNL     1     136.907 149.151 118.980  1.00  0.00     0.012 C 
ATOM     25  C   UNL     1     139.632 146.667 120.489  1.00  0.00    -0.006 C 
ATOM     26  C   UNL     1     137.573 146.865 121.995  1.00  0.00     0.033 C 
ATOM     27  C   UNL     1     138.473 145.908 121.203  1.00  0.00     0.120 C 
ATOM     28  C   UNL     1     140.679 147.122 121.549  1.00  0.00     0.014 C 
ATOM     29  C   UNL     1     140.355 145.649 119.565  1.00  0.00     0.014 C 
ENDROOT
BRANCH   1  30
ATOM     30  C   UNL     1     140.574 156.271 121.379  1.00  0.00     0.048 C 
ATOM     31  O   UNL     1     141.760 155.861 121.493  1.00  0.00    -0.550 OA
ATOM     32  O   UNL     1     140.326 157.635 121.489  1.00  0.00    -0.550 OA
ENDBRANCH   1  30
BRANCH  27  33
ATOM     33  O   UNL     1     138.944 144.855 122.016  1.00  0.00    -0.393 OA
ATOM     34  H   UNL     1     139.848 144.593 121.705  1.00  0.00     0.210 HD
ENDBRANCH  27  33
TORSDOF 2
ENDMDL
MODEL 2
REMARK VINA RESULT:    11.303      1.132      1.434
REMARK INTER + INTRA:          12.291
REMARK INTER:                  12.125
REMARK INTRA:                   0.166
REMARK UNBOUND:                -0.003
REMARK SMILES C[C@@H]1[C@H]2C3=CC[C@H]4[C@]5(C)CC[C@H](O)C(C)(C)[C@@H]5CC[C@@]4(C)[C@]3(C)CC[C@@]2(C(=O)[O-])CC[C@@H]1C
REMARK SMILES IDX 26 1 30 2 25 3 3 4 31 5 24 6 4 7 2 8 32 9 22 10 5 11 1 12
REMARK SMILES IDX 33 13 23 14 20 15 6 16 7 17 19 18 21 19 8 20 18 21 17 22
REMARK SMILES IDX 10 23 9 24 14 25 11 26 12 27 15 28 16 29 27 30 28 31 29 32
REMARK SMILES IDX 13 33
REMARK H PARENT 13 34
REMARK Flexibility Score: inf
ROOT
ATOM      1  C   UNL     1     141.000 154.727 120.372  1.00  0.00     0.017 C 
ATOM      2  C   UNL     1     139.817 155.739 120.246  1.00  0.00     0.014 C 
ATOM      3  C   UNL     1     141.158 153.973 119.003  1.00  0.00     0.014 C 
ATOM      4  C   UNL     1     140.708 153.738 121.575  1.00  0.00     0.030 C 
ATOM      5  C   UNL     1     139.492 156.481 121.550  1.00  0.00     0.004 C 
ATOM      6  C   UNL     1     141.212 152.446 119.146  1.00  0.00     0.013 C 
ATOM      7  C   UNL     1     139.698 152.633 121.158  1.00  0.00    -0.063 C 
ATOM      8  C   UNL     1     140.367 154.504 122.909  1.00  0.00    -0.003 C 
ATOM      9  C   UNL     1     139.191 155.494 122.689  1.00  0.00    -0.011 C 
ATOM     10  C   UNL     1     139.932 151.873 119.842  1.00  0.00    -0.006 C 
ATOM     11  C   UNL     1     138.762 152.134 122.001  1.00  0.00    -0.027 C 
ATOM     12  C   UNL     1     141.603 155.164 123.564  1.00  0.00     0.008 C 
ATOM     13  C   UNL     1     138.796 156.243 123.970  1.00  0.00     0.008 C 
ATOM     14  C   UNL     1     138.741 152.174 118.876  1.00  0.00     0.017 C 
ATOM     15  C   UNL     1     140.065 150.303 120.180  1.00  0.00    -0.020 C 
ATOM     16  C   UNL     1     137.957 150.906 121.675  1.00  0.00     0.032 C 
ATOM     17  C   UNL     1     138.810 149.767 121.031  1.00  0.00     0.006 C 
ATOM     18  C   UNL     1     140.284 149.474 118.875  1.00  0.00     0.008 C 
ATOM     19  C   UNL     1     141.348 150.086 121.055  1.00  0.00     0.012 C 
ATOM     20  C   UNL     1     137.951 148.598 120.375  1.00  0.00    -0.025 C 
ATOM     21  C   UNL     1     140.132 147.950 119.034  1.00  0.00     0.005 C 
ATOM     22  C   UNL     1     138.908 147.436 119.865  1.00  0.00     0.003 C 
ATOM     23  C   UNL     1     136.875 148.037 121.373  1.00  0.00     0.010 C 
ATOM     24  C   UNL     1     137.083 149.104 119.175  1.00  0.00     0.012 C 
ATOM     25  C   UNL     1     139.290 146.267 120.892  1.00  0.00    -0.006 C 
ATOM     26  C   UNL     1     137.405 147.076 122.422  1.00  0.00     0.033 C 
ATOM     27  C   UNL     1     138.035 145.863 121.725  1.00  0.00     0.120 C 
ATOM     28  C   UNL     1     140.466 146.596 121.860  1.00  0.00     0.014 C 
ATOM     29  C   UNL     1     139.727 145.019 120.077  1.00  0.00     0.014 C 
ENDROOT
BRANCH   1  30
ATOM     30  C   UNL     1     142.313 155.469 120.598  1.00  0.00     0.048 C 
ATOM     31  O   UNL     1     142.318 156.723 120.716  1.00  0.00    -0.550 OA
ATOM     32  O   UNL     1     143.504 154.776 120.793  1.00  0.00    -0.550 OA
ENDBRANCH   1  30
BRANCH  27  33
ATOM     33  O   UNL     1     138.313 144.829 122.645  1.00  0.00    -0.393 OA
ATOM     34  H   UNL     1     139.239 144.507 122.491  1.00  0.00     0.210 HD
ENDBRANCH  27  33
TORSDOF 2
ENDMDL
