MODEL 1
REMARK VINA RESULT:    25.021      0.000      0.000
REMARK INTER + INTRA:          30.977
REMARK INTER:                  30.872
REMARK INTRA:                   0.105
REMARK UNBOUND:                 0.105
REMARK SMILES Oc1cc(O)c2cc(O)c(-c3cc(O)c(O)c(O)c3)[o+]c2c1
REMARK SMILES IDX 10 1 20 2 21 3 22 4 2 5 3 6 4 7 6 8 7 9 8 10 11 11 12 12
REMARK SMILES IDX 13 13 19 14 15 15 17 16 14 17 16 19 18 21 9 23 1 25 5 27
REMARK H PARENT 14 18 16 20 18 22 9 24 1 26 5 28
REMARK Flexibility Score: inf
ROOT
ATOM      1  C   UNL     1     -33.194  22.820   6.863  1.00  0.00     0.402 A 
ATOM      2  O   UNL     1     -34.097  22.746   5.890  1.00  0.00    -0.202 OA
ATOM      3  C   UNL     1     -35.199  22.006   5.972  1.00  0.00     0.368 A 
ATOM      4  C   UNL     1     -36.088  21.989   4.894  1.00  0.00     0.162 A 
ATOM      5  C   UNL     1     -37.250  21.219   4.950  1.00  0.00     0.128 A 
ATOM      6  C   UNL     1     -37.526  20.458   6.091  1.00  0.00     0.093 A 
ATOM      7  C   UNL     1     -36.651  20.457   7.184  1.00  0.00     0.136 A 
ATOM      8  C   UNL     1     -35.469  21.242   7.132  1.00  0.00     0.125 A 
ATOM      9  C   UNL     1     -34.542  21.312   8.184  1.00  0.00     0.078 A 
ATOM     10  C   UNL     1     -33.402  22.111   8.060  1.00  0.00     0.223 A 
ENDROOT
BRANCH   1  11
ATOM     11  C   UNL     1     -32.002  23.673   6.648  1.00  0.00     0.091 A 
ATOM     12  C   UNL     1     -32.112  24.825   5.855  1.00  0.00     0.068 A 
ATOM     13  C   UNL     1     -30.999  25.638   5.620  1.00  0.00     0.162 A 
ATOM     14  C   UNL     1     -30.747  23.323   7.176  1.00  0.00     0.068 A 
ATOM     15  C   UNL     1     -29.751  25.296   6.167  1.00  0.00     0.200 A 
ATOM     16  C   UNL     1     -29.627  24.131   6.943  1.00  0.00     0.162 A 
BRANCH  13  17
ATOM     17  O   UNL     1     -31.154  26.783   4.837  1.00  0.00    -0.504 OA
ATOM     18  H   UNL     1     -30.937  27.709   5.188  1.00  0.00     0.293 HD
ENDBRANCH  13  17
BRANCH  15  19
ATOM     19  O   UNL     1     -28.645  26.114   5.928  1.00  0.00    -0.502 OA
ATOM     20  H   UNL     1     -28.498  26.982   6.428  1.00  0.00     0.293 HD
ENDBRANCH  15  19
BRANCH  16  21
ATOM     21  O   UNL     1     -28.388  23.778   7.476  1.00  0.00    -0.504 OA
ATOM     22  H   UNL     1     -27.727  23.212   6.955  1.00  0.00     0.293 HD
ENDBRANCH  16  21
ENDBRANCH   1  11
BRANCH  10  23
ATOM     23  O   UNL     1     -32.505  22.221   9.124  1.00  0.00    -0.500 OA
ATOM     24  H   UNL     1     -32.342  23.104   9.594  1.00  0.00     0.294 HD
ENDBRANCH  10  23
BRANCH   5  25
ATOM     25  O   UNL     1     -38.125  21.216   3.866  1.00  0.00    -0.507 OA
ATOM     26  H   UNL     1     -37.786  21.186   2.912  1.00  0.00     0.293 HD
ENDBRANCH   5  25
BRANCH   7  27
ATOM     27  O   UNL     1     -36.997  19.668   8.286  1.00  0.00    -0.507 OA
ATOM     28  H   UNL     1     -36.353  19.386   9.009  1.00  0.00     0.293 HD
ENDBRANCH   7  27
TORSDOF 7
ENDMDL
