MODEL 1
REMARK VINA RESULT:    -7.681      0.000      0.000
REMARK INTER + INTRA:         -12.364
REMARK INTER:                 -11.049
REMARK INTRA:                  -1.315
REMARK UNBOUND:                -1.315
REMARK SMILES O=c1c(O[C@@H]2O[C@@H](CO)[C@@H](O)[C@@H](O)[C@H]2O)c(-c2ccc(O)cc2)oc2cc(O)cc(O)c12
REMARK SMILES IDX 4 1 3 2 16 3 24 4 2 5 25 6 1 7 32 8 26 9 30 10 27 11 29 12
REMARK SMILES IDX 17 13 18 14 19 15 20 16 23 17 22 18 21 19 31 21 28 23 5 25
REMARK SMILES IDX 14 26 6 27 12 28 7 29 10 30 15 31 13 33 8 35 9 36 11 38
REMARK H PARENT 21 20 31 22 28 24 15 32 13 34 9 37 11 39
REMARK Flexibility Score: inf
ROOT
ATOM      1  O   UNL     1      13.597 -30.766 -17.919  1.00  0.00    -0.454 OA
ENDROOT
BRANCH   1   2
ATOM      2  C   UNL     1      14.570 -31.312 -18.801  1.00  0.00     0.214 A 
ATOM      3  C   UNL     1      14.318 -32.575 -19.382  1.00  0.00     0.180 A 
ATOM      4  O   UNL     1      15.203 -33.112 -20.220  1.00  0.00    -0.452 OA
ATOM      5  C   UNL     1      15.790 -30.667 -19.131  1.00  0.00     0.239 A 
ATOM      6  C   UNL     1      16.335 -32.526 -20.571  1.00  0.00     0.146 A 
ATOM      7  O   UNL     1      16.117 -29.585 -18.576  1.00  0.00    -0.285 OA
ATOM      8  C   UNL     1      16.675 -31.260 -20.054  1.00  0.00     0.111 A 
ATOM      9  C   UNL     1      17.192 -33.164 -21.477  1.00  0.00     0.094 A 
ATOM     10  C   UNL     1      17.872 -30.630 -20.493  1.00  0.00     0.134 A 
ATOM     11  C   UNL     1      18.366 -32.536 -21.911  1.00  0.00     0.123 A 
ATOM     12  C   UNL     1      18.692 -31.265 -21.430  1.00  0.00     0.093 A 
BRANCH   3  13
ATOM     13  C   UNL     1      13.077 -33.356 -19.130  1.00  0.00     0.021 A 
ATOM     14  C   UNL     1      13.140 -34.458 -18.256  1.00  0.00     0.016 A 
ATOM     15  C   UNL     1      12.042 -35.311 -18.105  1.00  0.00     0.047 A 
ATOM     16  C   UNL     1      10.851 -35.052 -18.784  1.00  0.00     0.115 A 
ATOM     17  C   UNL     1      11.886 -33.125 -19.846  1.00  0.00     0.016 A 
ATOM     18  C   UNL     1      10.768 -33.943 -19.645  1.00  0.00     0.047 A 
BRANCH  16  19
ATOM     19  O   UNL     1       9.751 -35.903 -18.639  1.00  0.00    -0.508 OA
ATOM     20  H   UNL     1       9.026 -35.933 -19.343  1.00  0.00     0.293 HD
ENDBRANCH  16  19
ENDBRANCH   3  13
BRANCH  10  21
ATOM     21  O   UNL     1      18.221 -29.354 -20.054  1.00  0.00    -0.507 OA
ATOM     22  H   UNL     1      18.343 -29.184 -19.064  1.00  0.00     0.293 HD
ENDBRANCH  10  21
BRANCH  11  23
ATOM     23  O   UNL     1      19.208 -33.160 -22.830  1.00  0.00    -0.508 OA
ATOM     24  H   UNL     1      20.174 -32.885 -22.930  1.00  0.00     0.293 HD
ENDBRANCH  11  23
ENDBRANCH   1   2
BRANCH   1  25
ATOM     25  C   UNL     1      13.434 -31.018 -16.516  1.00  0.00     0.339 C 
ATOM     26  C   UNL     1      11.943 -31.317 -16.209  1.00  0.00     0.214 C 
ATOM     27  O   UNL     1      14.381 -31.990 -16.087  1.00  0.00    -0.332 OA
ATOM     28  C   UNL     1      11.725 -31.870 -14.765  1.00  0.00     0.180 C 
ATOM     29  C   UNL     1      14.095 -32.639 -14.855  1.00  0.00     0.179 C 
ATOM     30  C   UNL     1      13.025 -31.966 -13.966  1.00  0.00     0.177 C 
BRANCH  26  31
ATOM     31  O   UNL     1      11.199 -30.147 -16.437  1.00  0.00    -0.384 OA
ATOM     32  H   UNL     1      11.453 -29.507 -15.721  1.00  0.00     0.211 HD
ENDBRANCH  26  31
BRANCH  28  33
ATOM     33  O   UNL     1      10.723 -31.214 -14.015  1.00  0.00    -0.387 OA
ATOM     34  H   UNL     1      11.162 -30.661 -13.316  1.00  0.00     0.211 HD
ENDBRANCH  28  33
BRANCH  29  35
ATOM     35  C   UNL     1      15.403 -32.880 -14.093  1.00  0.00     0.191 C 
BRANCH  35  36
ATOM     36  O   UNL     1      16.499 -32.466 -14.872  1.00  0.00    -0.394 OA
ATOM     37  H   UNL     1      16.314 -31.525 -15.120  1.00  0.00     0.210 HD
ENDBRANCH  35  36
ENDBRANCH  29  35
BRANCH  30  38
ATOM     38  O   UNL     1      13.446 -30.698 -13.534  1.00  0.00    -0.387 OA
ATOM     39  H   UNL     1      13.273 -30.075 -14.288  1.00  0.00     0.211 HD
ENDBRANCH  30  38
ENDBRANCH   1  25
TORSDOF 11
ENDMDL
MODEL 2
REMARK VINA RESULT:    -7.602      6.565      9.860
REMARK INTER + INTRA:         -12.251
REMARK INTER:                 -11.051
REMARK INTRA:                  -1.199
REMARK UNBOUND:                -1.315
REMARK SMILES O=c1c(O[C@@H]2O[C@@H](CO)[C@@H](O)[C@@H](O)[C@H]2O)c(-c2ccc(O)cc2)oc2cc(O)cc(O)c12
REMARK SMILES IDX 4 1 3 2 16 3 24 4 2 5 25 6 1 7 32 8 26 9 30 10 27 11 29 12
REMARK SMILES IDX 17 13 18 14 19 15 20 16 23 17 22 18 21 19 31 21 28 23 5 25
REMARK SMILES IDX 14 26 6 27 12 28 7 29 10 30 15 31 13 33 8 35 9 36 11 38
REMARK H PARENT 21 20 31 22 28 24 15 32 13 34 9 37 11 39
REMARK Flexibility Score: inf
ROOT
ATOM      1  O   UNL     1      10.762 -25.789 -14.440  1.00  0.00    -0.454 OA
ENDROOT
BRANCH   1   2
ATOM      2  C   UNL     1       9.944 -26.775 -15.058  1.00  0.00     0.214 A 
ATOM      3  C   UNL     1       8.643 -26.409 -15.471  1.00  0.00     0.180 A 
ATOM      4  O   UNL     1       7.856 -27.305 -16.062  1.00  0.00    -0.452 OA
ATOM      5  C   UNL     1      10.355 -28.115 -15.282  1.00  0.00     0.239 A 
ATOM      6  C   UNL     1       8.216 -28.553 -16.312  1.00  0.00     0.146 A 
ATOM      7  O   UNL     1      11.464 -28.529 -14.856  1.00  0.00    -0.285 OA
ATOM      8  C   UNL     1       9.497 -29.014 -15.949  1.00  0.00     0.111 A 
ATOM      9  C   UNL     1       7.320 -29.414 -16.959  1.00  0.00     0.094 A 
ATOM     10  C   UNL     1       9.875 -30.343 -16.281  1.00  0.00     0.134 A 
ATOM     11  C   UNL     1       7.701 -30.720 -17.290  1.00  0.00     0.123 A 
ATOM     12  C   UNL     1       8.982 -31.173 -16.964  1.00  0.00     0.093 A 
BRANCH   3  13
ATOM     13  C   UNL     1       8.091 -25.038 -15.305  1.00  0.00     0.021 A 
ATOM     14  C   UNL     1       8.502 -24.033 -16.200  1.00  0.00     0.016 A 
ATOM     15  C   UNL     1       8.131 -22.700 -15.994  1.00  0.00     0.047 A 
ATOM     16  C   UNL     1       7.306 -22.356 -14.923  1.00  0.00     0.115 A 
ATOM     17  C   UNL     1       7.294 -24.677 -14.200  1.00  0.00     0.016 A 
ATOM     18  C   UNL     1       6.871 -23.355 -14.032  1.00  0.00     0.047 A 
BRANCH  16  19
ATOM     19  O   UNL     1       6.933 -21.026 -14.711  1.00  0.00    -0.508 OA
ATOM     20  H   UNL     1       7.605 -20.350 -14.372  1.00  0.00     0.293 HD
ENDBRANCH  16  19
ENDBRANCH   3  13
BRANCH  10  21
ATOM     21  O   UNL     1      11.151 -30.825 -15.993  1.00  0.00    -0.507 OA
ATOM     22  H   UNL     1      11.896 -30.697 -16.666  1.00  0.00     0.293 HD
ENDBRANCH  10  21
BRANCH  11  23
ATOM     23  O   UNL     1       6.819 -31.571 -17.954  1.00  0.00    -0.508 OA
ATOM     24  H   UNL     1       6.576 -32.476 -17.576  1.00  0.00     0.293 HD
ENDBRANCH  11  23
ENDBRANCH   1   2
BRANCH   1  25
ATOM     25  C   UNL     1      10.943 -25.543 -13.038  1.00  0.00     0.339 C 
ATOM     26  C   UNL     1      10.342 -24.160 -12.669  1.00  0.00     0.214 C 
ATOM     27  O   UNL     1      10.479 -26.660 -12.288  1.00  0.00    -0.332 OA
ATOM     28  C   UNL     1      10.249 -23.938 -11.126  1.00  0.00     0.180 C 
ATOM     29  C   UNL     1      10.211 -26.421 -10.912  1.00  0.00     0.179 C 
ATOM     30  C   UNL     1      10.797 -25.118 -10.323  1.00  0.00     0.177 C 
BRANCH  26  31
ATOM     31  O   UNL     1      11.107 -23.162 -13.295  1.00  0.00    -0.384 OA
ATOM     32  H   UNL     1      10.553 -22.338 -13.292  1.00  0.00     0.211 HD
ENDBRANCH  26  31
BRANCH  28  33
ATOM     33  O   UNL     1      10.794 -22.719 -10.661  1.00  0.00    -0.387 OA
ATOM     34  H   UNL     1      10.566 -22.002 -11.311  1.00  0.00     0.211 HD
ENDBRANCH  28  33
BRANCH  29  35
ATOM     35  C   UNL     1      10.619 -27.652 -10.094  1.00  0.00     0.191 C 
BRANCH  35  36
ATOM     36  O   UNL     1      10.256 -28.827 -10.777  1.00  0.00    -0.394 OA
ATOM     37  H   UNL     1      10.151 -29.523 -10.080  1.00  0.00     0.210 HD
ENDBRANCH  35  36
ENDBRANCH  29  35
BRANCH  30  38
ATOM     38  O   UNL     1      12.201 -25.135 -10.346  1.00  0.00    -0.387 OA
ATOM     39  H   UNL     1      12.494 -25.219  -9.401  1.00  0.00     0.211 HD
ENDBRANCH  30  38
ENDBRANCH   1  25
TORSDOF 11
ENDMDL
MODEL 3
REMARK VINA RESULT:    -7.452      5.188      8.181
REMARK INTER + INTRA:         -12.034
REMARK INTER:                 -10.454
REMARK INTRA:                  -1.580
REMARK UNBOUND:                -1.315
REMARK SMILES O=c1c(O[C@@H]2O[C@@H](CO)[C@@H](O)[C@@H](O)[C@H]2O)c(-c2ccc(O)cc2)oc2cc(O)cc(O)c12
REMARK SMILES IDX 4 1 3 2 16 3 24 4 2 5 25 6 1 7 32 8 26 9 30 10 27 11 29 12
REMARK SMILES IDX 17 13 18 14 19 15 20 16 23 17 22 18 21 19 31 21 28 23 5 25
REMARK SMILES IDX 14 26 6 27 12 28 7 29 10 30 15 31 13 33 8 35 9 36 11 38
REMARK H PARENT 21 20 31 22 28 24 15 32 13 34 9 37 11 39
REMARK Flexibility Score: inf
ROOT
ATOM      1  O   UNL     1      10.800 -30.669 -15.843  1.00  0.00    -0.454 OA
ENDROOT
BRANCH   1   2
ATOM      2  C   UNL     1      10.039 -29.529 -15.463  1.00  0.00     0.214 A 
ATOM      3  C   UNL     1       8.946 -29.148 -16.273  1.00  0.00     0.180 A 
ATOM      4  O   UNL     1       8.206 -28.092 -15.940  1.00  0.00    -0.452 OA
ATOM      5  C   UNL     1      10.316 -28.741 -14.316  1.00  0.00     0.239 A 
ATOM      6  C   UNL     1       8.418 -27.353 -14.864  1.00  0.00     0.146 A 
ATOM      7  O   UNL     1      11.329 -28.970 -13.606  1.00  0.00    -0.285 OA
ATOM      8  C   UNL     1       9.478 -27.656 -13.986  1.00  0.00     0.111 A 
ATOM      9  C   UNL     1       7.569 -26.273 -14.589  1.00  0.00     0.094 A 
ATOM     10  C   UNL     1       9.646 -26.877 -12.808  1.00  0.00     0.134 A 
ATOM     11  C   UNL     1       7.736 -25.514 -13.425  1.00  0.00     0.123 A 
ATOM     12  C   UNL     1       8.763 -25.830 -12.531  1.00  0.00     0.093 A 
BRANCH   3  13
ATOM     13  C   UNL     1       8.540 -29.890 -17.497  1.00  0.00     0.021 A 
ATOM     14  C   UNL     1       7.599 -30.930 -17.374  1.00  0.00     0.016 A 
ATOM     15  C   UNL     1       7.300 -31.754 -18.464  1.00  0.00     0.047 A 
ATOM     16  C   UNL     1       7.898 -31.524 -19.704  1.00  0.00     0.115 A 
ATOM     17  C   UNL     1       9.173 -29.693 -18.740  1.00  0.00     0.016 A 
ATOM     18  C   UNL     1       8.826 -30.476 -19.845  1.00  0.00     0.047 A 
BRANCH  16  19
ATOM     19  O   UNL     1       7.605 -32.346 -20.796  1.00  0.00    -0.508 OA
ATOM     20  H   UNL     1       8.251 -32.424 -21.570  1.00  0.00     0.293 HD
ENDBRANCH  16  19
ENDBRANCH   3  13
BRANCH  10  21
ATOM     21  O   UNL     1      10.644 -27.175 -11.882  1.00  0.00    -0.507 OA
ATOM     22  H   UNL     1      10.399 -27.300 -10.908  1.00  0.00     0.293 HD
ENDBRANCH  10  21
BRANCH  11  23
ATOM     23  O   UNL     1       6.878 -24.453 -13.139  1.00  0.00    -0.508 OA
ATOM     24  H   UNL     1       6.083 -24.570 -12.527  1.00  0.00     0.293 HD
ENDBRANCH  11  23
ENDBRANCH   1   2
BRANCH   1  25
ATOM     25  C   UNL     1      10.630 -32.028 -15.416  1.00  0.00     0.339 C 
ATOM     26  C   UNL     1      11.289 -32.985 -16.444  1.00  0.00     0.214 C 
ATOM     27  O   UNL     1      11.046 -32.163 -14.061  1.00  0.00    -0.332 OA
ATOM     28  C   UNL     1      11.392 -34.453 -15.920  1.00  0.00     0.180 C 
ATOM     29  C   UNL     1      11.325 -33.487 -13.623  1.00  0.00     0.179 C 
ATOM     30  C   UNL     1      10.795 -34.626 -14.523  1.00  0.00     0.177 C 
BRANCH  26  31
ATOM     31  O   UNL     1      10.566 -32.911 -17.647  1.00  0.00    -0.384 OA
ATOM     32  H   UNL     1      10.066 -32.053 -17.623  1.00  0.00     0.211 HD
ENDBRANCH  26  31
BRANCH  28  33
ATOM     33  O   UNL     1      10.900 -35.441 -16.802  1.00  0.00    -0.387 OA
ATOM     34  H   UNL     1      10.602 -36.224 -16.265  1.00  0.00     0.211 HD
ENDBRANCH  28  33
BRANCH  29  35
ATOM     35  C   UNL     1      10.866 -33.647 -12.169  1.00  0.00     0.191 C 
BRANCH  35  36
ATOM     36  O   UNL     1       9.605 -33.050 -11.992  1.00  0.00    -0.394 OA
ATOM     37  H   UNL     1       9.241 -32.914 -12.903  1.00  0.00     0.210 HD
ENDBRANCH  35  36
ENDBRANCH  29  35
BRANCH  30  38
ATOM     38  O   UNL     1       9.391 -34.626 -14.571  1.00  0.00    -0.387 OA
ATOM     39  H   UNL     1       9.082 -34.343 -13.671  1.00  0.00     0.211 HD
ENDBRANCH  30  38
ENDBRANCH   1  25
TORSDOF 11
ENDMDL
MODEL 4
REMARK VINA RESULT:    -7.414      1.421      2.233
REMARK INTER + INTRA:         -11.980
REMARK INTER:                 -10.243
REMARK INTRA:                  -1.737
REMARK UNBOUND:                -1.315
REMARK SMILES O=c1c(O[C@@H]2O[C@@H](CO)[C@@H](O)[C@@H](O)[C@H]2O)c(-c2ccc(O)cc2)oc2cc(O)cc(O)c12
REMARK SMILES IDX 4 1 3 2 16 3 24 4 2 5 25 6 1 7 32 8 26 9 30 10 27 11 29 12
REMARK SMILES IDX 17 13 18 14 19 15 20 16 23 17 22 18 21 19 31 21 28 23 5 25
REMARK SMILES IDX 14 26 6 27 12 28 7 29 10 30 15 31 13 33 8 35 9 36 11 38
REMARK H PARENT 21 20 31 22 28 24 15 32 13 34 9 37 11 39
REMARK Flexibility Score: inf
ROOT
ATOM      1  O   UNL     1      14.474 -30.327 -18.499  1.00  0.00    -0.454 OA
ENDROOT
BRANCH   1   2
ATOM      2  C   UNL     1      15.393 -31.045 -19.312  1.00  0.00     0.214 A 
ATOM      3  C   UNL     1      15.097 -32.387 -19.641  1.00  0.00     0.180 A 
ATOM      4  O   UNL     1      15.931 -33.084 -20.409  1.00  0.00    -0.452 OA
ATOM      5  C   UNL     1      16.602 -30.495 -19.813  1.00  0.00     0.239 A 
ATOM      6  C   UNL     1      17.051 -32.595 -20.915  1.00  0.00     0.146 A 
ATOM      7  O   UNL     1      16.970 -29.338 -19.482  1.00  0.00    -0.285 OA
ATOM      8  C   UNL     1      17.431 -31.264 -20.655  1.00  0.00     0.111 A 
ATOM      9  C   UNL     1      17.852 -33.405 -21.731  1.00  0.00     0.094 A 
ATOM     10  C   UNL     1      18.611 -30.749 -21.259  1.00  0.00     0.134 A 
ATOM     11  C   UNL     1      19.009 -32.891 -22.329  1.00  0.00     0.123 A 
ATOM     12  C   UNL     1      19.374 -31.560 -22.103  1.00  0.00     0.093 A 
BRANCH   3  13
ATOM     13  C   UNL     1      13.862 -33.083 -19.190  1.00  0.00     0.021 A 
ATOM     14  C   UNL     1      13.947 -33.970 -18.101  1.00  0.00     0.016 A 
ATOM     15  C   UNL     1      12.851 -34.760 -17.738  1.00  0.00     0.047 A 
ATOM     16  C   UNL     1      11.642 -34.643 -18.423  1.00  0.00     0.115 A 
ATOM     17  C   UNL     1      12.650 -33.001 -19.905  1.00  0.00     0.016 A 
ATOM     18  C   UNL     1      11.537 -33.745 -19.500  1.00  0.00     0.047 A 
BRANCH  16  19
ATOM     19  O   UNL     1      10.544 -35.432 -18.066  1.00  0.00    -0.508 OA
ATOM     20  H   UNL     1       9.783 -35.580 -18.715  1.00  0.00     0.293 HD
ENDBRANCH  16  19
ENDBRANCH   3  13
BRANCH  10  21
ATOM     21  O   UNL     1      18.997 -29.422 -21.077  1.00  0.00    -0.507 OA
ATOM     22  H   UNL     1      18.434 -28.681 -21.474  1.00  0.00     0.293 HD
ENDBRANCH  10  21
BRANCH  11  23
ATOM     23  O   UNL     1      19.795 -33.688 -23.159  1.00  0.00    -0.508 OA
ATOM     24  H   UNL     1      19.421 -34.097 -24.003  1.00  0.00     0.293 HD
ENDBRANCH  11  23
ENDBRANCH   1   2
BRANCH   1  25
ATOM     25  C   UNL     1      14.391 -30.304 -17.067  1.00  0.00     0.339 C 
ATOM     26  C   UNL     1      14.830 -28.911 -16.540  1.00  0.00     0.214 C 
ATOM     27  O   UNL     1      13.112 -30.769 -16.649  1.00  0.00    -0.332 OA
ATOM     28  C   UNL     1      14.508 -28.713 -15.025  1.00  0.00     0.180 C 
ATOM     29  C   UNL     1      12.727 -30.431 -15.324  1.00  0.00     0.179 C 
ATOM     30  C   UNL     1      13.859 -29.943 -14.391  1.00  0.00     0.177 C 
BRANCH  26  31
ATOM     31  O   UNL     1      16.200 -28.747 -16.808  1.00  0.00    -0.384 OA
ATOM     32  H   UNL     1      16.650 -29.575 -16.494  1.00  0.00     0.211 HD
ENDBRANCH  26  31
BRANCH  28  33
ATOM     33  O   UNL     1      15.587 -28.253 -14.237  1.00  0.00    -0.387 OA
ATOM     34  H   UNL     1      16.238 -27.791 -14.830  1.00  0.00     0.211 HD
ENDBRANCH  28  33
BRANCH  29  35
ATOM     35  C   UNL     1      11.943 -31.597 -14.710  1.00  0.00     0.191 C 
BRANCH  35  36
ATOM     36  O   UNL     1      12.677 -32.790 -14.834  1.00  0.00    -0.394 OA
ATOM     37  H   UNL     1      13.562 -32.527 -15.194  1.00  0.00     0.210 HD
ENDBRANCH  35  36
ENDBRANCH  29  35
BRANCH  30  38
ATOM     38  O   UNL     1      14.807 -30.955 -14.168  1.00  0.00    -0.387 OA
ATOM     39  H   UNL     1      15.433 -30.924 -14.938  1.00  0.00     0.211 HD
ENDBRANCH  30  38
ENDBRANCH   1  25
TORSDOF 11
ENDMDL
MODEL 5
REMARK VINA RESULT:    -7.358      1.734      2.889
REMARK INTER + INTRA:         -11.900
REMARK INTER:                 -10.514
REMARK INTRA:                  -1.385
REMARK UNBOUND:                -1.315
REMARK SMILES O=c1c(O[C@@H]2O[C@@H](CO)[C@@H](O)[C@@H](O)[C@H]2O)c(-c2ccc(O)cc2)oc2cc(O)cc(O)c12
REMARK SMILES IDX 4 1 3 2 16 3 24 4 2 5 25 6 1 7 32 8 26 9 30 10 27 11 29 12
REMARK SMILES IDX 17 13 18 14 19 15 20 16 23 17 22 18 21 19 31 21 28 23 5 25
REMARK SMILES IDX 14 26 6 27 12 28 7 29 10 30 15 31 13 33 8 35 9 36 11 38
REMARK H PARENT 21 20 31 22 28 24 15 32 13 34 9 37 11 39
REMARK Flexibility Score: inf
ROOT
ATOM      1  O   UNL     1      12.956 -31.271 -16.403  1.00  0.00    -0.454 OA
ENDROOT
BRANCH   1   2
ATOM      2  C   UNL     1      14.045 -31.207 -17.316  1.00  0.00     0.214 A 
ATOM      3  C   UNL     1      14.130 -32.184 -18.333  1.00  0.00     0.180 A 
ATOM      4  O   UNL     1      15.130 -32.147 -19.210  1.00  0.00    -0.452 OA
ATOM      5  C   UNL     1      15.062 -30.218 -17.265  1.00  0.00     0.239 A 
ATOM      6  C   UNL     1      16.078 -31.225 -19.209  1.00  0.00     0.146 A 
ATOM      7  O   UNL     1      15.096 -29.377 -16.330  1.00  0.00    -0.285 OA
ATOM      8  C   UNL     1      16.078 -30.200 -18.243  1.00  0.00     0.111 A 
ATOM      9  C   UNL     1      17.078 -31.261 -20.190  1.00  0.00     0.094 A 
ATOM     10  C   UNL     1      17.078 -29.191 -18.301  1.00  0.00     0.134 A 
ATOM     11  C   UNL     1      18.056 -30.260 -20.247  1.00  0.00     0.123 A 
ATOM     12  C   UNL     1      18.041 -29.221 -19.313  1.00  0.00     0.093 A 
BRANCH   3  13
ATOM     13  C   UNL     1      13.127 -33.270 -18.506  1.00  0.00     0.021 A 
ATOM     14  C   UNL     1      11.951 -32.992 -19.228  1.00  0.00     0.016 A 
ATOM     15  C   UNL     1      10.914 -33.929 -19.289  1.00  0.00     0.047 A 
ATOM     16  C   UNL     1      11.053 -35.173 -18.673  1.00  0.00     0.115 A 
ATOM     17  C   UNL     1      13.243 -34.511 -17.849  1.00  0.00     0.016 A 
ATOM     18  C   UNL     1      12.232 -35.470 -17.965  1.00  0.00     0.047 A 
BRANCH  16  19
ATOM     19  O   UNL     1      10.019 -36.113 -18.728  1.00  0.00    -0.508 OA
ATOM     20  H   UNL     1       9.053 -35.817 -18.710  1.00  0.00     0.293 HD
ENDBRANCH  16  19
ENDBRANCH   3  13
BRANCH  10  21
ATOM     21  O   UNL     1      17.084 -28.126 -17.401  1.00  0.00    -0.507 OA
ATOM     22  H   UNL     1      17.934 -27.905 -16.898  1.00  0.00     0.293 HD
ENDBRANCH  10  21
BRANCH  11  23
ATOM     23  O   UNL     1      19.038 -30.282 -21.236  1.00  0.00    -0.508 OA
ATOM     24  H   UNL     1      19.352 -31.150 -21.647  1.00  0.00     0.293 HD
ENDBRANCH  11  23
ENDBRANCH   1   2
BRANCH   1  25
ATOM     25  C   UNL     1      12.835 -32.084 -15.227  1.00  0.00     0.339 C 
ATOM     26  C   UNL     1      12.953 -31.193 -13.962  1.00  0.00     0.214 C 
ATOM     27  O   UNL     1      11.676 -32.904 -15.324  1.00  0.00    -0.332 OA
ATOM     28  C   UNL     1      12.559 -31.951 -12.654  1.00  0.00     0.180 C 
ATOM     29  C   UNL     1      11.195 -33.452 -14.104  1.00  0.00     0.179 C 
ATOM     30  C   UNL     1      12.173 -33.408 -12.908  1.00  0.00     0.177 C 
BRANCH  26  31
ATOM     31  O   UNL     1      14.262 -30.686 -13.896  1.00  0.00    -0.384 OA
ATOM     32  H   UNL     1      14.222 -29.755 -14.239  1.00  0.00     0.211 HD
ENDBRANCH  26  31
BRANCH  28  33
ATOM     33  O   UNL     1      13.495 -31.856 -11.599  1.00  0.00    -0.387 OA
ATOM     34  H   UNL     1      13.683 -30.895 -11.429  1.00  0.00     0.211 HD
ENDBRANCH  28  33
BRANCH  29  35
ATOM     35  C   UNL     1      10.664 -34.868 -14.357  1.00  0.00     0.191 C 
BRANCH  35  36
ATOM     36  O   UNL     1       9.263 -34.886 -14.239  1.00  0.00    -0.394 OA
ATOM     37  H   UNL     1       9.043 -35.724 -13.758  1.00  0.00     0.210 HD
ENDBRANCH  35  36
ENDBRANCH  29  35
BRANCH  30  38
ATOM     38  O   UNL     1      13.309 -34.196 -13.150  1.00  0.00    -0.387 OA
ATOM     39  H   UNL     1      12.997 -35.139 -13.161  1.00  0.00     0.211 HD
ENDBRANCH  30  38
ENDBRANCH   1  25
TORSDOF 11
ENDMDL
MODEL 6
REMARK VINA RESULT:    -7.314      3.472      6.685
REMARK INTER + INTRA:         -11.836
REMARK INTER:                 -10.205
REMARK INTRA:                  -1.630
REMARK UNBOUND:                -1.315
REMARK SMILES O=c1c(O[C@@H]2O[C@@H](CO)[C@@H](O)[C@@H](O)[C@H]2O)c(-c2ccc(O)cc2)oc2cc(O)cc(O)c12
REMARK SMILES IDX 4 1 3 2 16 3 24 4 2 5 25 6 1 7 32 8 26 9 30 10 27 11 29 12
REMARK SMILES IDX 17 13 18 14 19 15 20 16 23 17 22 18 21 19 31 21 28 23 5 25
REMARK SMILES IDX 14 26 6 27 12 28 7 29 10 30 15 31 13 33 8 35 9 36 11 38
REMARK H PARENT 21 20 31 22 28 24 15 32 13 34 9 37 11 39
REMARK Flexibility Score: inf
ROOT
ATOM      1  O   UNL     1      12.947 -30.543 -18.661  1.00  0.00    -0.454 OA
ENDROOT
BRANCH   1   2
ATOM      2  C   UNL     1      11.645 -30.263 -19.157  1.00  0.00     0.214 A 
ATOM      3  C   UNL     1      10.682 -31.298 -19.144  1.00  0.00     0.180 A 
ATOM      4  O   UNL     1       9.450 -31.067 -19.592  1.00  0.00    -0.452 OA
ATOM      5  C   UNL     1      11.250 -29.003 -19.675  1.00  0.00     0.239 A 
ATOM      6  C   UNL     1       9.040 -29.897 -20.054  1.00  0.00     0.146 A 
ATOM      7  O   UNL     1      12.084 -28.068 -19.802  1.00  0.00    -0.285 OA
ATOM      8  C   UNL     1       9.921 -28.798 -20.101  1.00  0.00     0.111 A 
ATOM      9  C   UNL     1       7.715 -29.749 -20.484  1.00  0.00     0.094 A 
ATOM     10  C   UNL     1       9.437 -27.540 -20.551  1.00  0.00     0.134 A 
ATOM     11  C   UNL     1       7.241 -28.506 -20.920  1.00  0.00     0.123 A 
ATOM     12  C   UNL     1       8.100 -27.403 -20.935  1.00  0.00     0.093 A 
BRANCH   3  13
ATOM     13  C   UNL     1      10.959 -32.662 -18.620  1.00  0.00     0.021 A 
ATOM     14  C   UNL     1      11.377 -33.658 -19.524  1.00  0.00     0.016 A 
ATOM     15  C   UNL     1      11.503 -34.988 -19.109  1.00  0.00     0.047 A 
ATOM     16  C   UNL     1      11.261 -35.337 -17.780  1.00  0.00     0.115 A 
ATOM     17  C   UNL     1      10.673 -33.030 -17.291  1.00  0.00     0.016 A 
ATOM     18  C   UNL     1      10.861 -34.348 -16.863  1.00  0.00     0.047 A 
BRANCH  16  19
ATOM     19  O   UNL     1      11.383 -36.665 -17.361  1.00  0.00    -0.508 OA
ATOM     20  H   UNL     1      12.175 -37.225 -17.646  1.00  0.00     0.293 HD
ENDBRANCH  16  19
ENDBRANCH   3  13
BRANCH  10  21
ATOM     21  O   UNL     1      10.255 -26.411 -20.560  1.00  0.00    -0.507 OA
ATOM     22  H   UNL     1      10.185 -25.751 -21.323  1.00  0.00     0.293 HD
ENDBRANCH  10  21
BRANCH  11  23
ATOM     23  O   UNL     1       5.917 -28.352 -21.326  1.00  0.00    -0.508 OA
ATOM     24  H   UNL     1       5.608 -27.520 -21.808  1.00  0.00     0.293 HD
ENDBRANCH  11  23
ENDBRANCH   1   2
BRANCH   1  25
ATOM     25  C   UNL     1      14.172 -30.649 -19.401  1.00  0.00     0.339 C 
ATOM     26  C   UNL     1      15.250 -29.734 -18.760  1.00  0.00     0.214 C 
ATOM     27  O   UNL     1      14.517 -32.020 -19.570  1.00  0.00    -0.332 OA
ATOM     28  C   UNL     1      16.679 -29.998 -19.332  1.00  0.00     0.180 C 
ATOM     29  C   UNL     1      15.872 -32.285 -19.910  1.00  0.00     0.179 C 
ATOM     30  C   UNL     1      16.694 -31.077 -20.415  1.00  0.00     0.177 C 
BRANCH  26  31
ATOM     31  O   UNL     1      14.857 -28.396 -18.935  1.00  0.00    -0.384 OA
ATOM     32  H   UNL     1      14.954 -27.956 -18.050  1.00  0.00     0.211 HD
ENDBRANCH  26  31
BRANCH  28  33
ATOM     33  O   UNL     1      17.376 -28.846 -19.763  1.00  0.00    -0.387 OA
ATOM     34  H   UNL     1      16.724 -28.103 -19.868  1.00  0.00     0.211 HD
ENDBRANCH  28  33
BRANCH  29  35
ATOM     35  C   UNL     1      15.928 -33.464 -20.889  1.00  0.00     0.191 C 
BRANCH  35  36
ATOM     36  O   UNL     1      14.801 -33.447 -21.730  1.00  0.00    -0.394 OA
ATOM     37  H   UNL     1      15.151 -33.314 -22.647  1.00  0.00     0.210 HD
ENDBRANCH  35  36
ENDBRANCH  29  35
BRANCH  30  38
ATOM     38  O   UNL     1      16.182 -30.583 -21.626  1.00  0.00    -0.387 OA
ATOM     39  H   UNL     1      16.874 -29.972 -21.992  1.00  0.00     0.211 HD
ENDBRANCH  30  38
ENDBRANCH   1  25
TORSDOF 11
ENDMDL
MODEL 7
REMARK VINA RESULT:    -7.311      2.692      4.260
REMARK INTER + INTRA:         -11.832
REMARK INTER:                 -10.565
REMARK INTRA:                  -1.267
REMARK UNBOUND:                -1.315
REMARK SMILES O=c1c(O[C@@H]2O[C@@H](CO)[C@@H](O)[C@@H](O)[C@H]2O)c(-c2ccc(O)cc2)oc2cc(O)cc(O)c12
REMARK SMILES IDX 4 1 3 2 16 3 24 4 2 5 25 6 1 7 32 8 26 9 30 10 27 11 29 12
REMARK SMILES IDX 17 13 18 14 19 15 20 16 23 17 22 18 21 19 31 21 28 23 5 25
REMARK SMILES IDX 14 26 6 27 12 28 7 29 10 30 15 31 13 33 8 35 9 36 11 38
REMARK H PARENT 21 20 31 22 28 24 15 32 13 34 9 37 11 39
REMARK Flexibility Score: inf
ROOT
ATOM      1  O   UNL     1      13.772 -30.392 -19.187  1.00  0.00    -0.454 OA
ENDROOT
BRANCH   1   2
ATOM      2  C   UNL     1      14.834 -31.172 -19.721  1.00  0.00     0.214 A 
ATOM      3  C   UNL     1      14.648 -32.566 -19.852  1.00  0.00     0.180 A 
ATOM      4  O   UNL     1      15.618 -33.324 -20.358  1.00  0.00    -0.452 OA
ATOM      5  C   UNL     1      16.082 -30.633 -20.129  1.00  0.00     0.239 A 
ATOM      6  C   UNL     1      16.782 -32.851 -20.774  1.00  0.00     0.146 A 
ATOM      7  O   UNL     1      16.347 -29.415 -19.953  1.00  0.00    -0.285 OA
ATOM      8  C   UNL     1      17.063 -31.473 -20.696  1.00  0.00     0.111 A 
ATOM      9  C   UNL     1      17.732 -33.729 -21.312  1.00  0.00     0.094 A 
ATOM     10  C   UNL     1      18.300 -30.988 -21.202  1.00  0.00     0.134 A 
ATOM     11  C   UNL     1      18.945 -33.245 -21.815  1.00  0.00     0.123 A 
ATOM     12  C   UNL     1      19.216 -31.874 -21.773  1.00  0.00     0.093 A 
BRANCH   3  13
ATOM     13  C   UNL     1      13.387 -33.259 -19.473  1.00  0.00     0.021 A 
ATOM     14  C   UNL     1      13.417 -34.174 -18.404  1.00  0.00     0.016 A 
ATOM     15  C   UNL     1      12.298 -34.961 -18.107  1.00  0.00     0.047 A 
ATOM     16  C   UNL     1      11.120 -34.813 -18.840  1.00  0.00     0.115 A 
ATOM     17  C   UNL     1      12.208 -33.146 -20.236  1.00  0.00     0.016 A 
ATOM     18  C   UNL     1      11.071 -33.887 -19.898  1.00  0.00     0.047 A 
BRANCH  16  19
ATOM     19  O   UNL     1      10.000 -35.597 -18.550  1.00  0.00    -0.508 OA
ATOM     20  H   UNL     1       9.283 -35.260 -17.922  1.00  0.00     0.293 HD
ENDBRANCH  16  19
ENDBRANCH   3  13
BRANCH  10  21
ATOM     21  O   UNL     1      18.598 -29.626 -21.198  1.00  0.00    -0.507 OA
ATOM     22  H   UNL     1      19.484 -29.311 -20.824  1.00  0.00     0.293 HD
ENDBRANCH  10  21
BRANCH  11  23
ATOM     23  O   UNL     1      19.882 -34.114 -22.371  1.00  0.00    -0.508 OA
ATOM     24  H   UNL     1      20.428 -33.852 -23.179  1.00  0.00     0.293 HD
ENDBRANCH  11  23
ENDBRANCH   1   2
BRANCH   1  25
ATOM     25  C   UNL     1      12.776 -29.647 -19.902  1.00  0.00     0.339 C 
ATOM     26  C   UNL     1      11.616 -29.270 -18.941  1.00  0.00     0.214 C 
ATOM     27  O   UNL     1      13.390 -28.576 -20.610  1.00  0.00    -0.332 OA
ATOM     28  C   UNL     1      10.632 -28.230 -19.565  1.00  0.00     0.180 C 
ATOM     29  C   UNL     1      12.528 -27.524 -21.023  1.00  0.00     0.179 C 
ATOM     30  C   UNL     1      11.014 -27.837 -20.992  1.00  0.00     0.177 C 
BRANCH  26  31
ATOM     31  O   UNL     1      10.954 -30.450 -18.560  1.00  0.00    -0.384 OA
ATOM     32  H   UNL     1      11.023 -31.074 -19.330  1.00  0.00     0.211 HD
ENDBRANCH  26  31
BRANCH  28  33
ATOM     33  O   UNL     1       9.264 -28.576 -19.489  1.00  0.00    -0.387 OA
ATOM     34  H   UNL     1       9.176 -29.554 -19.646  1.00  0.00     0.211 HD
ENDBRANCH  28  33
BRANCH  29  35
ATOM     35  C   UNL     1      12.977 -27.009 -22.395  1.00  0.00     0.191 C 
BRANCH  35  36
ATOM     36  O   UNL     1      13.363 -28.086 -23.213  1.00  0.00    -0.394 OA
ATOM     37  H   UNL     1      12.568 -28.673 -23.279  1.00  0.00     0.210 HD
ENDBRANCH  35  36
ENDBRANCH  29  35
BRANCH  30  38
ATOM     38  O   UNL     1      10.685 -28.855 -21.901  1.00  0.00    -0.387 OA
ATOM     39  H   UNL     1      10.822 -29.713 -21.420  1.00  0.00     0.211 HD
ENDBRANCH  30  38
ENDBRANCH   1  25
TORSDOF 11
ENDMDL
MODEL 8
REMARK VINA RESULT:    -7.286      1.152      1.578
REMARK INTER + INTRA:         -11.796
REMARK INTER:                 -10.244
REMARK INTRA:                  -1.552
REMARK UNBOUND:                -1.315
REMARK SMILES O=c1c(O[C@@H]2O[C@@H](CO)[C@@H](O)[C@@H](O)[C@H]2O)c(-c2ccc(O)cc2)oc2cc(O)cc(O)c12
REMARK SMILES IDX 4 1 3 2 16 3 24 4 2 5 25 6 1 7 32 8 26 9 30 10 27 11 29 12
REMARK SMILES IDX 17 13 18 14 19 15 20 16 23 17 22 18 21 19 31 21 28 23 5 25
REMARK SMILES IDX 14 26 6 27 12 28 7 29 10 30 15 31 13 33 8 35 9 36 11 38
REMARK H PARENT 21 20 31 22 28 24 15 32 13 34 9 37 11 39
REMARK Flexibility Score: inf
ROOT
ATOM      1  O   UNL     1      13.221 -30.996 -16.992  1.00  0.00    -0.454 OA
ENDROOT
BRANCH   1   2
ATOM      2  C   UNL     1      14.290 -31.081 -17.926  1.00  0.00     0.214 A 
ATOM      3  C   UNL     1      14.319 -32.177 -18.818  1.00  0.00     0.180 A 
ATOM      4  O   UNL     1      15.300 -32.282 -19.712  1.00  0.00    -0.452 OA
ATOM      5  C   UNL     1      15.340 -30.131 -18.015  1.00  0.00     0.239 A 
ATOM      6  C   UNL     1      16.278 -31.402 -19.841  1.00  0.00     0.146 A 
ATOM      7  O   UNL     1      15.424 -29.185 -17.190  1.00  0.00    -0.285 OA
ATOM      8  C   UNL     1      16.334 -30.268 -19.006  1.00  0.00     0.111 A 
ATOM      9  C   UNL     1      17.254 -31.591 -20.828  1.00  0.00     0.094 A 
ATOM     10  C   UNL     1      17.366 -29.310 -19.205  1.00  0.00     0.134 A 
ATOM     11  C   UNL     1      18.263 -30.641 -21.025  1.00  0.00     0.123 A 
ATOM     12  C   UNL     1      18.304 -29.497 -20.223  1.00  0.00     0.093 A 
BRANCH   3  13
ATOM     13  C   UNL     1      13.277 -33.239 -18.839  1.00  0.00     0.021 A 
ATOM     14  C   UNL     1      12.125 -33.036 -19.621  1.00  0.00     0.016 A 
ATOM     15  C   UNL     1      11.052 -33.932 -19.556  1.00  0.00     0.047 A 
ATOM     16  C   UNL     1      11.132 -35.067 -18.748  1.00  0.00     0.115 A 
ATOM     17  C   UNL     1      13.333 -34.364 -17.993  1.00  0.00     0.016 A 
ATOM     18  C   UNL     1      12.287 -35.292 -17.977  1.00  0.00     0.047 A 
BRANCH  16  19
ATOM     19  O   UNL     1      10.063 -35.965 -18.677  1.00  0.00    -0.508 OA
ATOM     20  H   UNL     1      10.171 -36.921 -18.990  1.00  0.00     0.293 HD
ENDBRANCH  16  19
ENDBRANCH   3  13
BRANCH  10  21
ATOM     21  O   UNL     1      17.428 -28.145 -18.442  1.00  0.00    -0.507 OA
ATOM     22  H   UNL     1      16.769 -27.398 -18.617  1.00  0.00     0.293 HD
ENDBRANCH  10  21
BRANCH  11  23
ATOM     23  O   UNL     1      19.221 -30.817 -22.022  1.00  0.00    -0.508 OA
ATOM     24  H   UNL     1      19.428 -30.087 -22.687  1.00  0.00     0.293 HD
ENDBRANCH  11  23
ENDBRANCH   1   2
BRANCH   1  25
ATOM     25  C   UNL     1      13.193 -31.461 -15.635  1.00  0.00     0.339 C 
ATOM     26  C   UNL     1      11.829 -32.142 -15.344  1.00  0.00     0.214 C 
ATOM     27  O   UNL     1      14.360 -32.230 -15.364  1.00  0.00    -0.332 OA
ATOM     28  C   UNL     1      11.820 -32.915 -13.987  1.00  0.00     0.180 C 
ATOM     29  C   UNL     1      14.295 -33.085 -14.230  1.00  0.00     0.179 C 
ATOM     30  C   UNL     1      13.146 -32.805 -13.235  1.00  0.00     0.177 C 
BRANCH  26  31
ATOM     31  O   UNL     1      10.824 -31.160 -15.392  1.00  0.00    -0.384 OA
ATOM     32  H   UNL     1      10.058 -31.564 -15.879  1.00  0.00     0.211 HD
ENDBRANCH  26  31
BRANCH  28  33
ATOM     33  O   UNL     1      10.733 -32.618 -13.134  1.00  0.00    -0.387 OA
ATOM     34  H   UNL     1      10.938 -32.971 -12.227  1.00  0.00     0.211 HD
ENDBRANCH  28  33
BRANCH  29  35
ATOM     35  C   UNL     1      15.661 -33.108 -13.534  1.00  0.00     0.191 C 
BRANCH  35  36
ATOM     36  O   UNL     1      16.019 -31.810 -13.129  1.00  0.00    -0.394 OA
ATOM     37  H   UNL     1      15.272 -31.224 -13.410  1.00  0.00     0.210 HD
ENDBRANCH  35  36
ENDBRANCH  29  35
BRANCH  30  38
ATOM     38  O   UNL     1      13.285 -31.542 -12.638  1.00  0.00    -0.387 OA
ATOM     39  H   UNL     1      14.121 -31.151 -13.005  1.00  0.00     0.211 HD
ENDBRANCH  30  38
ENDBRANCH   1  25
TORSDOF 11
ENDMDL
MODEL 9
REMARK VINA RESULT:    -7.106      2.948      6.095
REMARK INTER + INTRA:         -11.537
REMARK INTER:                 -10.103
REMARK INTRA:                  -1.434
REMARK UNBOUND:                -1.315
REMARK SMILES O=c1c(O[C@@H]2O[C@@H](CO)[C@@H](O)[C@@H](O)[C@H]2O)c(-c2ccc(O)cc2)oc2cc(O)cc(O)c12
REMARK SMILES IDX 4 1 3 2 16 3 24 4 2 5 25 6 1 7 32 8 26 9 30 10 27 11 29 12
REMARK SMILES IDX 17 13 18 14 19 15 20 16 23 17 22 18 21 19 31 21 28 23 5 25
REMARK SMILES IDX 14 26 6 27 12 28 7 29 10 30 15 31 13 33 8 35 9 36 11 38
REMARK H PARENT 21 20 31 22 28 24 15 32 13 34 9 37 11 39
REMARK Flexibility Score: inf
ROOT
ATOM      1  O   UNL     1      11.808 -33.231 -17.109  1.00  0.00    -0.454 OA
ENDROOT
BRANCH   1   2
ATOM      2  C   UNL     1      11.150 -32.288 -17.944  1.00  0.00     0.214 A 
ATOM      3  C   UNL     1      11.831 -31.808 -19.086  1.00  0.00     0.180 A 
ATOM      4  O   UNL     1      11.239 -30.932 -19.895  1.00  0.00    -0.452 OA
ATOM      5  C   UNL     1       9.844 -31.790 -17.698  1.00  0.00     0.239 A 
ATOM      6  C   UNL     1      10.014 -30.469 -19.712  1.00  0.00     0.146 A 
ATOM      7  O   UNL     1       9.221 -32.104 -16.651  1.00  0.00    -0.285 OA
ATOM      8  C   UNL     1       9.247 -30.893 -18.608  1.00  0.00     0.111 A 
ATOM      9  C   UNL     1       9.471 -29.564 -20.633  1.00  0.00     0.094 A 
ATOM     10  C   UNL     1       7.913 -30.421 -18.468  1.00  0.00     0.134 A 
ATOM     11  C   UNL     1       8.155 -29.108 -20.494  1.00  0.00     0.123 A 
ATOM     12  C   UNL     1       7.377 -29.551 -19.421  1.00  0.00     0.093 A 
BRANCH   3  13
ATOM     13  C   UNL     1      13.198 -32.253 -19.467  1.00  0.00     0.021 A 
ATOM     14  C   UNL     1      14.304 -31.557 -18.942  1.00  0.00     0.016 A 
ATOM     15  C   UNL     1      15.600 -31.839 -19.387  1.00  0.00     0.047 A 
ATOM     16  C   UNL     1      15.818 -32.849 -20.324  1.00  0.00     0.115 A 
ATOM     17  C   UNL     1      13.422 -33.242 -20.445  1.00  0.00     0.016 A 
ATOM     18  C   UNL     1      14.723 -33.566 -20.841  1.00  0.00     0.047 A 
BRANCH  16  19
ATOM     19  O   UNL     1      17.110 -33.134 -20.774  1.00  0.00    -0.508 OA
ATOM     20  H   UNL     1      17.813 -32.408 -20.814  1.00  0.00     0.293 HD
ENDBRANCH  16  19
ENDBRANCH   3  13
BRANCH  10  21
ATOM     21  O   UNL     1       7.098 -30.857 -17.425  1.00  0.00    -0.507 OA
ATOM     22  H   UNL     1       6.163 -30.481 -17.333  1.00  0.00     0.293 HD
ENDBRANCH  10  21
BRANCH  11  23
ATOM     23  O   UNL     1       7.607 -28.225 -21.423  1.00  0.00    -0.508 OA
ATOM     24  H   UNL     1       7.348 -27.283 -21.165  1.00  0.00     0.293 HD
ENDBRANCH  11  23
ENDBRANCH   1   2
BRANCH   1  25
ATOM     25  C   UNL     1      12.292 -33.042 -15.771  1.00  0.00     0.339 C 
ATOM     26  C   UNL     1      11.692 -34.129 -14.840  1.00  0.00     0.214 C 
ATOM     27  O   UNL     1      13.710 -32.923 -15.782  1.00  0.00    -0.332 OA
ATOM     28  C   UNL     1      12.377 -34.164 -13.437  1.00  0.00     0.180 C 
ATOM     29  C   UNL     1      14.364 -33.139 -14.539  1.00  0.00     0.179 C 
ATOM     30  C   UNL     1      13.464 -33.101 -13.283  1.00  0.00     0.177 C 
BRANCH  26  31
ATOM     31  O   UNL     1      10.307 -33.913 -14.739  1.00  0.00    -0.384 OA
ATOM     32  H   UNL     1       9.871 -34.613 -15.294  1.00  0.00     0.211 HD
ENDBRANCH  26  31
BRANCH  28  33
ATOM     33  O   UNL     1      11.492 -34.140 -12.336  1.00  0.00    -0.387 OA
ATOM     34  H   UNL     1      10.849 -34.892 -12.430  1.00  0.00     0.211 HD
ENDBRANCH  28  33
BRANCH  29  35
ATOM     35  C   UNL     1      15.555 -32.180 -14.419  1.00  0.00     0.191 C 
BRANCH  35  36
ATOM     36  O   UNL     1      16.359 -32.263 -15.569  1.00  0.00    -0.394 OA
ATOM     37  H   UNL     1      16.422 -31.339 -15.923  1.00  0.00     0.210 HD
ENDBRANCH  35  36
ENDBRANCH  29  35
BRANCH  30  38
ATOM     38  O   UNL     1      12.903 -31.827 -13.097  1.00  0.00    -0.387 OA
ATOM     39  H   UNL     1      13.623 -31.257 -12.721  1.00  0.00     0.211 HD
ENDBRANCH  30  38
ENDBRANCH   1  25
TORSDOF 11
ENDMDL
