MODEL 1
REMARK VINA RESULT:     2.942      0.000      0.000
REMARK INTER + INTRA:           4.763
REMARK INTER:                   5.005
REMARK INTRA:                  -0.242
REMARK UNBOUND:                -0.242
REMARK SMILES CCCCCCCCCCCCCC(=O)[O-]
REMARK SMILES IDX 8 1 9 2 10 3 11 4 12 5 13 6 14 7 15 8 16 9 7 10 6 11 5 12
REMARK SMILES IDX 4 13 3 14 2 15 1 16
REMARK H PARENT
REMARK Flexibility Score: inf
ROOT
ATOM      1  C   UNL     1      11.705  20.020  54.066  1.00  0.00     0.000 C 
ENDROOT
BRANCH   1   2
ATOM      2  C   UNL     1      13.077  20.445  54.615  1.00  0.00     0.000 C 
BRANCH   2   3
ATOM      3  C   UNL     1      12.968  21.261  55.913  1.00  0.00     0.000 C 
BRANCH   3   4
ATOM      4  C   UNL     1      14.221  22.124  56.124  1.00  0.00     0.000 C 
BRANCH   4   5
ATOM      5  C   UNL     1      15.362  21.769  55.154  1.00  0.00     0.006 C 
BRANCH   5   6
ATOM      6  C   UNL     1      16.771  21.941  55.744  1.00  0.00     0.053 C 
BRANCH   6   7
ATOM      7  C   UNL     1      17.840  21.720  54.717  1.00  0.00     0.041 C 
ATOM      8  O   UNL     1      19.029  22.053  54.958  1.00  0.00    -0.550 OA
ATOM      9  O   UNL     1      17.514  21.175  53.481  1.00  0.00    -0.550 OA
ENDBRANCH   6   7
ENDBRANCH   5   6
ENDBRANCH   4   5
ENDBRANCH   3   4
ENDBRANCH   2   3
ENDBRANCH   1   2
BRANCH   1  10
ATOM     10  C   UNL     1      10.989  19.009  54.976  1.00  0.00     0.000 C 
BRANCH  10  11
ATOM     11  C   UNL     1      10.231  19.728  56.102  1.00  0.00    -0.000 C 
BRANCH  11  12
ATOM     12  C   UNL     1       9.368  20.892  55.588  1.00  0.00    -0.000 C 
BRANCH  12  13
ATOM     13  C   UNL     1       7.886  20.747  55.980  1.00  0.00    -0.000 C 
BRANCH  13  14
ATOM     14  C   UNL     1       6.937  21.312  54.912  1.00  0.00    -0.000 C 
BRANCH  14  15
ATOM     15  C   UNL     1       5.542  21.635  55.470  1.00  0.00    -0.003 C 
ATOM     16  C   UNL     1       4.448  21.021  54.601  1.00  0.00     0.004 C 
ENDBRANCH  14  15
ENDBRANCH  13  14
ENDBRANCH  12  13
ENDBRANCH  11  12
ENDBRANCH  10  11
ENDBRANCH   1  10
TORSDOF 12
ENDMDL
MODEL 2
REMARK VINA RESULT:     4.919      2.338      4.122
REMARK INTER + INTRA:           8.127
REMARK INTER:                   7.986
REMARK INTRA:                   0.142
REMARK UNBOUND:                -0.242
REMARK SMILES CCCCCCCCCCCCCC(=O)[O-]
REMARK SMILES IDX 8 1 9 2 10 3 11 4 12 5 13 6 14 7 15 8 16 9 7 10 6 11 5 12
REMARK SMILES IDX 4 13 3 14 2 15 1 16
REMARK H PARENT
REMARK Flexibility Score: inf
ROOT
ATOM      1  C   UNL     1       7.881  21.138  55.243  1.00  0.00     0.000 C 
ENDROOT
BRANCH   1   2
ATOM      2  C   UNL     1       9.152  20.571  55.896  1.00  0.00     0.000 C 
BRANCH   2   3
ATOM      3  C   UNL     1      10.363  21.503  55.741  1.00  0.00     0.000 C 
BRANCH   3   4
ATOM      4  C   UNL     1      11.674  20.746  56.006  1.00  0.00     0.000 C 
BRANCH   4   5
ATOM      5  C   UNL     1      12.922  21.620  55.789  1.00  0.00     0.006 C 
BRANCH   5   6
ATOM      6  C   UNL     1      14.111  20.879  55.154  1.00  0.00     0.053 C 
BRANCH   6   7
ATOM      7  C   UNL     1      14.108  19.419  55.494  1.00  0.00     0.041 C 
ATOM      8  O   UNL     1      15.099  18.902  56.073  1.00  0.00    -0.550 OA
ATOM      9  O   UNL     1      13.024  18.625  55.142  1.00  0.00    -0.550 OA
ENDBRANCH   6   7
ENDBRANCH   5   6
ENDBRANCH   4   5
ENDBRANCH   3   4
ENDBRANCH   2   3
ENDBRANCH   1   2
BRANCH   1  10
ATOM     10  C   UNL     1       6.633  20.966  56.124  1.00  0.00     0.000 C 
BRANCH  10  11
ATOM     11  C   UNL     1       5.648  22.125  55.909  1.00  0.00    -0.000 C 
BRANCH  11  12
ATOM     12  C   UNL     1       4.658  21.859  54.763  1.00  0.00    -0.000 C 
BRANCH  12  13
ATOM     13  C   UNL     1       4.478  20.358  54.473  1.00  0.00    -0.000 C 
BRANCH  13  14
ATOM     14  C   UNL     1       4.195  20.075  52.990  1.00  0.00    -0.000 C 
BRANCH  14  15
ATOM     15  C   UNL     1       5.354  20.500  52.074  1.00  0.00    -0.003 C 
ATOM     16  C   UNL     1       5.094  20.081  50.630  1.00  0.00     0.004 C 
ENDBRANCH  14  15
ENDBRANCH  13  14
ENDBRANCH  12  13
ENDBRANCH  11  12
ENDBRANCH  10  11
ENDBRANCH   1  10
TORSDOF 12
ENDMDL
MODEL 3
REMARK VINA RESULT:     5.629      5.147      9.578
REMARK INTER + INTRA:           9.335
REMARK INTER:                   7.508
REMARK INTRA:                   1.827
REMARK UNBOUND:                -0.242
REMARK SMILES CCCCCCCCCCCCCC(=O)[O-]
REMARK SMILES IDX 8 1 9 2 10 3 11 4 12 5 13 6 14 7 15 8 16 9 7 10 6 11 5 12
REMARK SMILES IDX 4 13 3 14 2 15 1 16
REMARK H PARENT
REMARK Flexibility Score: inf
ROOT
ATOM      1  C   UNL     1       7.422  20.387  54.409  1.00  0.00     0.000 C 
ENDROOT
BRANCH   1   2
ATOM      2  C   UNL     1       6.018  21.005  54.501  1.00  0.00     0.000 C 
BRANCH   2   3
ATOM      3  C   UNL     1       5.886  22.007  55.659  1.00  0.00     0.000 C 
BRANCH   3   4
ATOM      4  C   UNL     1       4.426  22.119  56.122  1.00  0.00     0.000 C 
BRANCH   4   5
ATOM      5  C   UNL     1       3.418  21.783  55.009  1.00  0.00     0.006 C 
BRANCH   5   6
ATOM      6  C   UNL     1       3.513  20.342  54.483  1.00  0.00     0.053 C 
BRANCH   6   7
ATOM      7  C   UNL     1       3.533  20.291  52.986  1.00  0.00     0.041 C 
ATOM      8  O   UNL     1       4.362  20.982  52.339  1.00  0.00    -0.550 OA
ATOM      9  O   UNL     1       2.612  19.504  52.305  1.00  0.00    -0.550 OA
ENDBRANCH   6   7
ENDBRANCH   5   6
ENDBRANCH   4   5
ENDBRANCH   3   4
ENDBRANCH   2   3
ENDBRANCH   1   2
BRANCH   1  10
ATOM     10  C   UNL     1       8.065  20.167  55.787  1.00  0.00     0.000 C 
BRANCH  10  11
ATOM     11  C   UNL     1       9.234  21.139  56.007  1.00  0.00    -0.000 C 
BRANCH  11  12
ATOM     12  C   UNL     1      10.591  20.422  56.115  1.00  0.00    -0.000 C 
BRANCH  12  13
ATOM     13  C   UNL     1      11.779  21.360  55.836  1.00  0.00    -0.000 C 
BRANCH  13  14
ATOM     14  C   UNL     1      13.136  20.676  56.064  1.00  0.00    -0.000 C 
BRANCH  14  15
ATOM     15  C   UNL     1      14.234  21.214  55.133  1.00  0.00    -0.003 C 
ATOM     16  C   UNL     1      15.464  21.644  55.928  1.00  0.00     0.004 C 
ENDBRANCH  14  15
ENDBRANCH  13  14
ENDBRANCH  12  13
ENDBRANCH  11  12
ENDBRANCH  10  11
ENDBRANCH   1  10
TORSDOF 12
ENDMDL
