MODEL 1
REMARK VINA RESULT:    -4.973      0.000      0.000
REMARK INTER + INTRA:         -11.092
REMARK INTER:                  -9.043
REMARK INTRA:                  -2.049
REMARK UNBOUND:                -2.049
REMARK SMILES CCCCCCCCCCCCCCCC(=O)[O-]
REMARK SMILES IDX 9 1 10 2 11 3 12 4 13 5 14 6 15 7 16 8 17 9 18 10 8 11 7 12
REMARK SMILES IDX 6 13 5 14 4 15 3 16 2 17 1 18
REMARK H PARENT
REMARK Flexibility Score: inf
ROOT
ATOM      1  C   UNL     1     -21.064  -5.175  15.907  1.00  0.00     0.000 C 
ENDROOT
BRANCH   1   2
ATOM      2  C   UNL     1     -20.223  -5.266  14.616  1.00  0.00     0.000 C 
BRANCH   2   3
ATOM      3  C   UNL     1     -18.746  -5.641  14.851  1.00  0.00     0.000 C 
BRANCH   3   4
ATOM      4  C   UNL     1     -18.372  -7.056  14.358  1.00  0.00     0.000 C 
BRANCH   4   5
ATOM      5  C   UNL     1     -18.907  -8.176  15.270  1.00  0.00     0.000 C 
BRANCH   5   6
ATOM      6  C   UNL     1     -18.203  -8.248  16.637  1.00  0.00     0.006 C 
BRANCH   6   7
ATOM      7  C   UNL     1     -18.902  -9.207  17.610  1.00  0.00     0.053 C 
BRANCH   7   8
ATOM      8  C   UNL     1     -17.890  -9.984  18.391  1.00  0.00     0.041 C 
ATOM      9  O   UNL     1     -18.124 -11.178  18.721  1.00  0.00    -0.550 OA
ATOM     10  O   UNL     1     -16.711  -9.376  18.800  1.00  0.00    -0.550 OA
ENDBRANCH   7   8
ENDBRANCH   6   7
ENDBRANCH   5   6
ENDBRANCH   4   5
ENDBRANCH   3   4
ENDBRANCH   2   3
ENDBRANCH   1   2
BRANCH   1  11
ATOM     11  C   UNL     1     -21.875  -6.444  16.244  1.00  0.00     0.000 C 
BRANCH  11  12
ATOM     12  C   UNL     1     -22.562  -7.134  15.046  1.00  0.00    -0.000 C 
BRANCH  12  13
ATOM     13  C   UNL     1     -22.659  -8.667  15.139  1.00  0.00    -0.000 C 
BRANCH  13  14
ATOM     14  C   UNL     1     -22.627  -9.177  16.591  1.00  0.00    -0.000 C 
BRANCH  14  15
ATOM     15  C   UNL     1     -23.882  -9.984  16.963  1.00  0.00    -0.000 C 
BRANCH  15  16
ATOM     16  C   UNL     1     -25.023  -9.091  17.478  1.00  0.00    -0.000 C 
BRANCH  16  17
ATOM     17  C   UNL     1     -24.518  -7.960  18.389  1.00  0.00    -0.003 C 
ATOM     18  C   UNL     1     -25.093  -6.594  18.013  1.00  0.00     0.004 C 
ENDBRANCH  16  17
ENDBRANCH  15  16
ENDBRANCH  14  15
ENDBRANCH  13  14
ENDBRANCH  12  13
ENDBRANCH  11  12
ENDBRANCH   1  11
TORSDOF 14
ENDMDL
MODEL 2
REMARK VINA RESULT:    -4.869      0.812      2.044
REMARK INTER + INTRA:         -10.902
REMARK INTER:                  -9.277
REMARK INTRA:                  -1.625
REMARK UNBOUND:                -2.049
REMARK SMILES CCCCCCCCCCCCCCCC(=O)[O-]
REMARK SMILES IDX 9 1 10 2 11 3 12 4 13 5 14 6 15 7 16 8 17 9 18 10 8 11 7 12
REMARK SMILES IDX 6 13 5 14 4 15 3 16 2 17 1 18
REMARK H PARENT
REMARK Flexibility Score: inf
ROOT
ATOM      1  C   UNL     1     -21.380  -5.183  16.757  1.00  0.00     0.000 C 
ENDROOT
BRANCH   1   2
ATOM      2  C   UNL     1     -20.946  -5.940  15.484  1.00  0.00     0.000 C 
BRANCH   2   3
ATOM      3  C   UNL     1     -19.558  -5.534  14.951  1.00  0.00     0.000 C 
BRANCH   3   4
ATOM      4  C   UNL     1     -18.634  -6.730  14.632  1.00  0.00     0.000 C 
BRANCH   4   5
ATOM      5  C   UNL     1     -19.038  -8.022  15.368  1.00  0.00     0.000 C 
BRANCH   5   6
ATOM      6  C   UNL     1     -18.195  -8.305  16.624  1.00  0.00     0.006 C 
BRANCH   6   7
ATOM      7  C   UNL     1     -18.915  -9.221  17.623  1.00  0.00     0.053 C 
BRANCH   7   8
ATOM      8  C   UNL     1     -17.927 -10.076  18.351  1.00  0.00     0.041 C 
ATOM      9  O   UNL     1     -18.174 -11.294  18.560  1.00  0.00    -0.550 OA
ATOM     10  O   UNL     1     -16.755  -9.517  18.845  1.00  0.00    -0.550 OA
ENDBRANCH   7   8
ENDBRANCH   6   7
ENDBRANCH   5   6
ENDBRANCH   4   5
ENDBRANCH   3   4
ENDBRANCH   2   3
ENDBRANCH   1   2
BRANCH   1  11
ATOM     11  C   UNL     1     -21.880  -6.082  17.908  1.00  0.00     0.000 C 
BRANCH  11  12
ATOM     12  C   UNL     1     -23.402  -6.338  17.941  1.00  0.00    -0.000 C 
BRANCH  12  13
ATOM     13  C   UNL     1     -23.835  -7.639  18.641  1.00  0.00    -0.000 C 
BRANCH  13  14
ATOM     14  C   UNL     1     -24.816  -8.469  17.796  1.00  0.00    -0.000 C 
BRANCH  14  15
ATOM     15  C   UNL     1     -24.137  -9.661  17.101  1.00  0.00    -0.000 C 
BRANCH  15  16
ATOM     16  C   UNL     1     -22.750  -9.302  16.542  1.00  0.00    -0.000 C 
BRANCH  16  17
ATOM     17  C   UNL     1     -22.768  -9.094  15.018  1.00  0.00    -0.003 C 
ATOM     18  C   UNL     1     -23.632  -7.907  14.592  1.00  0.00     0.004 C 
ENDBRANCH  16  17
ENDBRANCH  15  16
ENDBRANCH  14  15
ENDBRANCH  13  14
ENDBRANCH  12  13
ENDBRANCH  11  12
ENDBRANCH   1  11
TORSDOF 14
ENDMDL
MODEL 3
REMARK VINA RESULT:    -4.638      1.023      1.420
REMARK INTER + INTRA:         -10.482
REMARK INTER:                  -8.765
REMARK INTRA:                  -1.718
REMARK UNBOUND:                -2.049
REMARK SMILES CCCCCCCCCCCCCCCC(=O)[O-]
REMARK SMILES IDX 9 1 10 2 11 3 12 4 13 5 14 6 15 7 16 8 17 9 18 10 8 11 7 12
REMARK SMILES IDX 6 13 5 14 4 15 3 16 2 17 1 18
REMARK H PARENT
REMARK Flexibility Score: inf
ROOT
ATOM      1  C   UNL     1     -20.988  -4.905  16.610  1.00  0.00     0.000 C 
ENDROOT
BRANCH   1   2
ATOM      2  C   UNL     1     -20.684  -5.499  15.219  1.00  0.00     0.000 C 
BRANCH   2   3
ATOM      3  C   UNL     1     -19.180  -5.643  14.910  1.00  0.00     0.000 C 
BRANCH   3   4
ATOM      4  C   UNL     1     -18.777  -7.041  14.392  1.00  0.00     0.000 C 
BRANCH   4   5
ATOM      5  C   UNL     1     -19.179  -8.181  15.347  1.00  0.00     0.000 C 
BRANCH   5   6
ATOM      6  C   UNL     1     -18.293  -8.275  16.603  1.00  0.00     0.006 C 
BRANCH   6   7
ATOM      7  C   UNL     1     -18.843  -9.265  17.639  1.00  0.00     0.053 C 
BRANCH   7   8
ATOM      8  C   UNL     1     -17.729  -9.827  18.464  1.00  0.00     0.041 C 
ATOM      9  O   UNL     1     -17.850 -10.957  19.008  1.00  0.00    -0.550 OA
ATOM     10  O   UNL     1     -16.576  -9.082  18.675  1.00  0.00    -0.550 OA
ENDBRANCH   7   8
ENDBRANCH   6   7
ENDBRANCH   5   6
ENDBRANCH   4   5
ENDBRANCH   3   4
ENDBRANCH   2   3
ENDBRANCH   1   2
BRANCH   1  11
ATOM     11  C   UNL     1     -22.037  -5.682  17.433  1.00  0.00     0.000 C 
BRANCH  11  12
ATOM     12  C   UNL     1     -21.606  -7.086  17.907  1.00  0.00    -0.000 C 
BRANCH  12  13
ATOM     13  C   UNL     1     -22.366  -8.260  17.264  1.00  0.00    -0.000 C 
BRANCH  13  14
ATOM     14  C   UNL     1     -23.618  -7.804  16.493  1.00  0.00    -0.000 C 
BRANCH  14  15
ATOM     15  C   UNL     1     -24.924  -8.287  17.144  1.00  0.00    -0.000 C 
BRANCH  15  16
ATOM     16  C   UNL     1     -25.032  -7.871  18.621  1.00  0.00    -0.000 C 
BRANCH  16  17
ATOM     17  C   UNL     1     -25.174  -6.349  18.793  1.00  0.00    -0.003 C 
ATOM     18  C   UNL     1     -25.440  -5.938  20.241  1.00  0.00     0.004 C 
ENDBRANCH  16  17
ENDBRANCH  15  16
ENDBRANCH  14  15
ENDBRANCH  13  14
ENDBRANCH  12  13
ENDBRANCH  11  12
ENDBRANCH   1  11
TORSDOF 14
ENDMDL
MODEL 4
REMARK VINA RESULT:    -4.589      3.863      6.943
REMARK INTER + INTRA:         -10.394
REMARK INTER:                  -8.948
REMARK INTRA:                  -1.446
REMARK UNBOUND:                -2.049
REMARK SMILES CCCCCCCCCCCCCCCC(=O)[O-]
REMARK SMILES IDX 9 1 10 2 11 3 12 4 13 5 14 6 15 7 16 8 17 9 18 10 8 11 7 12
REMARK SMILES IDX 6 13 5 14 4 15 3 16 2 17 1 18
REMARK H PARENT
REMARK Flexibility Score: inf
ROOT
ATOM      1  C   UNL     1     -21.185  -5.291  15.473  1.00  0.00     0.000 C 
ENDROOT
BRANCH   1   2
ATOM      2  C   UNL     1     -21.589  -4.936  16.920  1.00  0.00     0.000 C 
BRANCH   2   3
ATOM      3  C   UNL     1     -21.768  -6.157  17.843  1.00  0.00     0.000 C 
BRANCH   3   4
ATOM      4  C   UNL     1     -23.241  -6.482  18.175  1.00  0.00     0.000 C 
BRANCH   4   5
ATOM      5  C   UNL     1     -23.624  -7.942  17.869  1.00  0.00     0.000 C 
BRANCH   5   6
ATOM      6  C   UNL     1     -25.127  -8.142  17.603  1.00  0.00     0.006 C 
BRANCH   6   7
ATOM      7  C   UNL     1     -25.633  -7.307  16.419  1.00  0.00     0.053 C 
BRANCH   7   8
ATOM      8  C   UNL     1     -26.713  -6.373  16.865  1.00  0.00     0.041 C 
ATOM      9  O   UNL     1     -27.066  -6.342  18.074  1.00  0.00    -0.550 OA
ATOM     10  O   UNL     1     -27.367  -5.573  15.937  1.00  0.00    -0.550 OA
ENDBRANCH   7   8
ENDBRANCH   6   7
ENDBRANCH   5   6
ENDBRANCH   4   5
ENDBRANCH   3   4
ENDBRANCH   2   3
ENDBRANCH   1   2
BRANCH   1  11
ATOM     11  C   UNL     1     -21.829  -6.579  14.917  1.00  0.00     0.000 C 
BRANCH  11  12
ATOM     12  C   UNL     1     -20.846  -7.706  14.536  1.00  0.00    -0.000 C 
BRANCH  12  13
ATOM     13  C   UNL     1     -20.010  -8.269  15.699  1.00  0.00    -0.000 C 
BRANCH  13  14
ATOM     14  C   UNL     1     -18.520  -7.895  15.594  1.00  0.00    -0.000 C 
BRANCH  14  15
ATOM     15  C   UNL     1     -18.176  -7.202  14.265  1.00  0.00    -0.000 C 
BRANCH  15  16
ATOM     16  C   UNL     1     -17.734  -5.742  14.462  1.00  0.00    -0.000 C 
BRANCH  16  17
ATOM     17  C   UNL     1     -16.849  -5.237  13.311  1.00  0.00    -0.003 C 
ATOM     18  C   UNL     1     -17.201  -3.815  12.872  1.00  0.00     0.004 C 
ENDBRANCH  16  17
ENDBRANCH  15  16
ENDBRANCH  14  15
ENDBRANCH  13  14
ENDBRANCH  12  13
ENDBRANCH  11  12
ENDBRANCH   1  11
TORSDOF 14
ENDMDL
MODEL 5
REMARK VINA RESULT:    -4.516      1.357      5.139
REMARK INTER + INTRA:         -10.261
REMARK INTER:                  -8.770
REMARK INTRA:                  -1.491
REMARK UNBOUND:                -2.049
REMARK SMILES CCCCCCCCCCCCCCCC(=O)[O-]
REMARK SMILES IDX 9 1 10 2 11 3 12 4 13 5 14 6 15 7 16 8 17 9 18 10 8 11 7 12
REMARK SMILES IDX 6 13 5 14 4 15 3 16 2 17 1 18
REMARK H PARENT
REMARK Flexibility Score: inf
ROOT
ATOM      1  C   UNL     1     -23.970  -7.029  17.274  1.00  0.00     0.000 C 
ENDROOT
BRANCH   1   2
ATOM      2  C   UNL     1     -24.095  -8.553  17.487  1.00  0.00     0.000 C 
BRANCH   2   3
ATOM      3  C   UNL     1     -23.410  -9.400  16.396  1.00  0.00     0.000 C 
BRANCH   3   4
ATOM      4  C   UNL     1     -22.037  -9.969  16.814  1.00  0.00     0.000 C 
BRANCH   4   5
ATOM      5  C   UNL     1     -20.867  -9.014  16.509  1.00  0.00     0.000 C 
BRANCH   5   6
ATOM      6  C   UNL     1     -19.886  -8.846  17.684  1.00  0.00     0.006 C 
BRANCH   6   7
ATOM      7  C   UNL     1     -18.418  -8.914  17.240  1.00  0.00     0.053 C 
BRANCH   7   8
ATOM      8  C   UNL     1     -17.583  -9.556  18.303  1.00  0.00     0.041 C 
ATOM      9  O   UNL     1     -16.505  -9.020  18.674  1.00  0.00    -0.550 OA
ATOM     10  O   UNL     1     -17.969 -10.774  18.848  1.00  0.00    -0.550 OA
ENDBRANCH   7   8
ENDBRANCH   6   7
ENDBRANCH   5   6
ENDBRANCH   4   5
ENDBRANCH   3   4
ENDBRANCH   2   3
ENDBRANCH   1   2
BRANCH   1  11
ATOM     11  C   UNL     1     -22.895  -6.339  18.140  1.00  0.00     0.000 C 
BRANCH  11  12
ATOM     12  C   UNL     1     -21.818  -5.551  17.364  1.00  0.00    -0.000 C 
BRANCH  12  13
ATOM     13  C   UNL     1     -21.635  -5.964  15.893  1.00  0.00    -0.000 C 
BRANCH  13  14
ATOM     14  C   UNL     1     -20.433  -5.270  15.227  1.00  0.00    -0.000 C 
BRANCH  14  15
ATOM     15  C   UNL     1     -19.335  -6.261  14.807  1.00  0.00    -0.000 C 
BRANCH  15  16
ATOM     16  C   UNL     1     -17.929  -5.645  14.884  1.00  0.00    -0.000 C 
BRANCH  16  17
ATOM     17  C   UNL     1     -17.296  -5.449  13.497  1.00  0.00    -0.003 C 
ATOM     18  C   UNL     1     -16.148  -4.440  13.505  1.00  0.00     0.004 C 
ENDBRANCH  16  17
ENDBRANCH  15  16
ENDBRANCH  14  15
ENDBRANCH  13  14
ENDBRANCH  12  13
ENDBRANCH  11  12
ENDBRANCH   1  11
TORSDOF 14
ENDMDL
MODEL 6
REMARK VINA RESULT:    -4.461      3.758      6.613
REMARK INTER + INTRA:         -10.162
REMARK INTER:                  -8.878
REMARK INTRA:                  -1.284
REMARK UNBOUND:                -2.049
REMARK SMILES CCCCCCCCCCCCCCCC(=O)[O-]
REMARK SMILES IDX 9 1 10 2 11 3 12 4 13 5 14 6 15 7 16 8 17 9 18 10 8 11 7 12
REMARK SMILES IDX 6 13 5 14 4 15 3 16 2 17 1 18
REMARK H PARENT
REMARK Flexibility Score: inf
ROOT
ATOM      1  C   UNL     1     -21.344  -5.270  17.025  1.00  0.00     0.000 C 
ENDROOT
BRANCH   1   2
ATOM      2  C   UNL     1     -22.400  -6.070  17.818  1.00  0.00     0.000 C 
BRANCH   2   3
ATOM      3  C   UNL     1     -22.066  -7.566  17.983  1.00  0.00     0.000 C 
BRANCH   3   4
ATOM      4  C   UNL     1     -22.713  -8.475  16.915  1.00  0.00     0.000 C 
BRANCH   4   5
ATOM      5  C   UNL     1     -23.961  -9.218  17.428  1.00  0.00     0.000 C 
BRANCH   5   6
ATOM      6  C   UNL     1     -25.123  -8.283  17.808  1.00  0.00     0.006 C 
BRANCH   6   7
ATOM      7  C   UNL     1     -25.639  -7.469  16.613  1.00  0.00     0.053 C 
BRANCH   7   8
ATOM      8  C   UNL     1     -27.091  -7.154  16.786  1.00  0.00     0.041 C 
ATOM      9  O   UNL     1     -27.474  -6.433  17.746  1.00  0.00    -0.550 OA
ATOM     10  O   UNL     1     -28.029  -7.699  15.919  1.00  0.00    -0.550 OA
ENDBRANCH   7   8
ENDBRANCH   6   7
ENDBRANCH   5   6
ENDBRANCH   4   5
ENDBRANCH   3   4
ENDBRANCH   2   3
ENDBRANCH   1   2
BRANCH   1  11
ATOM     11  C   UNL     1     -21.104  -5.765  15.583  1.00  0.00     0.000 C 
BRANCH  11  12
ATOM     12  C   UNL     1     -19.709  -5.459  14.997  1.00  0.00    -0.000 C 
BRANCH  12  13
ATOM     13  C   UNL     1     -18.795  -6.683  14.803  1.00  0.00    -0.000 C 
BRANCH  13  14
ATOM     14  C   UNL     1     -19.286  -7.918  15.579  1.00  0.00    -0.000 C 
BRANCH  14  15
ATOM     15  C   UNL     1     -18.333  -8.320  16.716  1.00  0.00    -0.000 C 
BRANCH  15  16
ATOM     16  C   UNL     1     -18.894  -9.467  17.574  1.00  0.00    -0.000 C 
BRANCH  16  17
ATOM     17  C   UNL     1     -17.897  -9.942  18.643  1.00  0.00    -0.003 C 
ATOM     18  C   UNL     1     -16.618  -9.105  18.677  1.00  0.00     0.004 C 
ENDBRANCH  16  17
ENDBRANCH  15  16
ENDBRANCH  14  15
ENDBRANCH  13  14
ENDBRANCH  12  13
ENDBRANCH  11  12
ENDBRANCH   1  11
TORSDOF 14
ENDMDL
MODEL 7
REMARK VINA RESULT:    -4.447      3.723      6.852
REMARK INTER + INTRA:         -10.136
REMARK INTER:                  -8.084
REMARK INTRA:                  -2.052
REMARK UNBOUND:                -2.049
REMARK SMILES CCCCCCCCCCCCCCCC(=O)[O-]
REMARK SMILES IDX 9 1 10 2 11 3 12 4 13 5 14 6 15 7 16 8 17 9 18 10 8 11 7 12
REMARK SMILES IDX 6 13 5 14 4 15 3 16 2 17 1 18
REMARK H PARENT
REMARK Flexibility Score: inf
ROOT
ATOM      1  C   UNL     1     -22.691  -7.128  15.154  1.00  0.00     0.000 C 
ENDROOT
BRANCH   1   2
ATOM      2  C   UNL     1     -23.082  -8.615  15.290  1.00  0.00     0.000 C 
BRANCH   2   3
ATOM      3  C   UNL     1     -23.090  -9.134  16.742  1.00  0.00     0.000 C 
BRANCH   3   4
ATOM      4  C   UNL     1     -24.469  -9.048  17.432  1.00  0.00     0.000 C 
BRANCH   4   5
ATOM      5  C   UNL     1     -24.661  -7.753  18.243  1.00  0.00     0.000 C 
BRANCH   5   6
ATOM      6  C   UNL     1     -25.858  -6.904  17.776  1.00  0.00     0.006 C 
BRANCH   6   7
ATOM      7  C   UNL     1     -26.622  -7.553  16.613  1.00  0.00     0.053 C 
BRANCH   7   8
ATOM      8  C   UNL     1     -26.753  -6.590  15.476  1.00  0.00     0.041 C 
ATOM      9  O   UNL     1     -26.186  -6.827  14.375  1.00  0.00    -0.550 OA
ATOM     10  O   UNL     1     -27.459  -5.406  15.645  1.00  0.00    -0.550 OA
ENDBRANCH   7   8
ENDBRANCH   6   7
ENDBRANCH   5   6
ENDBRANCH   4   5
ENDBRANCH   3   4
ENDBRANCH   2   3
ENDBRANCH   1   2
BRANCH   1  11
ATOM     11  C   UNL     1     -21.880  -6.559  16.337  1.00  0.00     0.000 C 
BRANCH  11  12
ATOM     12  C   UNL     1     -21.096  -5.261  16.046  1.00  0.00    -0.000 C 
BRANCH  12  13
ATOM     13  C   UNL     1     -20.257  -5.277  14.756  1.00  0.00    -0.000 C 
BRANCH  13  14
ATOM     14  C   UNL     1     -18.784  -5.643  15.011  1.00  0.00    -0.000 C 
BRANCH  14  15
ATOM     15  C   UNL     1     -18.371  -6.953  14.321  1.00  0.00    -0.000 C 
BRANCH  15  16
ATOM     16  C   UNL     1     -18.973  -8.192  15.006  1.00  0.00    -0.000 C 
BRANCH  16  17
ATOM     17  C   UNL     1     -18.443  -8.389  16.435  1.00  0.00    -0.003 C 
ATOM     18  C   UNL     1     -19.451  -9.085  17.351  1.00  0.00     0.004 C 
ENDBRANCH  16  17
ENDBRANCH  15  16
ENDBRANCH  14  15
ENDBRANCH  13  14
ENDBRANCH  12  13
ENDBRANCH  11  12
ENDBRANCH   1  11
TORSDOF 14
ENDMDL
MODEL 8
REMARK VINA RESULT:    -4.446      3.969      7.181
REMARK INTER + INTRA:         -10.134
REMARK INTER:                  -8.818
REMARK INTRA:                  -1.316
REMARK UNBOUND:                -2.049
REMARK SMILES CCCCCCCCCCCCCCCC(=O)[O-]
REMARK SMILES IDX 9 1 10 2 11 3 12 4 13 5 14 6 15 7 16 8 17 9 18 10 8 11 7 12
REMARK SMILES IDX 6 13 5 14 4 15 3 16 2 17 1 18
REMARK H PARENT
REMARK Flexibility Score: inf
ROOT
ATOM      1  C   UNL     1     -22.295  -6.871  18.229  1.00  0.00     0.000 C 
ENDROOT
BRANCH   1   2
ATOM      2  C   UNL     1     -22.119  -8.237  17.532  1.00  0.00     0.000 C 
BRANCH   2   3
ATOM      3  C   UNL     1     -23.444  -8.911  17.123  1.00  0.00     0.000 C 
BRANCH   3   4
ATOM      4  C   UNL     1     -24.677  -8.389  17.892  1.00  0.00     0.000 C 
BRANCH   4   5
ATOM      5  C   UNL     1     -25.570  -7.462  17.047  1.00  0.00     0.000 C 
BRANCH   5   6
ATOM      6  C   UNL     1     -26.379  -6.454  17.883  1.00  0.00     0.006 C 
BRANCH   6   7
ATOM      7  C   UNL     1     -25.681  -6.088  19.200  1.00  0.00     0.053 C 
BRANCH   7   8
ATOM      8  C   UNL     1     -26.442  -5.013  19.911  1.00  0.00     0.041 C 
ATOM      9  O   UNL     1     -26.308  -4.856  21.154  1.00  0.00    -0.550 OA
ATOM     10  O   UNL     1     -27.338  -4.217  19.210  1.00  0.00    -0.550 OA
ENDBRANCH   7   8
ENDBRANCH   6   7
ENDBRANCH   5   6
ENDBRANCH   4   5
ENDBRANCH   3   4
ENDBRANCH   2   3
ENDBRANCH   1   2
BRANCH   1  11
ATOM     11  C   UNL     1     -22.062  -5.645  17.321  1.00  0.00     0.000 C 
BRANCH  11  12
ATOM     12  C   UNL     1     -20.983  -5.817  16.230  1.00  0.00    -0.000 C 
BRANCH  12  13
ATOM     13  C   UNL     1     -21.494  -6.352  14.880  1.00  0.00    -0.000 C 
BRANCH  13  14
ATOM     14  C   UNL     1     -20.590  -7.453  14.298  1.00  0.00    -0.000 C 
BRANCH  14  15
ATOM     15  C   UNL     1     -19.294  -7.642  15.103  1.00  0.00    -0.000 C 
BRANCH  15  16
ATOM     16  C   UNL     1     -18.051  -7.160  14.336  1.00  0.00    -0.000 C 
BRANCH  16  17
ATOM     17  C   UNL     1     -17.784  -5.659  14.535  1.00  0.00    -0.003 C 
ATOM     18  C   UNL     1     -16.885  -5.067  13.449  1.00  0.00     0.004 C 
ENDBRANCH  16  17
ENDBRANCH  15  16
ENDBRANCH  14  15
ENDBRANCH  13  14
ENDBRANCH  12  13
ENDBRANCH  11  12
ENDBRANCH   1  11
TORSDOF 14
ENDMDL
MODEL 9
REMARK VINA RESULT:    -4.303      2.828      4.805
REMARK INTER + INTRA:          -9.873
REMARK INTER:                  -8.635
REMARK INTRA:                  -1.238
REMARK UNBOUND:                -2.049
REMARK SMILES CCCCCCCCCCCCCCCC(=O)[O-]
REMARK SMILES IDX 9 1 10 2 11 3 12 4 13 5 14 6 15 7 16 8 17 9 18 10 8 11 7 12
REMARK SMILES IDX 6 13 5 14 4 15 3 16 2 17 1 18
REMARK H PARENT
REMARK Flexibility Score: inf
ROOT
ATOM      1  C   UNL     1     -23.437  -9.393  16.862  1.00  0.00     0.000 C 
ENDROOT
BRANCH   1   2
ATOM      2  C   UNL     1     -22.006  -8.817  16.828  1.00  0.00     0.000 C 
BRANCH   2   3
ATOM      3  C   UNL     1     -21.812  -7.557  17.696  1.00  0.00     0.000 C 
BRANCH   3   4
ATOM      4  C   UNL     1     -21.998  -6.231  16.928  1.00  0.00     0.000 C 
BRANCH   4   5
ATOM      5  C   UNL     1     -21.786  -6.376  15.409  1.00  0.00     0.000 C 
BRANCH   5   6
ATOM      6  C   UNL     1     -20.717  -5.424  14.842  1.00  0.00     0.006 C 
BRANCH   6   7
ATOM      7  C   UNL     1     -19.289  -5.941  15.069  1.00  0.00     0.053 C 
BRANCH   7   8
ATOM      8  C   UNL     1     -19.232  -7.421  14.857  1.00  0.00     0.041 C 
ATOM      9  O   UNL     1     -18.735  -8.170  15.740  1.00  0.00    -0.550 OA
ATOM     10  O   UNL     1     -19.681  -7.970  13.663  1.00  0.00    -0.550 OA
ENDBRANCH   7   8
ENDBRANCH   6   7
ENDBRANCH   5   6
ENDBRANCH   4   5
ENDBRANCH   3   4
ENDBRANCH   2   3
ENDBRANCH   1   2
BRANCH   1  11
ATOM     11  C   UNL     1     -24.395  -8.694  17.849  1.00  0.00     0.000 C 
BRANCH  11  12
ATOM     12  C   UNL     1     -25.648  -8.049  17.219  1.00  0.00    -0.000 C 
BRANCH  12  13
ATOM     13  C   UNL     1     -25.891  -6.578  17.600  1.00  0.00    -0.000 C 
BRANCH  13  14
ATOM     14  C   UNL     1     -25.331  -6.225  18.989  1.00  0.00    -0.000 C 
BRANCH  14  15
ATOM     15  C   UNL     1     -26.268  -5.305  19.789  1.00  0.00    -0.000 C 
BRANCH  15  16
ATOM     16  C   UNL     1     -25.881  -5.221  21.275  1.00  0.00    -0.000 C 
BRANCH  16  17
ATOM     17  C   UNL     1     -26.653  -4.122  22.022  1.00  0.00    -0.003 C 
ATOM     18  C   UNL     1     -25.812  -3.431  23.096  1.00  0.00     0.004 C 
ENDBRANCH  16  17
ENDBRANCH  15  16
ENDBRANCH  14  15
ENDBRANCH  13  14
ENDBRANCH  12  13
ENDBRANCH  11  12
ENDBRANCH   1  11
TORSDOF 14
ENDMDL
