MODEL 1
REMARK VINA RESULT:    -2.953      0.000      0.000
REMARK INTER + INTRA:          -7.955
REMARK INTER:                  -5.369
REMARK INTRA:                  -2.585
REMARK UNBOUND:                -2.585
REMARK SMILES CCCCCCCCCCCCCCCC(=O)[O-]
REMARK SMILES IDX 9 1 10 2 11 3 12 4 13 5 14 6 15 7 16 8 17 9 18 10 8 11 7 12
REMARK SMILES IDX 6 13 5 14 4 15 3 16 2 17 1 18
REMARK H PARENT
REMARK Flexibility Score: inf
ROOT
ATOM      1  C   UNL     1      -1.720   8.418  37.984  1.00  0.00     0.000 C 
ENDROOT
BRANCH   1   2
ATOM      2  C   UNL     1      -0.469   9.123  38.537  1.00  0.00     0.000 C 
BRANCH   2   3
ATOM      3  C   UNL     1      -0.262   8.871  40.039  1.00  0.00     0.000 C 
BRANCH   3   4
ATOM      4  C   UNL     1       0.616   7.637  40.312  1.00  0.00     0.000 C 
BRANCH   4   5
ATOM      5  C   UNL     1       1.493   7.257  39.107  1.00  0.00     0.000 C 
BRANCH   5   6
ATOM      6  C   UNL     1       2.452   6.096  39.413  1.00  0.00     0.006 C 
BRANCH   6   7
ATOM      7  C   UNL     1       2.656   5.215  38.176  1.00  0.00     0.053 C 
BRANCH   7   8
ATOM      8  C   UNL     1       1.784   4.001  38.247  1.00  0.00     0.041 C 
ATOM      9  O   UNL     1       1.132   3.629  37.235  1.00  0.00    -0.550 OA
ATOM     10  O   UNL     1       1.730   3.252  39.416  1.00  0.00    -0.550 OA
ENDBRANCH   7   8
ENDBRANCH   6   7
ENDBRANCH   5   6
ENDBRANCH   4   5
ENDBRANCH   3   4
ENDBRANCH   2   3
ENDBRANCH   1   2
BRANCH   1  11
ATOM     11  C   UNL     1      -1.433   7.634  36.694  1.00  0.00     0.000 C 
BRANCH  11  12
ATOM     12  C   UNL     1      -1.234   6.129  36.951  1.00  0.00    -0.000 C 
BRANCH  12  13
ATOM     13  C   UNL     1      -2.260   5.563  37.947  1.00  0.00    -0.000 C 
BRANCH  13  14
ATOM     14  C   UNL     1      -1.598   4.990  39.213  1.00  0.00    -0.000 C 
BRANCH  14  15
ATOM     15  C   UNL     1      -2.387   5.319  40.490  1.00  0.00    -0.000 C 
BRANCH  15  16
ATOM     16  C   UNL     1      -3.799   5.853  40.190  1.00  0.00    -0.000 C 
BRANCH  16  17
ATOM     17  C   UNL     1      -4.016   7.276  40.726  1.00  0.00    -0.003 C 
ATOM     18  C   UNL     1      -3.127   7.597  41.926  1.00  0.00     0.004 C 
ENDBRANCH  16  17
ENDBRANCH  15  16
ENDBRANCH  14  15
ENDBRANCH  13  14
ENDBRANCH  12  13
ENDBRANCH  11  12
ENDBRANCH   1  11
TORSDOF 14
ENDMDL
MODEL 2
REMARK VINA RESULT:    -2.798      2.675      4.399
REMARK INTER + INTRA:          -7.674
REMARK INTER:                  -5.585
REMARK INTRA:                  -2.088
REMARK UNBOUND:                -2.585
REMARK SMILES CCCCCCCCCCCCCCCC(=O)[O-]
REMARK SMILES IDX 9 1 10 2 11 3 12 4 13 5 14 6 15 7 16 8 17 9 18 10 8 11 7 12
REMARK SMILES IDX 6 13 5 14 4 15 3 16 2 17 1 18
REMARK H PARENT
REMARK Flexibility Score: inf
ROOT
ATOM      1  C   UNL     1      -1.632   8.528  37.566  1.00  0.00     0.000 C 
ENDROOT
BRANCH   1   2
ATOM      2  C   UNL     1      -0.229   8.157  38.077  1.00  0.00     0.000 C 
BRANCH   2   3
ATOM      3  C   UNL     1       0.625   7.457  37.007  1.00  0.00     0.000 C 
BRANCH   3   4
ATOM      4  C   UNL     1      -0.060   7.435  35.629  1.00  0.00     0.000 C 
BRANCH   4   5
ATOM      5  C   UNL     1       0.503   6.342  34.706  1.00  0.00     0.000 C 
BRANCH   5   6
ATOM      6  C   UNL     1      -0.596   5.543  33.991  1.00  0.00     0.006 C 
BRANCH   6   7
ATOM      7  C   UNL     1      -0.045   4.222  33.445  1.00  0.00     0.053 C 
BRANCH   7   8
ATOM      8  C   UNL     1      -1.139   3.208  33.322  1.00  0.00     0.041 C 
ATOM      9  O   UNL     1      -1.683   2.735  34.355  1.00  0.00    -0.550 OA
ATOM     10  O   UNL     1      -1.591   2.822  32.067  1.00  0.00    -0.550 OA
ENDBRANCH   7   8
ENDBRANCH   6   7
ENDBRANCH   5   6
ENDBRANCH   4   5
ENDBRANCH   3   4
ENDBRANCH   2   3
ENDBRANCH   1   2
BRANCH   1  11
ATOM     11  C   UNL     1      -2.524   9.118  38.670  1.00  0.00     0.000 C 
BRANCH  11  12
ATOM     12  C   UNL     1      -2.349   8.395  40.017  1.00  0.00    -0.000 C 
BRANCH  12  13
ATOM     13  C   UNL     1      -3.638   7.697  40.482  1.00  0.00    -0.000 C 
BRANCH  13  14
ATOM     14  C   UNL     1      -3.425   6.202  40.775  1.00  0.00    -0.000 C 
BRANCH  14  15
ATOM     15  C   UNL     1      -3.254   5.369  39.494  1.00  0.00    -0.000 C 
BRANCH  15  16
ATOM     16  C   UNL     1      -1.782   5.020  39.211  1.00  0.00    -0.000 C 
BRANCH  16  17
ATOM     17  C   UNL     1      -1.546   4.610  37.749  1.00  0.00    -0.003 C 
ATOM     18  C   UNL     1      -2.761   4.868  36.860  1.00  0.00     0.004 C 
ENDBRANCH  16  17
ENDBRANCH  15  16
ENDBRANCH  14  15
ENDBRANCH  13  14
ENDBRANCH  12  13
ENDBRANCH  11  12
ENDBRANCH   1  11
TORSDOF 14
ENDMDL
MODEL 3
REMARK VINA RESULT:    -2.796     10.317     12.848
REMARK INTER + INTRA:          -7.669
REMARK INTER:                  -5.322
REMARK INTRA:                  -2.347
REMARK UNBOUND:                -2.585
REMARK SMILES CCCCCCCCCCCCCCCC(=O)[O-]
REMARK SMILES IDX 9 1 10 2 11 3 12 4 13 5 14 6 15 7 16 8 17 9 18 10 8 11 7 12
REMARK SMILES IDX 6 13 5 14 4 15 3 16 2 17 1 18
REMARK H PARENT
REMARK Flexibility Score: inf
ROOT
ATOM      1  C   UNL     1       0.762   5.890  24.541  1.00  0.00     0.000 C 
ENDROOT
BRANCH   1   2
ATOM      2  C   UNL     1      -0.733   5.963  24.900  1.00  0.00     0.000 C 
BRANCH   2   3
ATOM      3  C   UNL     1      -1.024   5.465  26.324  1.00  0.00     0.000 C 
BRANCH   3   4
ATOM      4  C   UNL     1       0.144   4.655  26.915  1.00  0.00     0.000 C 
BRANCH   4   5
ATOM      5  C   UNL     1      -0.061   4.322  28.402  1.00  0.00     0.000 C 
BRANCH   5   6
ATOM      6  C   UNL     1       0.943   5.042  29.316  1.00  0.00     0.006 C 
BRANCH   6   7
ATOM      7  C   UNL     1       0.239   5.636  30.540  1.00  0.00     0.053 C 
BRANCH   7   8
ATOM      8  C   UNL     1       1.009   6.803  31.073  1.00  0.00     0.041 C 
ATOM      9  O   UNL     1       0.785   7.963  30.636  1.00  0.00    -0.550 OA
ATOM     10  O   UNL     1       1.940   6.617  32.087  1.00  0.00    -0.550 OA
ENDBRANCH   7   8
ENDBRANCH   6   7
ENDBRANCH   5   6
ENDBRANCH   4   5
ENDBRANCH   3   4
ENDBRANCH   2   3
ENDBRANCH   1   2
BRANCH   1  11
ATOM     11  C   UNL     1       1.266   7.169  23.853  1.00  0.00     0.000 C 
BRANCH  11  12
ATOM     12  C   UNL     1       0.692   8.446  24.493  1.00  0.00    -0.000 C 
BRANCH  12  13
ATOM     13  C   UNL     1       1.670   9.095  25.486  1.00  0.00    -0.000 C 
BRANCH  13  14
ATOM     14  C   UNL     1       1.473   8.585  26.925  1.00  0.00    -0.000 C 
BRANCH  14  15
ATOM     15  C   UNL     1       2.555   7.577  27.345  1.00  0.00    -0.000 C 
BRANCH  15  16
ATOM     16  C   UNL     1       3.836   7.703  26.502  1.00  0.00    -0.000 C 
BRANCH  16  17
ATOM     17  C   UNL     1       4.610   6.379  26.407  1.00  0.00    -0.003 C 
ATOM     18  C   UNL     1       3.727   5.159  26.669  1.00  0.00     0.004 C 
ENDBRANCH  16  17
ENDBRANCH  15  16
ENDBRANCH  14  15
ENDBRANCH  13  14
ENDBRANCH  12  13
ENDBRANCH  11  12
ENDBRANCH   1  11
TORSDOF 14
ENDMDL
MODEL 4
REMARK VINA RESULT:    -2.788      2.164      4.870
REMARK INTER + INTRA:          -7.655
REMARK INTER:                  -5.386
REMARK INTRA:                  -2.269
REMARK UNBOUND:                -2.585
REMARK SMILES CCCCCCCCCCCCCCCC(=O)[O-]
REMARK SMILES IDX 9 1 10 2 11 3 12 4 13 5 14 6 15 7 16 8 17 9 18 10 8 11 7 12
REMARK SMILES IDX 6 13 5 14 4 15 3 16 2 17 1 18
REMARK H PARENT
REMARK Flexibility Score: inf
ROOT
ATOM      1  C   UNL     1      -2.900   5.471  40.204  1.00  0.00     0.000 C 
ENDROOT
BRANCH   1   2
ATOM      2  C   UNL     1      -1.973   5.323  38.985  1.00  0.00     0.000 C 
BRANCH   2   3
ATOM      3  C   UNL     1      -2.737   4.972  37.698  1.00  0.00     0.000 C 
BRANCH   3   4
ATOM      4  C   UNL     1      -2.009   5.453  36.431  1.00  0.00     0.000 C 
BRANCH   4   5
ATOM      5  C   UNL     1      -1.544   6.916  36.536  1.00  0.00     0.000 C 
BRANCH   5   6
ATOM      6  C   UNL     1      -0.359   7.230  35.610  1.00  0.00     0.006 C 
BRANCH   6   7
ATOM      7  C   UNL     1       0.428   5.958  35.278  1.00  0.00     0.053 C 
BRANCH   7   8
ATOM      8  C   UNL     1       0.603   5.821  33.798  1.00  0.00     0.041 C 
ATOM      9  O   UNL     1       1.757   5.717  33.304  1.00  0.00    -0.550 OA
ATOM     10  O   UNL     1      -0.510   5.759  32.970  1.00  0.00    -0.550 OA
ENDBRANCH   7   8
ENDBRANCH   6   7
ENDBRANCH   5   6
ENDBRANCH   4   5
ENDBRANCH   3   4
ENDBRANCH   2   3
ENDBRANCH   1   2
BRANCH   1  11
ATOM     11  C   UNL     1      -2.805   6.862  40.850  1.00  0.00     0.000 C 
BRANCH  11  12
ATOM     12  C   UNL     1      -3.181   7.992  39.874  1.00  0.00    -0.000 C 
BRANCH  12  13
ATOM     13  C   UNL     1      -1.975   8.867  39.494  1.00  0.00    -0.000 C 
BRANCH  13  14
ATOM     14  C   UNL     1      -0.752   8.605  40.392  1.00  0.00    -0.000 C 
BRANCH  14  15
ATOM     15  C   UNL     1       0.561   9.085  39.752  1.00  0.00    -0.000 C 
BRANCH  15  16
ATOM     16  C   UNL     1       1.166   8.042  38.795  1.00  0.00    -0.000 C 
BRANCH  16  17
ATOM     17  C   UNL     1       1.721   6.816  39.536  1.00  0.00    -0.003 C 
ATOM     18  C   UNL     1       1.612   5.531  38.716  1.00  0.00     0.004 C 
ENDBRANCH  16  17
ENDBRANCH  15  16
ENDBRANCH  14  15
ENDBRANCH  13  14
ENDBRANCH  12  13
ENDBRANCH  11  12
ENDBRANCH   1  11
TORSDOF 14
ENDMDL
MODEL 5
REMARK VINA RESULT:    -2.744      2.654      5.028
REMARK INTER + INTRA:          -7.576
REMARK INTER:                  -5.267
REMARK INTRA:                  -2.308
REMARK UNBOUND:                -2.585
REMARK SMILES CCCCCCCCCCCCCCCC(=O)[O-]
REMARK SMILES IDX 9 1 10 2 11 3 12 4 13 5 14 6 15 7 16 8 17 9 18 10 8 11 7 12
REMARK SMILES IDX 6 13 5 14 4 15 3 16 2 17 1 18
REMARK H PARENT
REMARK Flexibility Score: inf
ROOT
ATOM      1  C   UNL     1      -1.644   7.280  36.690  1.00  0.00     0.000 C 
ENDROOT
BRANCH   1   2
ATOM      2  C   UNL     1      -2.050   5.857  36.268  1.00  0.00     0.000 C 
BRANCH   2   3
ATOM      3  C   UNL     1      -2.424   4.968  37.465  1.00  0.00     0.000 C 
BRANCH   3   4
ATOM      4  C   UNL     1      -2.146   5.653  38.815  1.00  0.00     0.000 C 
BRANCH   4   5
ATOM      5  C   UNL     1      -3.379   5.665  39.736  1.00  0.00     0.000 C 
BRANCH   5   6
ATOM      6  C   UNL     1      -3.551   6.999  40.479  1.00  0.00     0.006 C 
BRANCH   6   7
ATOM      7  C   UNL     1      -2.269   7.835  40.408  1.00  0.00     0.053 C 
BRANCH   7   8
ATOM      8  C   UNL     1      -1.758   8.128  41.783  1.00  0.00     0.041 C 
ATOM      9  O   UNL     1      -2.427   7.786  42.794  1.00  0.00    -0.550 OA
ATOM     10  O   UNL     1      -0.519   8.734  41.949  1.00  0.00    -0.550 OA
ENDBRANCH   7   8
ENDBRANCH   6   7
ENDBRANCH   5   6
ENDBRANCH   4   5
ENDBRANCH   3   4
ENDBRANCH   2   3
ENDBRANCH   1   2
BRANCH   1  11
ATOM     11  C   UNL     1      -0.255   7.676  36.165  1.00  0.00     0.000 C 
BRANCH  11  12
ATOM     12  C   UNL     1       0.824   7.625  37.262  1.00  0.00    -0.000 C 
BRANCH  12  13
ATOM     13  C   UNL     1       1.524   6.258  37.335  1.00  0.00    -0.000 C 
BRANCH  13  14
ATOM     14  C   UNL     1       2.112   5.971  38.729  1.00  0.00    -0.000 C 
BRANCH  14  15
ATOM     15  C   UNL     1       1.262   6.571  39.861  1.00  0.00    -0.000 C 
BRANCH  15  16
ATOM     16  C   UNL     1       0.815   5.513  40.885  1.00  0.00    -0.000 C 
BRANCH  16  17
ATOM     17  C   UNL     1       1.320   4.105  40.536  1.00  0.00    -0.003 C 
ATOM     18  C   UNL     1       0.202   3.176  40.065  1.00  0.00     0.004 C 
ENDBRANCH  16  17
ENDBRANCH  15  16
ENDBRANCH  14  15
ENDBRANCH  13  14
ENDBRANCH  12  13
ENDBRANCH  11  12
ENDBRANCH   1  11
TORSDOF 14
ENDMDL
MODEL 6
REMARK VINA RESULT:    -2.730      3.482      5.097
REMARK INTER + INTRA:          -7.549
REMARK INTER:                  -5.363
REMARK INTRA:                  -2.186
REMARK UNBOUND:                -2.585
REMARK SMILES CCCCCCCCCCCCCCCC(=O)[O-]
REMARK SMILES IDX 9 1 10 2 11 3 12 4 13 5 14 6 15 7 16 8 17 9 18 10 8 11 7 12
REMARK SMILES IDX 6 13 5 14 4 15 3 16 2 17 1 18
REMARK H PARENT
REMARK Flexibility Score: inf
ROOT
ATOM      1  C   UNL     1       0.374   8.228  37.727  1.00  0.00     0.000 C 
ENDROOT
BRANCH   1   2
ATOM      2  C   UNL     1       1.089   7.001  37.134  1.00  0.00     0.000 C 
BRANCH   2   3
ATOM      3  C   UNL     1       0.554   6.619  35.744  1.00  0.00     0.000 C 
BRANCH   3   4
ATOM      4  C   UNL     1       1.235   5.361  35.176  1.00  0.00     0.000 C 
BRANCH   4   5
ATOM      5  C   UNL     1       0.332   4.589  34.200  1.00  0.00     0.000 C 
BRANCH   5   6
ATOM      6  C   UNL     1      -0.504   5.516  33.305  1.00  0.00     0.006 C 
BRANCH   6   7
ATOM      7  C   UNL     1       0.036   5.525  31.871  1.00  0.00     0.053 C 
BRANCH   7   8
ATOM      8  C   UNL     1       0.597   6.871  31.531  1.00  0.00     0.041 C 
ATOM      9  O   UNL     1       0.820   7.179  30.330  1.00  0.00    -0.550 OA
ATOM     10  O   UNL     1       0.827   7.802  32.536  1.00  0.00    -0.550 OA
ENDBRANCH   7   8
ENDBRANCH   6   7
ENDBRANCH   5   6
ENDBRANCH   4   5
ENDBRANCH   3   4
ENDBRANCH   2   3
ENDBRANCH   1   2
BRANCH   1  11
ATOM     11  C   UNL     1      -0.919   8.578  36.974  1.00  0.00     0.000 C 
BRANCH  11  12
ATOM     12  C   UNL     1      -2.041   9.045  37.919  1.00  0.00    -0.000 C 
BRANCH  12  13
ATOM     13  C   UNL     1      -1.827   8.571  39.366  1.00  0.00    -0.000 C 
BRANCH  13  14
ATOM     14  C   UNL     1      -2.599   7.278  39.682  1.00  0.00    -0.000 C 
BRANCH  14  15
ATOM     15  C   UNL     1      -1.666   6.100  40.006  1.00  0.00    -0.000 C 
BRANCH  15  16
ATOM     16  C   UNL     1      -1.521   5.122  38.827  1.00  0.00    -0.000 C 
BRANCH  16  17
ATOM     17  C   UNL     1      -2.815   4.991  38.008  1.00  0.00    -0.003 C 
ATOM     18  C   UNL     1      -2.562   4.989  36.501  1.00  0.00     0.004 C 
ENDBRANCH  16  17
ENDBRANCH  15  16
ENDBRANCH  14  15
ENDBRANCH  13  14
ENDBRANCH  12  13
ENDBRANCH  11  12
ENDBRANCH   1  11
TORSDOF 14
ENDMDL
MODEL 7
REMARK VINA RESULT:    -2.729      2.013      3.809
REMARK INTER + INTRA:          -7.547
REMARK INTER:                  -5.533
REMARK INTRA:                  -2.014
REMARK UNBOUND:                -2.585
REMARK SMILES CCCCCCCCCCCCCCCC(=O)[O-]
REMARK SMILES IDX 9 1 10 2 11 3 12 4 13 5 14 6 15 7 16 8 17 9 18 10 8 11 7 12
REMARK SMILES IDX 6 13 5 14 4 15 3 16 2 17 1 18
REMARK H PARENT
REMARK Flexibility Score: inf
ROOT
ATOM      1  C   UNL     1      -0.788   5.769  38.142  1.00  0.00     0.000 C 
ENDROOT
BRANCH   1   2
ATOM      2  C   UNL     1      -2.248   5.311  37.985  1.00  0.00     0.000 C 
BRANCH   2   3
ATOM      3  C   UNL     1      -2.565   4.818  36.564  1.00  0.00     0.000 C 
BRANCH   3   4
ATOM      4  C   UNL     1      -2.044   5.777  35.479  1.00  0.00     0.000 C 
BRANCH   4   5
ATOM      5  C   UNL     1      -1.093   5.087  34.486  1.00  0.00     0.000 C 
BRANCH   5   6
ATOM      6  C   UNL     1       0.360   5.564  34.626  1.00  0.00     0.006 C 
BRANCH   6   7
ATOM      7  C   UNL     1       1.325   4.375  34.666  1.00  0.00     0.053 C 
BRANCH   7   8
ATOM      8  C   UNL     1       2.468   4.658  35.589  1.00  0.00     0.041 C 
ATOM      9  O   UNL     1       3.629   4.265  35.299  1.00  0.00    -0.550 OA
ATOM     10  O   UNL     1       2.260   5.398  36.746  1.00  0.00    -0.550 OA
ENDBRANCH   7   8
ENDBRANCH   6   7
ENDBRANCH   5   6
ENDBRANCH   4   5
ENDBRANCH   3   4
ENDBRANCH   2   3
ENDBRANCH   1   2
BRANCH   1  11
ATOM     11  C   UNL     1      -0.675   7.183  38.734  1.00  0.00     0.000 C 
BRANCH  11  12
ATOM     12  C   UNL     1      -1.645   8.178  38.070  1.00  0.00    -0.000 C 
BRANCH  12  13
ATOM     13  C   UNL     1      -2.564   8.870  39.090  1.00  0.00    -0.000 C 
BRANCH  13  14
ATOM     14  C   UNL     1      -2.597   8.141  40.444  1.00  0.00    -0.000 C 
BRANCH  14  15
ATOM     15  C   UNL     1      -3.896   7.344  40.652  1.00  0.00    -0.000 C 
BRANCH  15  16
ATOM     16  C   UNL     1      -3.698   6.125  41.569  1.00  0.00    -0.000 C 
BRANCH  16  17
ATOM     17  C   UNL     1      -2.223   5.896  41.935  1.00  0.00    -0.003 C 
ATOM     18  C   UNL     1      -1.739   4.490  41.582  1.00  0.00     0.004 C 
ENDBRANCH  16  17
ENDBRANCH  15  16
ENDBRANCH  14  15
ENDBRANCH  13  14
ENDBRANCH  12  13
ENDBRANCH  11  12
ENDBRANCH   1  11
TORSDOF 14
ENDMDL
MODEL 8
REMARK VINA RESULT:    -2.715      2.195      3.903
REMARK INTER + INTRA:          -7.521
REMARK INTER:                  -5.378
REMARK INTRA:                  -2.143
REMARK UNBOUND:                -2.585
REMARK SMILES CCCCCCCCCCCCCCCC(=O)[O-]
REMARK SMILES IDX 9 1 10 2 11 3 12 4 13 5 14 6 15 7 16 8 17 9 18 10 8 11 7 12
REMARK SMILES IDX 6 13 5 14 4 15 3 16 2 17 1 18
REMARK H PARENT
REMARK Flexibility Score: inf
ROOT
ATOM      1  C   UNL     1      -1.622   8.376  40.062  1.00  0.00     0.000 C 
ENDROOT
BRANCH   1   2
ATOM      2  C   UNL     1      -2.316   8.913  38.798  1.00  0.00     0.000 C 
BRANCH   2   3
ATOM      3  C   UNL     1      -1.752   8.299  37.507  1.00  0.00     0.000 C 
BRANCH   3   4
ATOM      4  C   UNL     1      -1.175   6.890  37.728  1.00  0.00     0.000 C 
BRANCH   4   5
ATOM      5  C   UNL     1      -2.031   5.792  37.075  1.00  0.00     0.000 C 
BRANCH   5   6
ATOM      6  C   UNL     1      -1.474   5.331  35.720  1.00  0.00     0.006 C 
BRANCH   6   7
ATOM      7  C   UNL     1       0.026   5.030  35.819  1.00  0.00     0.053 C 
BRANCH   7   8
ATOM      8  C   UNL     1       0.788   5.828  34.808  1.00  0.00     0.041 C 
ATOM      9  O   UNL     1       1.813   5.342  34.261  1.00  0.00    -0.550 OA
ATOM     10  O   UNL     1       0.338   7.088  34.434  1.00  0.00    -0.550 OA
ENDBRANCH   7   8
ENDBRANCH   6   7
ENDBRANCH   5   6
ENDBRANCH   4   5
ENDBRANCH   3   4
ENDBRANCH   2   3
ENDBRANCH   1   2
BRANCH   1  11
ATOM     11  C   UNL     1      -2.622   7.977  41.159  1.00  0.00     0.000 C 
BRANCH  11  12
ATOM     12  C   UNL     1      -3.891   7.319  40.587  1.00  0.00    -0.000 C 
BRANCH  12  13
ATOM     13  C   UNL     1      -3.707   5.815  40.328  1.00  0.00    -0.000 C 
BRANCH  13  14
ATOM     14  C   UNL     1      -3.808   4.978  41.615  1.00  0.00    -0.000 C 
BRANCH  14  15
ATOM     15  C   UNL     1      -2.443   4.448  42.082  1.00  0.00    -0.000 C 
BRANCH  15  16
ATOM     16  C   UNL     1      -1.366   4.552  40.988  1.00  0.00    -0.000 C 
BRANCH  16  17
ATOM     17  C   UNL     1      -0.060   5.176  41.504  1.00  0.00    -0.003 C 
ATOM     18  C   UNL     1       0.879   5.600  40.376  1.00  0.00     0.004 C 
ENDBRANCH  16  17
ENDBRANCH  15  16
ENDBRANCH  14  15
ENDBRANCH  13  14
ENDBRANCH  12  13
ENDBRANCH  11  12
ENDBRANCH   1  11
TORSDOF 14
ENDMDL
MODEL 9
REMARK VINA RESULT:    -2.708      2.177      4.077
REMARK INTER + INTRA:          -7.510
REMARK INTER:                  -5.041
REMARK INTRA:                  -2.469
REMARK UNBOUND:                -2.585
REMARK SMILES CCCCCCCCCCCCCCCC(=O)[O-]
REMARK SMILES IDX 9 1 10 2 11 3 12 4 13 5 14 6 15 7 16 8 17 9 18 10 8 11 7 12
REMARK SMILES IDX 6 13 5 14 4 15 3 16 2 17 1 18
REMARK H PARENT
REMARK Flexibility Score: inf
ROOT
ATOM      1  C   UNL     1       0.736   5.262  40.671  1.00  0.00     0.000 C 
ENDROOT
BRANCH   1   2
ATOM      2  C   UNL     1      -0.261   4.390  39.888  1.00  0.00     0.000 C 
BRANCH   2   3
ATOM      3  C   UNL     1      -0.107   4.538  38.365  1.00  0.00     0.000 C 
BRANCH   3   4
ATOM      4  C   UNL     1       1.366   4.588  37.924  1.00  0.00     0.000 C 
BRANCH   4   5
ATOM      5  C   UNL     1       1.589   5.503  36.708  1.00  0.00     0.000 C 
BRANCH   5   6
ATOM      6  C   UNL     1       0.598   6.676  36.658  1.00  0.00     0.006 C 
BRANCH   6   7
ATOM      7  C   UNL     1      -0.051   6.785  35.274  1.00  0.00     0.053 C 
BRANCH   7   8
ATOM      8  C   UNL     1      -1.225   5.862  35.172  1.00  0.00     0.041 C 
ATOM      9  O   UNL     1      -2.332   6.188  35.676  1.00  0.00    -0.550 OA
ATOM     10  O   UNL     1      -1.109   4.665  34.477  1.00  0.00    -0.550 OA
ENDBRANCH   7   8
ENDBRANCH   6   7
ENDBRANCH   5   6
ENDBRANCH   4   5
ENDBRANCH   3   4
ENDBRANCH   2   3
ENDBRANCH   1   2
BRANCH   1  11
ATOM     11  C   UNL     1       0.057   6.086  41.776  1.00  0.00     0.000 C 
BRANCH  11  12
ATOM     12  C   UNL     1       0.253   7.601  41.586  1.00  0.00    -0.000 C 
BRANCH  12  13
ATOM     13  C   UNL     1       0.219   8.017  40.106  1.00  0.00    -0.000 C 
BRANCH  13  14
ATOM     14  C   UNL     1      -1.107   8.693  39.715  1.00  0.00    -0.000 C 
BRANCH  14  15
ATOM     15  C   UNL     1      -2.010   7.776  38.875  1.00  0.00    -0.000 C 
BRANCH  15  16
ATOM     16  C   UNL     1      -2.887   6.856  39.744  1.00  0.00    -0.000 C 
BRANCH  16  17
ATOM     17  C   UNL     1      -3.834   7.642  40.663  1.00  0.00    -0.003 C 
ATOM     18  C   UNL     1      -3.625   7.318  42.142  1.00  0.00     0.004 C 
ENDBRANCH  16  17
ENDBRANCH  15  16
ENDBRANCH  14  15
ENDBRANCH  13  14
ENDBRANCH  12  13
ENDBRANCH  11  12
ENDBRANCH   1  11
TORSDOF 14
ENDMDL
