MODEL 1
REMARK VINA RESULT:    -5.664      0.000      0.000
REMARK INTER + INTRA:          -6.748
REMARK INTER:                  -6.658
REMARK INTRA:                  -0.091
REMARK UNBOUND:                -0.091
REMARK SMILES O=c1c(O)c(-c2ccc(O)cc2)oc2cc(O)cc(O)c12
REMARK SMILES IDX 5 1 3 2 2 3 1 4 21 5 19 6 18 7 16 8 15 9 14 10 13 11 6 12
REMARK SMILES IDX 7 13 8 14 9 15 12 16 11 17 10 18 4 20 20 22 17 24
REMARK H PARENT 10 19 4 21 20 23 17 25
REMARK Flexibility Score: inf
ROOT
ATOM      1  C   UNL     1     -37.205  75.816 -26.257  1.00  0.00     0.180 A 
ATOM      2  C   UNL     1     -38.165  75.359 -27.177  1.00  0.00     0.208 A 
ATOM      3  C   UNL     1     -39.521  75.388 -26.817  1.00  0.00     0.238 A 
ATOM      4  O   UNL     1     -40.370  74.927 -27.623  1.00  0.00    -0.285 OA
ATOM      5  C   UNL     1     -39.903  75.887 -25.548  1.00  0.00     0.111 A 
ATOM      6  C   UNL     1     -41.251  76.000 -25.094  1.00  0.00     0.134 A 
ATOM      7  C   UNL     1     -41.504  76.386 -23.772  1.00  0.00     0.093 A 
ATOM      8  C   UNL     1     -40.463  76.726 -22.909  1.00  0.00     0.123 A 
ATOM      9  C   UNL     1     -39.144  76.677 -23.361  1.00  0.00     0.094 A 
ATOM     10  C   UNL     1     -38.858  76.260 -24.664  1.00  0.00     0.146 A 
ATOM     11  O   UNL     1     -37.588  76.218 -25.052  1.00  0.00    -0.452 OA
ENDROOT
BRANCH   1  12
ATOM     12  C   UNL     1     -35.758  75.840 -26.574  1.00  0.00     0.021 A 
ATOM     13  C   UNL     1     -35.054  74.658 -26.873  1.00  0.00     0.016 A 
ATOM     14  C   UNL     1     -33.694  74.709 -27.195  1.00  0.00     0.047 A 
ATOM     15  C   UNL     1     -33.024  75.939 -27.234  1.00  0.00     0.115 A 
ATOM     16  C   UNL     1     -35.084  77.071 -26.637  1.00  0.00     0.016 A 
ATOM     17  C   UNL     1     -33.724  77.118 -26.957  1.00  0.00     0.047 A 
BRANCH  15  18
ATOM     18  O   UNL     1     -31.670  76.001 -27.552  1.00  0.00    -0.508 OA
ATOM     19  H   UNL     1     -31.172  75.195 -27.909  1.00  0.00     0.293 HD
ENDBRANCH  15  18
ENDBRANCH   1  12
BRANCH   2  20
ATOM     20  O   UNL     1     -37.765  74.849 -28.415  1.00  0.00    -0.502 OA
ATOM     21  H   UNL     1     -38.369  74.855 -29.228  1.00  0.00     0.293 HD
ENDBRANCH   2  20
BRANCH   6  22
ATOM     22  O   UNL     1     -42.369  75.773 -25.902  1.00  0.00    -0.507 OA
ATOM     23  H   UNL     1     -42.448  76.059 -26.866  1.00  0.00     0.293 HD
ENDBRANCH   6  22
BRANCH   8  24
ATOM     24  O   UNL     1     -40.753  77.121 -21.605  1.00  0.00    -0.508 OA
ATOM     25  H   UNL     1     -40.115  76.933 -20.840  1.00  0.00     0.293 HD
ENDBRANCH   8  24
TORSDOF 5
ENDMDL
MODEL 2
REMARK VINA RESULT:    -5.072      1.400      2.158
REMARK INTER + INTRA:          -6.052
REMARK INTER:                  -5.930
REMARK INTRA:                  -0.122
REMARK UNBOUND:                -0.091
REMARK SMILES O=c1c(O)c(-c2ccc(O)cc2)oc2cc(O)cc(O)c12
REMARK SMILES IDX 5 1 3 2 2 3 1 4 21 5 19 6 18 7 16 8 15 9 14 10 13 11 6 12
REMARK SMILES IDX 7 13 8 14 9 15 12 16 11 17 10 18 4 20 20 22 17 24
REMARK H PARENT 10 19 4 21 20 23 17 25
REMARK Flexibility Score: inf
ROOT
ATOM      1  C   UNL     1     -39.118  75.717 -25.624  1.00  0.00     0.180 A 
ATOM      2  C   UNL     1     -40.284  75.690 -26.409  1.00  0.00     0.208 A 
ATOM      3  C   UNL     1     -41.523  75.942 -25.798  1.00  0.00     0.238 A 
ATOM      4  O   UNL     1     -42.568  75.861 -26.494  1.00  0.00    -0.285 OA
ATOM      5  C   UNL     1     -41.579  76.234 -24.414  1.00  0.00     0.111 A 
ATOM      6  C   UNL     1     -42.775  76.545 -23.699  1.00  0.00     0.134 A 
ATOM      7  C   UNL     1     -42.728  76.690 -22.307  1.00  0.00     0.093 A 
ATOM      8  C   UNL     1     -41.523  76.600 -21.613  1.00  0.00     0.123 A 
ATOM      9  C   UNL     1     -40.339  76.356 -22.309  1.00  0.00     0.094 A 
ATOM     10  C   UNL     1     -40.358  76.171 -23.694  1.00  0.00     0.146 A 
ATOM     11  O   UNL     1     -39.210  75.931 -24.318  1.00  0.00    -0.452 OA
ENDROOT
BRANCH   1  12
ATOM     12  C   UNL     1     -37.774  75.486 -26.202  1.00  0.00     0.021 A 
ATOM     13  C   UNL     1     -37.425  74.248 -26.773  1.00  0.00     0.016 A 
ATOM     14  C   UNL     1     -36.158  74.062 -27.336  1.00  0.00     0.047 A 
ATOM     15  C   UNL     1     -35.231  75.112 -27.346  1.00  0.00     0.115 A 
ATOM     16  C   UNL     1     -36.845  76.540 -26.237  1.00  0.00     0.016 A 
ATOM     17  C   UNL     1     -35.579  76.349 -26.798  1.00  0.00     0.047 A 
BRANCH  15  18
ATOM     18  O   UNL     1     -33.966  74.937 -27.902  1.00  0.00    -0.508 OA
ATOM     19  H   UNL     1     -33.593  75.586 -28.584  1.00  0.00     0.293 HD
ENDBRANCH  15  18
ENDBRANCH   1  12
BRANCH   2  20
ATOM     20  O   UNL     1     -40.209  75.376 -27.769  1.00  0.00    -0.502 OA
ATOM     21  H   UNL     1     -40.993  75.496 -28.400  1.00  0.00     0.293 HD
ENDBRANCH   2  20
BRANCH   6  22
ATOM     22  O   UNL     1     -44.018  76.748 -24.307  1.00  0.00    -0.507 OA
ATOM     23  H   UNL     1     -44.370  77.644 -24.607  1.00  0.00     0.293 HD
ENDBRANCH   6  22
BRANCH   8  24
ATOM     24  O   UNL     1     -41.512  76.766 -20.229  1.00  0.00    -0.508 OA
ATOM     25  H   UNL     1     -41.747  76.006 -19.602  1.00  0.00     0.293 HD
ENDBRANCH   8  24
TORSDOF 5
ENDMDL
MODEL 3
REMARK VINA RESULT:    -4.842      1.514      3.204
REMARK INTER + INTRA:          -5.782
REMARK INTER:                  -5.871
REMARK INTRA:                   0.089
REMARK UNBOUND:                -0.091
REMARK SMILES O=c1c(O)c(-c2ccc(O)cc2)oc2cc(O)cc(O)c12
REMARK SMILES IDX 5 1 3 2 2 3 1 4 21 5 19 6 18 7 16 8 15 9 14 10 13 11 6 12
REMARK SMILES IDX 7 13 8 14 9 15 12 16 11 17 10 18 4 20 20 22 17 24
REMARK H PARENT 10 19 4 21 20 23 17 25
REMARK Flexibility Score: inf
ROOT
ATOM      1  C   UNL     1     -38.443  75.837 -25.701  1.00  0.00     0.180 A 
ATOM      2  C   UNL     1     -38.650  76.423 -24.439  1.00  0.00     0.208 A 
ATOM      3  C   UNL     1     -39.960  76.550 -23.954  1.00  0.00     0.238 A 
ATOM      4  O   UNL     1     -40.143  77.123 -22.849  1.00  0.00    -0.285 OA
ATOM      5  C   UNL     1     -41.047  76.075 -24.728  1.00  0.00     0.111 A 
ATOM      6  C   UNL     1     -42.414  76.115 -24.316  1.00  0.00     0.134 A 
ATOM      7  C   UNL     1     -43.417  75.738 -25.217  1.00  0.00     0.093 A 
ATOM      8  C   UNL     1     -43.102  75.260 -26.488  1.00  0.00     0.123 A 
ATOM      9  C   UNL     1     -41.766  75.159 -26.879  1.00  0.00     0.094 A 
ATOM     10  C   UNL     1     -40.744  75.563 -26.015  1.00  0.00     0.146 A 
ATOM     11  O   UNL     1     -39.486  75.461 -26.430  1.00  0.00    -0.452 OA
ENDROOT
BRANCH   1  12
ATOM     12  C   UNL     1     -37.088  75.647 -26.268  1.00  0.00     0.021 A 
ATOM     13  C   UNL     1     -36.699  74.421 -26.839  1.00  0.00     0.016 A 
ATOM     14  C   UNL     1     -35.422  74.273 -27.392  1.00  0.00     0.047 A 
ATOM     15  C   UNL     1     -34.526  75.350 -27.393  1.00  0.00     0.115 A 
ATOM     16  C   UNL     1     -36.191  76.728 -26.294  1.00  0.00     0.016 A 
ATOM     17  C   UNL     1     -34.915  76.576 -26.845  1.00  0.00     0.047 A 
BRANCH  15  18
ATOM     18  O   UNL     1     -33.252  75.214 -27.939  1.00  0.00    -0.508 OA
ATOM     19  H   UNL     1     -33.051  75.498 -28.890  1.00  0.00     0.293 HD
ENDBRANCH  15  18
ENDBRANCH   1  12
BRANCH   2  20
ATOM     20  O   UNL     1     -37.565  76.905 -23.702  1.00  0.00    -0.502 OA
ATOM     21  H   UNL     1     -36.747  76.341 -23.503  1.00  0.00     0.293 HD
ENDBRANCH   2  20
BRANCH   6  22
ATOM     22  O   UNL     1     -42.833  76.489 -23.036  1.00  0.00    -0.507 OA
ATOM     23  H   UNL     1     -43.403  75.919 -22.429  1.00  0.00     0.293 HD
ENDBRANCH   6  22
BRANCH   8  24
ATOM     24  O   UNL     1     -44.125  74.877 -27.352  1.00  0.00    -0.508 OA
ATOM     25  H   UNL     1     -44.261  75.331 -28.248  1.00  0.00     0.293 HD
ENDBRANCH   8  24
TORSDOF 5
ENDMDL
MODEL 4
REMARK VINA RESULT:    -4.570      6.683      8.495
REMARK INTER + INTRA:          -5.462
REMARK INTER:                  -5.326
REMARK INTRA:                  -0.137
REMARK UNBOUND:                -0.091
REMARK SMILES O=c1c(O)c(-c2ccc(O)cc2)oc2cc(O)cc(O)c12
REMARK SMILES IDX 5 1 3 2 2 3 1 4 21 5 19 6 18 7 16 8 15 9 14 10 13 11 6 12
REMARK SMILES IDX 7 13 8 14 9 15 12 16 11 17 10 18 4 20 20 22 17 24
REMARK H PARENT 10 19 4 21 20 23 17 25
REMARK Flexibility Score: inf
ROOT
ATOM      1  C   UNL     1     -36.856  72.613 -18.936  1.00  0.00     0.180 A 
ATOM      2  C   UNL     1     -36.575  73.648 -18.026  1.00  0.00     0.208 A 
ATOM      3  C   UNL     1     -37.346  74.820 -18.069  1.00  0.00     0.238 A 
ATOM      4  O   UNL     1     -37.055  75.764 -17.289  1.00  0.00    -0.285 OA
ATOM      5  C   UNL     1     -38.397  74.938 -19.010  1.00  0.00     0.111 A 
ATOM      6  C   UNL     1     -39.268  76.065 -19.116  1.00  0.00     0.134 A 
ATOM      7  C   UNL     1     -40.189  76.128 -20.168  1.00  0.00     0.093 A 
ATOM      8  C   UNL     1     -40.317  75.080 -21.078  1.00  0.00     0.123 A 
ATOM      9  C   UNL     1     -39.512  73.948 -20.949  1.00  0.00     0.094 A 
ATOM     10  C   UNL     1     -38.559  73.871 -19.930  1.00  0.00     0.146 A 
ATOM     11  O   UNL     1     -37.806  72.779 -19.848  1.00  0.00    -0.452 OA
ENDROOT
BRANCH   1  12
ATOM     12  C   UNL     1     -36.103  71.337 -18.935  1.00  0.00     0.021 A 
ATOM     13  C   UNL     1     -34.734  71.294 -19.259  1.00  0.00     0.016 A 
ATOM     14  C   UNL     1     -34.039  70.081 -19.226  1.00  0.00     0.047 A 
ATOM     15  C   UNL     1     -34.698  68.901 -18.858  1.00  0.00     0.115 A 
ATOM     16  C   UNL     1     -36.750  70.153 -18.546  1.00  0.00     0.016 A 
ATOM     17  C   UNL     1     -36.052  68.942 -18.516  1.00  0.00     0.047 A 
BRANCH  15  18
ATOM     18  O   UNL     1     -34.015  67.687 -18.823  1.00  0.00    -0.508 OA
ATOM     19  H   UNL     1     -34.380  66.861 -19.282  1.00  0.00     0.293 HD
ENDBRANCH  15  18
ENDBRANCH   1  12
BRANCH   2  20
ATOM     20  O   UNL     1     -35.518  73.520 -17.121  1.00  0.00    -0.502 OA
ATOM     21  H   UNL     1     -35.114  74.315 -16.640  1.00  0.00     0.293 HD
ENDBRANCH   2  20
BRANCH   6  22
ATOM     22  O   UNL     1     -39.287  77.125 -18.204  1.00  0.00    -0.507 OA
ATOM     23  H   UNL     1     -39.306  77.020 -17.202  1.00  0.00     0.293 HD
ENDBRANCH   6  22
BRANCH   8  24
ATOM     24  O   UNL     1     -41.256  75.171 -22.104  1.00  0.00    -0.508 OA
ATOM     25  H   UNL     1     -41.767  76.027 -22.281  1.00  0.00     0.293 HD
ENDBRANCH   8  24
TORSDOF 5
ENDMDL
MODEL 5
REMARK VINA RESULT:    -4.365      1.852      7.048
REMARK INTER + INTRA:          -5.221
REMARK INTER:                  -5.716
REMARK INTRA:                   0.495
REMARK UNBOUND:                -0.091
REMARK SMILES O=c1c(O)c(-c2ccc(O)cc2)oc2cc(O)cc(O)c12
REMARK SMILES IDX 5 1 3 2 2 3 1 4 21 5 19 6 18 7 16 8 15 9 14 10 13 11 6 12
REMARK SMILES IDX 7 13 8 14 9 15 12 16 11 17 10 18 4 20 20 22 17 24
REMARK H PARENT 10 19 4 21 20 23 17 25
REMARK Flexibility Score: inf
ROOT
ATOM      1  C   UNL     1     -38.330  75.335 -26.136  1.00  0.00     0.180 A 
ATOM      2  C   UNL     1     -37.652  76.242 -25.303  1.00  0.00     0.208 A 
ATOM      3  C   UNL     1     -36.249  76.219 -25.270  1.00  0.00     0.238 A 
ATOM      4  O   UNL     1     -35.650  76.996 -24.482  1.00  0.00    -0.285 OA
ATOM      5  C   UNL     1     -35.540  75.301 -26.082  1.00  0.00     0.111 A 
ATOM      6  C   UNL     1     -34.117  75.217 -26.158  1.00  0.00     0.134 A 
ATOM      7  C   UNL     1     -33.525  74.184 -26.894  1.00  0.00     0.093 A 
ATOM      8  C   UNL     1     -34.300  73.273 -27.610  1.00  0.00     0.123 A 
ATOM      9  C   UNL     1     -35.691  73.382 -27.591  1.00  0.00     0.094 A 
ATOM     10  C   UNL     1     -36.312  74.380 -26.835  1.00  0.00     0.146 A 
ATOM     11  O   UNL     1     -37.639  74.443 -26.836  1.00  0.00    -0.452 OA
ENDROOT
BRANCH   1  12
ATOM     12  C   UNL     1     -39.807  75.315 -26.243  1.00  0.00     0.021 A 
ATOM     13  C   UNL     1     -40.611  76.124 -25.419  1.00  0.00     0.016 A 
ATOM     14  C   UNL     1     -42.003  76.108 -25.557  1.00  0.00     0.047 A 
ATOM     15  C   UNL     1     -42.606  75.294 -26.525  1.00  0.00     0.115 A 
ATOM     16  C   UNL     1     -40.419  74.520 -27.226  1.00  0.00     0.016 A 
ATOM     17  C   UNL     1     -41.810  74.504 -27.359  1.00  0.00     0.047 A 
BRANCH  15  18
ATOM     18  O   UNL     1     -43.991  75.269 -26.669  1.00  0.00    -0.508 OA
ATOM     19  H   UNL     1     -44.430  75.324 -27.580  1.00  0.00     0.293 HD
ENDBRANCH  15  18
ENDBRANCH   1  12
BRANCH   2  20
ATOM     20  O   UNL     1     -38.371  77.125 -24.493  1.00  0.00    -0.502 OA
ATOM     21  H   UNL     1     -37.937  77.910 -24.023  1.00  0.00     0.293 HD
ENDBRANCH   2  20
BRANCH   6  22
ATOM     22  O   UNL     1     -33.247  76.132 -25.556  1.00  0.00    -0.507 OA
ATOM     23  H   UNL     1     -32.416  76.504 -25.990  1.00  0.00     0.293 HD
ENDBRANCH   6  22
BRANCH   8  24
ATOM     24  O   UNL     1     -33.677  72.267 -28.346  1.00  0.00    -0.508 OA
ATOM     25  H   UNL     1     -33.067  72.482 -29.126  1.00  0.00     0.293 HD
ENDBRANCH   8  24
TORSDOF 5
ENDMDL
MODEL 6
REMARK VINA RESULT:    -3.733      7.407      8.689
REMARK INTER + INTRA:          -4.478
REMARK INTER:                  -4.327
REMARK INTRA:                  -0.151
REMARK UNBOUND:                -0.091
REMARK SMILES O=c1c(O)c(-c2ccc(O)cc2)oc2cc(O)cc(O)c12
REMARK SMILES IDX 5 1 3 2 2 3 1 4 21 5 19 6 18 7 16 8 15 9 14 10 13 11 6 12
REMARK SMILES IDX 7 13 8 14 9 15 12 16 11 17 10 18 4 20 20 22 17 24
REMARK H PARENT 10 19 4 21 20 23 17 25
REMARK Flexibility Score: inf
ROOT
ATOM      1  C   UNL     1     -36.864  71.717 -18.915  1.00  0.00     0.180 A 
ATOM      2  C   UNL     1     -37.975  71.840 -19.768  1.00  0.00     0.208 A 
ATOM      3  C   UNL     1     -38.666  73.060 -19.815  1.00  0.00     0.238 A 
ATOM      4  O   UNL     1     -39.692  73.147 -20.539  1.00  0.00    -0.285 OA
ATOM      5  C   UNL     1     -38.230  74.148 -19.020  1.00  0.00     0.111 A 
ATOM      6  C   UNL     1     -38.831  75.443 -19.018  1.00  0.00     0.134 A 
ATOM      7  C   UNL     1     -38.397  76.403 -18.097  1.00  0.00     0.093 A 
ATOM      8  C   UNL     1     -37.343  76.140 -17.223  1.00  0.00     0.123 A 
ATOM      9  C   UNL     1     -36.709  74.897 -17.257  1.00  0.00     0.094 A 
ATOM     10  C   UNL     1     -37.143  73.906 -18.141  1.00  0.00     0.146 A 
ATOM     11  O   UNL     1     -36.519  72.733 -18.135  1.00  0.00    -0.452 OA
ENDROOT
BRANCH   1  12
ATOM     12  C   UNL     1     -36.070  70.469 -18.830  1.00  0.00     0.021 A 
ATOM     13  C   UNL     1     -36.619  69.286 -18.302  1.00  0.00     0.016 A 
ATOM     14  C   UNL     1     -35.857  68.114 -18.256  1.00  0.00     0.047 A 
ATOM     15  C   UNL     1     -34.546  68.106 -18.748  1.00  0.00     0.115 A 
ATOM     16  C   UNL     1     -34.762  70.446 -19.342  1.00  0.00     0.016 A 
ATOM     17  C   UNL     1     -34.003  69.273 -19.292  1.00  0.00     0.047 A 
BRANCH  15  18
ATOM     18  O   UNL     1     -33.778  66.944 -18.706  1.00  0.00    -0.508 OA
ATOM     19  H   UNL     1     -32.766  66.978 -18.704  1.00  0.00     0.293 HD
ENDBRANCH  15  18
ENDBRANCH   1  12
BRANCH   2  20
ATOM     20  O   UNL     1     -38.403  70.747 -20.527  1.00  0.00    -0.502 OA
ATOM     21  H   UNL     1     -37.765  70.041 -20.873  1.00  0.00     0.293 HD
ENDBRANCH   2  20
BRANCH   6  22
ATOM     22  O   UNL     1     -39.829  75.842 -19.912  1.00  0.00    -0.507 OA
ATOM     23  H   UNL     1     -40.091  75.335 -20.744  1.00  0.00     0.293 HD
ENDBRANCH   6  22
BRANCH   8  24
ATOM     24  O   UNL     1     -36.927  77.125 -16.330  1.00  0.00    -0.508 OA
ATOM     25  H   UNL     1     -37.404  77.278 -15.449  1.00  0.00     0.293 HD
ENDBRANCH   8  24
TORSDOF 5
ENDMDL
MODEL 7
REMARK VINA RESULT:    -2.956     14.394     16.712
REMARK INTER + INTRA:          -3.564
REMARK INTER:                  -3.776
REMARK INTRA:                   0.211
REMARK UNBOUND:                -0.091
REMARK SMILES O=c1c(O)c(-c2ccc(O)cc2)oc2cc(O)cc(O)c12
REMARK SMILES IDX 5 1 3 2 2 3 1 4 21 5 19 6 18 7 16 8 15 9 14 10 13 11 6 12
REMARK SMILES IDX 7 13 8 14 9 15 12 16 11 17 10 18 4 20 20 22 17 24
REMARK H PARENT 10 19 4 21 20 23 17 25
REMARK Flexibility Score: inf
ROOT
ATOM      1  C   UNL     1     -40.891  72.484 -10.593  1.00  0.00     0.180 A 
ATOM      2  C   UNL     1     -41.737  73.355 -11.303  1.00  0.00     0.208 A 
ATOM      3  C   UNL     1     -41.245  74.607 -11.704  1.00  0.00     0.238 A 
ATOM      4  O   UNL     1     -42.022  75.403 -12.290  1.00  0.00    -0.285 OA
ATOM      5  C   UNL     1     -39.908  74.967 -11.404  1.00  0.00     0.111 A 
ATOM      6  C   UNL     1     -39.292  76.193 -11.797  1.00  0.00     0.134 A 
ATOM      7  C   UNL     1     -38.007  76.499 -11.334  1.00  0.00     0.093 A 
ATOM      8  C   UNL     1     -37.290  75.597 -10.549  1.00  0.00     0.123 A 
ATOM      9  C   UNL     1     -37.859  74.369 -10.209  1.00  0.00     0.094 A 
ATOM     10  C   UNL     1     -39.155  74.051 -10.625  1.00  0.00     0.146 A 
ATOM     11  O   UNL     1     -39.664  72.877 -10.272  1.00  0.00    -0.452 OA
ENDROOT
BRANCH   1  12
ATOM     12  C   UNL     1     -41.331  71.138 -10.159  1.00  0.00     0.021 A 
ATOM     13  C   UNL     1     -42.638  70.911  -9.689  1.00  0.00     0.016 A 
ATOM     14  C   UNL     1     -43.038  69.626  -9.309  1.00  0.00     0.047 A 
ATOM     15  C   UNL     1     -42.143  68.552  -9.404  1.00  0.00     0.115 A 
ATOM     16  C   UNL     1     -40.447  70.052 -10.272  1.00  0.00     0.016 A 
ATOM     17  C   UNL     1     -40.850  68.769  -9.889  1.00  0.00     0.047 A 
BRANCH  15  18
ATOM     18  O   UNL     1     -42.530  67.268  -9.027  1.00  0.00    -0.508 OA
ATOM     19  H   UNL     1     -43.166  66.720  -9.592  1.00  0.00     0.293 HD
ENDBRANCH  15  18
ENDBRANCH   1  12
BRANCH   2  20
ATOM     20  O   UNL     1     -43.059  72.989 -11.568  1.00  0.00    -0.502 OA
ATOM     21  H   UNL     1     -43.300  72.249 -12.216  1.00  0.00     0.293 HD
ENDBRANCH   2  20
BRANCH   6  22
ATOM     22  O   UNL     1     -39.884  77.125 -12.656  1.00  0.00    -0.507 OA
ATOM     23  H   UNL     1     -39.735  77.162 -13.653  1.00  0.00     0.293 HD
ENDBRANCH   6  22
BRANCH   8  24
ATOM     24  O   UNL     1     -36.006  75.927 -10.120  1.00  0.00    -0.508 OA
ATOM     25  H   UNL     1     -35.666  76.881 -10.151  1.00  0.00     0.293 HD
ENDBRANCH   8  24
TORSDOF 5
ENDMDL
