MODEL 1
REMARK VINA RESULT:    -3.151      0.000      0.000
REMARK INTER + INTRA:          -3.472
REMARK INTER:                  -3.427
REMARK INTRA:                  -0.045
REMARK UNBOUND:                -0.045
REMARK SMILES COc1cc2ccc(=O)oc2cc1O
REMARK SMILES IDX 3 1 13 2 12 3 11 4 5 5 4 6 6 7 7 8 8 9 9 10 10 11 2 12 1 13
REMARK SMILES IDX 14 14
REMARK H PARENT 14 15
REMARK Flexibility Score: inf
ROOT
ATOM      1  C   UNL     1     173.379 190.640 182.931  1.00  0.00     0.161 A 
ATOM      2  C   UNL     1     172.168 189.925 182.852  1.00  0.00     0.161 A 
ATOM      3  C   UNL     1     171.917 188.862 183.726  1.00  0.00     0.098 A 
ATOM      4  C   UNL     1     172.864 188.497 184.685  1.00  0.00     0.142 A 
ATOM      5  C   UNL     1     174.081 189.205 184.773  1.00  0.00     0.022 A 
ATOM      6  C   UNL     1     174.336 190.272 183.899  1.00  0.00     0.062 A 
ATOM      7  C   UNL     1     175.010 188.817 185.743  1.00  0.00     0.019 A 
ATOM      8  C   UNL     1     174.710 187.750 186.590  1.00  0.00     0.094 A 
ATOM      9  C   UNL     1     173.483 187.094 186.444  1.00  0.00     0.336 A 
ATOM     10  O   UNL     1     173.194 186.129 187.198  1.00  0.00    -0.246 OA
ATOM     11  O   UNL     1     172.617 187.484 185.512  1.00  0.00    -0.423 OA
ENDROOT
BRANCH   1  12
ATOM     12  O   UNL     1     173.598 191.701 182.039  1.00  0.00    -0.493 OA
ATOM     13  C   UNL     1     174.879 192.122 181.581  1.00  0.00     0.278 C 
ENDBRANCH   1  12
BRANCH   2  14
ATOM     14  O   UNL     1     171.197 190.259 181.907  1.00  0.00    -0.504 OA
ATOM     15  H   UNL     1     171.426 190.726 181.038  1.00  0.00     0.293 HD
ENDBRANCH   2  14
TORSDOF 2
ENDMDL
MODEL 2
REMARK VINA RESULT:    -3.147      1.351      4.934
REMARK INTER + INTRA:          -3.468
REMARK INTER:                  -3.423
REMARK INTRA:                  -0.045
REMARK UNBOUND:                -0.045
REMARK SMILES COc1cc2ccc(=O)oc2cc1O
REMARK SMILES IDX 3 1 13 2 12 3 11 4 5 5 4 6 6 7 7 8 8 9 9 10 10 11 2 12 1 13
REMARK SMILES IDX 14 14
REMARK H PARENT 14 15
REMARK Flexibility Score: inf
ROOT
ATOM      1  C   UNL     1     173.992 189.160 184.823  1.00  0.00     0.161 A 
ATOM      2  C   UNL     1     172.716 188.589 184.648  1.00  0.00     0.161 A 
ATOM      3  C   UNL     1     171.885 189.023 183.609  1.00  0.00     0.098 A 
ATOM      4  C   UNL     1     172.311 190.026 182.735  1.00  0.00     0.142 A 
ATOM      5  C   UNL     1     173.587 190.605 182.901  1.00  0.00     0.022 A 
ATOM      6  C   UNL     1     174.422 190.173 183.942  1.00  0.00     0.062 A 
ATOM      7  C   UNL     1     173.985 191.607 182.011  1.00  0.00     0.019 A 
ATOM      8  C   UNL     1     173.119 192.001 180.993  1.00  0.00     0.094 A 
ATOM      9  C   UNL     1     171.869 191.383 180.889  1.00  0.00     0.336 A 
ATOM     10  O   UNL     1     171.072 191.725 179.977  1.00  0.00    -0.246 OA
ATOM     11  O   UNL     1     171.514 190.432 181.750  1.00  0.00    -0.423 OA
ENDROOT
BRANCH   1  12
ATOM     12  O   UNL     1     174.799 188.702 185.876  1.00  0.00    -0.493 OA
ATOM     13  C   UNL     1     175.811 189.473 186.515  1.00  0.00     0.278 C 
ENDBRANCH   1  12
BRANCH   2  14
ATOM     14  O   UNL     1     172.255 187.585 185.500  1.00  0.00    -0.504 OA
ATOM     15  H   UNL     1     171.284 187.520 185.783  1.00  0.00     0.293 HD
ENDBRANCH   2  14
TORSDOF 2
ENDMDL
MODEL 3
REMARK VINA RESULT:    -3.105      2.467      6.016
REMARK INTER + INTRA:          -3.423
REMARK INTER:                  -3.380
REMARK INTRA:                  -0.043
REMARK UNBOUND:                -0.045
REMARK SMILES COc1cc2ccc(=O)oc2cc1O
REMARK SMILES IDX 3 1 13 2 12 3 11 4 5 5 4 6 6 7 7 8 8 9 9 10 10 11 2 12 1 13
REMARK SMILES IDX 14 14
REMARK H PARENT 14 15
REMARK Flexibility Score: inf
ROOT
ATOM      1  C   UNL     1     172.592 189.150 183.504  1.00  0.00     0.161 A 
ATOM      2  C   UNL     1     173.414 190.291 183.429  1.00  0.00     0.161 A 
ATOM      3  C   UNL     1     173.383 191.110 182.295  1.00  0.00     0.098 A 
ATOM      4  C   UNL     1     172.537 190.805 181.226  1.00  0.00     0.142 A 
ATOM      5  C   UNL     1     171.710 189.664 181.290  1.00  0.00     0.022 A 
ATOM      6  C   UNL     1     171.739 188.841 182.425  1.00  0.00     0.062 A 
ATOM      7  C   UNL     1     170.875 189.384 180.204  1.00  0.00     0.019 A 
ATOM      8  C   UNL     1     170.883 190.234 179.099  1.00  0.00     0.094 A 
ATOM      9  C   UNL     1     171.730 191.347 179.104  1.00  0.00     0.336 A 
ATOM     10  O   UNL     1     171.751 192.125 178.116  1.00  0.00    -0.246 OA
ATOM     11  O   UNL     1     172.515 191.590 180.151  1.00  0.00    -0.423 OA
ENDROOT
BRANCH   1  12
ATOM     12  O   UNL     1     172.648 188.350 184.657  1.00  0.00    -0.493 OA
ATOM     13  C   UNL     1     171.775 187.259 184.928  1.00  0.00     0.278 C 
ENDBRANCH   1  12
BRANCH   2  14
ATOM     14  O   UNL     1     174.271 190.629 184.477  1.00  0.00    -0.504 OA
ATOM     15  H   UNL     1     174.751 191.521 184.516  1.00  0.00     0.293 HD
ENDBRANCH   2  14
TORSDOF 2
ENDMDL
MODEL 4
REMARK VINA RESULT:    -3.079      3.286      6.697
REMARK INTER + INTRA:          -3.394
REMARK INTER:                  -3.331
REMARK INTRA:                  -0.063
REMARK UNBOUND:                -0.045
REMARK SMILES COc1cc2ccc(=O)oc2cc1O
REMARK SMILES IDX 3 1 13 2 12 3 11 4 5 5 4 6 6 7 7 8 8 9 9 10 10 11 2 12 1 13
REMARK SMILES IDX 14 14
REMARK H PARENT 14 15
REMARK Flexibility Score: inf
ROOT
ATOM      1  C   UNL     1     173.446 191.123 181.882  1.00  0.00     0.161 A 
ATOM      2  C   UNL     1     172.040 191.092 181.968  1.00  0.00     0.161 A 
ATOM      3  C   UNL     1     171.259 191.281 180.822  1.00  0.00     0.098 A 
ATOM      4  C   UNL     1     171.864 191.502 179.583  1.00  0.00     0.142 A 
ATOM      5  C   UNL     1     173.271 191.536 179.486  1.00  0.00     0.022 A 
ATOM      6  C   UNL     1     174.057 191.347 180.632  1.00  0.00     0.062 A 
ATOM      7  C   UNL     1     173.848 191.760 178.232  1.00  0.00     0.019 A 
ATOM      8  C   UNL     1     173.024 191.941 177.122  1.00  0.00     0.094 A 
ATOM      9  C   UNL     1     171.636 191.895 177.293  1.00  0.00     0.336 A 
ATOM     10  O   UNL     1     170.876 192.057 176.304  1.00  0.00    -0.246 OA
ATOM     11  O   UNL     1     171.114 191.681 178.498  1.00  0.00    -0.423 OA
ENDROOT
BRANCH   1  12
ATOM     12  O   UNL     1     174.199 190.930 183.051  1.00  0.00    -0.493 OA
ATOM     13  C   UNL     1     174.975 189.770 183.331  1.00  0.00     0.278 C 
ENDBRANCH   1  12
BRANCH   2  14
ATOM     14  O   UNL     1     171.399 190.874 183.187  1.00  0.00    -0.504 OA
ATOM     15  H   UNL     1     171.911 190.697 184.043  1.00  0.00     0.293 HD
ENDBRANCH   2  14
TORSDOF 2
ENDMDL
MODEL 5
REMARK VINA RESULT:    -2.994      1.235      2.435
REMARK INTER + INTRA:          -3.302
REMARK INTER:                  -3.240
REMARK INTRA:                  -0.062
REMARK UNBOUND:                -0.045
REMARK SMILES COc1cc2ccc(=O)oc2cc1O
REMARK SMILES IDX 3 1 13 2 12 3 11 4 5 5 4 6 6 7 7 8 8 9 9 10 10 11 2 12 1 13
REMARK SMILES IDX 14 14
REMARK H PARENT 14 15
REMARK Flexibility Score: inf
ROOT
ATOM      1  C   UNL     1     172.470 189.994 182.868  1.00  0.00     0.161 A 
ATOM      2  C   UNL     1     173.694 190.623 183.163  1.00  0.00     0.161 A 
ATOM      3  C   UNL     1     174.507 190.138 184.194  1.00  0.00     0.098 A 
ATOM      4  C   UNL     1     174.112 189.025 184.941  1.00  0.00     0.142 A 
ATOM      5  C   UNL     1     172.887 188.387 184.653  1.00  0.00     0.022 A 
ATOM      6  C   UNL     1     172.071 188.871 183.621  1.00  0.00     0.062 A 
ATOM      7  C   UNL     1     172.519 187.276 185.418  1.00  0.00     0.019 A 
ATOM      8  C   UNL     1     173.366 186.833 186.433  1.00  0.00     0.094 A 
ATOM      9  C   UNL     1     174.565 187.515 186.662  1.00  0.00     0.336 A 
ATOM     10  O   UNL     1     175.343 187.131 187.573  1.00  0.00    -0.246 OA
ATOM     11  O   UNL     1     174.891 188.571 185.919  1.00  0.00    -0.423 OA
ENDROOT
BRANCH   1  12
ATOM     12  O   UNL     1     171.679 190.507 181.827  1.00  0.00    -0.493 OA
ATOM     13  C   UNL     1     171.449 189.849 180.586  1.00  0.00     0.278 C 
ENDBRANCH   1  12
BRANCH   2  14
ATOM     14  O   UNL     1     174.123 191.737 182.440  1.00  0.00    -0.504 OA
ATOM     15  H   UNL     1     174.105 191.764 181.428  1.00  0.00     0.293 HD
ENDBRANCH   2  14
TORSDOF 2
ENDMDL
MODEL 6
REMARK VINA RESULT:    -2.969      1.269      4.895
REMARK INTER + INTRA:          -3.275
REMARK INTER:                  -3.210
REMARK INTRA:                  -0.065
REMARK UNBOUND:                -0.045
REMARK SMILES COc1cc2ccc(=O)oc2cc1O
REMARK SMILES IDX 3 1 13 2 12 3 11 4 5 5 4 6 6 7 7 8 8 9 9 10 10 11 2 12 1 13
REMARK SMILES IDX 14 14
REMARK H PARENT 14 15
REMARK Flexibility Score: inf
ROOT
ATOM      1  C   UNL     1     173.717 188.429 185.278  1.00  0.00     0.161 A 
ATOM      2  C   UNL     1     172.409 188.040 184.926  1.00  0.00     0.161 A 
ATOM      3  C   UNL     1     171.758 188.650 183.848  1.00  0.00     0.098 A 
ATOM      4  C   UNL     1     172.396 189.649 183.110  1.00  0.00     0.142 A 
ATOM      5  C   UNL     1     173.705 190.047 183.454  1.00  0.00     0.022 A 
ATOM      6  C   UNL     1     174.361 189.438 184.534  1.00  0.00     0.062 A 
ATOM      7  C   UNL     1     174.317 191.051 182.697  1.00  0.00     0.019 A 
ATOM      8  C   UNL     1     173.624 191.624 181.633  1.00  0.00     0.094 A 
ATOM      9  C   UNL     1     172.328 191.180 181.350  1.00  0.00     0.336 A 
ATOM     10  O   UNL     1     171.685 191.686 180.393  1.00  0.00    -0.246 OA
ATOM     11  O   UNL     1     171.768 190.224 182.087  1.00  0.00    -0.423 OA
ENDROOT
BRANCH   1  12
ATOM     12  O   UNL     1     174.341 187.797 186.365  1.00  0.00    -0.493 OA
ATOM     13  C   UNL     1     175.260 186.715 186.253  1.00  0.00     0.278 C 
ENDBRANCH   1  12
BRANCH   2  14
ATOM     14  O   UNL     1     171.739 187.046 185.639  1.00  0.00    -0.504 OA
ATOM     15  H   UNL     1     170.977 186.513 185.237  1.00  0.00     0.293 HD
ENDBRANCH   2  14
TORSDOF 2
ENDMDL
MODEL 7
REMARK VINA RESULT:    -2.871      1.395      2.608
REMARK INTER + INTRA:          -3.169
REMARK INTER:                  -3.125
REMARK INTRA:                  -0.044
REMARK UNBOUND:                -0.045
REMARK SMILES COc1cc2ccc(=O)oc2cc1O
REMARK SMILES IDX 3 1 13 2 12 3 11 4 5 5 4 6 6 7 7 8 8 9 9 10 10 11 2 12 1 13
REMARK SMILES IDX 14 14
REMARK H PARENT 14 15
REMARK Flexibility Score: inf
ROOT
ATOM      1  C   UNL     1     173.225 190.564 183.029  1.00  0.00     0.161 A 
ATOM      2  C   UNL     1     174.306 190.335 183.903  1.00  0.00     0.161 A 
ATOM      3  C   UNL     1     174.278 189.253 184.791  1.00  0.00     0.098 A 
ATOM      4  C   UNL     1     173.180 188.391 184.821  1.00  0.00     0.142 A 
ATOM      5  C   UNL     1     172.092 188.611 183.950  1.00  0.00     0.022 A 
ATOM      6  C   UNL     1     172.116 189.693 183.059  1.00  0.00     0.062 A 
ATOM      7  C   UNL     1     171.007 187.731 184.003  1.00  0.00     0.019 A 
ATOM      8  C   UNL     1     171.031 186.669 184.906  1.00  0.00     0.094 A 
ATOM      9  C   UNL     1     172.143 186.512 185.739  1.00  0.00     0.336 A 
ATOM     10  O   UNL     1     172.184 185.560 186.561  1.00  0.00    -0.246 OA
ATOM     11  O   UNL     1     173.163 187.365 185.669  1.00  0.00    -0.423 OA
ENDROOT
BRANCH   1  12
ATOM     12  O   UNL     1     173.285 191.658 182.152  1.00  0.00    -0.493 OA
ATOM     13  C   UNL     1     172.499 191.793 180.973  1.00  0.00     0.278 C 
ENDBRANCH   1  12
BRANCH   2  14
ATOM     14  O   UNL     1     175.420 191.174 183.904  1.00  0.00    -0.504 OA
ATOM     15  H   UNL     1     176.095 191.176 184.659  1.00  0.00     0.293 HD
ENDBRANCH   2  14
TORSDOF 2
ENDMDL
MODEL 8
REMARK VINA RESULT:    -2.858      2.624      3.598
REMARK INTER + INTRA:          -3.154
REMARK INTER:                  -3.093
REMARK INTRA:                  -0.061
REMARK UNBOUND:                -0.045
REMARK SMILES COc1cc2ccc(=O)oc2cc1O
REMARK SMILES IDX 3 1 13 2 12 3 11 4 5 5 4 6 6 7 7 8 8 9 9 10 10 11 2 12 1 13
REMARK SMILES IDX 14 14
REMARK H PARENT 14 15
REMARK Flexibility Score: inf
ROOT
ATOM      1  C   UNL     1     171.841 189.928 181.340  1.00  0.00     0.161 A 
ATOM      2  C   UNL     1     172.077 190.203 182.701  1.00  0.00     0.161 A 
ATOM      3  C   UNL     1     171.969 189.185 183.655  1.00  0.00     0.098 A 
ATOM      4  C   UNL     1     171.626 187.888 183.270  1.00  0.00     0.142 A 
ATOM      5  C   UNL     1     171.387 187.601 181.909  1.00  0.00     0.022 A 
ATOM      6  C   UNL     1     171.495 188.618 180.950  1.00  0.00     0.062 A 
ATOM      7  C   UNL     1     171.045 186.293 181.554  1.00  0.00     0.019 A 
ATOM      8  C   UNL     1     170.952 185.317 182.544  1.00  0.00     0.094 A 
ATOM      9  C   UNL     1     171.202 185.673 183.874  1.00  0.00     0.336 A 
ATOM     10  O   UNL     1     171.123 184.807 184.782  1.00  0.00    -0.246 OA
ATOM     11  O   UNL     1     171.526 186.926 184.185  1.00  0.00    -0.423 OA
ENDROOT
BRANCH   1  12
ATOM     12  O   UNL     1     171.958 190.972 180.409  1.00  0.00    -0.493 OA
ATOM     13  C   UNL     1     170.875 191.777 179.956  1.00  0.00     0.278 C 
ENDBRANCH   1  12
BRANCH   2  14
ATOM     14  O   UNL     1     172.422 191.486 183.126  1.00  0.00    -0.504 OA
ATOM     15  H   UNL     1     172.170 192.315 182.601  1.00  0.00     0.293 HD
ENDBRANCH   2  14
TORSDOF 2
ENDMDL
MODEL 9
REMARK VINA RESULT:    -2.805      2.017      4.006
REMARK INTER + INTRA:          -3.096
REMARK INTER:                  -3.048
REMARK INTRA:                  -0.049
REMARK UNBOUND:                -0.045
REMARK SMILES COc1cc2ccc(=O)oc2cc1O
REMARK SMILES IDX 3 1 13 2 12 3 11 4 5 5 4 6 6 7 7 8 8 9 9 10 10 11 2 12 1 13
REMARK SMILES IDX 14 14
REMARK H PARENT 14 15
REMARK Flexibility Score: inf
ROOT
ATOM      1  C   UNL     1     172.086 188.378 184.407  1.00  0.00     0.161 A 
ATOM      2  C   UNL     1     172.249 189.228 183.297  1.00  0.00     0.161 A 
ATOM      3  C   UNL     1     173.403 190.010 183.170  1.00  0.00     0.098 A 
ATOM      4  C   UNL     1     174.404 189.956 184.143  1.00  0.00     0.142 A 
ATOM      5  C   UNL     1     174.250 189.107 185.259  1.00  0.00     0.022 A 
ATOM      6  C   UNL     1     173.096 188.322 185.389  1.00  0.00     0.062 A 
ATOM      7  C   UNL     1     175.269 189.074 186.216  1.00  0.00     0.019 A 
ATOM      8  C   UNL     1     176.399 189.873 186.041  1.00  0.00     0.094 A 
ATOM      9  C   UNL     1     176.482 190.690 184.910  1.00  0.00     0.336 A 
ATOM     10  O   UNL     1     177.493 191.419 184.734  1.00  0.00    -0.246 OA
ATOM     11  O   UNL     1     175.498 190.703 184.014  1.00  0.00    -0.423 OA
ENDROOT
BRANCH   1  12
ATOM     12  O   UNL     1     170.916 187.607 184.503  1.00  0.00    -0.493 OA
ATOM     13  C   UNL     1     170.875 186.247 184.920  1.00  0.00     0.278 C 
ENDBRANCH   1  12
BRANCH   2  14
ATOM     14  O   UNL     1     171.272 189.311 182.304  1.00  0.00    -0.504 OA
ATOM     15  H   UNL     1     170.320 189.000 182.456  1.00  0.00     0.293 HD
ENDBRANCH   2  14
TORSDOF 2
ENDMDL
