MODEL 1
REMARK VINA RESULT:    -4.561      0.000      0.000
REMARK INTER + INTRA:          -9.317
REMARK INTER:                  -7.761
REMARK INTRA:                  -1.556
REMARK UNBOUND:                -1.556
REMARK SMILES CCCCCCCCCCCCCC(=O)[O-]
REMARK SMILES IDX 8 1 9 2 10 3 11 4 12 5 13 6 14 7 15 8 16 9 7 10 6 11 5 12
REMARK SMILES IDX 4 13 3 14 2 15 1 16
REMARK H PARENT
REMARK Flexibility Score: inf
ROOT
ATOM      1  C   UNL     1       7.713  10.132  32.112  1.00  0.00     0.000 C 
ENDROOT
BRANCH   1   2
ATOM      2  C   UNL     1       8.683   9.843  30.956  1.00  0.00     0.000 C 
BRANCH   2   3
ATOM      3  C   UNL     1       8.739  10.990  29.931  1.00  0.00     0.000 C 
BRANCH   3   4
ATOM      4  C   UNL     1       9.408  10.570  28.612  1.00  0.00     0.000 C 
BRANCH   4   5
ATOM      5  C   UNL     1      10.023   9.161  28.681  1.00  0.00     0.006 C 
BRANCH   5   6
ATOM      6  C   UNL     1      10.248   8.559  27.288  1.00  0.00     0.053 C 
BRANCH   6   7
ATOM      7  C   UNL     1      10.979   7.252  27.355  1.00  0.00     0.041 C 
ATOM      8  O   UNL     1      11.847   7.058  28.246  1.00  0.00    -0.550 OA
ATOM      9  O   UNL     1      10.680   6.240  26.453  1.00  0.00    -0.550 OA
ENDBRANCH   6   7
ENDBRANCH   5   6
ENDBRANCH   4   5
ENDBRANCH   3   4
ENDBRANCH   2   3
ENDBRANCH   1   2
BRANCH   1  10
ATOM     10  C   UNL     1       6.595  11.116  31.722  1.00  0.00     0.000 C 
BRANCH  10  11
ATOM     11  C   UNL     1       5.247  10.756  32.381  1.00  0.00    -0.000 C 
BRANCH  11  12
ATOM     12  C   UNL     1       4.169  10.312  31.377  1.00  0.00    -0.000 C 
BRANCH  12  13
ATOM     13  C   UNL     1       4.558   9.043  30.606  1.00  0.00    -0.000 C 
BRANCH  13  14
ATOM     14  C   UNL     1       4.344   9.231  29.096  1.00  0.00    -0.000 C 
BRANCH  14  15
ATOM     15  C   UNL     1       5.634   9.632  28.364  1.00  0.00    -0.003 C 
ATOM     16  C   UNL     1       6.419   8.427  27.844  1.00  0.00     0.004 C 
ENDBRANCH  14  15
ENDBRANCH  13  14
ENDBRANCH  12  13
ENDBRANCH  11  12
ENDBRANCH  10  11
ENDBRANCH   1  10
TORSDOF 12
ENDMDL
MODEL 2
REMARK VINA RESULT:    -4.531      3.029      5.150
REMARK INTER + INTRA:          -9.266
REMARK INTER:                  -7.141
REMARK INTRA:                  -2.125
REMARK UNBOUND:                -1.556
REMARK SMILES CCCCCCCCCCCCCC(=O)[O-]
REMARK SMILES IDX 8 1 9 2 10 3 11 4 12 5 13 6 14 7 15 8 16 9 7 10 6 11 5 12
REMARK SMILES IDX 4 13 3 14 2 15 1 16
REMARK H PARENT
REMARK Flexibility Score: inf
ROOT
ATOM      1  C   UNL     1       9.216   8.996  26.494  1.00  0.00     0.000 C 
ENDROOT
BRANCH   1   2
ATOM      2  C   UNL     1      10.232   8.354  27.451  1.00  0.00     0.000 C 
BRANCH   2   3
ATOM      3  C   UNL     1      10.271   9.046  28.824  1.00  0.00     0.000 C 
BRANCH   3   4
ATOM      4  C   UNL     1       9.853   8.108  29.969  1.00  0.00     0.000 C 
BRANCH   4   5
ATOM      5  C   UNL     1       9.342   8.871  31.204  1.00  0.00     0.006 C 
BRANCH   5   6
ATOM      6  C   UNL     1       8.776  10.249  30.839  1.00  0.00     0.053 C 
BRANCH   6   7
ATOM      7  C   UNL     1       7.348  10.398  31.267  1.00  0.00     0.041 C 
ATOM      8  O   UNL     1       7.064  10.543  32.485  1.00  0.00    -0.550 OA
ATOM      9  O   UNL     1       6.334  10.408  30.318  1.00  0.00    -0.550 OA
ENDBRANCH   6   7
ENDBRANCH   5   6
ENDBRANCH   4   5
ENDBRANCH   3   4
ENDBRANCH   2   3
ENDBRANCH   1   2
BRANCH   1  10
ATOM     10  C   UNL     1       7.909   9.404  27.198  1.00  0.00     0.000 C 
BRANCH  10  11
ATOM     11  C   UNL     1       6.804   8.338  27.037  1.00  0.00    -0.000 C 
BRANCH  11  12
ATOM     12  C   UNL     1       6.514   7.551  28.326  1.00  0.00    -0.000 C 
BRANCH  12  13
ATOM     13  C   UNL     1       7.284   6.225  28.403  1.00  0.00    -0.000 C 
BRANCH  13  14
ATOM     14  C   UNL     1       7.414   5.584  27.012  1.00  0.00    -0.000 C 
BRANCH  14  15
ATOM     15  C   UNL     1       8.773   4.897  26.806  1.00  0.00    -0.003 C 
ATOM     16  C   UNL     1       9.573   4.766  28.102  1.00  0.00     0.004 C 
ENDBRANCH  14  15
ENDBRANCH  13  14
ENDBRANCH  12  13
ENDBRANCH  11  12
ENDBRANCH  10  11
ENDBRANCH   1  10
TORSDOF 12
ENDMDL
MODEL 3
REMARK VINA RESULT:    -4.494      3.159      5.648
REMARK INTER + INTRA:          -9.202
REMARK INTER:                  -7.245
REMARK INTRA:                  -1.957
REMARK UNBOUND:                -1.556
REMARK SMILES CCCCCCCCCCCCCC(=O)[O-]
REMARK SMILES IDX 8 1 9 2 10 3 11 4 12 5 13 6 14 7 15 8 16 9 7 10 6 11 5 12
REMARK SMILES IDX 4 13 3 14 2 15 1 16
REMARK H PARENT
REMARK Flexibility Score: inf
ROOT
ATOM      1  C   UNL     1       7.761   7.387  25.239  1.00  0.00     0.000 C 
ENDROOT
BRANCH   1   2
ATOM      2  C   UNL     1       9.232   7.742  24.970  1.00  0.00     0.000 C 
BRANCH   2   3
ATOM      3  C   UNL     1       9.838   8.625  26.075  1.00  0.00     0.000 C 
BRANCH   3   4
ATOM      4  C   UNL     1      10.890   7.881  26.914  1.00  0.00     0.000 C 
BRANCH   4   5
ATOM      5  C   UNL     1      10.721   8.121  28.425  1.00  0.00     0.006 C 
BRANCH   5   6
ATOM      6  C   UNL     1       9.812   9.320  28.722  1.00  0.00     0.053 C 
BRANCH   6   7
ATOM      7  C   UNL     1       8.996   9.110  29.962  1.00  0.00     0.041 C 
ATOM      8  O   UNL     1       7.817   9.546  30.025  1.00  0.00    -0.550 OA
ATOM      9  O   UNL     1       9.529   8.407  31.034  1.00  0.00    -0.550 OA
ENDBRANCH   6   7
ENDBRANCH   5   6
ENDBRANCH   4   5
ENDBRANCH   3   4
ENDBRANCH   2   3
ENDBRANCH   1   2
BRANCH   1  10
ATOM     10  C   UNL     1       7.186   8.116  26.466  1.00  0.00     0.000 C 
BRANCH  10  11
ATOM     11  C   UNL     1       6.651   7.133  27.529  1.00  0.00    -0.000 C 
BRANCH  11  12
ATOM     12  C   UNL     1       6.932   5.656  27.200  1.00  0.00    -0.000 C 
BRANCH  12  13
ATOM     13  C   UNL     1       8.067   5.062  28.045  1.00  0.00    -0.000 C 
BRANCH  13  14
ATOM     14  C   UNL     1       9.208   4.552  27.152  1.00  0.00    -0.000 C 
BRANCH  14  15
ATOM     15  C   UNL     1      10.531   4.395  27.918  1.00  0.00    -0.003 C 
ATOM     16  C   UNL     1      11.174   3.023  27.715  1.00  0.00     0.004 C 
ENDBRANCH  14  15
ENDBRANCH  13  14
ENDBRANCH  12  13
ENDBRANCH  11  12
ENDBRANCH  10  11
ENDBRANCH   1  10
TORSDOF 12
ENDMDL
MODEL 4
REMARK VINA RESULT:    -4.484      1.418      3.005
REMARK INTER + INTRA:          -9.185
REMARK INTER:                  -7.775
REMARK INTRA:                  -1.411
REMARK UNBOUND:                -1.556
REMARK SMILES CCCCCCCCCCCCCC(=O)[O-]
REMARK SMILES IDX 8 1 9 2 10 3 11 4 12 5 13 6 14 7 15 8 16 9 7 10 6 11 5 12
REMARK SMILES IDX 4 13 3 14 2 15 1 16
REMARK H PARENT
REMARK Flexibility Score: inf
ROOT
ATOM      1  C   UNL     1       4.750  10.684  31.795  1.00  0.00     0.000 C 
ENDROOT
BRANCH   1   2
ATOM      2  C   UNL     1       5.980  11.125  32.603  1.00  0.00     0.000 C 
BRANCH   2   3
ATOM      3  C   UNL     1       7.210  10.239  32.337  1.00  0.00     0.000 C 
BRANCH   3   4
ATOM      4  C   UNL     1       8.259  10.936  31.453  1.00  0.00     0.000 C 
BRANCH   4   5
ATOM      5  C   UNL     1       8.425  10.256  30.082  1.00  0.00     0.006 C 
BRANCH   5   6
ATOM      6  C   UNL     1       9.007   8.842  30.205  1.00  0.00     0.053 C 
BRANCH   6   7
ATOM      7  C   UNL     1      10.030   8.566  29.146  1.00  0.00     0.041 C 
ATOM      8  O   UNL     1      10.243   9.409  28.236  1.00  0.00    -0.550 OA
ATOM      9  O   UNL     1      10.770   7.390  29.182  1.00  0.00    -0.550 OA
ENDBRANCH   6   7
ENDBRANCH   5   6
ENDBRANCH   4   5
ENDBRANCH   3   4
ENDBRANCH   2   3
ENDBRANCH   1   2
BRANCH   1  10
ATOM     10  C   UNL     1       4.997   9.399  30.984  1.00  0.00     0.000 C 
BRANCH  10  11
ATOM     11  C   UNL     1       4.087   9.313  29.739  1.00  0.00    -0.000 C 
BRANCH  11  12
ATOM     12  C   UNL     1       4.864   9.206  28.415  1.00  0.00    -0.000 C 
BRANCH  12  13
ATOM     13  C   UNL     1       5.908   8.082  28.424  1.00  0.00    -0.000 C 
BRANCH  13  14
ATOM     14  C   UNL     1       6.862   8.209  27.226  1.00  0.00    -0.000 C 
BRANCH  14  15
ATOM     15  C   UNL     1       7.146   6.857  26.554  1.00  0.00    -0.003 C 
ATOM     16  C   UNL     1       7.425   5.741  27.561  1.00  0.00     0.004 C 
ENDBRANCH  14  15
ENDBRANCH  13  14
ENDBRANCH  12  13
ENDBRANCH  11  12
ENDBRANCH  10  11
ENDBRANCH   1  10
TORSDOF 12
ENDMDL
MODEL 5
REMARK VINA RESULT:    -4.464      2.994      5.451
REMARK INTER + INTRA:          -9.152
REMARK INTER:                  -7.056
REMARK INTRA:                  -2.096
REMARK UNBOUND:                -1.556
REMARK SMILES CCCCCCCCCCCCCC(=O)[O-]
REMARK SMILES IDX 8 1 9 2 10 3 11 4 12 5 13 6 14 7 15 8 16 9 7 10 6 11 5 12
REMARK SMILES IDX 4 13 3 14 2 15 1 16
REMARK H PARENT
REMARK Flexibility Score: inf
ROOT
ATOM      1  C   UNL     1      10.925   7.790  26.812  1.00  0.00     0.000 C 
ENDROOT
BRANCH   1   2
ATOM      2  C   UNL     1      10.964   7.523  28.324  1.00  0.00     0.000 C 
BRANCH   2   3
ATOM      3  C   UNL     1      10.305   8.649  29.140  1.00  0.00     0.000 C 
BRANCH   3   4
ATOM      4  C   UNL     1       9.948   9.871  28.278  1.00  0.00     0.000 C 
BRANCH   4   5
ATOM      5  C   UNL     1       9.238  10.976  29.080  1.00  0.00     0.006 C 
BRANCH   5   6
ATOM      6  C   UNL     1       7.727  11.004  28.812  1.00  0.00     0.053 C 
BRANCH   6   7
ATOM      7  C   UNL     1       6.957  10.293  29.883  1.00  0.00     0.041 C 
ATOM      8  O   UNL     1       5.823   9.808  29.631  1.00  0.00    -0.550 OA
ATOM      9  O   UNL     1       7.505  10.139  31.150  1.00  0.00    -0.550 OA
ENDBRANCH   6   7
ENDBRANCH   5   6
ENDBRANCH   4   5
ENDBRANCH   3   4
ENDBRANCH   2   3
ENDBRANCH   1   2
BRANCH   1  10
ATOM     10  C   UNL     1       9.975   6.838  26.062  1.00  0.00     0.000 C 
BRANCH  10  11
ATOM     11  C   UNL     1       9.162   7.568  24.971  1.00  0.00    -0.000 C 
BRANCH  11  12
ATOM     12  C   UNL     1       7.642   7.524  25.204  1.00  0.00    -0.000 C 
BRANCH  12  13
ATOM     13  C   UNL     1       7.227   8.121  26.556  1.00  0.00    -0.000 C 
BRANCH  13  14
ATOM     14  C   UNL     1       6.487   7.081  27.412  1.00  0.00    -0.000 C 
BRANCH  14  15
ATOM     15  C   UNL     1       7.294   6.655  28.648  1.00  0.00    -0.003 C 
ATOM     16  C   UNL     1       7.906   5.262  28.505  1.00  0.00     0.004 C 
ENDBRANCH  14  15
ENDBRANCH  13  14
ENDBRANCH  12  13
ENDBRANCH  11  12
ENDBRANCH  10  11
ENDBRANCH   1  10
TORSDOF 12
ENDMDL
MODEL 6
REMARK VINA RESULT:    -4.462      1.450      1.935
REMARK INTER + INTRA:          -9.149
REMARK INTER:                  -7.225
REMARK INTRA:                  -1.924
REMARK UNBOUND:                -1.556
REMARK SMILES CCCCCCCCCCCCCC(=O)[O-]
REMARK SMILES IDX 8 1 9 2 10 3 11 4 12 5 13 6 14 7 15 8 16 9 7 10 6 11 5 12
REMARK SMILES IDX 4 13 3 14 2 15 1 16
REMARK H PARENT
REMARK Flexibility Score: inf
ROOT
ATOM      1  C   UNL     1       8.745  10.064  31.090  1.00  0.00     0.000 C 
ENDROOT
BRANCH   1   2
ATOM      2  C   UNL     1       8.621  10.920  29.820  1.00  0.00     0.000 C 
BRANCH   2   3
ATOM      3  C   UNL     1       9.496  10.397  28.667  1.00  0.00     0.000 C 
BRANCH   3   4
ATOM      4  C   UNL     1      10.286   9.135  29.052  1.00  0.00     0.000 C 
BRANCH   4   5
ATOM      5  C   UNL     1      10.027   7.959  28.094  1.00  0.00     0.006 C 
BRANCH   5   6
ATOM      6  C   UNL     1       9.352   6.776  28.801  1.00  0.00     0.053 C 
BRANCH   6   7
ATOM      7  C   UNL     1       8.669   5.861  27.830  1.00  0.00     0.041 C 
ATOM      8  O   UNL     1       8.658   6.136  26.602  1.00  0.00    -0.550 OA
ATOM      9  O   UNL     1       8.073   4.690  28.279  1.00  0.00    -0.550 OA
ENDBRANCH   6   7
ENDBRANCH   5   6
ENDBRANCH   4   5
ENDBRANCH   3   4
ENDBRANCH   2   3
ENDBRANCH   1   2
BRANCH   1  10
ATOM     10  C   UNL     1       7.585  10.290  32.077  1.00  0.00     0.000 C 
BRANCH  10  11
ATOM     11  C   UNL     1       6.410  11.054  31.430  1.00  0.00    -0.000 C 
BRANCH  11  12
ATOM     12  C   UNL     1       5.039  10.402  31.681  1.00  0.00    -0.000 C 
BRANCH  12  13
ATOM     13  C   UNL     1       4.744   9.242  30.720  1.00  0.00    -0.000 C 
BRANCH  13  14
ATOM     14  C   UNL     1       5.156   9.600  29.284  1.00  0.00    -0.000 C 
BRANCH  14  15
ATOM     15  C   UNL     1       5.989   8.495  28.617  1.00  0.00    -0.003 C 
ATOM     16  C   UNL     1       6.500   8.892  27.232  1.00  0.00     0.004 C 
ENDBRANCH  14  15
ENDBRANCH  13  14
ENDBRANCH  12  13
ENDBRANCH  11  12
ENDBRANCH  10  11
ENDBRANCH   1  10
TORSDOF 12
ENDMDL
MODEL 7
REMARK VINA RESULT:    -4.429      3.407      4.700
REMARK INTER + INTRA:          -9.093
REMARK INTER:                  -6.844
REMARK INTRA:                  -2.248
REMARK UNBOUND:                -1.556
REMARK SMILES CCCCCCCCCCCCCC(=O)[O-]
REMARK SMILES IDX 8 1 9 2 10 3 11 4 12 5 13 6 14 7 15 8 16 9 7 10 6 11 5 12
REMARK SMILES IDX 4 13 3 14 2 15 1 16
REMARK H PARENT
REMARK Flexibility Score: inf
ROOT
ATOM      1  C   UNL     1       8.924   9.209  26.565  1.00  0.00     0.000 C 
ENDROOT
BRANCH   1   2
ATOM      2  C   UNL     1      10.162   8.346  26.854  1.00  0.00     0.000 C 
BRANCH   2   3
ATOM      3  C   UNL     1      10.635   8.460  28.314  1.00  0.00     0.000 C 
BRANCH   3   4
ATOM      4  C   UNL     1      10.678   7.098  29.028  1.00  0.00     0.000 C 
BRANCH   4   5
ATOM      5  C   UNL     1      10.960   5.932  28.064  1.00  0.00     0.006 C 
BRANCH   5   6
ATOM      6  C   UNL     1      10.610   4.573  28.683  1.00  0.00     0.053 C 
BRANCH   6   7
ATOM      7  C   UNL     1      10.865   3.443  27.732  1.00  0.00     0.041 C 
ATOM      8  O   UNL     1       9.903   2.865  27.163  1.00  0.00    -0.550 OA
ATOM      9  O   UNL     1      12.168   3.051  27.451  1.00  0.00    -0.550 OA
ENDBRANCH   6   7
ENDBRANCH   5   6
ENDBRANCH   4   5
ENDBRANCH   3   4
ENDBRANCH   2   3
ENDBRANCH   1   2
BRANCH   1  10
ATOM     10  C   UNL     1       7.919   9.220  27.732  1.00  0.00     0.000 C 
BRANCH  10  11
ATOM     11  C   UNL     1       6.827   8.141  27.569  1.00  0.00    -0.000 C 
BRANCH  11  12
ATOM     12  C   UNL     1       7.038   6.911  28.469  1.00  0.00    -0.000 C 
BRANCH  12  13
ATOM     13  C   UNL     1       7.261   5.618  27.672  1.00  0.00    -0.000 C 
BRANCH  13  14
ATOM     14  C   UNL     1       7.047   5.856  26.169  1.00  0.00    -0.000 C 
BRANCH  14  15
ATOM     15  C   UNL     1       8.303   5.549  25.340  1.00  0.00    -0.003 C 
ATOM     16  C   UNL     1       8.368   6.353  24.041  1.00  0.00     0.004 C 
ENDBRANCH  14  15
ENDBRANCH  13  14
ENDBRANCH  12  13
ENDBRANCH  11  12
ENDBRANCH  10  11
ENDBRANCH   1  10
TORSDOF 12
ENDMDL
MODEL 8
REMARK VINA RESULT:    -4.405      3.081      6.491
REMARK INTER + INTRA:          -9.052
REMARK INTER:                  -7.073
REMARK INTRA:                  -1.978
REMARK UNBOUND:                -1.556
REMARK SMILES CCCCCCCCCCCCCC(=O)[O-]
REMARK SMILES IDX 8 1 9 2 10 3 11 4 12 5 13 6 14 7 15 8 16 9 7 10 6 11 5 12
REMARK SMILES IDX 4 13 3 14 2 15 1 16
REMARK H PARENT
REMARK Flexibility Score: inf
ROOT
ATOM      1  C   UNL     1       7.471   6.276  25.944  1.00  0.00     0.000 C 
ENDROOT
BRANCH   1   2
ATOM      2  C   UNL     1       7.660   7.796  25.819  1.00  0.00     0.000 C 
BRANCH   2   3
ATOM      3  C   UNL     1       6.871   8.578  26.884  1.00  0.00     0.000 C 
BRANCH   3   4
ATOM      4  C   UNL     1       6.433   7.693  28.063  1.00  0.00     0.000 C 
BRANCH   4   5
ATOM      5  C   UNL     1       5.554   8.448  29.076  1.00  0.00     0.006 C 
BRANCH   5   6
ATOM      6  C   UNL     1       5.948   9.926  29.195  1.00  0.00     0.053 C 
BRANCH   6   7
ATOM      7  C   UNL     1       6.136  10.341  30.622  1.00  0.00     0.041 C 
ATOM      8  O   UNL     1       7.140  11.023  30.955  1.00  0.00    -0.550 OA
ATOM      9  O   UNL     1       5.187  10.001  31.577  1.00  0.00    -0.550 OA
ENDBRANCH   6   7
ENDBRANCH   5   6
ENDBRANCH   4   5
ENDBRANCH   3   4
ENDBRANCH   2   3
ENDBRANCH   1   2
BRANCH   1  10
ATOM     10  C   UNL     1       8.792   5.497  25.807  1.00  0.00     0.000 C 
BRANCH  10  11
ATOM     11  C   UNL     1       9.685   5.642  27.057  1.00  0.00    -0.000 C 
BRANCH  11  12
ATOM     12  C   UNL     1      10.944   6.495  26.820  1.00  0.00    -0.000 C 
BRANCH  12  13
ATOM     13  C   UNL     1      10.988   7.753  27.699  1.00  0.00    -0.000 C 
BRANCH  13  14
ATOM     14  C   UNL     1      10.328   7.494  29.062  1.00  0.00    -0.000 C 
BRANCH  14  15
ATOM     15  C   UNL     1       9.566   8.719  29.589  1.00  0.00    -0.003 C 
ATOM     16  C   UNL     1       9.796   9.970  28.741  1.00  0.00     0.004 C 
ENDBRANCH  14  15
ENDBRANCH  13  14
ENDBRANCH  12  13
ENDBRANCH  11  12
ENDBRANCH  10  11
ENDBRANCH   1  10
TORSDOF 12
ENDMDL
MODEL 9
REMARK VINA RESULT:    -3.707      1.148      3.092
REMARK INTER + INTRA:          -7.864
REMARK INTER:                  -6.350
REMARK INTRA:                  -1.514
REMARK UNBOUND:                -1.556
REMARK SMILES CCCCCCCCCCCCCC(=O)[O-]
REMARK SMILES IDX 8 1 9 2 10 3 11 4 12 5 13 6 14 7 15 8 16 9 7 10 6 11 5 12
REMARK SMILES IDX 4 13 3 14 2 15 1 16
REMARK H PARENT
REMARK Flexibility Score: inf
ROOT
ATOM      1  C   UNL     1       5.396   8.598  29.130  1.00  0.00     0.000 C 
ENDROOT
BRANCH   1   2
ATOM      2  C   UNL     1       5.104   9.666  28.065  1.00  0.00     0.000 C 
BRANCH   2   3
ATOM      3  C   UNL     1       6.380  10.170  27.368  1.00  0.00     0.000 C 
BRANCH   3   4
ATOM      4  C   UNL     1       7.486   9.103  27.317  1.00  0.00     0.000 C 
BRANCH   4   5
ATOM      5  C   UNL     1       8.881   9.706  27.080  1.00  0.00     0.006 C 
BRANCH   5   6
ATOM      6  C   UNL     1      10.004   8.754  27.513  1.00  0.00     0.053 C 
BRANCH   6   7
ATOM      7  C   UNL     1      10.575   7.999  26.351  1.00  0.00     0.041 C 
ATOM      8  O   UNL     1      11.611   7.299  26.499  1.00  0.00    -0.550 OA
ATOM      9  O   UNL     1       9.946   8.045  25.114  1.00  0.00    -0.550 OA
ENDBRANCH   6   7
ENDBRANCH   5   6
ENDBRANCH   4   5
ENDBRANCH   3   4
ENDBRANCH   2   3
ENDBRANCH   1   2
BRANCH   1  10
ATOM     10  C   UNL     1       4.321   8.543  30.231  1.00  0.00     0.000 C 
BRANCH  10  11
ATOM     11  C   UNL     1       3.983   9.945  30.784  1.00  0.00    -0.000 C 
BRANCH  11  12
ATOM     12  C   UNL     1       4.874  10.374  31.962  1.00  0.00    -0.000 C 
BRANCH  12  13
ATOM     13  C   UNL     1       6.136  11.125  31.514  1.00  0.00    -0.000 C 
BRANCH  13  14
ATOM     14  C   UNL     1       7.402  10.438  32.047  1.00  0.00    -0.000 C 
BRANCH  14  15
ATOM     15  C   UNL     1       8.465  10.233  30.956  1.00  0.00    -0.003 C 
ATOM     16  C   UNL     1       9.169   8.881  31.062  1.00  0.00     0.004 C 
ENDBRANCH  14  15
ENDBRANCH  13  14
ENDBRANCH  12  13
ENDBRANCH  11  12
ENDBRANCH  10  11
ENDBRANCH   1  10
TORSDOF 12
ENDMDL
