MODEL 1
REMARK VINA RESULT:    -5.808      0.000      0.000
REMARK INTER + INTRA:         -18.761
REMARK INTER:                 -15.315
REMARK INTRA:                  -3.446
REMARK UNBOUND:                -3.446
REMARK SMILES CCCCCCCCCCCCCCCCCCCCCCCCCCCCCC(=O)[O-]
REMARK SMILES IDX 16 1 17 2 18 3 19 4 20 5 21 6 22 7 23 8 24 9 25 10 26 11
REMARK SMILES IDX 27 12 28 13 29 14 30 15 31 16 32 17 15 18 14 19 13 20 12 21
REMARK SMILES IDX 11 22 10 23 9 24 8 25 7 26 6 27 5 28 4 29 3 30 2 31 1 32
REMARK H PARENT
REMARK Flexibility Score: inf
ROOT
ATOM      1  C   UNL     1      89.564 326.178 200.605  1.00  0.00     0.000 C 
ENDROOT
BRANCH   1   2
ATOM      2  C   UNL     1      88.925 326.088 199.210  1.00  0.00     0.000 C 
BRANCH   2   3
ATOM      3  C   UNL     1      89.011 324.672 198.614  1.00  0.00     0.000 C 
BRANCH   3   4
ATOM      4  C   UNL     1      88.908 324.659 197.078  1.00  0.00     0.000 C 
BRANCH   4   5
ATOM      5  C   UNL     1      88.139 325.847 196.464  1.00  0.00     0.000 C 
BRANCH   5   6
ATOM      6  C   UNL     1      88.821 326.517 195.253  1.00  0.00     0.000 C 
BRANCH   6   7
ATOM      7  C   UNL     1      87.902 326.744 194.039  1.00  0.00     0.000 C 
BRANCH   7   8
ATOM      8  C   UNL     1      86.480 326.205 194.264  1.00  0.00     0.000 C 
BRANCH   8   9
ATOM      9  C   UNL     1      86.099 325.114 193.250  1.00  0.00     0.000 C 
BRANCH   9  10
ATOM     10  C   UNL     1      86.780 323.767 193.551  1.00  0.00     0.000 C 
BRANCH  10  11
ATOM     11  C   UNL     1      88.117 323.610 192.792  1.00  0.00     0.000 C 
BRANCH  11  12
ATOM     12  C   UNL     1      88.117 324.271 191.400  1.00  0.00     0.000 C 
BRANCH  12  13
ATOM     13  C   UNL     1      88.152 323.280 190.217  1.00  0.00     0.006 C 
BRANCH  13  14
ATOM     14  C   UNL     1      88.424 321.824 190.632  1.00  0.00     0.053 C 
BRANCH  14  15
ATOM     15  C   UNL     1      89.636 321.250 189.966  1.00  0.00     0.041 C 
ATOM     16  O   UNL     1      89.829 320.005 189.962  1.00  0.00    -0.550 OA
ATOM     17  O   UNL     1      90.556 322.089 189.352  1.00  0.00    -0.550 OA
ENDBRANCH  14  15
ENDBRANCH  13  14
ENDBRANCH  12  13
ENDBRANCH  11  12
ENDBRANCH  10  11
ENDBRANCH   9  10
ENDBRANCH   8   9
ENDBRANCH   7   8
ENDBRANCH   6   7
ENDBRANCH   5   6
ENDBRANCH   4   5
ENDBRANCH   3   4
ENDBRANCH   2   3
ENDBRANCH   1   2
BRANCH   1  18
ATOM     18  C   UNL     1      88.521 326.207 201.736  1.00  0.00     0.000 C 
BRANCH  18  19
ATOM     19  C   UNL     1      88.573 324.955 202.630  1.00  0.00     0.000 C 
BRANCH  19  20
ATOM     20  C   UNL     1      87.496 323.893 202.325  1.00  0.00     0.000 C 
BRANCH  20  21
ATOM     21  C   UNL     1      86.518 323.605 203.480  1.00  0.00     0.000 C 
BRANCH  21  22
ATOM     22  C   UNL     1      87.101 322.760 204.631  1.00  0.00     0.000 C 
BRANCH  22  23
ATOM     23  C   UNL     1      87.439 323.548 205.909  1.00  0.00     0.000 C 
BRANCH  23  24
ATOM     24  C   UNL     1      86.676 324.878 206.008  1.00  0.00    -0.000 C 
BRANCH  24  25
ATOM     25  C   UNL     1      87.502 325.932 206.754  1.00  0.00    -0.000 C 
BRANCH  25  26
ATOM     26  C   UNL     1      88.613 326.495 205.859  1.00  0.00    -0.000 C 
BRANCH  26  27
ATOM     27  C   UNL     1      89.962 326.496 206.589  1.00  0.00    -0.000 C 
BRANCH  27  28
ATOM     28  C   UNL     1      90.990 327.357 205.839  1.00  0.00    -0.000 C 
BRANCH  28  29
ATOM     29  C   UNL     1      90.593 327.616 204.376  1.00  0.00    -0.000 C 
BRANCH  29  30
ATOM     30  C   UNL     1      91.708 327.239 203.386  1.00  0.00    -0.000 C 
BRANCH  30  31
ATOM     31  C   UNL     1      92.433 325.943 203.782  1.00  0.00    -0.003 C 
ATOM     32  C   UNL     1      92.295 324.844 202.729  1.00  0.00     0.004 C 
ENDBRANCH  30  31
ENDBRANCH  29  30
ENDBRANCH  28  29
ENDBRANCH  27  28
ENDBRANCH  26  27
ENDBRANCH  25  26
ENDBRANCH  24  25
ENDBRANCH  23  24
ENDBRANCH  22  23
ENDBRANCH  21  22
ENDBRANCH  20  21
ENDBRANCH  19  20
ENDBRANCH  18  19
ENDBRANCH   1  18
TORSDOF 28
ENDMDL
MODEL 2
REMARK VINA RESULT:    -5.799      2.652      4.643
REMARK INTER + INTRA:         -18.736
REMARK INTER:                 -14.326
REMARK INTRA:                  -4.410
REMARK UNBOUND:                -3.446
REMARK SMILES CCCCCCCCCCCCCCCCCCCCCCCCCCCCCC(=O)[O-]
REMARK SMILES IDX 16 1 17 2 18 3 19 4 20 5 21 6 22 7 23 8 24 9 25 10 26 11
REMARK SMILES IDX 27 12 28 13 29 14 30 15 31 16 32 17 15 18 14 19 13 20 12 21
REMARK SMILES IDX 11 22 10 23 9 24 8 25 7 26 6 27 5 28 4 29 3 30 2 31 1 32
REMARK H PARENT
REMARK Flexibility Score: inf
ROOT
ATOM      1  C   UNL     1      89.613 326.546 200.107  1.00  0.00     0.000 C 
ENDROOT
BRANCH   1   2
ATOM      2  C   UNL     1      89.231 326.853 198.651  1.00  0.00     0.000 C 
BRANCH   2   3
ATOM      3  C   UNL     1      88.485 325.686 197.980  1.00  0.00     0.000 C 
BRANCH   3   4
ATOM      4  C   UNL     1      87.862 326.071 196.625  1.00  0.00     0.000 C 
BRANCH   4   5
ATOM      5  C   UNL     1      88.874 326.395 195.508  1.00  0.00     0.000 C 
BRANCH   5   6
ATOM      6  C   UNL     1      88.256 326.688 194.125  1.00  0.00     0.000 C 
BRANCH   6   7
ATOM      7  C   UNL     1      86.778 326.285 193.980  1.00  0.00     0.000 C 
BRANCH   7   8
ATOM      8  C   UNL     1      86.599 324.940 193.256  1.00  0.00     0.000 C 
BRANCH   8   9
ATOM      9  C   UNL     1      87.889 324.472 192.562  1.00  0.00     0.000 C 
BRANCH   9  10
ATOM     10  C   UNL     1      88.334 323.075 193.028  1.00  0.00     0.000 C 
BRANCH  10  11
ATOM     11  C   UNL     1      87.490 322.563 194.217  1.00  0.00     0.000 C 
BRANCH  11  12
ATOM     12  C   UNL     1      88.188 322.722 195.582  1.00  0.00     0.000 C 
BRANCH  12  13
ATOM     13  C   UNL     1      89.631 322.174 195.635  1.00  0.00     0.006 C 
BRANCH  13  14
ATOM     14  C   UNL     1      90.488 322.788 196.756  1.00  0.00     0.053 C 
BRANCH  14  15
ATOM     15  C   UNL     1      90.193 322.195 198.098  1.00  0.00     0.041 C 
ATOM     16  O   UNL     1      90.237 322.913 199.133  1.00  0.00    -0.550 OA
ATOM     17  O   UNL     1      89.875 320.849 198.211  1.00  0.00    -0.550 OA
ENDBRANCH  14  15
ENDBRANCH  13  14
ENDBRANCH  12  13
ENDBRANCH  11  12
ENDBRANCH  10  11
ENDBRANCH   9  10
ENDBRANCH   8   9
ENDBRANCH   7   8
ENDBRANCH   6   7
ENDBRANCH   5   6
ENDBRANCH   4   5
ENDBRANCH   3   4
ENDBRANCH   2   3
ENDBRANCH   1   2
BRANCH   1  18
ATOM     18  C   UNL     1      88.519 325.766 200.857  1.00  0.00     0.000 C 
BRANCH  18  19
ATOM     19  C   UNL     1      88.550 326.003 202.377  1.00  0.00     0.000 C 
BRANCH  19  20
ATOM     20  C   UNL     1      89.680 325.269 203.127  1.00  0.00     0.000 C 
BRANCH  20  21
ATOM     21  C   UNL     1      90.391 326.099 204.214  1.00  0.00     0.000 C 
BRANCH  21  22
ATOM     22  C   UNL     1      89.525 327.198 204.863  1.00  0.00     0.000 C 
BRANCH  22  23
ATOM     23  C   UNL     1      88.964 326.845 206.252  1.00  0.00     0.000 C 
BRANCH  23  24
ATOM     24  C   UNL     1      89.432 325.471 206.753  1.00  0.00    -0.000 C 
BRANCH  24  25
ATOM     25  C   UNL     1      88.258 324.489 206.844  1.00  0.00    -0.000 C 
BRANCH  25  26
ATOM     26  C   UNL     1      86.955 325.143 206.368  1.00  0.00    -0.000 C 
BRANCH  26  27
ATOM     27  C   UNL     1      86.397 324.426 205.132  1.00  0.00    -0.000 C 
BRANCH  27  28
ATOM     28  C   UNL     1      86.709 322.923 205.184  1.00  0.00    -0.000 C 
BRANCH  28  29
ATOM     29  C   UNL     1      87.018 322.334 203.798  1.00  0.00    -0.000 C 
BRANCH  29  30
ATOM     30  C   UNL     1      86.473 323.203 202.652  1.00  0.00    -0.000 C 
BRANCH  30  31
ATOM     31  C   UNL     1      85.975 322.366 201.463  1.00  0.00    -0.003 C 
ATOM     32  C   UNL     1      87.002 322.271 200.335  1.00  0.00     0.004 C 
ENDBRANCH  30  31
ENDBRANCH  29  30
ENDBRANCH  28  29
ENDBRANCH  27  28
ENDBRANCH  26  27
ENDBRANCH  25  26
ENDBRANCH  24  25
ENDBRANCH  23  24
ENDBRANCH  22  23
ENDBRANCH  21  22
ENDBRANCH  20  21
ENDBRANCH  19  20
ENDBRANCH  18  19
ENDBRANCH   1  18
TORSDOF 28
ENDMDL
MODEL 3
REMARK VINA RESULT:    -5.743      2.579      4.617
REMARK INTER + INTRA:         -18.588
REMARK INTER:                 -14.729
REMARK INTRA:                  -3.859
REMARK UNBOUND:                -3.446
REMARK SMILES CCCCCCCCCCCCCCCCCCCCCCCCCCCCCC(=O)[O-]
REMARK SMILES IDX 16 1 17 2 18 3 19 4 20 5 21 6 22 7 23 8 24 9 25 10 26 11
REMARK SMILES IDX 27 12 28 13 29 14 30 15 31 16 32 17 15 18 14 19 13 20 12 21
REMARK SMILES IDX 11 22 10 23 9 24 8 25 7 26 6 27 5 28 4 29 3 30 2 31 1 32
REMARK H PARENT
REMARK Flexibility Score: inf
ROOT
ATOM      1  C   UNL     1      88.888 326.780 198.273  1.00  0.00     0.000 C 
ENDROOT
BRANCH   1   2
ATOM      2  C   UNL     1      88.111 326.144 197.109  1.00  0.00     0.000 C 
BRANCH   2   3
ATOM      3  C   UNL     1      88.968 325.995 195.840  1.00  0.00     0.000 C 
BRANCH   3   4
ATOM      4  C   UNL     1      88.318 326.633 194.598  1.00  0.00     0.000 C 
BRANCH   4   5
ATOM      5  C   UNL     1      86.882 326.160 194.296  1.00  0.00     0.000 C 
BRANCH   5   6
ATOM      6  C   UNL     1      86.769 325.007 193.278  1.00  0.00     0.000 C 
BRANCH   6   7
ATOM      7  C   UNL     1      88.026 324.778 192.419  1.00  0.00     0.000 C 
BRANCH   7   8
ATOM      8  C   UNL     1      87.764 323.849 191.222  1.00  0.00     0.000 C 
BRANCH   8   9
ATOM      9  C   UNL     1      86.642 322.835 191.502  1.00  0.00     0.000 C 
BRANCH   9  10
ATOM     10  C   UNL     1      87.185 321.465 191.945  1.00  0.00     0.000 C 
BRANCH  10  11
ATOM     11  C   UNL     1      87.382 321.385 193.475  1.00  0.00     0.000 C 
BRANCH  11  12
ATOM     12  C   UNL     1      88.857 321.475 193.912  1.00  0.00     0.000 C 
BRANCH  12  13
ATOM     13  C   UNL     1      89.123 322.436 195.090  1.00  0.00     0.006 C 
BRANCH  13  14
ATOM     14  C   UNL     1      88.088 322.333 196.224  1.00  0.00     0.053 C 
BRANCH  14  15
ATOM     15  C   UNL     1      88.690 322.543 197.578  1.00  0.00     0.041 C 
ATOM     16  O   UNL     1      89.936 322.687 197.703  1.00  0.00    -0.550 OA
ATOM     17  O   UNL     1      87.879 322.576 198.704  1.00  0.00    -0.550 OA
ENDBRANCH  14  15
ENDBRANCH  13  14
ENDBRANCH  12  13
ENDBRANCH  11  12
ENDBRANCH  10  11
ENDBRANCH   9  10
ENDBRANCH   8   9
ENDBRANCH   7   8
ENDBRANCH   6   7
ENDBRANCH   5   6
ENDBRANCH   4   5
ENDBRANCH   3   4
ENDBRANCH   2   3
ENDBRANCH   1   2
BRANCH   1  18
ATOM     18  C   UNL     1      89.360 325.744 199.308  1.00  0.00     0.000 C 
BRANCH  18  19
ATOM     19  C   UNL     1      88.558 325.802 200.620  1.00  0.00     0.000 C 
BRANCH  19  20
ATOM     20  C   UNL     1      89.293 326.467 201.803  1.00  0.00     0.000 C 
BRANCH  20  21
ATOM     21  C   UNL     1      90.762 326.846 201.530  1.00  0.00     0.000 C 
BRANCH  21  22
ATOM     22  C   UNL     1      91.658 326.925 202.782  1.00  0.00     0.000 C 
BRANCH  22  23
ATOM     23  C   UNL     1      91.017 326.387 204.074  1.00  0.00     0.000 C 
BRANCH  23  24
ATOM     24  C   UNL     1      91.405 327.203 205.316  1.00  0.00    -0.000 C 
BRANCH  24  25
ATOM     25  C   UNL     1      90.453 326.916 206.483  1.00  0.00    -0.000 C 
BRANCH  25  26
ATOM     26  C   UNL     1      88.998 326.851 206.003  1.00  0.00    -0.000 C 
BRANCH  26  27
ATOM     27  C   UNL     1      88.106 326.154 207.039  1.00  0.00    -0.000 C 
BRANCH  27  28
ATOM     28  C   UNL     1      87.190 325.121 206.365  1.00  0.00    -0.000 C 
BRANCH  28  29
ATOM     29  C   UNL     1      87.530 324.905 204.881  1.00  0.00    -0.000 C 
BRANCH  29  30
ATOM     30  C   UNL     1      87.956 323.459 204.577  1.00  0.00    -0.000 C 
BRANCH  30  31
ATOM     31  C   UNL     1      87.808 323.103 203.089  1.00  0.00    -0.003 C 
ATOM     32  C   UNL     1      86.438 323.476 202.525  1.00  0.00     0.004 C 
ENDBRANCH  30  31
ENDBRANCH  29  30
ENDBRANCH  28  29
ENDBRANCH  27  28
ENDBRANCH  26  27
ENDBRANCH  25  26
ENDBRANCH  24  25
ENDBRANCH  23  24
ENDBRANCH  22  23
ENDBRANCH  21  22
ENDBRANCH  20  21
ENDBRANCH  19  20
ENDBRANCH  18  19
ENDBRANCH   1  18
TORSDOF 28
ENDMDL
MODEL 4
REMARK VINA RESULT:    -5.741      1.416      4.091
REMARK INTER + INTRA:         -18.584
REMARK INTER:                 -14.719
REMARK INTRA:                  -3.865
REMARK UNBOUND:                -3.446
REMARK SMILES CCCCCCCCCCCCCCCCCCCCCCCCCCCCCC(=O)[O-]
REMARK SMILES IDX 16 1 17 2 18 3 19 4 20 5 21 6 22 7 23 8 24 9 25 10 26 11
REMARK SMILES IDX 27 12 28 13 29 14 30 15 31 16 32 17 15 18 14 19 13 20 12 21
REMARK SMILES IDX 11 22 10 23 9 24 8 25 7 26 6 27 5 28 4 29 3 30 2 31 1 32
REMARK H PARENT
REMARK Flexibility Score: inf
ROOT
ATOM      1  C   UNL     1      89.272 326.891 203.070  1.00  0.00     0.000 C 
ENDROOT
BRANCH   1   2
ATOM      2  C   UNL     1      90.387 325.860 202.833  1.00  0.00     0.000 C 
BRANCH   2   3
ATOM      3  C   UNL     1      90.637 325.597 201.338  1.00  0.00     0.000 C 
BRANCH   3   4
ATOM      4  C   UNL     1      89.918 326.605 200.422  1.00  0.00     0.000 C 
BRANCH   4   5
ATOM      5  C   UNL     1      89.008 325.977 199.346  1.00  0.00     0.000 C 
BRANCH   5   6
ATOM      6  C   UNL     1      88.853 326.804 198.053  1.00  0.00     0.000 C 
BRANCH   6   7
ATOM      7  C   UNL     1      88.019 326.127 196.950  1.00  0.00     0.000 C 
BRANCH   7   8
ATOM      8  C   UNL     1      88.853 325.781 195.705  1.00  0.00     0.000 C 
BRANCH   8   9
ATOM      9  C   UNL     1      88.360 326.514 194.447  1.00  0.00     0.000 C 
BRANCH   9  10
ATOM     10  C   UNL     1      86.937 326.095 194.041  1.00  0.00     0.000 C 
BRANCH  10  11
ATOM     11  C   UNL     1      86.922 324.750 193.279  1.00  0.00     0.000 C 
BRANCH  11  12
ATOM     12  C   UNL     1      87.901 324.705 192.091  1.00  0.00     0.000 C 
BRANCH  12  13
ATOM     13  C   UNL     1      87.878 323.387 191.286  1.00  0.00     0.006 C 
BRANCH  13  14
ATOM     14  C   UNL     1      88.501 323.502 189.884  1.00  0.00     0.053 C 
BRANCH  14  15
ATOM     15  C   UNL     1      88.596 322.183 189.184  1.00  0.00     0.041 C 
ATOM     16  O   UNL     1      87.630 321.756 188.498  1.00  0.00    -0.550 OA
ATOM     17  O   UNL     1      89.751 321.419 189.292  1.00  0.00    -0.550 OA
ENDBRANCH  14  15
ENDBRANCH  13  14
ENDBRANCH  12  13
ENDBRANCH  11  12
ENDBRANCH  10  11
ENDBRANCH   9  10
ENDBRANCH   8   9
ENDBRANCH   7   8
ENDBRANCH   6   7
ENDBRANCH   5   6
ENDBRANCH   4   5
ENDBRANCH   3   4
ENDBRANCH   2   3
ENDBRANCH   1   2
BRANCH   1  18
ATOM     18  C   UNL     1      89.248 327.419 204.516  1.00  0.00     0.000 C 
BRANCH  18  19
ATOM     19  C   UNL     1      90.427 326.904 205.360  1.00  0.00     0.000 C 
BRANCH  19  20
ATOM     20  C   UNL     1      90.068 326.512 206.808  1.00  0.00     0.000 C 
BRANCH  20  21
ATOM     21  C   UNL     1      88.571 326.250 207.062  1.00  0.00     0.000 C 
BRANCH  21  22
ATOM     22  C   UNL     1      88.136 324.777 206.929  1.00  0.00     0.000 C 
BRANCH  22  23
ATOM     23  C   UNL     1      87.038 324.517 205.882  1.00  0.00     0.000 C 
BRANCH  23  24
ATOM     24  C   UNL     1      87.064 323.081 205.335  1.00  0.00    -0.000 C 
BRANCH  24  25
ATOM     25  C   UNL     1      86.517 323.028 203.904  1.00  0.00    -0.000 C 
BRANCH  25  26
ATOM     26  C   UNL     1      87.196 324.077 203.015  1.00  0.00    -0.000 C 
BRANCH  26  27
ATOM     27  C   UNL     1      87.422 323.537 201.597  1.00  0.00    -0.000 C 
BRANCH  27  28
ATOM     28  C   UNL     1      88.562 322.508 201.579  1.00  0.00    -0.000 C 
BRANCH  28  29
ATOM     29  C   UNL     1      89.157 322.307 200.175  1.00  0.00    -0.000 C 
BRANCH  29  30
ATOM     30  C   UNL     1      88.104 322.443 199.062  1.00  0.00    -0.000 C 
BRANCH  30  31
ATOM     31  C   UNL     1      88.734 322.560 197.666  1.00  0.00    -0.003 C 
ATOM     32  C   UNL     1      90.213 322.943 197.715  1.00  0.00     0.004 C 
ENDBRANCH  30  31
ENDBRANCH  29  30
ENDBRANCH  28  29
ENDBRANCH  27  28
ENDBRANCH  26  27
ENDBRANCH  25  26
ENDBRANCH  24  25
ENDBRANCH  23  24
ENDBRANCH  22  23
ENDBRANCH  21  22
ENDBRANCH  20  21
ENDBRANCH  19  20
ENDBRANCH  18  19
ENDBRANCH   1  18
TORSDOF 28
ENDMDL
MODEL 5
REMARK VINA RESULT:    -5.736      2.618     10.235
REMARK INTER + INTRA:         -18.570
REMARK INTER:                 -14.679
REMARK INTRA:                  -3.891
REMARK UNBOUND:                -3.446
REMARK SMILES CCCCCCCCCCCCCCCCCCCCCCCCCCCCCC(=O)[O-]
REMARK SMILES IDX 16 1 17 2 18 3 19 4 20 5 21 6 22 7 23 8 24 9 25 10 26 11
REMARK SMILES IDX 27 12 28 13 29 14 30 15 31 16 32 17 15 18 14 19 13 20 12 21
REMARK SMILES IDX 11 22 10 23 9 24 8 25 7 26 6 27 5 28 4 29 3 30 2 31 1 32
REMARK H PARENT
REMARK Flexibility Score: inf
ROOT
ATOM      1  C   UNL     1      88.269 323.346 203.957  1.00  0.00     0.000 C 
ENDROOT
BRANCH   1   2
ATOM      2  C   UNL     1      86.801 323.794 203.880  1.00  0.00     0.000 C 
BRANCH   2   3
ATOM      3  C   UNL     1      86.243 324.218 205.250  1.00  0.00     0.000 C 
BRANCH   3   4
ATOM      4  C   UNL     1      87.344 324.464 206.298  1.00  0.00     0.000 C 
BRANCH   4   5
ATOM      5  C   UNL     1      87.477 325.924 206.776  1.00  0.00     0.000 C 
BRANCH   5   6
ATOM      6  C   UNL     1      88.915 326.483 206.792  1.00  0.00     0.000 C 
BRANCH   6   7
ATOM      7  C   UNL     1      89.348 327.187 205.493  1.00  0.00     0.000 C 
BRANCH   7   8
ATOM      8  C   UNL     1      90.857 327.483 205.455  1.00  0.00     0.000 C 
BRANCH   8   9
ATOM      9  C   UNL     1      91.592 326.645 204.396  1.00  0.00     0.000 C 
BRANCH   9  10
ATOM     10  C   UNL     1      91.490 327.255 202.988  1.00  0.00     0.000 C 
BRANCH  10  11
ATOM     11  C   UNL     1      92.316 326.462 201.950  1.00  0.00     0.000 C 
BRANCH  11  12
ATOM     12  C   UNL     1      92.728 325.059 202.433  1.00  0.00     0.000 C 
BRANCH  12  13
ATOM     13  C   UNL     1      92.360 323.910 201.469  1.00  0.00     0.006 C 
BRANCH  13  14
ATOM     14  C   UNL     1      92.174 324.359 200.010  1.00  0.00     0.053 C 
BRANCH  14  15
ATOM     15  C   UNL     1      91.699 323.252 199.121  1.00  0.00     0.041 C 
ATOM     16  O   UNL     1      91.625 322.073 199.559  1.00  0.00    -0.550 OA
ATOM     17  O   UNL     1      91.342 323.518 197.806  1.00  0.00    -0.550 OA
ENDBRANCH  14  15
ENDBRANCH  13  14
ENDBRANCH  12  13
ENDBRANCH  11  12
ENDBRANCH  10  11
ENDBRANCH   9  10
ENDBRANCH   8   9
ENDBRANCH   7   8
ENDBRANCH   6   7
ENDBRANCH   5   6
ENDBRANCH   4   5
ENDBRANCH   3   4
ENDBRANCH   2   3
ENDBRANCH   1   2
BRANCH   1  18
ATOM     18  C   UNL     1      89.179 324.119 202.987  1.00  0.00     0.000 C 
BRANCH  18  19
ATOM     19  C   UNL     1      88.440 325.248 202.246  1.00  0.00     0.000 C 
BRANCH  19  20
ATOM     20  C   UNL     1      88.606 325.238 200.713  1.00  0.00     0.000 C 
BRANCH  20  21
ATOM     21  C   UNL     1      89.268 326.496 200.119  1.00  0.00     0.000 C 
BRANCH  21  22
ATOM     22  C   UNL     1      88.954 326.757 198.631  1.00  0.00     0.000 C 
BRANCH  22  23
ATOM     23  C   UNL     1      88.487 325.522 197.840  1.00  0.00     0.000 C 
BRANCH  23  24
ATOM     24  C   UNL     1      88.418 325.775 196.327  1.00  0.00    -0.000 C 
BRANCH  24  25
ATOM     25  C   UNL     1      87.026 326.269 195.915  1.00  0.00    -0.000 C 
BRANCH  25  26
ATOM     26  C   UNL     1      87.018 326.738 194.455  1.00  0.00    -0.000 C 
BRANCH  26  27
ATOM     27  C   UNL     1      88.122 326.045 193.646  1.00  0.00    -0.000 C 
BRANCH  27  28
ATOM     28  C   UNL     1      87.547 324.889 192.814  1.00  0.00    -0.000 C 
BRANCH  28  29
ATOM     29  C   UNL     1      88.255 323.551 193.087  1.00  0.00    -0.000 C 
BRANCH  29  30
ATOM     30  C   UNL     1      88.513 322.746 191.802  1.00  0.00    -0.000 C 
BRANCH  30  31
ATOM     31  C   UNL     1      88.015 323.473 190.543  1.00  0.00    -0.003 C 
ATOM     32  C   UNL     1      88.325 322.707 189.257  1.00  0.00     0.004 C 
ENDBRANCH  30  31
ENDBRANCH  29  30
ENDBRANCH  28  29
ENDBRANCH  27  28
ENDBRANCH  26  27
ENDBRANCH  25  26
ENDBRANCH  24  25
ENDBRANCH  23  24
ENDBRANCH  22  23
ENDBRANCH  21  22
ENDBRANCH  20  21
ENDBRANCH  19  20
ENDBRANCH  18  19
ENDBRANCH   1  18
TORSDOF 28
ENDMDL
MODEL 6
REMARK VINA RESULT:    -5.728      1.013      3.260
REMARK INTER + INTRA:         -18.549
REMARK INTER:                 -15.362
REMARK INTRA:                  -3.187
REMARK UNBOUND:                -3.446
REMARK SMILES CCCCCCCCCCCCCCCCCCCCCCCCCCCCCC(=O)[O-]
REMARK SMILES IDX 16 1 17 2 18 3 19 4 20 5 21 6 22 7 23 8 24 9 25 10 26 11
REMARK SMILES IDX 27 12 28 13 29 14 30 15 31 16 32 17 15 18 14 19 13 20 12 21
REMARK SMILES IDX 11 22 10 23 9 24 8 25 7 26 6 27 5 28 4 29 3 30 2 31 1 32
REMARK H PARENT
REMARK Flexibility Score: inf
ROOT
ATOM      1  C   UNL     1      89.619 324.847 199.242  1.00  0.00     0.000 C 
ENDROOT
BRANCH   1   2
ATOM      2  C   UNL     1      88.690 323.728 198.745  1.00  0.00     0.000 C 
BRANCH   2   3
ATOM      3  C   UNL     1      88.348 323.866 197.251  1.00  0.00     0.000 C 
BRANCH   3   4
ATOM      4  C   UNL     1      89.258 324.869 196.517  1.00  0.00     0.000 C 
BRANCH   4   5
ATOM      5  C   UNL     1      88.576 326.189 196.103  1.00  0.00     0.000 C 
BRANCH   5   6
ATOM      6  C   UNL     1      87.049 326.105 195.902  1.00  0.00     0.000 C 
BRANCH   6   7
ATOM      7  C   UNL     1      86.559 326.509 194.499  1.00  0.00     0.000 C 
BRANCH   7   8
ATOM      8  C   UNL     1      85.907 325.341 193.741  1.00  0.00     0.000 C 
BRANCH   8   9
ATOM      9  C   UNL     1      86.820 324.106 193.670  1.00  0.00     0.000 C 
BRANCH   9  10
ATOM     10  C   UNL     1      88.142 324.393 192.936  1.00  0.00     0.000 C 
BRANCH  10  11
ATOM     11  C   UNL     1      87.971 324.367 191.400  1.00  0.00     0.000 C 
BRANCH  11  12
ATOM     12  C   UNL     1      87.099 323.201 190.897  1.00  0.00     0.000 C 
BRANCH  12  13
ATOM     13  C   UNL     1      87.657 322.465 189.660  1.00  0.00     0.006 C 
BRANCH  13  14
ATOM     14  C   UNL     1      88.933 321.653 189.943  1.00  0.00     0.053 C 
BRANCH  14  15
ATOM     15  C   UNL     1      89.936 321.748 188.836  1.00  0.00     0.041 C 
ATOM     16  O   UNL     1      90.248 320.725 188.172  1.00  0.00    -0.550 OA
ATOM     17  O   UNL     1      90.532 322.967 188.540  1.00  0.00    -0.550 OA
ENDBRANCH  14  15
ENDBRANCH  13  14
ENDBRANCH  12  13
ENDBRANCH  11  12
ENDBRANCH  10  11
ENDBRANCH   9  10
ENDBRANCH   8   9
ENDBRANCH   7   8
ENDBRANCH   6   7
ENDBRANCH   5   6
ENDBRANCH   4   5
ENDBRANCH   3   4
ENDBRANCH   2   3
ENDBRANCH   1   2
BRANCH   1  18
ATOM     18  C   UNL     1      88.850 326.022 199.871  1.00  0.00     0.000 C 
BRANCH  18  19
ATOM     19  C   UNL     1      89.494 326.530 201.173  1.00  0.00     0.000 C 
BRANCH  19  20
ATOM     20  C   UNL     1      91.036 326.499 201.190  1.00  0.00     0.000 C 
BRANCH  20  21
ATOM     21  C   UNL     1      91.685 327.021 202.487  1.00  0.00     0.000 C 
BRANCH  21  22
ATOM     22  C   UNL     1      90.712 327.225 203.666  1.00  0.00     0.000 C 
BRANCH  22  23
ATOM     23  C   UNL     1      91.385 327.407 205.038  1.00  0.00     0.000 C 
BRANCH  23  24
ATOM     24  C   UNL     1      90.397 327.281 206.207  1.00  0.00    -0.000 C 
BRANCH  24  25
ATOM     25  C   UNL     1      89.025 326.803 205.719  1.00  0.00    -0.000 C 
BRANCH  25  26
ATOM     26  C   UNL     1      88.174 326.287 206.886  1.00  0.00    -0.000 C 
BRANCH  26  27
ATOM     27  C   UNL     1      87.903 324.783 206.749  1.00  0.00    -0.000 C 
BRANCH  27  28
ATOM     28  C   UNL     1      86.674 324.526 205.864  1.00  0.00    -0.000 C 
BRANCH  28  29
ATOM     29  C   UNL     1      86.870 323.338 204.908  1.00  0.00    -0.000 C 
BRANCH  29  30
ATOM     30  C   UNL     1      86.663 323.726 203.434  1.00  0.00    -0.000 C 
BRANCH  30  31
ATOM     31  C   UNL     1      87.976 323.724 202.635  1.00  0.00    -0.003 C 
ATOM     32  C   UNL     1      89.209 323.558 203.524  1.00  0.00     0.004 C 
ENDBRANCH  30  31
ENDBRANCH  29  30
ENDBRANCH  28  29
ENDBRANCH  27  28
ENDBRANCH  26  27
ENDBRANCH  25  26
ENDBRANCH  24  25
ENDBRANCH  23  24
ENDBRANCH  22  23
ENDBRANCH  21  22
ENDBRANCH  20  21
ENDBRANCH  19  20
ENDBRANCH  18  19
ENDBRANCH   1  18
TORSDOF 28
ENDMDL
MODEL 7
REMARK VINA RESULT:    -5.702      3.061     11.267
REMARK INTER + INTRA:         -18.480
REMARK INTER:                 -15.018
REMARK INTRA:                  -3.462
REMARK UNBOUND:                -3.446
REMARK SMILES CCCCCCCCCCCCCCCCCCCCCCCCCCCCCC(=O)[O-]
REMARK SMILES IDX 16 1 17 2 18 3 19 4 20 5 21 6 22 7 23 8 24 9 25 10 26 11
REMARK SMILES IDX 27 12 28 13 29 14 30 15 31 16 32 17 15 18 14 19 13 20 12 21
REMARK SMILES IDX 11 22 10 23 9 24 8 25 7 26 6 27 5 28 4 29 3 30 2 31 1 32
REMARK H PARENT
REMARK Flexibility Score: inf
ROOT
ATOM      1  C   UNL     1      89.997 325.120 199.127  1.00  0.00     0.000 C 
ENDROOT
BRANCH   1   2
ATOM      2  C   UNL     1      89.259 326.169 199.973  1.00  0.00     0.000 C 
BRANCH   2   3
ATOM      3  C   UNL     1      89.986 326.476 201.294  1.00  0.00     0.000 C 
BRANCH   3   4
ATOM      4  C   UNL     1      89.044 326.481 202.512  1.00  0.00     0.000 C 
BRANCH   4   5
ATOM      5  C   UNL     1      89.732 326.247 203.873  1.00  0.00     0.000 C 
BRANCH   5   6
ATOM      6  C   UNL     1      89.470 327.332 204.937  1.00  0.00     0.000 C 
BRANCH   6   7
ATOM      7  C   UNL     1      88.966 326.801 206.291  1.00  0.00     0.000 C 
BRANCH   7   8
ATOM      8  C   UNL     1      89.388 325.345 206.549  1.00  0.00     0.000 C 
BRANCH   8   9
ATOM      9  C   UNL     1      88.182 324.409 206.731  1.00  0.00     0.000 C 
BRANCH   9  10
ATOM     10  C   UNL     1      86.876 325.020 206.194  1.00  0.00     0.000 C 
BRANCH  10  11
ATOM     11  C   UNL     1      86.173 324.090 205.179  1.00  0.00     0.000 C 
BRANCH  11  12
ATOM     12  C   UNL     1      87.099 323.602 204.048  1.00  0.00     0.000 C 
BRANCH  12  13
ATOM     13  C   UNL     1      86.521 323.768 202.626  1.00  0.00     0.006 C 
BRANCH  13  14
ATOM     14  C   UNL     1      87.376 323.114 201.526  1.00  0.00     0.053 C 
BRANCH  14  15
ATOM     15  C   UNL     1      86.701 321.938 200.892  1.00  0.00     0.041 C 
ATOM     16  O   UNL     1      86.768 321.762 199.647  1.00  0.00    -0.550 OA
ATOM     17  O   UNL     1      85.992 321.037 201.675  1.00  0.00    -0.550 OA
ENDBRANCH  14  15
ENDBRANCH  13  14
ENDBRANCH  12  13
ENDBRANCH  11  12
ENDBRANCH  10  11
ENDBRANCH   9  10
ENDBRANCH   8   9
ENDBRANCH   7   8
ENDBRANCH   6   7
ENDBRANCH   5   6
ENDBRANCH   4   5
ENDBRANCH   3   4
ENDBRANCH   2   3
ENDBRANCH   1   2
BRANCH   1  18
ATOM     18  C   UNL     1      89.038 324.186 198.369  1.00  0.00     0.000 C 
BRANCH  18  19
ATOM     19  C   UNL     1      89.132 324.344 196.841  1.00  0.00     0.000 C 
BRANCH  19  20
ATOM     20  C   UNL     1      88.829 325.761 196.313  1.00  0.00     0.000 C 
BRANCH  20  21
ATOM     21  C   UNL     1      87.380 326.241 196.525  1.00  0.00     0.000 C 
BRANCH  21  22
ATOM     22  C   UNL     1      86.615 326.596 195.233  1.00  0.00     0.000 C 
BRANCH  22  23
ATOM     23  C   UNL     1      87.493 326.727 193.976  1.00  0.00     0.000 C 
BRANCH  23  24
ATOM     24  C   UNL     1      87.668 325.396 193.230  1.00  0.00    -0.000 C 
BRANCH  24  25
ATOM     25  C   UNL     1      86.483 324.459 193.491  1.00  0.00    -0.000 C 
BRANCH  25  26
ATOM     26  C   UNL     1      86.933 322.993 193.505  1.00  0.00    -0.000 C 
BRANCH  26  27
ATOM     27  C   UNL     1      88.425 322.870 193.170  1.00  0.00    -0.000 C 
BRANCH  27  28
ATOM     28  C   UNL     1      88.666 321.749 192.148  1.00  0.00    -0.000 C 
BRANCH  28  29
ATOM     29  C   UNL     1      88.109 322.086 190.755  1.00  0.00    -0.000 C 
BRANCH  29  30
ATOM     30  C   UNL     1      88.517 323.491 190.280  1.00  0.00    -0.000 C 
BRANCH  30  31
ATOM     31  C   UNL     1      89.066 323.491 188.845  1.00  0.00    -0.003 C 
ATOM     32  C   UNL     1      90.431 322.811 188.734  1.00  0.00     0.004 C 
ENDBRANCH  30  31
ENDBRANCH  29  30
ENDBRANCH  28  29
ENDBRANCH  27  28
ENDBRANCH  26  27
ENDBRANCH  25  26
ENDBRANCH  24  25
ENDBRANCH  23  24
ENDBRANCH  22  23
ENDBRANCH  21  22
ENDBRANCH  20  21
ENDBRANCH  19  20
ENDBRANCH  18  19
ENDBRANCH   1  18
TORSDOF 28
ENDMDL
MODEL 8
REMARK VINA RESULT:    -5.701      1.897      3.893
REMARK INTER + INTRA:         -18.479
REMARK INTER:                 -14.359
REMARK INTRA:                  -4.119
REMARK UNBOUND:                -3.446
REMARK SMILES CCCCCCCCCCCCCCCCCCCCCCCCCCCCCC(=O)[O-]
REMARK SMILES IDX 16 1 17 2 18 3 19 4 20 5 21 6 22 7 23 8 24 9 25 10 26 11
REMARK SMILES IDX 27 12 28 13 29 14 30 15 31 16 32 17 15 18 14 19 13 20 12 21
REMARK SMILES IDX 11 22 10 23 9 24 8 25 7 26 6 27 5 28 4 29 3 30 2 31 1 32
REMARK H PARENT
REMARK Flexibility Score: inf
ROOT
ATOM      1  C   UNL     1      88.861 323.615 202.829  1.00  0.00     0.000 C 
ENDROOT
BRANCH   1   2
ATOM      2  C   UNL     1      87.673 324.317 202.153  1.00  0.00     0.000 C 
BRANCH   2   3
ATOM      3  C   UNL     1      88.077 325.639 201.478  1.00  0.00     0.000 C 
BRANCH   3   4
ATOM      4  C   UNL     1      88.893 325.431 200.189  1.00  0.00     0.000 C 
BRANCH   4   5
ATOM      5  C   UNL     1      89.241 326.721 199.419  1.00  0.00     0.000 C 
BRANCH   5   6
ATOM      6  C   UNL     1      88.873 326.714 197.922  1.00  0.00     0.000 C 
BRANCH   6   7
ATOM      7  C   UNL     1      88.494 325.333 197.356  1.00  0.00     0.000 C 
BRANCH   7   8
ATOM      8  C   UNL     1      88.863 325.180 195.871  1.00  0.00     0.000 C 
BRANCH   8   9
ATOM      9  C   UNL     1      89.009 326.536 195.161  1.00  0.00     0.000 C 
BRANCH   9  10
ATOM     10  C   UNL     1      88.134 326.636 193.899  1.00  0.00     0.000 C 
BRANCH  10  11
ATOM     11  C   UNL     1      86.776 325.920 194.076  1.00  0.00     0.000 C 
BRANCH  11  12
ATOM     12  C   UNL     1      86.494 324.857 192.996  1.00  0.00     0.000 C 
BRANCH  12  13
ATOM     13  C   UNL     1      87.754 324.287 192.309  1.00  0.00     0.006 C 
BRANCH  13  14
ATOM     14  C   UNL     1      88.248 322.963 192.916  1.00  0.00     0.053 C 
BRANCH  14  15
ATOM     15  C   UNL     1      87.165 322.214 193.628  1.00  0.00     0.041 C 
ATOM     16  O   UNL     1      86.354 321.500 192.979  1.00  0.00    -0.550 OA
ATOM     17  O   UNL     1      87.045 322.307 195.008  1.00  0.00    -0.550 OA
ENDBRANCH  14  15
ENDBRANCH  13  14
ENDBRANCH  12  13
ENDBRANCH  11  12
ENDBRANCH  10  11
ENDBRANCH   9  10
ENDBRANCH   8   9
ENDBRANCH   7   8
ENDBRANCH   6   7
ENDBRANCH   5   6
ENDBRANCH   4   5
ENDBRANCH   3   4
ENDBRANCH   2   3
ENDBRANCH   1   2
BRANCH   1  18
ATOM     18  C   UNL     1      88.689 323.488 204.353  1.00  0.00     0.000 C 
BRANCH  18  19
ATOM     19  C   UNL     1      87.294 323.925 204.835  1.00  0.00     0.000 C 
BRANCH  19  20
ATOM     20  C   UNL     1      87.227 324.374 206.309  1.00  0.00     0.000 C 
BRANCH  20  21
ATOM     21  C   UNL     1      87.722 325.809 206.578  1.00  0.00     0.000 C 
BRANCH  21  22
ATOM     22  C   UNL     1      89.191 325.915 207.036  1.00  0.00     0.000 C 
BRANCH  22  23
ATOM     23  C   UNL     1      90.069 326.850 206.186  1.00  0.00     0.000 C 
BRANCH  23  24
ATOM     24  C   UNL     1      89.270 327.609 205.116  1.00  0.00    -0.000 C 
BRANCH  24  25
ATOM     25  C   UNL     1      89.788 327.286 203.710  1.00  0.00    -0.000 C 
BRANCH  25  26
ATOM     26  C   UNL     1      91.321 327.295 203.672  1.00  0.00    -0.000 C 
BRANCH  26  27
ATOM     27  C   UNL     1      91.839 327.088 202.243  1.00  0.00    -0.000 C 
BRANCH  27  28
ATOM     28  C   UNL     1      91.967 325.593 201.918  1.00  0.00    -0.000 C 
BRANCH  28  29
ATOM     29  C   UNL     1      93.404 325.187 201.547  1.00  0.00    -0.000 C 
BRANCH  29  30
ATOM     30  C   UNL     1      93.450 324.152 200.410  1.00  0.00    -0.000 C 
BRANCH  30  31
ATOM     31  C   UNL     1      92.065 323.566 200.092  1.00  0.00    -0.003 C 
ATOM     32  C   UNL     1      91.745 323.584 198.597  1.00  0.00     0.004 C 
ENDBRANCH  30  31
ENDBRANCH  29  30
ENDBRANCH  28  29
ENDBRANCH  27  28
ENDBRANCH  26  27
ENDBRANCH  25  26
ENDBRANCH  24  25
ENDBRANCH  23  24
ENDBRANCH  22  23
ENDBRANCH  21  22
ENDBRANCH  20  21
ENDBRANCH  19  20
ENDBRANCH  18  19
ENDBRANCH   1  18
TORSDOF 28
ENDMDL
MODEL 9
REMARK VINA RESULT:    -5.663      1.367      2.456
REMARK INTER + INTRA:         -18.378
REMARK INTER:                 -14.838
REMARK INTRA:                  -3.540
REMARK UNBOUND:                -3.446
REMARK SMILES CCCCCCCCCCCCCCCCCCCCCCCCCCCCCC(=O)[O-]
REMARK SMILES IDX 16 1 17 2 18 3 19 4 20 5 21 6 22 7 23 8 24 9 25 10 26 11
REMARK SMILES IDX 27 12 28 13 29 14 30 15 31 16 32 17 15 18 14 19 13 20 12 21
REMARK SMILES IDX 11 22 10 23 9 24 8 25 7 26 6 27 5 28 4 29 3 30 2 31 1 32
REMARK H PARENT
REMARK Flexibility Score: inf
ROOT
ATOM      1  C   UNL     1      88.675 324.709 201.646  1.00  0.00     0.000 C 
ENDROOT
BRANCH   1   2
ATOM      2  C   UNL     1      88.641 326.171 201.174  1.00  0.00     0.000 C 
BRANCH   2   3
ATOM      3  C   UNL     1      89.630 326.442 200.027  1.00  0.00     0.000 C 
BRANCH   3   4
ATOM      4  C   UNL     1      88.939 326.579 198.657  1.00  0.00     0.000 C 
BRANCH   4   5
ATOM      5  C   UNL     1      88.850 325.276 197.837  1.00  0.00     0.000 C 
BRANCH   5   6
ATOM      6  C   UNL     1      88.232 325.424 196.431  1.00  0.00     0.000 C 
BRANCH   6   7
ATOM      7  C   UNL     1      88.971 326.403 195.501  1.00  0.00     0.000 C 
BRANCH   7   8
ATOM      8  C   UNL     1      88.197 326.683 194.202  1.00  0.00     0.000 C 
BRANCH   8   9
ATOM      9  C   UNL     1      86.759 326.140 194.248  1.00  0.00     0.000 C 
BRANCH   9  10
ATOM     10  C   UNL     1      86.514 325.036 193.204  1.00  0.00     0.000 C 
BRANCH  10  11
ATOM     11  C   UNL     1      87.809 324.644 192.458  1.00  0.00     0.000 C 
BRANCH  11  12
ATOM     12  C   UNL     1      88.306 323.224 192.792  1.00  0.00     0.000 C 
BRANCH  12  13
ATOM     13  C   UNL     1      88.267 322.232 191.610  1.00  0.00     0.006 C 
BRANCH  13  14
ATOM     14  C   UNL     1      87.814 322.864 190.283  1.00  0.00     0.053 C 
BRANCH  14  15
ATOM     15  C   UNL     1      86.885 321.980 189.510  1.00  0.00     0.041 C 
ATOM     16  O   UNL     1      86.769 322.116 188.263  1.00  0.00    -0.550 OA
ATOM     17  O   UNL     1      86.141 321.009 190.166  1.00  0.00    -0.550 OA
ENDBRANCH  14  15
ENDBRANCH  13  14
ENDBRANCH  12  13
ENDBRANCH  11  12
ENDBRANCH  10  11
ENDBRANCH   9  10
ENDBRANCH   8   9
ENDBRANCH   7   8
ENDBRANCH   6   7
ENDBRANCH   5   6
ENDBRANCH   4   5
ENDBRANCH   3   4
ENDBRANCH   2   3
ENDBRANCH   1   2
BRANCH   1  18
ATOM     18  C   UNL     1      87.340 324.250 202.257  1.00  0.00     0.000 C 
BRANCH  18  19
ATOM     19  C   UNL     1      87.525 323.289 203.445  1.00  0.00     0.000 C 
BRANCH  19  20
ATOM     20  C   UNL     1      86.544 323.505 204.616  1.00  0.00     0.000 C 
BRANCH  20  21
ATOM     21  C   UNL     1      87.198 323.919 205.948  1.00  0.00     0.000 C 
BRANCH  21  22
ATOM     22  C   UNL     1      86.916 325.370 206.389  1.00  0.00     0.000 C 
BRANCH  22  23
ATOM     23  C   UNL     1      88.169 326.236 206.610  1.00  0.00     0.000 C 
BRANCH  23  24
ATOM     24  C   UNL     1      89.243 326.015 205.533  1.00  0.00    -0.000 C 
BRANCH  24  25
ATOM     25  C   UNL     1      89.229 327.149 204.502  1.00  0.00    -0.000 C 
BRANCH  25  26
ATOM     26  C   UNL     1      90.648 327.660 204.225  1.00  0.00    -0.000 C 
BRANCH  26  27
ATOM     27  C   UNL     1      91.501 327.637 205.500  1.00  0.00    -0.000 C 
BRANCH  27  28
ATOM     28  C   UNL     1      92.901 327.074 205.213  1.00  0.00    -0.000 C 
BRANCH  28  29
ATOM     29  C   UNL     1      92.983 326.351 203.858  1.00  0.00    -0.000 C 
BRANCH  29  30
ATOM     30  C   UNL     1      93.107 324.825 204.010  1.00  0.00    -0.000 C 
BRANCH  30  31
ATOM     31  C   UNL     1      92.040 324.066 203.205  1.00  0.00    -0.003 C 
ATOM     32  C   UNL     1      91.096 323.255 204.092  1.00  0.00     0.004 C 
ENDBRANCH  30  31
ENDBRANCH  29  30
ENDBRANCH  28  29
ENDBRANCH  27  28
ENDBRANCH  26  27
ENDBRANCH  25  26
ENDBRANCH  24  25
ENDBRANCH  23  24
ENDBRANCH  22  23
ENDBRANCH  21  22
ENDBRANCH  20  21
ENDBRANCH  19  20
ENDBRANCH  18  19
ENDBRANCH   1  18
TORSDOF 28
ENDMDL
