MODEL 1
REMARK VINA RESULT:    -5.811      0.000      0.000
REMARK INTER + INTRA:          -7.394
REMARK INTER:                  -7.000
REMARK INTRA:                  -0.393
REMARK UNBOUND:                -0.393
REMARK SMILES O=c1c(O)c(-c2ccc(O)cc2O)oc2cc(O)cc(O)c12
REMARK SMILES IDX 5 1 3 2 2 3 1 4 22 5 20 6 19 7 17 8 16 9 15 10 14 11 6 12
REMARK SMILES IDX 8 13 7 14 9 15 11 16 12 17 10 18 13 20 4 22 21 24 18 26
REMARK H PARENT 10 19 13 21 4 23 21 25 18 27
REMARK Flexibility Score: inf
ROOT
ATOM      1  C   UNL     1      16.156  -6.778 -31.447  1.00  0.00     0.184 A 
ATOM      2  C   UNL     1      15.623  -5.644 -32.080  1.00  0.00     0.208 A 
ATOM      3  C   UNL     1      16.409  -4.954 -33.016  1.00  0.00     0.238 A 
ATOM      4  O   UNL     1      15.947  -3.907 -33.541  1.00  0.00    -0.285 OA
ATOM      5  C   UNL     1      17.712  -5.419 -33.319  1.00  0.00     0.111 A 
ATOM      6  C   UNL     1      18.583  -4.822 -34.280  1.00  0.00     0.134 A 
ATOM      7  C   UNL     1      19.898  -5.287 -34.403  1.00  0.00     0.093 A 
ATOM      8  C   UNL     1      20.353  -6.367 -33.649  1.00  0.00     0.123 A 
ATOM      9  C   UNL     1      19.494  -6.996 -32.748  1.00  0.00     0.094 A 
ATOM     10  C   UNL     1      18.187  -6.533 -32.576  1.00  0.00     0.146 A 
ATOM     11  O   UNL     1      17.403  -7.152 -31.701  1.00  0.00    -0.451 OA
ENDROOT
BRANCH   1  12
ATOM     12  C   UNL     1      15.374  -7.558 -30.466  1.00  0.00     0.063 A 
ATOM     13  C   UNL     1      14.884  -8.074 -28.141  1.00  0.00     0.047 A 
ATOM     14  C   UNL     1      15.601  -7.350 -29.095  1.00  0.00     0.020 A 
ATOM     15  C   UNL     1      13.941  -9.027 -28.544  1.00  0.00     0.119 A 
ATOM     16  C   UNL     1      13.725  -9.258 -29.905  1.00  0.00     0.093 A 
ATOM     17  C   UNL     1      14.445  -8.539 -30.871  1.00  0.00     0.130 A 
BRANCH  15  18
ATOM     18  O   UNL     1      13.216  -9.753 -27.600  1.00  0.00    -0.508 OA
ATOM     19  H   UNL     1      12.685  -9.291 -26.871  1.00  0.00     0.293 HD
ENDBRANCH  15  18
BRANCH  17  20
ATOM     20  O   UNL     1      14.256  -8.814 -32.225  1.00  0.00    -0.507 OA
ATOM     21  H   UNL     1      13.330  -8.901 -32.626  1.00  0.00     0.293 HD
ENDBRANCH  17  20
ENDBRANCH   1  12
BRANCH   2  22
ATOM     22  O   UNL     1      14.341  -5.197 -31.749  1.00  0.00    -0.502 OA
ATOM     23  H   UNL     1      14.024  -5.116 -30.791  1.00  0.00     0.293 HD
ENDBRANCH   2  22
BRANCH   6  24
ATOM     24  O   UNL     1      18.199  -3.797 -35.149  1.00  0.00    -0.507 OA
ATOM     25  H   UNL     1      18.767  -3.437 -35.901  1.00  0.00     0.293 HD
ENDBRANCH   6  24
BRANCH   8  26
ATOM     26  O   UNL     1      21.664  -6.814 -33.810  1.00  0.00    -0.508 OA
ATOM     27  H   UNL     1      22.163  -6.690 -34.683  1.00  0.00     0.293 HD
ENDBRANCH   8  26
TORSDOF 6
ENDMDL
MODEL 2
REMARK VINA RESULT:    -5.560      1.659      2.345
REMARK INTER + INTRA:          -7.091
REMARK INTER:                  -6.815
REMARK INTRA:                  -0.276
REMARK UNBOUND:                -0.393
REMARK SMILES O=c1c(O)c(-c2ccc(O)cc2O)oc2cc(O)cc(O)c12
REMARK SMILES IDX 5 1 3 2 2 3 1 4 22 5 20 6 19 7 17 8 16 9 15 10 14 11 6 12
REMARK SMILES IDX 8 13 7 14 9 15 11 16 12 17 10 18 13 20 4 22 21 24 18 26
REMARK H PARENT 10 19 13 21 4 23 21 25 18 27
REMARK Flexibility Score: inf
ROOT
ATOM      1  C   UNL     1      15.633  -7.230 -29.940  1.00  0.00     0.184 A 
ATOM      2  C   UNL     1      14.992  -5.982 -29.937  1.00  0.00     0.208 A 
ATOM      3  C   UNL     1      15.237  -5.087 -30.989  1.00  0.00     0.238 A 
ATOM      4  O   UNL     1      14.701  -3.949 -30.954  1.00  0.00    -0.285 OA
ATOM      5  C   UNL     1      16.109  -5.461 -32.041  1.00  0.00     0.111 A 
ATOM      6  C   UNL     1      16.401  -4.650 -33.179  1.00  0.00     0.134 A 
ATOM      7  C   UNL     1      17.379  -5.066 -34.091  1.00  0.00     0.093 A 
ATOM      8  C   UNL     1      18.027  -6.291 -33.943  1.00  0.00     0.123 A 
ATOM      9  C   UNL     1      17.709  -7.119 -32.866  1.00  0.00     0.094 A 
ATOM     10  C   UNL     1      16.764  -6.716 -31.919  1.00  0.00     0.146 A 
ATOM     11  O   UNL     1      16.496  -7.528 -30.903  1.00  0.00    -0.451 OA
ENDROOT
BRANCH   1  12
ATOM     12  C   UNL     1      15.404  -8.224 -28.871  1.00  0.00     0.063 A 
ATOM     13  C   UNL     1      16.306  -9.560 -27.050  1.00  0.00     0.047 A 
ATOM     14  C   UNL     1      16.486  -8.620 -28.067  1.00  0.00     0.020 A 
ATOM     15  C   UNL     1      15.045 -10.130 -26.834  1.00  0.00     0.119 A 
ATOM     16  C   UNL     1      13.968  -9.760 -27.644  1.00  0.00     0.093 A 
ATOM     17  C   UNL     1      14.141  -8.820 -28.671  1.00  0.00     0.130 A 
BRANCH  15  18
ATOM     18  O   UNL     1      14.853 -11.067 -25.821  1.00  0.00    -0.508 OA
ATOM     19  H   UNL     1      14.449 -10.806 -24.929  1.00  0.00     0.293 HD
ENDBRANCH  15  18
BRANCH  17  20
ATOM     20  O   UNL     1      13.070  -8.496 -29.504  1.00  0.00    -0.507 OA
ATOM     21  H   UNL     1      13.206  -8.269 -30.482  1.00  0.00     0.293 HD
ENDBRANCH  17  20
ENDBRANCH   1  12
BRANCH   2  22
ATOM     22  O   UNL     1      14.149  -5.633 -28.877  1.00  0.00    -0.502 OA
ATOM     23  H   UNL     1      14.234  -6.046 -27.957  1.00  0.00     0.293 HD
ENDBRANCH   2  22
BRANCH   6  24
ATOM     24  O   UNL     1      15.744  -3.451 -33.471  1.00  0.00    -0.507 OA
ATOM     25  H   UNL     1      15.456  -2.771 -32.784  1.00  0.00     0.293 HD
ENDBRANCH   6  24
BRANCH   8  26
ATOM     26  O   UNL     1      18.984  -6.680 -34.879  1.00  0.00    -0.508 OA
ATOM     27  H   UNL     1      19.047  -7.637 -35.205  1.00  0.00     0.293 HD
ENDBRANCH   8  26
TORSDOF 6
ENDMDL
MODEL 3
REMARK VINA RESULT:    -5.277      1.491      6.583
REMARK INTER + INTRA:          -6.750
REMARK INTER:                  -6.337
REMARK INTRA:                  -0.413
REMARK UNBOUND:                -0.393
REMARK SMILES O=c1c(O)c(-c2ccc(O)cc2O)oc2cc(O)cc(O)c12
REMARK SMILES IDX 5 1 3 2 2 3 1 4 22 5 20 6 19 7 17 8 16 9 15 10 14 11 6 12
REMARK SMILES IDX 8 13 7 14 9 15 11 16 12 17 10 18 13 20 4 22 21 24 18 26
REMARK H PARENT 10 19 13 21 4 23 21 25 18 27
REMARK Flexibility Score: inf
ROOT
ATOM      1  C   UNL     1      16.767  -6.869 -32.177  1.00  0.00     0.184 A 
ATOM      2  C   UNL     1      15.655  -7.123 -32.995  1.00  0.00     0.208 A 
ATOM      3  C   UNL     1      14.537  -7.768 -32.444  1.00  0.00     0.238 A 
ATOM      4  O   UNL     1      13.565  -8.042 -33.196  1.00  0.00    -0.285 OA
ATOM      5  C   UNL     1      14.540  -8.134 -31.076  1.00  0.00     0.111 A 
ATOM      6  C   UNL     1      13.447  -8.758 -30.401  1.00  0.00     0.134 A 
ATOM      7  C   UNL     1      13.609  -9.194 -29.081  1.00  0.00     0.093 A 
ATOM      8  C   UNL     1      14.799  -8.972 -28.390  1.00  0.00     0.123 A 
ATOM      9  C   UNL     1      15.854  -8.313 -29.020  1.00  0.00     0.094 A 
ATOM     10  C   UNL     1      15.737  -7.897 -30.349  1.00  0.00     0.146 A 
ATOM     11  O   UNL     1      16.768  -7.282 -30.916  1.00  0.00    -0.451 OA
ENDROOT
BRANCH   1  12
ATOM     12  C   UNL     1      17.968  -6.178 -32.691  1.00  0.00     0.063 A 
ATOM     13  C   UNL     1      20.212  -6.326 -33.614  1.00  0.00     0.047 A 
ATOM     14  C   UNL     1      19.060  -6.946 -33.127  1.00  0.00     0.020 A 
ATOM     15  C   UNL     1      20.294  -4.929 -33.657  1.00  0.00     0.119 A 
ATOM     16  C   UNL     1      19.222  -4.156 -33.203  1.00  0.00     0.093 A 
ATOM     17  C   UNL     1      18.062  -4.771 -32.708  1.00  0.00     0.130 A 
BRANCH  15  18
ATOM     18  O   UNL     1      21.438  -4.299 -34.144  1.00  0.00    -0.508 OA
ATOM     19  H   UNL     1      22.090  -3.832 -33.524  1.00  0.00     0.293 HD
ENDBRANCH  15  18
BRANCH  17  20
ATOM     20  O   UNL     1      17.019  -3.988 -32.213  1.00  0.00    -0.507 OA
ATOM     21  H   UNL     1      16.341  -3.555 -32.829  1.00  0.00     0.293 HD
ENDBRANCH  17  20
ENDBRANCH   1  12
BRANCH   2  22
ATOM     22  O   UNL     1      15.686  -6.766 -34.347  1.00  0.00    -0.502 OA
ATOM     23  H   UNL     1      15.490  -5.825 -34.664  1.00  0.00     0.293 HD
ENDBRANCH   2  22
BRANCH   6  24
ATOM     24  O   UNL     1      12.184  -8.944 -30.970  1.00  0.00    -0.507 OA
ATOM     25  H   UNL     1      11.542  -8.201 -31.202  1.00  0.00     0.293 HD
ENDBRANCH   6  24
BRANCH   8  26
ATOM     26  O   UNL     1      14.919  -9.406 -27.071  1.00  0.00    -0.508 OA
ATOM     27  H   UNL     1      14.109  -9.674 -26.525  1.00  0.00     0.293 HD
ENDBRANCH   8  26
TORSDOF 6
ENDMDL
MODEL 4
REMARK VINA RESULT:    -5.155      1.598      6.549
REMARK INTER + INTRA:          -6.603
REMARK INTER:                  -6.324
REMARK INTRA:                  -0.278
REMARK UNBOUND:                -0.393
REMARK SMILES O=c1c(O)c(-c2ccc(O)cc2O)oc2cc(O)cc(O)c12
REMARK SMILES IDX 5 1 3 2 2 3 1 4 22 5 20 6 19 7 17 8 16 9 15 10 14 11 6 12
REMARK SMILES IDX 8 13 7 14 9 15 11 16 12 17 10 18 13 20 4 22 21 24 18 26
REMARK H PARENT 10 19 13 21 4 23 21 25 18 27
REMARK Flexibility Score: inf
ROOT
ATOM      1  C   UNL     1      16.191  -6.421 -31.758  1.00  0.00     0.184 A 
ATOM      2  C   UNL     1      14.908  -5.872 -31.904  1.00  0.00     0.208 A 
ATOM      3  C   UNL     1      13.921  -6.186 -30.957  1.00  0.00     0.238 A 
ATOM      4  O   UNL     1      12.758  -5.734 -31.122  1.00  0.00    -0.285 OA
ATOM      5  C   UNL     1      14.237  -7.034 -29.867  1.00  0.00     0.111 A 
ATOM      6  C   UNL     1      13.327  -7.389 -28.826  1.00  0.00     0.134 A 
ATOM      7  C   UNL     1      13.709  -8.337 -27.869  1.00  0.00     0.093 A 
ATOM      8  C   UNL     1      14.986  -8.895 -27.877  1.00  0.00     0.123 A 
ATOM      9  C   UNL     1      15.904  -8.512 -28.855  1.00  0.00     0.094 A 
ATOM     10  C   UNL     1      15.542  -7.595 -29.845  1.00  0.00     0.146 A 
ATOM     11  O   UNL     1      16.441  -7.264 -30.764  1.00  0.00    -0.451 OA
ENDROOT
BRANCH   1  12
ATOM     12  C   UNL     1      17.279  -6.115 -32.710  1.00  0.00     0.063 A 
ATOM     13  C   UNL     1      18.866  -6.908 -34.374  1.00  0.00     0.047 A 
ATOM     14  C   UNL     1      17.833  -7.160 -33.469  1.00  0.00     0.020 A 
ATOM     15  C   UNL     1      19.370  -5.610 -34.522  1.00  0.00     0.119 A 
ATOM     16  C   UNL     1      18.842  -4.568 -33.755  1.00  0.00     0.093 A 
ATOM     17  C   UNL     1      17.808  -4.814 -32.839  1.00  0.00     0.130 A 
BRANCH  15  18
ATOM     18  O   UNL     1      20.398  -5.345 -35.425  1.00  0.00    -0.508 OA
ATOM     19  H   UNL     1      20.455  -5.825 -36.316  1.00  0.00     0.293 HD
ENDBRANCH  15  18
BRANCH  17  20
ATOM     20  O   UNL     1      17.323  -3.775 -32.044  1.00  0.00    -0.507 OA
ATOM     21  H   UNL     1      16.417  -3.354 -32.213  1.00  0.00     0.293 HD
ENDBRANCH  17  20
ENDBRANCH   1  12
BRANCH   2  22
ATOM     22  O   UNL     1      14.619  -5.052 -32.999  1.00  0.00    -0.502 OA
ATOM     23  H   UNL     1      15.104  -4.179 -33.167  1.00  0.00     0.293 HD
ENDBRANCH   2  22
BRANCH   6  24
ATOM     24  O   UNL     1      12.058  -6.822 -28.672  1.00  0.00    -0.507 OA
ATOM     25  H   UNL     1      11.806  -6.162 -27.952  1.00  0.00     0.293 HD
ENDBRANCH   6  24
BRANCH   8  26
ATOM     26  O   UNL     1      15.336  -9.825 -26.900  1.00  0.00    -0.508 OA
ATOM     27  H   UNL     1      15.641  -9.535 -25.978  1.00  0.00     0.293 HD
ENDBRANCH   8  26
TORSDOF 6
ENDMDL
MODEL 5
REMARK VINA RESULT:    -5.072      8.553     12.521
REMARK INTER + INTRA:          -6.503
REMARK INTER:                  -6.163
REMARK INTRA:                  -0.340
REMARK UNBOUND:                -0.393
REMARK SMILES O=c1c(O)c(-c2ccc(O)cc2O)oc2cc(O)cc(O)c12
REMARK SMILES IDX 5 1 3 2 2 3 1 4 22 5 20 6 19 7 17 8 16 9 15 10 14 11 6 12
REMARK SMILES IDX 8 13 7 14 9 15 11 16 12 17 10 18 13 20 4 22 21 24 18 26
REMARK H PARENT 10 19 13 21 4 23 21 25 18 27
REMARK Flexibility Score: inf
ROOT
ATOM      1  C   UNL     1      27.173  -3.397 -35.494  1.00  0.00     0.184 A 
ATOM      2  C   UNL     1      27.671  -2.875 -36.697  1.00  0.00     0.208 A 
ATOM      3  C   UNL     1      29.012  -2.464 -36.758  1.00  0.00     0.238 A 
ATOM      4  O   UNL     1      29.439  -1.946 -37.823  1.00  0.00    -0.285 OA
ATOM      5  C   UNL     1      29.841  -2.598 -35.617  1.00  0.00     0.111 A 
ATOM      6  C   UNL     1      31.225  -2.251 -35.576  1.00  0.00     0.134 A 
ATOM      7  C   UNL     1      31.914  -2.304 -34.358  1.00  0.00     0.093 A 
ATOM      8  C   UNL     1      31.289  -2.751 -33.196  1.00  0.00     0.123 A 
ATOM      9  C   UNL     1      29.952  -3.148 -33.236  1.00  0.00     0.094 A 
ATOM     10  C   UNL     1      29.227  -3.073 -34.428  1.00  0.00     0.146 A 
ATOM     11  O   UNL     1      27.954  -3.450 -34.422  1.00  0.00    -0.451 OA
ENDROOT
BRANCH   1  12
ATOM     12  C   UNL     1      25.776  -3.863 -35.369  1.00  0.00     0.063 A 
ATOM     13  C   UNL     1      24.015  -5.367 -36.111  1.00  0.00     0.047 A 
ATOM     14  C   UNL     1      25.330  -4.905 -36.199  1.00  0.00     0.020 A 
ATOM     15  C   UNL     1      23.124  -4.782 -35.203  1.00  0.00     0.119 A 
ATOM     16  C   UNL     1      23.552  -3.729 -34.390  1.00  0.00     0.093 A 
ATOM     17  C   UNL     1      24.870  -3.256 -34.475  1.00  0.00     0.130 A 
BRANCH  15  18
ATOM     18  O   UNL     1      21.810  -5.237 -35.104  1.00  0.00    -0.508 OA
ATOM     19  H   UNL     1      21.051  -4.771 -35.587  1.00  0.00     0.293 HD
ENDBRANCH  15  18
BRANCH  17  20
ATOM     20  O   UNL     1      25.271  -2.172 -33.693  1.00  0.00    -0.507 OA
ATOM     21  H   UNL     1      24.727  -1.319 -33.648  1.00  0.00     0.293 HD
ENDBRANCH  17  20
ENDBRANCH   1  12
BRANCH   2  22
ATOM     22  O   UNL     1      26.826  -2.737 -37.803  1.00  0.00    -0.502 OA
ATOM     23  H   UNL     1      27.002  -2.066 -38.541  1.00  0.00     0.293 HD
ENDBRANCH   2  22
BRANCH   6  24
ATOM     24  O   UNL     1      31.970  -1.880 -36.699  1.00  0.00    -0.507 OA
ATOM     25  H   UNL     1      31.590  -1.752 -37.625  1.00  0.00     0.293 HD
ENDBRANCH   6  24
BRANCH   8  26
ATOM     26  O   UNL     1      32.010  -2.805 -32.004  1.00  0.00    -0.508 OA
ATOM     27  H   UNL     1      33.016  -2.688 -31.988  1.00  0.00     0.293 HD
ENDBRANCH   8  26
TORSDOF 6
ENDMDL
MODEL 6
REMARK VINA RESULT:    -5.027      4.235      4.843
REMARK INTER + INTRA:          -6.449
REMARK INTER:                  -6.047
REMARK INTRA:                  -0.401
REMARK UNBOUND:                -0.393
REMARK SMILES O=c1c(O)c(-c2ccc(O)cc2O)oc2cc(O)cc(O)c12
REMARK SMILES IDX 5 1 3 2 2 3 1 4 22 5 20 6 19 7 17 8 16 9 15 10 14 11 6 12
REMARK SMILES IDX 8 13 7 14 9 15 11 16 12 17 10 18 13 20 4 22 21 24 18 26
REMARK H PARENT 10 19 13 21 4 23 21 25 18 27
REMARK Flexibility Score: inf
ROOT
ATOM      1  C   UNL     1      14.259  -7.821 -30.003  1.00  0.00     0.184 A 
ATOM      2  C   UNL     1      13.891  -6.467 -30.000  1.00  0.00     0.208 A 
ATOM      3  C   UNL     1      13.312  -5.916 -31.153  1.00  0.00     0.238 A 
ATOM      4  O   UNL     1      13.033  -4.688 -31.163  1.00  0.00    -0.285 OA
ATOM      5  C   UNL     1      13.092  -6.733 -32.289  1.00  0.00     0.111 A 
ATOM      6  C   UNL     1      12.476  -6.291 -33.499  1.00  0.00     0.134 A 
ATOM      7  C   UNL     1      12.428  -7.151 -34.603  1.00  0.00     0.093 A 
ATOM      8  C   UNL     1      12.915  -8.454 -34.523  1.00  0.00     0.123 A 
ATOM      9  C   UNL     1      13.467  -8.916 -33.328  1.00  0.00     0.094 A 
ATOM     10  C   UNL     1      13.561  -8.072 -32.219  1.00  0.00     0.146 A 
ATOM     11  O   UNL     1      14.103  -8.546 -31.103  1.00  0.00    -0.451 OA
ENDROOT
BRANCH   1  12
ATOM     12  C   UNL     1      14.858  -8.466 -28.816  1.00  0.00     0.063 A 
ATOM     13  C   UNL     1      16.772  -8.728 -27.339  1.00  0.00     0.047 A 
ATOM     14  C   UNL     1      16.173  -8.134 -28.452  1.00  0.00     0.020 A 
ATOM     15  C   UNL     1      16.068  -9.674 -26.584  1.00  0.00     0.119 A 
ATOM     16  C   UNL     1      14.768 -10.029 -26.952  1.00  0.00     0.093 A 
ATOM     17  C   UNL     1      14.161  -9.440 -28.072  1.00  0.00     0.130 A 
BRANCH  15  18
ATOM     18  O   UNL     1      16.654 -10.271 -25.469  1.00  0.00    -0.508 OA
ATOM     19  H   UNL     1      17.172 -11.138 -25.544  1.00  0.00     0.293 HD
ENDBRANCH  15  18
BRANCH  17  20
ATOM     20  O   UNL     1      12.880  -9.839 -28.457  1.00  0.00    -0.507 OA
ATOM     21  H   UNL     1      12.204 -10.178 -27.783  1.00  0.00     0.293 HD
ENDBRANCH  17  20
ENDBRANCH   1  12
BRANCH   2  22
ATOM     22  O   UNL     1      14.135  -5.679 -28.871  1.00  0.00    -0.502 OA
ATOM     23  H   UNL     1      13.508  -4.940 -28.579  1.00  0.00     0.293 HD
ENDBRANCH   2  22
BRANCH   6  24
ATOM     24  O   UNL     1      11.875  -5.039 -33.656  1.00  0.00    -0.507 OA
ATOM     25  H   UNL     1      11.285  -4.594 -32.969  1.00  0.00     0.293 HD
ENDBRANCH   6  24
BRANCH   8  26
ATOM     26  O   UNL     1      12.837  -9.287 -35.638  1.00  0.00    -0.508 OA
ATOM     27  H   UNL     1      13.640  -9.809 -35.966  1.00  0.00     0.293 HD
ENDBRANCH   8  26
TORSDOF 6
ENDMDL
MODEL 7
REMARK VINA RESULT:    -5.005      1.583      6.732
REMARK INTER + INTRA:          -6.423
REMARK INTER:                  -6.116
REMARK INTRA:                  -0.307
REMARK UNBOUND:                -0.393
REMARK SMILES O=c1c(O)c(-c2ccc(O)cc2O)oc2cc(O)cc(O)c12
REMARK SMILES IDX 5 1 3 2 2 3 1 4 22 5 20 6 19 7 17 8 16 9 15 10 14 11 6 12
REMARK SMILES IDX 8 13 7 14 9 15 11 16 12 17 10 18 13 20 4 22 21 24 18 26
REMARK H PARENT 10 19 13 21 4 23 21 25 18 27
REMARK Flexibility Score: inf
ROOT
ATOM      1  C   UNL     1      15.963  -7.407 -30.911  1.00  0.00     0.184 A 
ATOM      2  C   UNL     1      14.675  -7.895 -31.181  1.00  0.00     0.208 A 
ATOM      3  C   UNL     1      14.029  -8.682 -30.215  1.00  0.00     0.238 A 
ATOM      4  O   UNL     1      12.897  -9.162 -30.484  1.00  0.00    -0.285 OA
ATOM      5  C   UNL     1      14.675  -8.955 -28.984  1.00  0.00     0.111 A 
ATOM      6  C   UNL     1      14.099  -9.709 -27.917  1.00  0.00     0.134 A 
ATOM      7  C   UNL     1      14.879 -10.027 -26.798  1.00  0.00     0.093 A 
ATOM      8  C   UNL     1      16.188  -9.566 -26.678  1.00  0.00     0.123 A 
ATOM      9  C   UNL     1      16.743  -8.781 -27.688  1.00  0.00     0.094 A 
ATOM     10  C   UNL     1      16.003  -8.476 -28.834  1.00  0.00     0.146 A 
ATOM     11  O   UNL     1      16.570  -7.734 -29.778  1.00  0.00    -0.451 OA
ENDROOT
BRANCH   1  12
ATOM     12  C   UNL     1      16.690  -6.559 -31.879  1.00  0.00     0.063 A 
ATOM     13  C   UNL     1      18.551  -6.296 -33.421  1.00  0.00     0.047 A 
ATOM     14  C   UNL     1      17.837  -7.072 -32.505  1.00  0.00     0.020 A 
ATOM     15  C   UNL     1      18.137  -4.991 -33.710  1.00  0.00     0.119 A 
ATOM     16  C   UNL     1      17.011  -4.463 -33.074  1.00  0.00     0.093 A 
ATOM     17  C   UNL     1      16.290  -5.234 -32.149  1.00  0.00     0.130 A 
BRANCH  15  18
ATOM     18  O   UNL     1      18.839  -4.208 -34.625  1.00  0.00    -0.508 OA
ATOM     19  H   UNL     1      19.326  -4.622 -35.411  1.00  0.00     0.293 HD
ENDBRANCH  15  18
BRANCH  17  20
ATOM     20  O   UNL     1      15.197  -4.678 -31.484  1.00  0.00    -0.507 OA
ATOM     21  H   UNL     1      14.672  -5.202 -30.794  1.00  0.00     0.293 HD
ENDBRANCH  17  20
ENDBRANCH   1  12
BRANCH   2  22
ATOM     22  O   UNL     1      14.068  -7.624 -32.411  1.00  0.00    -0.502 OA
ATOM     23  H   UNL     1      14.495  -7.877 -33.294  1.00  0.00     0.293 HD
ENDBRANCH   2  22
BRANCH   6  24
ATOM     24  O   UNL     1      12.770 -10.140 -27.895  1.00  0.00    -0.507 OA
ATOM     25  H   UNL     1      12.290 -10.485 -27.077  1.00  0.00     0.293 HD
ENDBRANCH   6  24
BRANCH   8  26
ATOM     26  O   UNL     1      16.929  -9.889 -25.543  1.00  0.00    -0.508 OA
ATOM     27  H   UNL     1      16.567  -9.730 -24.610  1.00  0.00     0.293 HD
ENDBRANCH   8  26
TORSDOF 6
ENDMDL
MODEL 8
REMARK VINA RESULT:    -4.559      4.811      8.151
REMARK INTER + INTRA:          -5.885
REMARK INTER:                  -5.483
REMARK INTRA:                  -0.401
REMARK UNBOUND:                -0.393
REMARK SMILES O=c1c(O)c(-c2ccc(O)cc2O)oc2cc(O)cc(O)c12
REMARK SMILES IDX 5 1 3 2 2 3 1 4 22 5 20 6 19 7 17 8 16 9 15 10 14 11 6 12
REMARK SMILES IDX 8 13 7 14 9 15 11 16 12 17 10 18 13 20 4 22 21 24 18 26
REMARK H PARENT 10 19 13 21 4 23 21 25 18 27
REMARK Flexibility Score: inf
ROOT
ATOM      1  C   UNL     1      22.607  -4.161 -35.080  1.00  0.00     0.184 A 
ATOM      2  C   UNL     1      22.821  -3.949 -36.450  1.00  0.00     0.208 A 
ATOM      3  C   UNL     1      24.121  -3.673 -36.902  1.00  0.00     0.238 A 
ATOM      4  O   UNL     1      24.299  -3.431 -38.125  1.00  0.00    -0.285 OA
ATOM      5  C   UNL     1      25.192  -3.630 -35.977  1.00  0.00     0.111 A 
ATOM      6  C   UNL     1      26.557  -3.398 -36.327  1.00  0.00     0.134 A 
ATOM      7  C   UNL     1      27.513  -3.247 -35.316  1.00  0.00     0.093 A 
ATOM      8  C   UNL     1      27.168  -3.383 -33.972  1.00  0.00     0.123 A 
ATOM      9  C   UNL     1      25.849  -3.667 -33.620  1.00  0.00     0.094 A 
ATOM     10  C   UNL     1      24.864  -3.788 -34.604  1.00  0.00     0.146 A 
ATOM     11  O   UNL     1      23.618  -4.049 -34.228  1.00  0.00    -0.451 OA
ENDROOT
BRANCH   1  12
ATOM     12  C   UNL     1      21.266  -4.472 -34.542  1.00  0.00     0.063 A 
ATOM     13  C   UNL     1      19.017  -3.719 -34.007  1.00  0.00     0.047 A 
ATOM     14  C   UNL     1      20.293  -3.460 -34.513  1.00  0.00     0.020 A 
ATOM     15  C   UNL     1      18.703  -4.989 -33.509  1.00  0.00     0.119 A 
ATOM     16  C   UNL     1      19.672  -5.995 -33.512  1.00  0.00     0.093 A 
ATOM     17  C   UNL     1      20.958  -5.743 -34.014  1.00  0.00     0.130 A 
BRANCH  15  18
ATOM     18  O   UNL     1      17.432  -5.260 -33.006  1.00  0.00    -0.508 OA
ATOM     19  H   UNL     1      17.174  -5.011 -32.058  1.00  0.00     0.293 HD
ENDBRANCH  15  18
BRANCH  17  20
ATOM     20  O   UNL     1      21.930  -6.742 -33.966  1.00  0.00    -0.507 OA
ATOM     21  H   UNL     1      22.918  -6.525 -34.026  1.00  0.00     0.293 HD
ENDBRANCH  17  20
ENDBRANCH   1  12
BRANCH   2  22
ATOM     22  O   UNL     1      21.743  -3.980 -37.340  1.00  0.00    -0.502 OA
ATOM     23  H   UNL     1      20.871  -4.446 -37.119  1.00  0.00     0.293 HD
ENDBRANCH   2  22
BRANCH   6  24
ATOM     24  O   UNL     1      27.025  -3.336 -37.643  1.00  0.00    -0.507 OA
ATOM     25  H   UNL     1      26.550  -3.730 -38.441  1.00  0.00     0.293 HD
ENDBRANCH   6  24
BRANCH   8  26
ATOM     26  O   UNL     1      28.150  -3.242 -32.993  1.00  0.00    -0.508 OA
ATOM     27  H   UNL     1      28.430  -4.019 -32.407  1.00  0.00     0.293 HD
ENDBRANCH   8  26
TORSDOF 6
ENDMDL
MODEL 9
REMARK VINA RESULT:    -4.512      1.812      2.248
REMARK INTER + INTRA:          -5.829
REMARK INTER:                  -5.418
REMARK INTRA:                  -0.411
REMARK UNBOUND:                -0.393
REMARK SMILES O=c1c(O)c(-c2ccc(O)cc2O)oc2cc(O)cc(O)c12
REMARK SMILES IDX 5 1 3 2 2 3 1 4 22 5 20 6 19 7 17 8 16 9 15 10 14 11 6 12
REMARK SMILES IDX 8 13 7 14 9 15 11 16 12 17 10 18 13 20 4 22 21 24 18 26
REMARK H PARENT 10 19 13 21 4 23 21 25 18 27
REMARK Flexibility Score: inf
ROOT
ATOM      1  C   UNL     1      16.258  -6.538 -32.243  1.00  0.00     0.184 A 
ATOM      2  C   UNL     1      15.930  -6.930 -33.550  1.00  0.00     0.208 A 
ATOM      3  C   UNL     1      16.791  -6.581 -34.602  1.00  0.00     0.238 A 
ATOM      4  O   UNL     1      16.466  -6.888 -35.779  1.00  0.00    -0.285 OA
ATOM      5  C   UNL     1      17.978  -5.858 -34.329  1.00  0.00     0.111 A 
ATOM      6  C   UNL     1      18.944  -5.484 -35.311  1.00  0.00     0.134 A 
ATOM      7  C   UNL     1      20.014  -4.658 -34.948  1.00  0.00     0.093 A 
ATOM      8  C   UNL     1      20.190  -4.245 -33.628  1.00  0.00     0.123 A 
ATOM      9  C   UNL     1      19.285  -4.652 -32.648  1.00  0.00     0.094 A 
ATOM     10  C   UNL     1      18.186  -5.447 -32.985  1.00  0.00     0.146 A 
ATOM     11  O   UNL     1      17.342  -5.805 -32.025  1.00  0.00    -0.451 OA
ENDROOT
BRANCH   1  12
ATOM     12  C   UNL     1      15.403  -6.889 -31.090  1.00  0.00     0.063 A 
ATOM     13  C   UNL     1      14.829  -8.473 -29.337  1.00  0.00     0.047 A 
ATOM     14  C   UNL     1      15.621  -8.108 -30.427  1.00  0.00     0.020 A 
ATOM     15  C   UNL     1      13.797  -7.631 -28.905  1.00  0.00     0.119 A 
ATOM     16  C   UNL     1      13.556  -6.428 -29.573  1.00  0.00     0.093 A 
ATOM     17  C   UNL     1      14.344  -6.056 -30.673  1.00  0.00     0.130 A 
BRANCH  15  18
ATOM     18  O   UNL     1      13.002  -7.984 -27.816  1.00  0.00    -0.508 OA
ATOM     19  H   UNL     1      12.011  -7.773 -27.794  1.00  0.00     0.293 HD
ENDBRANCH  15  18
BRANCH  17  20
ATOM     20  O   UNL     1      14.063  -4.875 -31.361  1.00  0.00    -0.507 OA
ATOM     21  H   UNL     1      13.141  -4.686 -31.736  1.00  0.00     0.293 HD
ENDBRANCH  17  20
ENDBRANCH   1  12
BRANCH   2  22
ATOM     22  O   UNL     1      14.744  -7.628 -33.794  1.00  0.00    -0.502 OA
ATOM     23  H   UNL     1      14.282  -8.181 -33.082  1.00  0.00     0.293 HD
ENDBRANCH   2  22
BRANCH   6  24
ATOM     24  O   UNL     1      18.913  -5.917 -36.640  1.00  0.00    -0.507 OA
ATOM     25  H   UNL     1      18.260  -5.591 -37.336  1.00  0.00     0.293 HD
ENDBRANCH   6  24
BRANCH   8  26
ATOM     26  O   UNL     1      21.276  -3.436 -33.300  1.00  0.00    -0.508 OA
ATOM     27  H   UNL     1      21.209  -2.725 -32.581  1.00  0.00     0.293 HD
ENDBRANCH   8  26
TORSDOF 6
ENDMDL
