MODEL 1
REMARK VINA RESULT:    -3.750      0.000      0.000
REMARK INTER + INTRA:         -15.250
REMARK INTER:                  -9.887
REMARK INTRA:                  -5.363
REMARK UNBOUND:                -5.363
REMARK SMILES CCCCCCCCCCCCCCCCCCCCCCCCCCCCCC(=O)[O-]
REMARK SMILES IDX 16 1 17 2 18 3 19 4 20 5 21 6 22 7 23 8 24 9 25 10 26 11
REMARK SMILES IDX 27 12 28 13 29 14 30 15 31 16 32 17 15 18 14 19 13 20 12 21
REMARK SMILES IDX 11 22 10 23 9 24 8 25 7 26 6 27 5 28 4 29 3 30 2 31 1 32
REMARK H PARENT
REMARK Flexibility Score: inf
ROOT
ATOM      1  C   UNL     1      23.139  -5.534 -28.140  1.00  0.00     0.000 C 
ENDROOT
BRANCH   1   2
ATOM      2  C   UNL     1      23.384  -6.260 -26.807  1.00  0.00     0.000 C 
BRANCH   2   3
ATOM      3  C   UNL     1      23.774  -7.746 -26.930  1.00  0.00     0.000 C 
BRANCH   3   4
ATOM      4  C   UNL     1      23.608  -8.330 -28.348  1.00  0.00     0.000 C 
BRANCH   4   5
ATOM      5  C   UNL     1      24.879  -9.039 -28.853  1.00  0.00     0.000 C 
BRANCH   5   6
ATOM      6  C   UNL     1      25.972  -8.055 -29.295  1.00  0.00     0.000 C 
BRANCH   6   7
ATOM      7  C   UNL     1      25.691  -7.436 -30.677  1.00  0.00     0.000 C 
BRANCH   7   8
ATOM      8  C   UNL     1      25.558  -5.904 -30.626  1.00  0.00     0.000 C 
BRANCH   8   9
ATOM      9  C   UNL     1      26.913  -5.198 -30.478  1.00  0.00     0.000 C 
BRANCH   9  10
ATOM     10  C   UNL     1      26.735  -3.685 -30.294  1.00  0.00     0.000 C 
BRANCH  10  11
ATOM     11  C   UNL     1      26.994  -3.279 -28.834  1.00  0.00     0.000 C 
BRANCH  11  12
ATOM     12  C   UNL     1      26.779  -1.780 -28.583  1.00  0.00     0.000 C 
BRANCH  12  13
ATOM     13  C   UNL     1      26.260  -1.482 -27.167  1.00  0.00     0.006 C 
BRANCH  13  14
ATOM     14  C   UNL     1      27.019  -2.307 -26.121  1.00  0.00     0.053 C 
BRANCH  14  15
ATOM     15  C   UNL     1      26.104  -2.769 -25.027  1.00  0.00     0.041 C 
ATOM     16  O   UNL     1      24.920  -3.114 -25.289  1.00  0.00    -0.550 OA
ATOM     17  O   UNL     1      26.569  -2.844 -23.718  1.00  0.00    -0.550 OA
ENDBRANCH  14  15
ENDBRANCH  13  14
ENDBRANCH  12  13
ENDBRANCH  11  12
ENDBRANCH  10  11
ENDBRANCH   9  10
ENDBRANCH   8   9
ENDBRANCH   7   8
ENDBRANCH   6   7
ENDBRANCH   5   6
ENDBRANCH   4   5
ENDBRANCH   3   4
ENDBRANCH   2   3
ENDBRANCH   1   2
BRANCH   1  18
ATOM     18  C   UNL     1      23.635  -4.079 -28.129  1.00  0.00     0.000 C 
BRANCH  18  19
ATOM     19  C   UNL     1      23.162  -3.324 -29.381  1.00  0.00     0.000 C 
BRANCH  19  20
ATOM     20  C   UNL     1      23.045  -1.808 -29.146  1.00  0.00     0.000 C 
BRANCH  20  21
ATOM     21  C   UNL     1      22.976  -1.008 -30.458  1.00  0.00     0.000 C 
BRANCH  21  22
ATOM     22  C   UNL     1      24.112  -1.366 -31.432  1.00  0.00     0.000 C 
BRANCH  22  23
ATOM     23  C   UNL     1      23.697  -1.243 -32.908  1.00  0.00     0.000 C 
BRANCH  23  24
ATOM     24  C   UNL     1      22.172  -1.252 -33.093  1.00  0.00    -0.000 C 
BRANCH  24  25
ATOM     25  C   UNL     1      21.649  -2.580 -33.668  1.00  0.00    -0.000 C 
BRANCH  25  26
ATOM     26  C   UNL     1      21.785  -3.753 -32.679  1.00  0.00    -0.000 C 
BRANCH  26  27
ATOM     27  C   UNL     1      20.503  -4.582 -32.482  1.00  0.00    -0.000 C 
BRANCH  27  28
ATOM     28  C   UNL     1      20.558  -5.488 -31.240  1.00  0.00    -0.000 C 
BRANCH  28  29
ATOM     29  C   UNL     1      21.883  -6.273 -31.144  1.00  0.00    -0.000 C 
BRANCH  29  30
ATOM     30  C   UNL     1      21.701  -7.798 -31.025  1.00  0.00    -0.000 C 
BRANCH  30  31
ATOM     31  C   UNL     1      22.145  -8.585 -32.274  1.00  0.00    -0.003 C 
ATOM     32  C   UNL     1      23.061  -7.773 -33.191  1.00  0.00     0.004 C 
ENDBRANCH  30  31
ENDBRANCH  29  30
ENDBRANCH  28  29
ENDBRANCH  27  28
ENDBRANCH  26  27
ENDBRANCH  25  26
ENDBRANCH  24  25
ENDBRANCH  23  24
ENDBRANCH  22  23
ENDBRANCH  21  22
ENDBRANCH  20  21
ENDBRANCH  19  20
ENDBRANCH  18  19
ENDBRANCH   1  18
TORSDOF 28
ENDMDL
MODEL 2
REMARK VINA RESULT:    -3.642      1.671      5.644
REMARK INTER + INTRA:         -14.967
REMARK INTER:                  -9.230
REMARK INTRA:                  -5.737
REMARK UNBOUND:                -5.363
REMARK SMILES CCCCCCCCCCCCCCCCCCCCCCCCCCCCCC(=O)[O-]
REMARK SMILES IDX 16 1 17 2 18 3 19 4 20 5 21 6 22 7 23 8 24 9 25 10 26 11
REMARK SMILES IDX 27 12 28 13 29 14 30 15 31 16 32 17 15 18 14 19 13 20 12 21
REMARK SMILES IDX 11 22 10 23 9 24 8 25 7 26 6 27 5 28 4 29 3 30 2 31 1 32
REMARK H PARENT
REMARK Flexibility Score: inf
ROOT
ATOM      1  C   UNL     1      24.746  -2.398 -26.571  1.00  0.00     0.000 C 
ENDROOT
BRANCH   1   2
ATOM      2  C   UNL     1      24.403  -3.603 -27.462  1.00  0.00     0.000 C 
BRANCH   2   3
ATOM      3  C   UNL     1      23.628  -3.268 -28.751  1.00  0.00     0.000 C 
BRANCH   3   4
ATOM      4  C   UNL     1      23.530  -1.759 -29.058  1.00  0.00     0.000 C 
BRANCH   4   5
ATOM      5  C   UNL     1      22.639  -1.455 -30.278  1.00  0.00     0.000 C 
BRANCH   5   6
ATOM      6  C   UNL     1      23.129  -2.149 -31.558  1.00  0.00     0.000 C 
BRANCH   6   7
ATOM      7  C   UNL     1      22.180  -3.267 -32.028  1.00  0.00     0.000 C 
BRANCH   7   8
ATOM      8  C   UNL     1      22.917  -4.409 -32.748  1.00  0.00     0.000 C 
BRANCH   8   9
ATOM      9  C   UNL     1      22.304  -5.786 -32.454  1.00  0.00     0.000 C 
BRANCH   9  10
ATOM     10  C   UNL     1      22.021  -5.961 -30.957  1.00  0.00     0.000 C 
BRANCH  10  11
ATOM     11  C   UNL     1      21.843  -7.448 -30.606  1.00  0.00     0.000 C 
BRANCH  11  12
ATOM     12  C   UNL     1      22.904  -7.963 -29.623  1.00  0.00     0.000 C 
BRANCH  12  13
ATOM     13  C   UNL     1      23.281  -6.924 -28.555  1.00  0.00     0.006 C 
BRANCH  13  14
ATOM     14  C   UNL     1      23.646  -7.606 -27.232  1.00  0.00     0.053 C 
BRANCH  14  15
ATOM     15  C   UNL     1      23.227  -6.774 -26.058  1.00  0.00     0.041 C 
ATOM     16  O   UNL     1      22.004  -6.563 -25.830  1.00  0.00    -0.550 OA
ATOM     17  O   UNL     1      24.186  -6.252 -25.198  1.00  0.00    -0.550 OA
ENDBRANCH  14  15
ENDBRANCH  13  14
ENDBRANCH  12  13
ENDBRANCH  11  12
ENDBRANCH  10  11
ENDBRANCH   9  10
ENDBRANCH   8   9
ENDBRANCH   7   8
ENDBRANCH   6   7
ENDBRANCH   5   6
ENDBRANCH   4   5
ENDBRANCH   3   4
ENDBRANCH   2   3
ENDBRANCH   1   2
BRANCH   1  18
ATOM     18  C   UNL     1      26.234  -2.341 -26.188  1.00  0.00     0.000 C 
BRANCH  18  19
ATOM     19  C   UNL     1      26.992  -1.331 -27.064  1.00  0.00     0.000 C 
BRANCH  19  20
ATOM     20  C   UNL     1      27.984  -2.011 -28.023  1.00  0.00     0.000 C 
BRANCH  20  21
ATOM     21  C   UNL     1      27.350  -2.366 -29.379  1.00  0.00     0.000 C 
BRANCH  21  22
ATOM     22  C   UNL     1      27.517  -3.852 -29.741  1.00  0.00     0.000 C 
BRANCH  22  23
ATOM     23  C   UNL     1      26.486  -4.336 -30.775  1.00  0.00     0.000 C 
BRANCH  23  24
ATOM     24  C   UNL     1      25.867  -5.691 -30.398  1.00  0.00    -0.000 C 
BRANCH  24  25
ATOM     25  C   UNL     1      25.741  -6.644 -31.599  1.00  0.00    -0.000 C 
BRANCH  25  26
ATOM     26  C   UNL     1      26.267  -8.059 -31.297  1.00  0.00    -0.000 C 
BRANCH  26  27
ATOM     27  C   UNL     1      26.646  -8.305 -29.825  1.00  0.00    -0.000 C 
BRANCH  27  28
ATOM     28  C   UNL     1      26.787  -9.799 -29.483  1.00  0.00    -0.000 C 
BRANCH  28  29
ATOM     29  C   UNL     1      25.742 -10.265 -28.448  1.00  0.00    -0.000 C 
BRANCH  29  30
ATOM     30  C   UNL     1      25.065 -11.603 -28.801  1.00  0.00    -0.000 C 
BRANCH  30  31
ATOM     31  C   UNL     1      23.747 -11.455 -29.588  1.00  0.00    -0.003 C 
ATOM     32  C   UNL     1      23.973 -11.173 -31.074  1.00  0.00     0.004 C 
ENDBRANCH  30  31
ENDBRANCH  29  30
ENDBRANCH  28  29
ENDBRANCH  27  28
ENDBRANCH  26  27
ENDBRANCH  25  26
ENDBRANCH  24  25
ENDBRANCH  23  24
ENDBRANCH  22  23
ENDBRANCH  21  22
ENDBRANCH  20  21
ENDBRANCH  19  20
ENDBRANCH  18  19
ENDBRANCH   1  18
TORSDOF 28
ENDMDL
MODEL 3
REMARK VINA RESULT:    -3.543      3.198      5.905
REMARK INTER + INTRA:         -14.707
REMARK INTER:                  -8.685
REMARK INTRA:                  -6.022
REMARK UNBOUND:                -5.363
REMARK SMILES CCCCCCCCCCCCCCCCCCCCCCCCCCCCCC(=O)[O-]
REMARK SMILES IDX 16 1 17 2 18 3 19 4 20 5 21 6 22 7 23 8 24 9 25 10 26 11
REMARK SMILES IDX 27 12 28 13 29 14 30 15 31 16 32 17 15 18 14 19 13 20 12 21
REMARK SMILES IDX 11 22 10 23 9 24 8 25 7 26 6 27 5 28 4 29 3 30 2 31 1 32
REMARK H PARENT
REMARK Flexibility Score: inf
ROOT
ATOM      1  C   UNL     1      24.024  -4.028 -27.642  1.00  0.00     0.000 C 
ENDROOT
BRANCH   1   2
ATOM      2  C   UNL     1      23.261  -5.357 -27.778  1.00  0.00     0.000 C 
BRANCH   2   3
ATOM      3  C   UNL     1      23.156  -6.190 -26.486  1.00  0.00     0.000 C 
BRANCH   3   4
ATOM      4  C   UNL     1      23.509  -7.682 -26.662  1.00  0.00     0.000 C 
BRANCH   4   5
ATOM      5  C   UNL     1      23.751  -8.067 -28.134  1.00  0.00     0.000 C 
BRANCH   5   6
ATOM      6  C   UNL     1      24.878  -9.097 -28.301  1.00  0.00     0.000 C 
BRANCH   6   7
ATOM      7  C   UNL     1      25.908  -8.683 -29.369  1.00  0.00     0.000 C 
BRANCH   7   8
ATOM      8  C   UNL     1      25.558  -7.346 -30.044  1.00  0.00     0.000 C 
BRANCH   8   9
ATOM      9  C   UNL     1      25.658  -7.414 -31.575  1.00  0.00     0.000 C 
BRANCH   9  10
ATOM     10  C   UNL     1      24.661  -6.457 -32.241  1.00  0.00     0.000 C 
BRANCH  10  11
ATOM     11  C   UNL     1      23.441  -6.224 -31.335  1.00  0.00     0.000 C 
BRANCH  11  12
ATOM     12  C   UNL     1      22.159  -6.868 -31.881  1.00  0.00     0.000 C 
BRANCH  12  13
ATOM     13  C   UNL     1      21.604  -7.965 -30.958  1.00  0.00     0.006 C 
BRANCH  13  14
ATOM     14  C   UNL     1      22.185  -9.335 -31.325  1.00  0.00     0.053 C 
BRANCH  14  15
ATOM     15  C   UNL     1      21.132 -10.239 -31.889  1.00  0.00     0.041 C 
ATOM     16  O   UNL     1      20.627 -10.001 -33.020  1.00  0.00    -0.550 OA
ATOM     17  O   UNL     1      20.726 -11.363 -31.177  1.00  0.00    -0.550 OA
ENDBRANCH  14  15
ENDBRANCH  13  14
ENDBRANCH  12  13
ENDBRANCH  11  12
ENDBRANCH  10  11
ENDBRANCH   9  10
ENDBRANCH   8   9
ENDBRANCH   7   8
ENDBRANCH   6   7
ENDBRANCH   5   6
ENDBRANCH   4   5
ENDBRANCH   3   4
ENDBRANCH   2   3
ENDBRANCH   1   2
BRANCH   1  18
ATOM     18  C   UNL     1      24.599  -3.809 -26.234  1.00  0.00     0.000 C 
BRANCH  18  19
ATOM     19  C   UNL     1      25.461  -2.538 -26.180  1.00  0.00     0.000 C 
BRANCH  19  20
ATOM     20  C   UNL     1      25.199  -1.597 -27.369  1.00  0.00     0.000 C 
BRANCH  20  21
ATOM     21  C   UNL     1      26.496  -1.127 -28.049  1.00  0.00     0.000 C 
BRANCH  21  22
ATOM     22  C   UNL     1      27.597  -2.200 -28.035  1.00  0.00     0.000 C 
BRANCH  22  23
ATOM     23  C   UNL     1      27.852  -2.816 -29.421  1.00  0.00     0.000 C 
BRANCH  23  24
ATOM     24  C   UNL     1      26.788  -3.855 -29.808  1.00  0.00    -0.000 C 
BRANCH  24  25
ATOM     25  C   UNL     1      25.996  -3.456 -31.066  1.00  0.00    -0.000 C 
BRANCH  25  26
ATOM     26  C   UNL     1      26.355  -2.048 -31.575  1.00  0.00    -0.000 C 
BRANCH  26  27
ATOM     27  C   UNL     1      25.519  -1.564 -32.774  1.00  0.00    -0.000 C 
BRANCH  27  28
ATOM     28  C   UNL     1      24.421  -2.561 -33.183  1.00  0.00    -0.000 C 
BRANCH  28  29
ATOM     29  C   UNL     1      23.003  -2.020 -32.902  1.00  0.00    -0.000 C 
BRANCH  29  30
ATOM     30  C   UNL     1      22.131  -2.960 -32.049  1.00  0.00    -0.000 C 
BRANCH  30  31
ATOM     31  C   UNL     1      22.273  -2.745 -30.529  1.00  0.00    -0.003 C 
ATOM     32  C   UNL     1      22.682  -1.316 -30.168  1.00  0.00     0.004 C 
ENDBRANCH  30  31
ENDBRANCH  29  30
ENDBRANCH  28  29
ENDBRANCH  27  28
ENDBRANCH  26  27
ENDBRANCH  25  26
ENDBRANCH  24  25
ENDBRANCH  23  24
ENDBRANCH  22  23
ENDBRANCH  21  22
ENDBRANCH  20  21
ENDBRANCH  19  20
ENDBRANCH  18  19
ENDBRANCH   1  18
TORSDOF 28
ENDMDL
MODEL 4
REMARK VINA RESULT:    -3.479     15.761     19.151
REMARK INTER + INTRA:         -14.538
REMARK INTER:                 -10.370
REMARK INTRA:                  -4.168
REMARK UNBOUND:                -5.363
REMARK SMILES CCCCCCCCCCCCCCCCCCCCCCCCCCCCCC(=O)[O-]
REMARK SMILES IDX 16 1 17 2 18 3 19 4 20 5 21 6 22 7 23 8 24 9 25 10 26 11
REMARK SMILES IDX 27 12 28 13 29 14 30 15 31 16 32 17 15 18 14 19 13 20 12 21
REMARK SMILES IDX 11 22 10 23 9 24 8 25 7 26 6 27 5 28 4 29 3 30 2 31 1 32
REMARK H PARENT
REMARK Flexibility Score: inf
ROOT
ATOM      1  C   UNL     1      10.396 -16.731 -25.453  1.00  0.00     0.000 C 
ENDROOT
BRANCH   1   2
ATOM      2  C   UNL     1      11.660 -16.953 -24.606  1.00  0.00     0.000 C 
BRANCH   2   3
ATOM      3  C   UNL     1      11.462 -17.809 -23.340  1.00  0.00     0.000 C 
BRANCH   3   4
ATOM      4  C   UNL     1      10.988 -19.251 -23.618  1.00  0.00     0.000 C 
BRANCH   4   5
ATOM      5  C   UNL     1       9.684 -19.603 -22.876  1.00  0.00     0.000 C 
BRANCH   5   6
ATOM      6  C   UNL     1       8.431 -19.375 -23.735  1.00  0.00     0.000 C 
BRANCH   6   7
ATOM      7  C   UNL     1       8.401 -20.269 -24.989  1.00  0.00     0.000 C 
BRANCH   7   8
ATOM      8  C   UNL     1       8.244 -19.463 -26.290  1.00  0.00     0.000 C 
BRANCH   8   9
ATOM      9  C   UNL     1       9.105 -20.015 -27.435  1.00  0.00     0.000 C 
BRANCH   9  10
ATOM     10  C   UNL     1      10.393 -20.658 -26.903  1.00  0.00     0.000 C 
BRANCH  10  11
ATOM     11  C   UNL     1      11.611 -19.772 -27.211  1.00  0.00     0.000 C 
BRANCH  11  12
ATOM     12  C   UNL     1      11.636 -19.271 -28.662  1.00  0.00     0.000 C 
BRANCH  12  13
ATOM     13  C   UNL     1      11.821 -17.748 -28.764  1.00  0.00     0.006 C 
BRANCH  13  14
ATOM     14  C   UNL     1      13.082 -17.299 -28.016  1.00  0.00     0.053 C 
BRANCH  14  15
ATOM     15  C   UNL     1      14.323 -17.727 -28.737  1.00  0.00     0.041 C 
ATOM     16  O   UNL     1      14.843 -18.851 -28.501  1.00  0.00    -0.550 OA
ATOM     17  O   UNL     1      14.893 -16.894 -29.694  1.00  0.00    -0.550 OA
ENDBRANCH  14  15
ENDBRANCH  13  14
ENDBRANCH  12  13
ENDBRANCH  11  12
ENDBRANCH  10  11
ENDBRANCH   9  10
ENDBRANCH   8   9
ENDBRANCH   7   8
ENDBRANCH   6   7
ENDBRANCH   5   6
ENDBRANCH   4   5
ENDBRANCH   3   4
ENDBRANCH   2   3
ENDBRANCH   1   2
BRANCH   1  18
ATOM     18  C   UNL     1       9.617 -15.470 -25.046  1.00  0.00     0.000 C 
BRANCH  18  19
ATOM     19  C   UNL     1       8.389 -15.830 -24.194  1.00  0.00     0.000 C 
BRANCH  19  20
ATOM     20  C   UNL     1       8.332 -15.036 -22.878  1.00  0.00     0.000 C 
BRANCH  20  21
ATOM     21  C   UNL     1       9.457 -15.422 -21.903  1.00  0.00     0.000 C 
BRANCH  21  22
ATOM     22  C   UNL     1      10.597 -14.390 -21.873  1.00  0.00     0.000 C 
BRANCH  22  23
ATOM     23  C   UNL     1      10.091 -12.938 -21.921  1.00  0.00     0.000 C 
BRANCH  23  24
ATOM     24  C   UNL     1      10.540 -12.200 -23.192  1.00  0.00    -0.000 C 
BRANCH  24  25
ATOM     25  C   UNL     1       9.357 -11.703 -24.041  1.00  0.00    -0.000 C 
BRANCH  25  26
ATOM     26  C   UNL     1       9.781 -10.692 -25.122  1.00  0.00    -0.000 C 
BRANCH  26  27
ATOM     27  C   UNL     1       9.535  -9.217 -24.756  1.00  0.00    -0.000 C 
BRANCH  27  28
ATOM     28  C   UNL     1       8.660  -8.480 -25.786  1.00  0.00    -0.000 C 
BRANCH  28  29
ATOM     29  C   UNL     1       9.375  -7.255 -26.394  1.00  0.00    -0.000 C 
BRANCH  29  30
ATOM     30  C   UNL     1       8.639  -6.632 -27.595  1.00  0.00    -0.000 C 
BRANCH  30  31
ATOM     31  C   UNL     1       8.359  -7.620 -28.745  1.00  0.00    -0.003 C 
ATOM     32  C   UNL     1       8.740  -7.058 -30.115  1.00  0.00     0.004 C 
ENDBRANCH  30  31
ENDBRANCH  29  30
ENDBRANCH  28  29
ENDBRANCH  27  28
ENDBRANCH  26  27
ENDBRANCH  25  26
ENDBRANCH  24  25
ENDBRANCH  23  24
ENDBRANCH  22  23
ENDBRANCH  21  22
ENDBRANCH  20  21
ENDBRANCH  19  20
ENDBRANCH  18  19
ENDBRANCH   1  18
TORSDOF 28
ENDMDL
MODEL 5
REMARK VINA RESULT:    -3.471     15.840     19.267
REMARK INTER + INTRA:         -14.517
REMARK INTER:                  -9.161
REMARK INTRA:                  -5.355
REMARK UNBOUND:                -5.363
REMARK SMILES CCCCCCCCCCCCCCCCCCCCCCCCCCCCCC(=O)[O-]
REMARK SMILES IDX 16 1 17 2 18 3 19 4 20 5 21 6 22 7 23 8 24 9 25 10 26 11
REMARK SMILES IDX 27 12 28 13 29 14 30 15 31 16 32 17 15 18 14 19 13 20 12 21
REMARK SMILES IDX 11 22 10 23 9 24 8 25 7 26 6 27 5 28 4 29 3 30 2 31 1 32
REMARK H PARENT
REMARK Flexibility Score: inf
ROOT
ATOM      1  C   UNL     1       9.714 -16.632 -26.638  1.00  0.00     0.000 C 
ENDROOT
BRANCH   1   2
ATOM      2  C   UNL     1       8.766 -17.596 -25.907  1.00  0.00     0.000 C 
BRANCH   2   3
ATOM      3  C   UNL     1       8.584 -18.973 -26.574  1.00  0.00     0.000 C 
BRANCH   3   4
ATOM      4  C   UNL     1       8.733 -20.170 -25.612  1.00  0.00     0.000 C 
BRANCH   4   5
ATOM      5  C   UNL     1      10.197 -20.432 -25.209  1.00  0.00     0.000 C 
BRANCH   5   6
ATOM      6  C   UNL     1      10.380 -20.567 -23.689  1.00  0.00     0.000 C 
BRANCH   6   7
ATOM      7  C   UNL     1       9.042 -20.722 -22.942  1.00  0.00     0.000 C 
BRANCH   7   8
ATOM      8  C   UNL     1       8.825 -19.631 -21.880  1.00  0.00     0.000 C 
BRANCH   8   9
ATOM      9  C   UNL     1       8.783 -18.219 -22.483  1.00  0.00     0.000 C 
BRANCH   9  10
ATOM     10  C   UNL     1       9.818 -17.301 -21.823  1.00  0.00     0.000 C 
BRANCH  10  11
ATOM     11  C   UNL     1      11.038 -17.106 -22.739  1.00  0.00     0.000 C 
BRANCH  11  12
ATOM     12  C   UNL     1      11.264 -15.638 -23.131  1.00  0.00     0.000 C 
BRANCH  12  13
ATOM     13  C   UNL     1       9.979 -14.798 -23.060  1.00  0.00     0.006 C 
BRANCH  13  14
ATOM     14  C   UNL     1      10.143 -13.482 -23.828  1.00  0.00     0.053 C 
BRANCH  14  15
ATOM     15  C   UNL     1       9.990 -12.300 -22.919  1.00  0.00     0.041 C 
ATOM     16  O   UNL     1       9.893 -12.463 -21.672  1.00  0.00    -0.550 OA
ATOM     17  O   UNL     1       9.982 -11.013 -23.447  1.00  0.00    -0.550 OA
ENDBRANCH  14  15
ENDBRANCH  13  14
ENDBRANCH  12  13
ENDBRANCH  11  12
ENDBRANCH  10  11
ENDBRANCH   9  10
ENDBRANCH   8   9
ENDBRANCH   7   8
ENDBRANCH   6   7
ENDBRANCH   5   6
ENDBRANCH   4   5
ENDBRANCH   3   4
ENDBRANCH   2   3
ENDBRANCH   1   2
BRANCH   1  18
ATOM     18  C   UNL     1      11.194 -17.020 -26.491  1.00  0.00     0.000 C 
BRANCH  18  19
ATOM     19  C   UNL     1      11.777 -17.495 -27.831  1.00  0.00     0.000 C 
BRANCH  19  20
ATOM     20  C   UNL     1      12.318 -18.933 -27.762  1.00  0.00     0.000 C 
BRANCH  20  21
ATOM     21  C   UNL     1      12.017 -19.742 -29.035  1.00  0.00     0.000 C 
BRANCH  21  22
ATOM     22  C   UNL     1      10.511 -19.855 -29.324  1.00  0.00     0.000 C 
BRANCH  22  23
ATOM     23  C   UNL     1      10.157 -19.560 -30.791  1.00  0.00     0.000 C 
BRANCH  23  24
ATOM     24  C   UNL     1       9.385 -18.242 -30.957  1.00  0.00    -0.000 C 
BRANCH  24  25
ATOM     25  C   UNL     1      10.311 -17.032 -31.170  1.00  0.00    -0.000 C 
BRANCH  25  26
ATOM     26  C   UNL     1      11.546 -17.368 -32.026  1.00  0.00    -0.000 C 
BRANCH  26  27
ATOM     27  C   UNL     1      12.892 -16.951 -31.407  1.00  0.00    -0.000 C 
BRANCH  27  28
ATOM     28  C   UNL     1      13.930 -18.087 -31.405  1.00  0.00    -0.000 C 
BRANCH  28  29
ATOM     29  C   UNL     1      15.341 -17.592 -31.025  1.00  0.00    -0.000 C 
BRANCH  29  30
ATOM     30  C   UNL     1      15.968 -18.341 -29.834  1.00  0.00    -0.000 C 
BRANCH  30  31
ATOM     31  C   UNL     1      15.598 -17.756 -28.456  1.00  0.00    -0.003 C 
ATOM     32  C   UNL     1      15.761 -16.237 -28.394  1.00  0.00     0.004 C 
ENDBRANCH  30  31
ENDBRANCH  29  30
ENDBRANCH  28  29
ENDBRANCH  27  28
ENDBRANCH  26  27
ENDBRANCH  25  26
ENDBRANCH  24  25
ENDBRANCH  23  24
ENDBRANCH  22  23
ENDBRANCH  21  22
ENDBRANCH  20  21
ENDBRANCH  19  20
ENDBRANCH  18  19
ENDBRANCH   1  18
TORSDOF 28
ENDMDL
MODEL 6
REMARK VINA RESULT:    -3.457      2.967      6.788
REMARK INTER + INTRA:         -14.479
REMARK INTER:                  -8.550
REMARK INTRA:                  -5.929
REMARK UNBOUND:                -5.363
REMARK SMILES CCCCCCCCCCCCCCCCCCCCCCCCCCCCCC(=O)[O-]
REMARK SMILES IDX 16 1 17 2 18 3 19 4 20 5 21 6 22 7 23 8 24 9 25 10 26 11
REMARK SMILES IDX 27 12 28 13 29 14 30 15 31 16 32 17 15 18 14 19 13 20 12 21
REMARK SMILES IDX 11 22 10 23 9 24 8 25 7 26 6 27 5 28 4 29 3 30 2 31 1 32
REMARK H PARENT
REMARK Flexibility Score: inf
ROOT
ATOM      1  C   UNL     1      24.304  -3.206 -26.838  1.00  0.00     0.000 C 
ENDROOT
BRANCH   1   2
ATOM      2  C   UNL     1      24.517  -4.168 -28.019  1.00  0.00     0.000 C 
BRANCH   2   3
ATOM      3  C   UNL     1      23.906  -3.711 -29.357  1.00  0.00     0.000 C 
BRANCH   3   4
ATOM      4  C   UNL     1      23.323  -2.283 -29.334  1.00  0.00     0.000 C 
BRANCH   4   5
ATOM      5  C   UNL     1      23.087  -1.711 -30.745  1.00  0.00     0.000 C 
BRANCH   5   6
ATOM      6  C   UNL     1      23.564  -2.659 -31.856  1.00  0.00     0.000 C 
BRANCH   6   7
ATOM      7  C   UNL     1      22.410  -3.157 -32.747  1.00  0.00     0.000 C 
BRANCH   7   8
ATOM      8  C   UNL     1      22.359  -4.691 -32.851  1.00  0.00     0.000 C 
BRANCH   8   9
ATOM      9  C   UNL     1      21.217  -5.301 -32.025  1.00  0.00     0.000 C 
BRANCH   9  10
ATOM     10  C   UNL     1      21.754  -6.027 -30.785  1.00  0.00     0.000 C 
BRANCH  10  11
ATOM     11  C   UNL     1      21.324  -7.503 -30.789  1.00  0.00     0.000 C 
BRANCH  11  12
ATOM     12  C   UNL     1      21.910  -8.294 -31.968  1.00  0.00     0.000 C 
BRANCH  12  13
ATOM     13  C   UNL     1      21.395  -9.741 -32.028  1.00  0.00     0.006 C 
BRANCH  13  14
ATOM     14  C   UNL     1      22.494 -10.730 -31.623  1.00  0.00     0.053 C 
BRANCH  14  15
ATOM     15  C   UNL     1      21.980 -11.741 -30.643  1.00  0.00     0.041 C 
ATOM     16  O   UNL     1      22.725 -12.170 -29.721  1.00  0.00    -0.550 OA
ATOM     17  O   UNL     1      20.667 -12.190 -30.731  1.00  0.00    -0.550 OA
ENDBRANCH  14  15
ENDBRANCH  13  14
ENDBRANCH  12  13
ENDBRANCH  11  12
ENDBRANCH  10  11
ENDBRANCH   9  10
ENDBRANCH   8   9
ENDBRANCH   7   8
ENDBRANCH   6   7
ENDBRANCH   5   6
ENDBRANCH   4   5
ENDBRANCH   3   4
ENDBRANCH   2   3
ENDBRANCH   1   2
BRANCH   1  18
ATOM     18  C   UNL     1      25.555  -3.053 -25.957  1.00  0.00     0.000 C 
BRANCH  18  19
ATOM     19  C   UNL     1      26.313  -1.759 -26.293  1.00  0.00     0.000 C 
BRANCH  19  20
ATOM     20  C   UNL     1      27.577  -2.016 -27.131  1.00  0.00     0.000 C 
BRANCH  20  21
ATOM     21  C   UNL     1      27.304  -1.980 -28.644  1.00  0.00     0.000 C 
BRANCH  21  22
ATOM     22  C   UNL     1      27.935  -3.167 -29.390  1.00  0.00     0.000 C 
BRANCH  22  23
ATOM     23  C   UNL     1      27.180  -3.536 -30.678  1.00  0.00     0.000 C 
BRANCH  23  24
ATOM     24  C   UNL     1      27.047  -5.055 -30.867  1.00  0.00    -0.000 C 
BRANCH  24  25
ATOM     25  C   UNL     1      26.072  -5.432 -31.997  1.00  0.00    -0.000 C 
BRANCH  25  26
ATOM     26  C   UNL     1      25.321  -6.748 -31.723  1.00  0.00    -0.000 C 
BRANCH  26  27
ATOM     27  C   UNL     1      25.193  -7.119 -30.235  1.00  0.00    -0.000 C 
BRANCH  27  28
ATOM     28  C   UNL     1      25.020  -8.631 -30.006  1.00  0.00    -0.000 C 
BRANCH  28  29
ATOM     29  C   UNL     1      24.169  -8.942 -28.757  1.00  0.00    -0.000 C 
BRANCH  29  30
ATOM     30  C   UNL     1      23.607  -7.692 -28.054  1.00  0.00    -0.000 C 
BRANCH  30  31
ATOM     31  C   UNL     1      23.633  -7.769 -26.514  1.00  0.00    -0.003 C 
ATOM     32  C   UNL     1      22.921  -6.589 -25.850  1.00  0.00     0.004 C 
ENDBRANCH  30  31
ENDBRANCH  29  30
ENDBRANCH  28  29
ENDBRANCH  27  28
ENDBRANCH  26  27
ENDBRANCH  25  26
ENDBRANCH  24  25
ENDBRANCH  23  24
ENDBRANCH  22  23
ENDBRANCH  21  22
ENDBRANCH  20  21
ENDBRANCH  19  20
ENDBRANCH  18  19
ENDBRANCH   1  18
TORSDOF 28
ENDMDL
MODEL 7
REMARK VINA RESULT:    -3.455      2.702      5.765
REMARK INTER + INTRA:         -14.475
REMARK INTER:                  -8.727
REMARK INTRA:                  -5.747
REMARK UNBOUND:                -5.363
REMARK SMILES CCCCCCCCCCCCCCCCCCCCCCCCCCCCCC(=O)[O-]
REMARK SMILES IDX 16 1 17 2 18 3 19 4 20 5 21 6 22 7 23 8 24 9 25 10 26 11
REMARK SMILES IDX 27 12 28 13 29 14 30 15 31 16 32 17 15 18 14 19 13 20 12 21
REMARK SMILES IDX 11 22 10 23 9 24 8 25 7 26 6 27 5 28 4 29 3 30 2 31 1 32
REMARK H PARENT
REMARK Flexibility Score: inf
ROOT
ATOM      1  C   UNL     1      23.181  -5.459 -27.689  1.00  0.00     0.000 C 
ENDROOT
BRANCH   1   2
ATOM      2  C   UNL     1      23.997  -4.162 -27.820  1.00  0.00     0.000 C 
BRANCH   2   3
ATOM      3  C   UNL     1      24.603  -3.630 -26.506  1.00  0.00     0.000 C 
BRANCH   3   4
ATOM      4  C   UNL     1      25.671  -2.534 -26.698  1.00  0.00     0.000 C 
BRANCH   4   5
ATOM      5  C   UNL     1      26.114  -2.383 -28.166  1.00  0.00     0.000 C 
BRANCH   5   6
ATOM      6  C   UNL     1      27.589  -2.756 -28.383  1.00  0.00     0.000 C 
BRANCH   6   7
ATOM      7  C   UNL     1      27.840  -3.413 -29.753  1.00  0.00     0.000 C 
BRANCH   7   8
ATOM      8  C   UNL     1      26.909  -4.609 -30.018  1.00  0.00     0.000 C 
BRANCH   8   9
ATOM      9  C   UNL     1      26.899  -5.035 -31.493  1.00  0.00     0.000 C 
BRANCH   9  10
ATOM     10  C   UNL     1      25.763  -4.349 -32.262  1.00  0.00     0.000 C 
BRANCH  10  11
ATOM     11  C   UNL     1      24.570  -4.064 -31.335  1.00  0.00     0.000 C 
BRANCH  11  12
ATOM     12  C   UNL     1      24.045  -2.627 -31.459  1.00  0.00     0.000 C 
BRANCH  12  13
ATOM     13  C   UNL     1      22.510  -2.554 -31.481  1.00  0.00     0.006 C 
BRANCH  13  14
ATOM     14  C   UNL     1      21.892  -3.816 -30.870  1.00  0.00     0.053 C 
BRANCH  14  15
ATOM     15  C   UNL     1      20.759  -4.327 -31.708  1.00  0.00     0.041 C 
ATOM     16  O   UNL     1      19.748  -4.847 -31.163  1.00  0.00    -0.550 OA
ATOM     17  O   UNL     1      20.807  -4.203 -33.092  1.00  0.00    -0.550 OA
ENDBRANCH  14  15
ENDBRANCH  13  14
ENDBRANCH  12  13
ENDBRANCH  11  12
ENDBRANCH  10  11
ENDBRANCH   9  10
ENDBRANCH   8   9
ENDBRANCH   7   8
ENDBRANCH   6   7
ENDBRANCH   5   6
ENDBRANCH   4   5
ENDBRANCH   3   4
ENDBRANCH   2   3
ENDBRANCH   1   2
BRANCH   1  18
ATOM     18  C   UNL     1      23.256  -6.074 -26.283  1.00  0.00     0.000 C 
BRANCH  18  19
ATOM     19  C   UNL     1      23.614  -7.567 -26.350  1.00  0.00     0.000 C 
BRANCH  19  20
ATOM     20  C   UNL     1      23.420  -8.156 -27.758  1.00  0.00     0.000 C 
BRANCH  20  21
ATOM     21  C   UNL     1      24.731  -8.679 -28.368  1.00  0.00     0.000 C 
BRANCH  21  22
ATOM     22  C   UNL     1      25.207  -7.836 -29.564  1.00  0.00     0.000 C 
BRANCH  22  23
ATOM     23  C   UNL     1      25.223  -8.624 -30.884  1.00  0.00     0.000 C 
BRANCH  23  24
ATOM     24  C   UNL     1      24.187  -8.104 -31.893  1.00  0.00    -0.000 C 
BRANCH  24  25
ATOM     25  C   UNL     1      23.074  -7.274 -31.230  1.00  0.00    -0.000 C 
BRANCH  25  26
ATOM     26  C   UNL     1      21.784  -8.082 -31.000  1.00  0.00    -0.000 C 
BRANCH  26  27
ATOM     27  C   UNL     1      21.453  -9.099 -32.108  1.00  0.00    -0.000 C 
BRANCH  27  28
ATOM     28  C   UNL     1      21.446 -10.553 -31.606  1.00  0.00    -0.000 C 
BRANCH  28  29
ATOM     29  C   UNL     1      22.643 -11.365 -32.143  1.00  0.00    -0.000 C 
BRANCH  29  30
ATOM     30  C   UNL     1      23.474 -12.058 -31.046  1.00  0.00    -0.000 C 
BRANCH  30  31
ATOM     31  C   UNL     1      23.116 -11.619 -29.613  1.00  0.00    -0.003 C 
ATOM     32  C   UNL     1      23.929 -12.356 -28.547  1.00  0.00     0.004 C 
ENDBRANCH  30  31
ENDBRANCH  29  30
ENDBRANCH  28  29
ENDBRANCH  27  28
ENDBRANCH  26  27
ENDBRANCH  25  26
ENDBRANCH  24  25
ENDBRANCH  23  24
ENDBRANCH  22  23
ENDBRANCH  21  22
ENDBRANCH  20  21
ENDBRANCH  19  20
ENDBRANCH  18  19
ENDBRANCH   1  18
TORSDOF 28
ENDMDL
MODEL 8
REMARK VINA RESULT:    -3.401      1.656      4.678
REMARK INTER + INTRA:         -14.332
REMARK INTER:                  -8.491
REMARK INTRA:                  -5.841
REMARK UNBOUND:                -5.363
REMARK SMILES CCCCCCCCCCCCCCCCCCCCCCCCCCCCCC(=O)[O-]
REMARK SMILES IDX 16 1 17 2 18 3 19 4 20 5 21 6 22 7 23 8 24 9 25 10 26 11
REMARK SMILES IDX 27 12 28 13 29 14 30 15 31 16 32 17 15 18 14 19 13 20 12 21
REMARK SMILES IDX 11 22 10 23 9 24 8 25 7 26 6 27 5 28 4 29 3 30 2 31 1 32
REMARK H PARENT
REMARK Flexibility Score: inf
ROOT
ATOM      1  C   UNL     1      23.347  -7.293 -27.047  1.00  0.00     0.000 C 
ENDROOT
BRANCH   1   2
ATOM      2  C   UNL     1      23.242  -5.768 -27.220  1.00  0.00     0.000 C 
BRANCH   2   3
ATOM      3  C   UNL     1      23.902  -5.203 -28.493  1.00  0.00     0.000 C 
BRANCH   3   4
ATOM      4  C   UNL     1      22.926  -4.486 -29.449  1.00  0.00     0.000 C 
BRANCH   4   5
ATOM      5  C   UNL     1      22.995  -2.952 -29.331  1.00  0.00     0.000 C 
BRANCH   5   6
ATOM      6  C   UNL     1      23.131  -2.257 -30.694  1.00  0.00     0.000 C 
BRANCH   6   7
ATOM      7  C   UNL     1      23.465  -3.240 -31.831  1.00  0.00     0.000 C 
BRANCH   7   8
ATOM      8  C   UNL     1      24.942  -3.178 -32.256  1.00  0.00     0.000 C 
BRANCH   8   9
ATOM      9  C   UNL     1      25.637  -1.891 -31.789  1.00  0.00     0.000 C 
BRANCH   9  10
ATOM     10  C   UNL     1      26.921  -2.203 -31.010  1.00  0.00     0.000 C 
BRANCH  10  11
ATOM     11  C   UNL     1      26.646  -3.221 -29.891  1.00  0.00     0.000 C 
BRANCH  11  12
ATOM     12  C   UNL     1      27.261  -2.811 -28.545  1.00  0.00     0.000 C 
BRANCH  12  13
ATOM     13  C   UNL     1      26.202  -2.425 -27.500  1.00  0.00     0.006 C 
BRANCH  13  14
ATOM     14  C   UNL     1      26.836  -2.249 -26.116  1.00  0.00     0.053 C 
BRANCH  14  15
ATOM     15  C   UNL     1      25.981  -2.854 -25.045  1.00  0.00     0.041 C 
ATOM     16  O   UNL     1      24.933  -3.487 -25.348  1.00  0.00    -0.550 OA
ATOM     17  O   UNL     1      26.355  -2.743 -23.710  1.00  0.00    -0.550 OA
ENDBRANCH  14  15
ENDBRANCH  13  14
ENDBRANCH  12  13
ENDBRANCH  11  12
ENDBRANCH  10  11
ENDBRANCH   9  10
ENDBRANCH   8   9
ENDBRANCH   7   8
ENDBRANCH   6   7
ENDBRANCH   5   6
ENDBRANCH   4   5
ENDBRANCH   3   4
ENDBRANCH   2   3
ENDBRANCH   1   2
BRANCH   1  18
ATOM     18  C   UNL     1      23.611  -8.029 -28.371  1.00  0.00     0.000 C 
BRANCH  18  19
ATOM     19  C   UNL     1      24.916  -8.837 -28.304  1.00  0.00     0.000 C 
BRANCH  19  20
ATOM     20  C   UNL     1      25.969  -8.341 -29.309  1.00  0.00     0.000 C 
BRANCH  20  21
ATOM     21  C   UNL     1      25.731  -8.876 -30.731  1.00  0.00     0.000 C 
BRANCH  21  22
ATOM     22  C   UNL     1      25.816  -7.776 -31.802  1.00  0.00     0.000 C 
BRANCH  22  23
ATOM     23  C   UNL     1      24.646  -6.781 -31.733  1.00  0.00     0.000 C 
BRANCH  23  24
ATOM     24  C   UNL     1      23.426  -7.250 -32.543  1.00  0.00    -0.000 C 
BRANCH  24  25
ATOM     25  C   UNL     1      22.147  -7.341 -31.693  1.00  0.00    -0.000 C 
BRANCH  25  26
ATOM     26  C   UNL     1      21.754  -8.792 -31.359  1.00  0.00    -0.000 C 
BRANCH  26  27
ATOM     27  C   UNL     1      22.200  -9.836 -32.399  1.00  0.00    -0.000 C 
BRANCH  27  28
ATOM     28  C   UNL     1      23.056 -10.961 -31.792  1.00  0.00    -0.000 C 
BRANCH  28  29
ATOM     29  C   UNL     1      22.789 -11.154 -30.285  1.00  0.00    -0.000 C 
BRANCH  29  30
ATOM     30  C   UNL     1      23.674 -12.229 -29.624  1.00  0.00    -0.000 C 
BRANCH  30  31
ATOM     31  C   UNL     1      25.051 -12.411 -30.293  1.00  0.00    -0.003 C 
ATOM     32  C   UNL     1      26.209 -12.316 -29.299  1.00  0.00     0.004 C 
ENDBRANCH  30  31
ENDBRANCH  29  30
ENDBRANCH  28  29
ENDBRANCH  27  28
ENDBRANCH  26  27
ENDBRANCH  25  26
ENDBRANCH  24  25
ENDBRANCH  23  24
ENDBRANCH  22  23
ENDBRANCH  21  22
ENDBRANCH  20  21
ENDBRANCH  19  20
ENDBRANCH  18  19
ENDBRANCH   1  18
TORSDOF 28
ENDMDL
MODEL 9
REMARK VINA RESULT:    -3.398      3.267      7.343
REMARK INTER + INTRA:         -14.324
REMARK INTER:                  -8.979
REMARK INTRA:                  -5.345
REMARK UNBOUND:                -5.363
REMARK SMILES CCCCCCCCCCCCCCCCCCCCCCCCCCCCCC(=O)[O-]
REMARK SMILES IDX 16 1 17 2 18 3 19 4 20 5 21 6 22 7 23 8 24 9 25 10 26 11
REMARK SMILES IDX 27 12 28 13 29 14 30 15 31 16 32 17 15 18 14 19 13 20 12 21
REMARK SMILES IDX 11 22 10 23 9 24 8 25 7 26 6 27 5 28 4 29 3 30 2 31 1 32
REMARK H PARENT
REMARK Flexibility Score: inf
ROOT
ATOM      1  C   UNL     1      25.190  -7.637 -30.862  1.00  0.00     0.000 C 
ENDROOT
BRANCH   1   2
ATOM      2  C   UNL     1      24.875  -6.167 -31.183  1.00  0.00     0.000 C 
BRANCH   2   3
ATOM      3  C   UNL     1      23.548  -5.925 -31.928  1.00  0.00     0.000 C 
BRANCH   3   4
ATOM      4  C   UNL     1      22.340  -5.664 -31.003  1.00  0.00     0.000 C 
BRANCH   4   5
ATOM      5  C   UNL     1      21.383  -6.868 -30.918  1.00  0.00     0.000 C 
BRANCH   5   6
ATOM      6  C   UNL     1      21.655  -7.921 -32.004  1.00  0.00     0.000 C 
BRANCH   6   7
ATOM      7  C   UNL     1      21.651  -9.359 -31.451  1.00  0.00     0.000 C 
BRANCH   7   8
ATOM      8  C   UNL     1      20.647 -10.271 -32.176  1.00  0.00     0.000 C 
BRANCH   8   9
ATOM      9  C   UNL     1      21.334 -11.339 -33.038  1.00  0.00     0.000 C 
BRANCH   9  10
ATOM     10  C   UNL     1      21.120 -12.744 -32.461  1.00  0.00     0.000 C 
BRANCH  10  11
ATOM     11  C   UNL     1      22.353 -13.200 -31.666  1.00  0.00     0.000 C 
BRANCH  11  12
ATOM     12  C   UNL     1      23.646 -12.501 -32.111  1.00  0.00     0.000 C 
BRANCH  12  13
ATOM     13  C   UNL     1      24.344 -11.752 -30.965  1.00  0.00     0.006 C 
BRANCH  13  14
ATOM     14  C   UNL     1      23.568 -11.913 -29.653  1.00  0.00     0.053 C 
BRANCH  14  15
ATOM     15  C   UNL     1      24.371 -12.665 -28.636  1.00  0.00     0.041 C 
ATOM     16  O   UNL     1      25.444 -12.179 -28.185  1.00  0.00    -0.550 OA
ATOM     17  O   UNL     1      23.921 -13.893 -28.164  1.00  0.00    -0.550 OA
ENDBRANCH  14  15
ENDBRANCH  13  14
ENDBRANCH  12  13
ENDBRANCH  11  12
ENDBRANCH  10  11
ENDBRANCH   9  10
ENDBRANCH   8   9
ENDBRANCH   7   8
ENDBRANCH   6   7
ENDBRANCH   5   6
ENDBRANCH   4   5
ENDBRANCH   3   4
ENDBRANCH   2   3
ENDBRANCH   1   2
BRANCH   1  18
ATOM     18  C   UNL     1      25.752  -7.834 -29.445  1.00  0.00     0.000 C 
BRANCH  18  19
ATOM     19  C   UNL     1      24.845  -8.754 -28.613  1.00  0.00     0.000 C 
BRANCH  19  20
ATOM     20  C   UNL     1      23.549  -8.056 -28.166  1.00  0.00     0.000 C 
BRANCH  20  21
ATOM     21  C   UNL     1      23.584  -7.629 -26.689  1.00  0.00     0.000 C 
BRANCH  21  22
ATOM     22  C   UNL     1      23.253  -6.140 -26.493  1.00  0.00     0.000 C 
BRANCH  22  23
ATOM     23  C   UNL     1      23.293  -5.340 -27.806  1.00  0.00     0.000 C 
BRANCH  23  24
ATOM     24  C   UNL     1      24.097  -4.036 -27.676  1.00  0.00    -0.000 C 
BRANCH  24  25
ATOM     25  C   UNL     1      24.212  -3.273 -29.007  1.00  0.00    -0.000 C 
BRANCH  25  26
ATOM     26  C   UNL     1      22.988  -2.383 -29.293  1.00  0.00    -0.000 C 
BRANCH  26  27
ATOM     27  C   UNL     1      23.027  -1.648 -30.645  1.00  0.00    -0.000 C 
BRANCH  27  28
ATOM     28  C   UNL     1      23.918  -2.349 -31.685  1.00  0.00    -0.000 C 
BRANCH  28  29
ATOM     29  C   UNL     1      23.632  -1.868 -33.123  1.00  0.00    -0.000 C 
BRANCH  29  30
ATOM     30  C   UNL     1      22.871  -2.893 -33.986  1.00  0.00    -0.000 C 
BRANCH  30  31
ATOM     31  C   UNL     1      21.384  -3.052 -33.613  1.00  0.00    -0.003 C 
ATOM     32  C   UNL     1      20.811  -4.407 -34.029  1.00  0.00     0.004 C 
ENDBRANCH  30  31
ENDBRANCH  29  30
ENDBRANCH  28  29
ENDBRANCH  27  28
ENDBRANCH  26  27
ENDBRANCH  25  26
ENDBRANCH  24  25
ENDBRANCH  23  24
ENDBRANCH  22  23
ENDBRANCH  21  22
ENDBRANCH  20  21
ENDBRANCH  19  20
ENDBRANCH  18  19
ENDBRANCH   1  18
TORSDOF 28
ENDMDL
