MODEL 1
REMARK VINA RESULT:    -4.262      0.000      0.000
REMARK INTER + INTRA:          -9.092
REMARK INTER:                  -7.750
REMARK INTRA:                  -1.342
REMARK UNBOUND:                -1.342
REMARK SMILES CCCCCCCCCCCCCCCC(=O)[O-]
REMARK SMILES IDX 9 1 10 2 11 3 12 4 13 5 14 6 15 7 16 8 17 9 18 10 8 11 7 12
REMARK SMILES IDX 6 13 5 14 4 15 3 16 2 17 1 18
REMARK H PARENT
REMARK Flexibility Score: inf
ROOT
ATOM      1  C   UNL     1      32.975  -9.932  18.096  1.00  0.00     0.000 C 
ENDROOT
BRANCH   1   2
ATOM      2  C   UNL     1      32.405  -9.546  16.718  1.00  0.00     0.000 C 
BRANCH   2   3
ATOM      3  C   UNL     1      32.079  -8.047  16.601  1.00  0.00     0.000 C 
BRANCH   3   4
ATOM      4  C   UNL     1      31.403  -7.479  17.863  1.00  0.00     0.000 C 
BRANCH   4   5
ATOM      5  C   UNL     1      32.217  -6.414  18.622  1.00  0.00     0.000 C 
BRANCH   5   6
ATOM      6  C   UNL     1      32.214  -6.625  20.142  1.00  0.00     0.006 C 
BRANCH   6   7
ATOM      7  C   UNL     1      30.925  -7.316  20.598  1.00  0.00     0.053 C 
BRANCH   7   8
ATOM      8  C   UNL     1      30.900  -7.451  22.087  1.00  0.00     0.041 C 
ATOM      9  O   UNL     1      31.501  -6.613  22.809  1.00  0.00    -0.550 OA
ATOM     10  O   UNL     1      30.253  -8.529  22.676  1.00  0.00    -0.550 OA
ENDBRANCH   7   8
ENDBRANCH   6   7
ENDBRANCH   5   6
ENDBRANCH   4   5
ENDBRANCH   3   4
ENDBRANCH   2   3
ENDBRANCH   1   2
BRANCH   1  11
ATOM     11  C   UNL     1      32.258 -11.098  18.803  1.00  0.00     0.000 C 
BRANCH  11  12
ATOM     12  C   UNL     1      31.982 -10.819  20.291  1.00  0.00    -0.000 C 
BRANCH  12  13
ATOM     13  C   UNL     1      30.716 -11.529  20.797  1.00  0.00    -0.000 C 
BRANCH  13  14
ATOM     14  C   UNL     1      30.595 -12.969  20.265  1.00  0.00    -0.000 C 
BRANCH  14  15
ATOM     15  C   UNL     1      29.166 -13.522  20.381  1.00  0.00    -0.000 C 
BRANCH  15  16
ATOM     16  C   UNL     1      29.109 -14.870  21.121  1.00  0.00    -0.000 C 
BRANCH  16  17
ATOM     17  C   UNL     1      27.877 -14.990  22.032  1.00  0.00    -0.003 C 
ATOM     18  C   UNL     1      27.917 -14.016  23.209  1.00  0.00     0.004 C 
ENDBRANCH  16  17
ENDBRANCH  15  16
ENDBRANCH  14  15
ENDBRANCH  13  14
ENDBRANCH  12  13
ENDBRANCH  11  12
ENDBRANCH   1  11
TORSDOF 14
ENDMDL
MODEL 2
REMARK VINA RESULT:    -4.190      2.058      5.949
REMARK INTER + INTRA:          -8.961
REMARK INTER:                  -7.689
REMARK INTRA:                  -1.273
REMARK UNBOUND:                -1.342
REMARK SMILES CCCCCCCCCCCCCCCC(=O)[O-]
REMARK SMILES IDX 9 1 10 2 11 3 12 4 13 5 14 6 15 7 16 8 17 9 18 10 8 11 7 12
REMARK SMILES IDX 6 13 5 14 4 15 3 16 2 17 1 18
REMARK H PARENT
REMARK Flexibility Score: inf
ROOT
ATOM      1  C   UNL     1      32.370  -9.619  17.048  1.00  0.00     0.000 C 
ENDROOT
BRANCH   1   2
ATOM      2  C   UNL     1      32.498  -9.965  18.543  1.00  0.00     0.000 C 
BRANCH   2   3
ATOM      3  C   UNL     1      32.341 -11.468  18.827  1.00  0.00     0.000 C 
BRANCH   3   4
ATOM      4  C   UNL     1      31.457 -11.759  20.054  1.00  0.00     0.000 C 
BRANCH   4   5
ATOM      5  C   UNL     1      30.810 -13.156  20.081  1.00  0.00     0.000 C 
BRANCH   5   6
ATOM      6  C   UNL     1      29.310 -13.118  20.406  1.00  0.00     0.006 C 
BRANCH   6   7
ATOM      7  C   UNL     1      28.882 -14.374  21.172  1.00  0.00     0.053 C 
BRANCH   7   8
ATOM      8  C   UNL     1      28.649 -14.054  22.615  1.00  0.00     0.041 C 
ATOM      9  O   UNL     1      27.983 -14.839  23.339  1.00  0.00    -0.550 OA
ATOM     10  O   UNL     1      29.127 -12.863  23.148  1.00  0.00    -0.550 OA
ENDBRANCH   7   8
ENDBRANCH   6   7
ENDBRANCH   5   6
ENDBRANCH   4   5
ENDBRANCH   3   4
ENDBRANCH   2   3
ENDBRANCH   1   2
BRANCH   1  11
ATOM     11  C   UNL     1      32.171  -8.125  16.731  1.00  0.00     0.000 C 
BRANCH  11  12
ATOM     12  C   UNL     1      31.400  -7.375  17.832  1.00  0.00    -0.000 C 
BRANCH  12  13
ATOM     13  C   UNL     1      32.266  -6.321  18.542  1.00  0.00    -0.000 C 
BRANCH  13  14
ATOM     14  C   UNL     1      32.259  -6.486  20.072  1.00  0.00    -0.000 C 
BRANCH  14  15
ATOM     15  C   UNL     1      31.062  -7.310  20.571  1.00  0.00    -0.000 C 
BRANCH  15  16
ATOM     16  C   UNL     1      31.454  -8.332  21.652  1.00  0.00    -0.000 C 
BRANCH  16  17
ATOM     17  C   UNL     1      30.249  -8.805  22.479  1.00  0.00    -0.003 C 
ATOM     18  C   UNL     1      29.853  -7.809  23.568  1.00  0.00     0.004 C 
ENDBRANCH  16  17
ENDBRANCH  15  16
ENDBRANCH  14  15
ENDBRANCH  13  14
ENDBRANCH  12  13
ENDBRANCH  11  12
ENDBRANCH   1  11
TORSDOF 14
ENDMDL
MODEL 3
REMARK VINA RESULT:    -4.173      7.741     11.644
REMARK INTER + INTRA:          -8.930
REMARK INTER:                  -6.793
REMARK INTRA:                  -2.137
REMARK UNBOUND:                -1.342
REMARK SMILES CCCCCCCCCCCCCCCC(=O)[O-]
REMARK SMILES IDX 9 1 10 2 11 3 12 4 13 5 14 6 15 7 16 8 17 9 18 10 8 11 7 12
REMARK SMILES IDX 6 13 5 14 4 15 3 16 2 17 1 18
REMARK H PARENT
REMARK Flexibility Score: inf
ROOT
ATOM      1  C   UNL     1      29.819 -22.910  24.485  1.00  0.00     0.000 C 
ENDROOT
BRANCH   1   2
ATOM      2  C   UNL     1      29.975 -22.568  22.992  1.00  0.00     0.000 C 
BRANCH   2   3
ATOM      3  C   UNL     1      28.750 -21.842  22.411  1.00  0.00     0.000 C 
BRANCH   3   4
ATOM      4  C   UNL     1      28.853 -20.309  22.520  1.00  0.00     0.000 C 
BRANCH   4   5
ATOM      5  C   UNL     1      30.116 -19.689  21.893  1.00  0.00     0.000 C 
BRANCH   5   6
ATOM      6  C   UNL     1      30.677 -18.516  22.708  1.00  0.00     0.006 C 
BRANCH   6   7
ATOM      7  C   UNL     1      29.552 -17.596  23.193  1.00  0.00     0.053 C 
BRANCH   7   8
ATOM      8  C   UNL     1      29.322 -16.488  22.215  1.00  0.00     0.041 C 
ATOM      9  O   UNL     1      30.010 -15.436  22.275  1.00  0.00    -0.550 OA
ATOM     10  O   UNL     1      28.314 -16.600  21.265  1.00  0.00    -0.550 OA
ENDBRANCH   7   8
ENDBRANCH   6   7
ENDBRANCH   5   6
ENDBRANCH   4   5
ENDBRANCH   3   4
ENDBRANCH   2   3
ENDBRANCH   1   2
BRANCH   1  11
ATOM     11  C   UNL     1      28.370 -23.103  24.970  1.00  0.00     0.000 C 
BRANCH  11  12
ATOM     12  C   UNL     1      28.008 -22.193  26.158  1.00  0.00    -0.000 C 
BRANCH  12  13
ATOM     13  C   UNL     1      27.159 -20.983  25.735  1.00  0.00    -0.000 C 
BRANCH  13  14
ATOM     14  C   UNL     1      27.861 -19.643  26.017  1.00  0.00    -0.000 C 
BRANCH  14  15
ATOM     15  C   UNL     1      29.331 -19.822  26.425  1.00  0.00    -0.000 C 
BRANCH  15  16
ATOM     16  C   UNL     1      29.711 -18.988  27.661  1.00  0.00    -0.000 C 
BRANCH  16  17
ATOM     17  C   UNL     1      29.489 -19.750  28.977  1.00  0.00    -0.003 C 
ATOM     18  C   UNL     1      30.140 -21.132  28.974  1.00  0.00     0.004 C 
ENDBRANCH  16  17
ENDBRANCH  15  16
ENDBRANCH  14  15
ENDBRANCH  13  14
ENDBRANCH  12  13
ENDBRANCH  11  12
ENDBRANCH   1  11
TORSDOF 14
ENDMDL
MODEL 4
REMARK VINA RESULT:    -4.127     10.457     12.815
REMARK INTER + INTRA:          -8.846
REMARK INTER:                  -6.685
REMARK INTRA:                  -2.161
REMARK UNBOUND:                -1.342
REMARK SMILES CCCCCCCCCCCCCCCC(=O)[O-]
REMARK SMILES IDX 9 1 10 2 11 3 12 4 13 5 14 6 15 7 16 8 17 9 18 10 8 11 7 12
REMARK SMILES IDX 6 13 5 14 4 15 3 16 2 17 1 18
REMARK H PARENT
REMARK Flexibility Score: inf
ROOT
ATOM      1  C   UNL     1      28.809 -22.844  25.641  1.00  0.00     0.000 C 
ENDROOT
BRANCH   1   2
ATOM      2  C   UNL     1      28.547 -23.818  24.477  1.00  0.00     0.000 C 
BRANCH   2   3
ATOM      3  C   UNL     1      29.130 -23.328  23.141  1.00  0.00     0.000 C 
BRANCH   3   4
ATOM      4  C   UNL     1      29.643 -21.878  23.205  1.00  0.00     0.000 C 
BRANCH   4   5
ATOM      5  C   UNL     1      28.909 -20.880  22.288  1.00  0.00     0.000 C 
BRANCH   5   6
ATOM      6  C   UNL     1      29.768 -19.665  21.913  1.00  0.00     0.006 C 
BRANCH   6   7
ATOM      7  C   UNL     1      31.219 -19.858  22.365  1.00  0.00     0.053 C 
BRANCH   7   8
ATOM      8  C   UNL     1      32.099 -20.148  21.191  1.00  0.00     0.041 C 
ATOM      9  O   UNL     1      33.082 -19.404  20.935  1.00  0.00    -0.550 OA
ATOM     10  O   UNL     1      31.806 -21.214  20.350  1.00  0.00    -0.550 OA
ENDBRANCH   7   8
ENDBRANCH   6   7
ENDBRANCH   5   6
ENDBRANCH   4   5
ENDBRANCH   3   4
ENDBRANCH   2   3
ENDBRANCH   1   2
BRANCH   1  11
ATOM     11  C   UNL     1      27.551 -22.231  26.283  1.00  0.00     0.000 C 
BRANCH  11  12
ATOM     12  C   UNL     1      27.088 -20.940  25.585  1.00  0.00    -0.000 C 
BRANCH  12  13
ATOM     13  C   UNL     1      27.612 -19.674  26.282  1.00  0.00    -0.000 C 
BRANCH  13  14
ATOM     14  C   UNL     1      28.749 -18.996  25.496  1.00  0.00    -0.000 C 
BRANCH  14  15
ATOM     15  C   UNL     1      30.094 -19.058  26.236  1.00  0.00    -0.000 C 
BRANCH  15  16
ATOM     16  C   UNL     1      29.950 -19.535  27.692  1.00  0.00    -0.000 C 
BRANCH  16  17
ATOM     17  C   UNL     1      30.651 -20.879  27.943  1.00  0.00    -0.003 C 
ATOM     18  C   UNL     1      30.538 -21.341  29.395  1.00  0.00     0.004 C 
ENDBRANCH  16  17
ENDBRANCH  15  16
ENDBRANCH  14  15
ENDBRANCH  13  14
ENDBRANCH  12  13
ENDBRANCH  11  12
ENDBRANCH   1  11
TORSDOF 14
ENDMDL
MODEL 5
REMARK VINA RESULT:    -4.122      6.666     10.372
REMARK INTER + INTRA:          -8.837
REMARK INTER:                  -6.753
REMARK INTRA:                  -2.084
REMARK UNBOUND:                -1.342
REMARK SMILES CCCCCCCCCCCCCCCC(=O)[O-]
REMARK SMILES IDX 9 1 10 2 11 3 12 4 13 5 14 6 15 7 16 8 17 9 18 10 8 11 7 12
REMARK SMILES IDX 6 13 5 14 4 15 3 16 2 17 1 18
REMARK H PARENT
REMARK Flexibility Score: inf
ROOT
ATOM      1  C   UNL     1      30.712 -21.405  22.911  1.00  0.00     0.000 C 
ENDROOT
BRANCH   1   2
ATOM      2  C   UNL     1      29.554 -20.843  22.065  1.00  0.00     0.000 C 
BRANCH   2   3
ATOM      3  C   UNL     1      29.317 -19.340  22.294  1.00  0.00     0.000 C 
BRANCH   3   4
ATOM      4  C   UNL     1      30.615 -18.566  22.592  1.00  0.00     0.000 C 
BRANCH   4   5
ATOM      5  C   UNL     1      30.418 -17.132  23.117  1.00  0.00     0.000 C 
BRANCH   5   6
ATOM      6  C   UNL     1      29.336 -16.356  22.354  1.00  0.00     0.006 C 
BRANCH   6   7
ATOM      7  C   UNL     1      28.411 -15.609  23.322  1.00  0.00     0.053 C 
BRANCH   7   8
ATOM      8  C   UNL     1      28.148 -14.221  22.829  1.00  0.00     0.041 C 
ATOM      9  O   UNL     1      27.316 -14.024  21.905  1.00  0.00    -0.550 OA
ATOM     10  O   UNL     1      28.857 -13.151  23.359  1.00  0.00    -0.550 OA
ENDBRANCH   7   8
ENDBRANCH   6   7
ENDBRANCH   5   6
ENDBRANCH   4   5
ENDBRANCH   3   4
ENDBRANCH   2   3
ENDBRANCH   1   2
BRANCH   1  11
ATOM     11  C   UNL     1      30.425 -22.744  23.615  1.00  0.00     0.000 C 
BRANCH  11  12
ATOM     12  C   UNL     1      28.939 -22.929  23.972  1.00  0.00    -0.000 C 
BRANCH  12  13
ATOM     13  C   UNL     1      28.716 -23.113  25.482  1.00  0.00    -0.000 C 
BRANCH  13  14
ATOM     14  C   UNL     1      27.640 -22.163  26.039  1.00  0.00    -0.000 C 
BRANCH  14  15
ATOM     15  C   UNL     1      27.535 -20.857  25.237  1.00  0.00    -0.000 C 
BRANCH  15  16
ATOM     16  C   UNL     1      28.007 -19.630  26.036  1.00  0.00    -0.000 C 
BRANCH  16  17
ATOM     17  C   UNL     1      29.538 -19.493  26.056  1.00  0.00    -0.003 C 
ATOM     18  C   UNL     1      30.002 -18.155  26.628  1.00  0.00     0.004 C 
ENDBRANCH  16  17
ENDBRANCH  15  16
ENDBRANCH  14  15
ENDBRANCH  13  14
ENDBRANCH  12  13
ENDBRANCH  11  12
ENDBRANCH   1  11
TORSDOF 14
ENDMDL
MODEL 6
REMARK VINA RESULT:    -4.114      2.501      6.280
REMARK INTER + INTRA:          -8.823
REMARK INTER:                  -7.247
REMARK INTRA:                  -1.575
REMARK UNBOUND:                -1.342
REMARK SMILES CCCCCCCCCCCCCCCC(=O)[O-]
REMARK SMILES IDX 9 1 10 2 11 3 12 4 13 5 14 6 15 7 16 8 17 9 18 10 8 11 7 12
REMARK SMILES IDX 6 13 5 14 4 15 3 16 2 17 1 18
REMARK H PARENT
REMARK Flexibility Score: inf
ROOT
ATOM      1  C   UNL     1      33.079 -10.625  17.593  1.00  0.00     0.000 C 
ENDROOT
BRANCH   1   2
ATOM      2  C   UNL     1      32.513 -12.012  17.953  1.00  0.00     0.000 C 
BRANCH   2   3
ATOM      3  C   UNL     1      32.484 -12.274  19.468  1.00  0.00     0.000 C 
BRANCH   3   4
ATOM      4  C   UNL     1      31.813 -11.137  20.261  1.00  0.00     0.000 C 
BRANCH   4   5
ATOM      5  C   UNL     1      30.553 -11.542  21.050  1.00  0.00     0.000 C 
BRANCH   5   6
ATOM      6  C   UNL     1      30.328 -13.060  21.087  1.00  0.00     0.006 C 
BRANCH   6   7
ATOM      7  C   UNL     1      28.954 -13.425  20.516  1.00  0.00     0.053 C 
BRANCH   7   8
ATOM      8  C   UNL     1      28.198 -14.283  21.479  1.00  0.00     0.041 C 
ATOM      9  O   UNL     1      27.658 -13.772  22.494  1.00  0.00    -0.550 OA
ATOM     10  O   UNL     1      28.129 -15.656  21.279  1.00  0.00    -0.550 OA
ENDBRANCH   7   8
ENDBRANCH   6   7
ENDBRANCH   5   6
ENDBRANCH   4   5
ENDBRANCH   3   4
ENDBRANCH   2   3
ENDBRANCH   1   2
BRANCH   1  11
ATOM     11  C   UNL     1      32.527 -10.002  16.297  1.00  0.00     0.000 C 
BRANCH  11  12
ATOM     12  C   UNL     1      32.197  -8.506  16.442  1.00  0.00    -0.000 C 
BRANCH  12  13
ATOM     13  C   UNL     1      31.799  -8.129  17.879  1.00  0.00    -0.000 C 
BRANCH  13  14
ATOM     14  C   UNL     1      31.847  -6.610  18.124  1.00  0.00    -0.000 C 
BRANCH  14  15
ATOM     15  C   UNL     1      32.390  -6.255  19.517  1.00  0.00    -0.000 C 
BRANCH  15  16
ATOM     16  C   UNL     1      32.946  -7.478  20.267  1.00  0.00    -0.000 C 
BRANCH  16  17
ATOM     17  C   UNL     1      32.219  -7.735  21.596  1.00  0.00    -0.003 C 
ATOM     18  C   UNL     1      30.736  -7.370  21.536  1.00  0.00     0.004 C 
ENDBRANCH  16  17
ENDBRANCH  15  16
ENDBRANCH  14  15
ENDBRANCH  13  14
ENDBRANCH  12  13
ENDBRANCH  11  12
ENDBRANCH   1  11
TORSDOF 14
ENDMDL
MODEL 7
REMARK VINA RESULT:    -4.067      6.258     10.600
REMARK INTER + INTRA:          -8.737
REMARK INTER:                  -6.668
REMARK INTRA:                  -2.069
REMARK UNBOUND:                -1.342
REMARK SMILES CCCCCCCCCCCCCCCC(=O)[O-]
REMARK SMILES IDX 9 1 10 2 11 3 12 4 13 5 14 6 15 7 16 8 17 9 18 10 8 11 7 12
REMARK SMILES IDX 6 13 5 14 4 15 3 16 2 17 1 18
REMARK H PARENT
REMARK Flexibility Score: inf
ROOT
ATOM      1  C   UNL     1      27.902 -19.577  25.902  1.00  0.00     0.000 C 
ENDROOT
BRANCH   1   2
ATOM      2  C   UNL     1      29.417 -19.538  26.175  1.00  0.00     0.000 C 
BRANCH   2   3
ATOM      3  C   UNL     1      30.130 -18.388  25.445  1.00  0.00     0.000 C 
BRANCH   3   4
ATOM      4  C   UNL     1      29.153 -17.420  24.750  1.00  0.00     0.000 C 
BRANCH   4   5
ATOM      5  C   UNL     1      29.744 -16.624  23.571  1.00  0.00     0.000 C 
BRANCH   5   6
ATOM      6  C   UNL     1      28.746 -16.422  22.422  1.00  0.00     0.006 C 
BRANCH   6   7
ATOM      7  C   UNL     1      28.977 -15.077  21.726  1.00  0.00     0.053 C 
BRANCH   7   8
ATOM      8  C   UNL     1      28.498 -13.952  22.589  1.00  0.00     0.041 C 
ATOM      9  O   UNL     1      29.326 -13.206  23.174  1.00  0.00    -0.550 OA
ATOM     10  O   UNL     1      27.137 -13.757  22.783  1.00  0.00    -0.550 OA
ENDBRANCH   7   8
ENDBRANCH   6   7
ENDBRANCH   5   6
ENDBRANCH   4   5
ENDBRANCH   3   4
ENDBRANCH   2   3
ENDBRANCH   1   2
BRANCH   1  11
ATOM     11  C   UNL     1      27.259 -20.975  25.947  1.00  0.00     0.000 C 
BRANCH  11  12
ATOM     12  C   UNL     1      28.276 -22.095  26.230  1.00  0.00    -0.000 C 
BRANCH  12  13
ATOM     13  C   UNL     1      28.039 -23.338  25.357  1.00  0.00    -0.000 C 
BRANCH  13  14
ATOM     14  C   UNL     1      29.182 -23.581  24.354  1.00  0.00    -0.000 C 
BRANCH  14  15
ATOM     15  C   UNL     1      29.663 -22.284  23.684  1.00  0.00    -0.000 C 
BRANCH  15  16
ATOM     16  C   UNL     1      28.694 -21.782  22.599  1.00  0.00    -0.000 C 
BRANCH  16  17
ATOM     17  C   UNL     1      28.861 -20.282  22.310  1.00  0.00    -0.003 C 
ATOM     18  C   UNL     1      30.306 -19.901  21.990  1.00  0.00     0.004 C 
ENDBRANCH  16  17
ENDBRANCH  15  16
ENDBRANCH  14  15
ENDBRANCH  13  14
ENDBRANCH  12  13
ENDBRANCH  11  12
ENDBRANCH   1  11
TORSDOF 14
ENDMDL
MODEL 8
REMARK VINA RESULT:    -4.013      3.148      5.087
REMARK INTER + INTRA:          -8.639
REMARK INTER:                  -6.028
REMARK INTRA:                  -2.611
REMARK UNBOUND:                -1.342
REMARK SMILES CCCCCCCCCCCCCCCC(=O)[O-]
REMARK SMILES IDX 9 1 10 2 11 3 12 4 13 5 14 6 15 7 16 8 17 9 18 10 8 11 7 12
REMARK SMILES IDX 6 13 5 14 4 15 3 16 2 17 1 18
REMARK H PARENT
REMARK Flexibility Score: inf
ROOT
ATOM      1  C   UNL     1      32.841  -8.471  16.089  1.00  0.00     0.000 C 
ENDROOT
BRANCH   1   2
ATOM      2  C   UNL     1      31.808  -7.562  16.783  1.00  0.00     0.000 C 
BRANCH   2   3
ATOM      3  C   UNL     1      32.429  -6.280  17.362  1.00  0.00     0.000 C 
BRANCH   3   4
ATOM      4  C   UNL     1      32.197  -6.132  18.878  1.00  0.00     0.000 C 
BRANCH   4   5
ATOM      5  C   UNL     1      31.431  -7.293  19.541  1.00  0.00     0.000 C 
BRANCH   5   6
ATOM      6  C   UNL     1      31.779  -7.471  21.026  1.00  0.00     0.006 C 
BRANCH   6   7
ATOM      7  C   UNL     1      30.542  -7.267  21.907  1.00  0.00     0.053 C 
BRANCH   7   8
ATOM      8  C   UNL     1      30.171  -8.543  22.593  1.00  0.00     0.041 C 
ATOM      9  O   UNL     1      29.594  -8.518  23.711  1.00  0.00    -0.550 OA
ATOM     10  O   UNL     1      30.506  -9.763  22.018  1.00  0.00    -0.550 OA
ENDBRANCH   7   8
ENDBRANCH   6   7
ENDBRANCH   5   6
ENDBRANCH   4   5
ENDBRANCH   3   4
ENDBRANCH   2   3
ENDBRANCH   1   2
BRANCH   1  11
ATOM     11  C   UNL     1      32.460  -9.961  16.008  1.00  0.00     0.000 C 
BRANCH  11  12
ATOM     12  C   UNL     1      33.179 -10.823  17.061  1.00  0.00    -0.000 C 
BRANCH  12  13
ATOM     13  C   UNL     1      32.445 -10.835  18.412  1.00  0.00    -0.000 C 
BRANCH  13  14
ATOM     14  C   UNL     1      33.363 -10.444  19.584  1.00  0.00    -0.000 C 
BRANCH  14  15
ATOM     15  C   UNL     1      34.734  -9.935  19.115  1.00  0.00    -0.000 C 
BRANCH  15  16
ATOM     16  C   UNL     1      35.032  -8.502  19.592  1.00  0.00    -0.000 C 
BRANCH  16  17
ATOM     17  C   UNL     1      35.709  -7.649  18.509  1.00  0.00    -0.003 C 
ATOM     18  C   UNL     1      36.268  -8.489  17.361  1.00  0.00     0.004 C 
ENDBRANCH  16  17
ENDBRANCH  15  16
ENDBRANCH  14  15
ENDBRANCH  13  14
ENDBRANCH  12  13
ENDBRANCH  11  12
ENDBRANCH   1  11
TORSDOF 14
ENDMDL
MODEL 9
REMARK VINA RESULT:    -3.983      2.516      6.193
REMARK INTER + INTRA:          -8.585
REMARK INTER:                  -6.313
REMARK INTRA:                  -2.272
REMARK UNBOUND:                -1.342
REMARK SMILES CCCCCCCCCCCCCCCC(=O)[O-]
REMARK SMILES IDX 9 1 10 2 11 3 12 4 13 5 14 6 15 7 16 8 17 9 18 10 8 11 7 12
REMARK SMILES IDX 6 13 5 14 4 15 3 16 2 17 1 18
REMARK H PARENT
REMARK Flexibility Score: inf
ROOT
ATOM      1  C   UNL     1      32.126  -6.282  18.500  1.00  0.00     0.000 C 
ENDROOT
BRANCH   1   2
ATOM      2  C   UNL     1      32.262  -6.599  20.001  1.00  0.00     0.000 C 
BRANCH   2   3
ATOM      3  C   UNL     1      31.119  -7.478  20.534  1.00  0.00     0.000 C 
BRANCH   3   4
ATOM      4  C   UNL     1      31.617  -8.788  21.173  1.00  0.00     0.000 C 
BRANCH   4   5
ATOM      5  C   UNL     1      30.628  -9.463  22.143  1.00  0.00     0.000 C 
BRANCH   5   6
ATOM      6  C   UNL     1      30.766 -10.992  22.174  1.00  0.00     0.006 C 
BRANCH   6   7
ATOM      7  C   UNL     1      31.000 -11.551  20.767  1.00  0.00     0.053 C 
BRANCH   7   8
ATOM      8  C   UNL     1      30.217 -12.810  20.567  1.00  0.00     0.041 C 
ATOM      9  O   UNL     1      29.216 -13.055  21.288  1.00  0.00    -0.550 OA
ATOM     10  O   UNL     1      30.623 -13.735  19.613  1.00  0.00    -0.550 OA
ENDBRANCH   7   8
ENDBRANCH   6   7
ENDBRANCH   5   6
ENDBRANCH   4   5
ENDBRANCH   3   4
ENDBRANCH   2   3
ENDBRANCH   1   2
BRANCH   1  11
ATOM     11  C   UNL     1      31.406  -7.354  17.661  1.00  0.00     0.000 C 
BRANCH  11  12
ATOM     12  C   UNL     1      32.203  -7.776  16.413  1.00  0.00    -0.000 C 
BRANCH  12  13
ATOM     13  C   UNL     1      32.460  -9.291  16.365  1.00  0.00    -0.000 C 
BRANCH  13  14
ATOM     14  C   UNL     1      32.496  -9.928  17.766  1.00  0.00    -0.000 C 
BRANCH  14  15
ATOM     15  C   UNL     1      33.913 -10.348  18.186  1.00  0.00    -0.000 C 
BRANCH  15  16
ATOM     16  C   UNL     1      34.650  -9.248  18.970  1.00  0.00    -0.000 C 
BRANCH  16  17
ATOM     17  C   UNL     1      35.647  -8.470  18.098  1.00  0.00    -0.003 C 
ATOM     18  C   UNL     1      35.668  -6.976  18.416  1.00  0.00     0.004 C 
ENDBRANCH  16  17
ENDBRANCH  15  16
ENDBRANCH  14  15
ENDBRANCH  13  14
ENDBRANCH  12  13
ENDBRANCH  11  12
ENDBRANCH   1  11
TORSDOF 14
ENDMDL
