MODEL 1
REMARK VINA RESULT:    -6.655      0.000      0.000
REMARK INTER + INTRA:          -8.092
REMARK INTER:                  -7.823
REMARK INTRA:                  -0.269
REMARK UNBOUND:                -0.269
REMARK SMILES O=c1cc(-c2ccc(O)c(O)c2)oc2cc(O)cc(O)c12
REMARK SMILES IDX 4 1 3 2 2 3 1 4 21 5 19 6 18 7 16 8 15 9 14 10 13 11 5 12
REMARK SMILES IDX 6 13 7 14 8 15 12 16 10 17 9 18 11 20 20 22 17 24
REMARK H PARENT 9 19 11 21 20 23 17 25
REMARK Flexibility Score: inf
ROOT
ATOM      1  C   UNL     1     -35.184  -5.658   6.168  1.00  0.00     0.138 A 
ATOM      2  C   UNL     1     -35.272  -6.978   6.634  1.00  0.00     0.100 A 
ATOM      3  C   UNL     1     -34.947  -8.034   5.781  1.00  0.00     0.197 A 
ATOM      4  O   UNL     1     -35.091  -9.208   6.211  1.00  0.00    -0.289 OA
ATOM      5  C   UNL     1     -34.497  -7.765   4.467  1.00  0.00     0.107 A 
ATOM      6  C   UNL     1     -34.104  -8.760   3.520  1.00  0.00     0.134 A 
ATOM      7  C   UNL     1     -33.769  -8.377   2.215  1.00  0.00     0.093 A 
ATOM      8  C   UNL     1     -33.755  -7.034   1.839  1.00  0.00     0.123 A 
ATOM      9  C   UNL     1     -34.088  -6.050   2.770  1.00  0.00     0.094 A 
ATOM     10  C   UNL     1     -34.460  -6.402   4.069  1.00  0.00     0.146 A 
ATOM     11  O   UNL     1     -34.788  -5.435   4.919  1.00  0.00    -0.456 OA
ENDROOT
BRANCH   1  12
ATOM     12  C   UNL     1     -35.514  -4.497   7.032  1.00  0.00     0.021 A 
ATOM     13  C   UNL     1     -36.844  -4.085   7.241  1.00  0.00     0.016 A 
ATOM     14  C   UNL     1     -37.124  -2.981   8.052  1.00  0.00     0.051 A 
ATOM     15  C   UNL     1     -36.088  -2.267   8.659  1.00  0.00     0.157 A 
ATOM     16  C   UNL     1     -34.476  -3.766   7.634  1.00  0.00     0.062 A 
ATOM     17  C   UNL     1     -34.756  -2.658   8.449  1.00  0.00     0.158 A 
BRANCH  15  18
ATOM     18  O   UNL     1     -36.400  -1.171   9.464  1.00  0.00    -0.504 OA
ATOM     19  H   UNL     1     -36.640  -0.267   9.074  1.00  0.00     0.293 HD
ENDBRANCH  15  18
BRANCH  17  20
ATOM     20  O   UNL     1     -33.717  -1.948   9.048  1.00  0.00    -0.504 OA
ATOM     21  H   UNL     1     -32.907  -2.419   9.435  1.00  0.00     0.293 HD
ENDBRANCH  17  20
ENDBRANCH   1  12
BRANCH   6  22
ATOM     22  O   UNL     1     -34.005 -10.124   3.814  1.00  0.00    -0.507 OA
ATOM     23  H   UNL     1     -33.178 -10.583   4.162  1.00  0.00     0.293 HD
ENDBRANCH   6  22
BRANCH   8  24
ATOM     24  O   UNL     1     -33.402  -6.690   0.537  1.00  0.00    -0.508 OA
ATOM     25  H   UNL     1     -33.325  -5.722   0.246  1.00  0.00     0.293 HD
ENDBRANCH   8  24
TORSDOF 5
ENDMDL
MODEL 2
REMARK VINA RESULT:    -6.461      2.769      4.802
REMARK INTER + INTRA:          -7.863
REMARK INTER:                  -7.593
REMARK INTRA:                  -0.270
REMARK UNBOUND:                -0.269
REMARK SMILES O=c1cc(-c2ccc(O)c(O)c2)oc2cc(O)cc(O)c12
REMARK SMILES IDX 4 1 3 2 2 3 1 4 21 5 19 6 18 7 16 8 15 9 14 10 13 11 5 12
REMARK SMILES IDX 6 13 7 14 8 15 12 16 10 17 9 18 11 20 20 22 17 24
REMARK H PARENT 9 19 11 21 20 23 17 25
REMARK Flexibility Score: inf
ROOT
ATOM      1  C   UNL     1     -34.371  -7.974   2.579  1.00  0.00     0.138 A 
ATOM      2  C   UNL     1     -33.167  -8.646   2.324  1.00  0.00     0.100 A 
ATOM      3  C   UNL     1     -32.936  -9.197   1.063  1.00  0.00     0.197 A 
ATOM      4  O   UNL     1     -31.871  -9.842   0.884  1.00  0.00    -0.289 OA
ATOM      5  C   UNL     1     -33.903  -9.042   0.041  1.00  0.00     0.107 A 
ATOM      6  C   UNL     1     -33.762  -9.531  -1.294  1.00  0.00     0.134 A 
ATOM      7  C   UNL     1     -34.829  -9.402  -2.192  1.00  0.00     0.093 A 
ATOM      8  C   UNL     1     -36.007  -8.753  -1.825  1.00  0.00     0.123 A 
ATOM      9  C   UNL     1     -36.136  -8.228  -0.539  1.00  0.00     0.094 A 
ATOM     10  C   UNL     1     -35.104  -8.369   0.391  1.00  0.00     0.146 A 
ATOM     11  O   UNL     1     -35.274  -7.870   1.610  1.00  0.00    -0.456 OA
ENDROOT
BRANCH   1  12
ATOM     12  C   UNL     1     -34.667  -7.366   3.901  1.00  0.00     0.021 A 
ATOM     13  C   UNL     1     -35.097  -8.144   4.993  1.00  0.00     0.016 A 
ATOM     14  C   UNL     1     -35.378  -7.543   6.224  1.00  0.00     0.051 A 
ATOM     15  C   UNL     1     -35.244  -6.161   6.383  1.00  0.00     0.157 A 
ATOM     16  C   UNL     1     -34.547  -5.976   4.065  1.00  0.00     0.062 A 
ATOM     17  C   UNL     1     -34.828  -5.371   5.299  1.00  0.00     0.158 A 
BRANCH  15  18
ATOM     18  O   UNL     1     -35.530  -5.591   7.624  1.00  0.00    -0.504 OA
ATOM     19  H   UNL     1     -36.329  -4.984   7.766  1.00  0.00     0.293 HD
ENDBRANCH  15  18
BRANCH  17  20
ATOM     20  O   UNL     1     -34.696  -3.992   5.451  1.00  0.00    -0.504 OA
ATOM     21  H   UNL     1     -34.637  -3.373   4.650  1.00  0.00     0.293 HD
ENDBRANCH  17  20
ENDBRANCH   1  12
BRANCH   6  22
ATOM     22  O   UNL     1     -32.597 -10.125  -1.792  1.00  0.00    -0.507 OA
ATOM     23  H   UNL     1     -32.123  -9.850  -2.637  1.00  0.00     0.293 HD
ENDBRANCH   6  22
BRANCH   8  24
ATOM     24  O   UNL     1     -37.041  -8.631  -2.749  1.00  0.00    -0.508 OA
ATOM     25  H   UNL     1     -37.425  -7.727  -2.999  1.00  0.00     0.293 HD
ENDBRANCH   8  24
TORSDOF 5
ENDMDL
MODEL 3
REMARK VINA RESULT:    -6.217      2.376      7.592
REMARK INTER + INTRA:          -7.577
REMARK INTER:                  -7.295
REMARK INTRA:                  -0.282
REMARK UNBOUND:                -0.269
REMARK SMILES O=c1cc(-c2ccc(O)c(O)c2)oc2cc(O)cc(O)c12
REMARK SMILES IDX 4 1 3 2 2 3 1 4 21 5 19 6 18 7 16 8 15 9 14 10 13 11 5 12
REMARK SMILES IDX 6 13 7 14 8 15 12 16 10 17 9 18 11 20 20 22 17 24
REMARK H PARENT 9 19 11 21 20 23 17 25
REMARK Flexibility Score: inf
ROOT
ATOM      1  C   UNL     1     -34.807  -8.501   2.648  1.00  0.00     0.138 A 
ATOM      2  C   UNL     1     -34.991  -9.506   3.608  1.00  0.00     0.100 A 
ATOM      3  C   UNL     1     -35.152  -9.157   4.950  1.00  0.00     0.197 A 
ATOM      4  O   UNL     1     -35.259 -10.083   5.794  1.00  0.00    -0.289 OA
ATOM      5  C   UNL     1     -35.166  -7.792   5.325  1.00  0.00     0.107 A 
ATOM      6  C   UNL     1     -35.358  -7.316   6.658  1.00  0.00     0.134 A 
ATOM      7  C   UNL     1     -35.253  -5.944   6.923  1.00  0.00     0.093 A 
ATOM      8  C   UNL     1     -35.022  -5.028   5.898  1.00  0.00     0.123 A 
ATOM      9  C   UNL     1     -34.882  -5.477   4.584  1.00  0.00     0.094 A 
ATOM     10  C   UNL     1     -34.948  -6.842   4.292  1.00  0.00     0.146 A 
ATOM     11  O   UNL     1     -34.792  -7.229   3.031  1.00  0.00    -0.456 OA
ENDROOT
BRANCH   1  12
ATOM     12  C   UNL     1     -34.633  -8.815   1.207  1.00  0.00     0.021 A 
ATOM     13  C   UNL     1     -33.602  -9.659   0.752  1.00  0.00     0.016 A 
ATOM     14  C   UNL     1     -33.457  -9.929  -0.612  1.00  0.00     0.051 A 
ATOM     15  C   UNL     1     -34.328  -9.357  -1.543  1.00  0.00     0.157 A 
ATOM     16  C   UNL     1     -35.498  -8.233   0.264  1.00  0.00     0.062 A 
ATOM     17  C   UNL     1     -35.353  -8.503  -1.106  1.00  0.00     0.158 A 
BRANCH  15  18
ATOM     18  O   UNL     1     -34.158  -9.647  -2.897  1.00  0.00    -0.504 OA
ATOM     19  H   UNL     1     -34.139  -8.921  -3.604  1.00  0.00     0.293 HD
ENDBRANCH  15  18
BRANCH  17  20
ATOM     20  O   UNL     1     -36.223  -7.926  -2.030  1.00  0.00    -0.504 OA
ATOM     21  H   UNL     1     -37.143  -8.314  -2.205  1.00  0.00     0.293 HD
ENDBRANCH  17  20
ENDBRANCH   1  12
BRANCH   6  22
ATOM     22  O   UNL     1     -35.673  -8.137   7.746  1.00  0.00    -0.507 OA
ATOM     23  H   UNL     1     -35.207  -9.000   7.974  1.00  0.00     0.293 HD
ENDBRANCH   6  22
BRANCH   8  24
ATOM     24  O   UNL     1     -34.939  -3.670   6.196  1.00  0.00    -0.508 OA
ATOM     25  H   UNL     1     -34.755  -3.344   7.138  1.00  0.00     0.293 HD
ENDBRANCH   8  24
TORSDOF 5
ENDMDL
MODEL 4
REMARK VINA RESULT:    -5.966      2.865      7.840
REMARK INTER + INTRA:          -7.281
REMARK INTER:                  -7.019
REMARK INTRA:                  -0.262
REMARK UNBOUND:                -0.269
REMARK SMILES O=c1cc(-c2ccc(O)c(O)c2)oc2cc(O)cc(O)c12
REMARK SMILES IDX 4 1 3 2 2 3 1 4 21 5 19 6 18 7 16 8 15 9 14 10 13 11 5 12
REMARK SMILES IDX 6 13 7 14 8 15 12 16 10 17 9 18 11 20 20 22 17 24
REMARK H PARENT 9 19 11 21 20 23 17 25
REMARK Flexibility Score: inf
ROOT
ATOM      1  C   UNL     1     -34.789  -8.044   2.729  1.00  0.00     0.138 A 
ATOM      2  C   UNL     1     -34.501  -6.713   3.063  1.00  0.00     0.100 A 
ATOM      3  C   UNL     1     -34.717  -6.265   4.367  1.00  0.00     0.197 A 
ATOM      4  O   UNL     1     -34.502  -5.052   4.620  1.00  0.00    -0.289 OA
ATOM      5  C   UNL     1     -35.188  -7.167   5.351  1.00  0.00     0.107 A 
ATOM      6  C   UNL     1     -35.411  -6.833   6.722  1.00  0.00     0.134 A 
ATOM      7  C   UNL     1     -35.974  -7.785   7.581  1.00  0.00     0.093 A 
ATOM      8  C   UNL     1     -36.267  -9.074   7.138  1.00  0.00     0.123 A 
ATOM      9  C   UNL     1     -36.006  -9.427   5.813  1.00  0.00     0.094 A 
ATOM     10  C   UNL     1     -35.477  -8.490   4.922  1.00  0.00     0.146 A 
ATOM     11  O   UNL     1     -35.260  -8.861   3.665  1.00  0.00    -0.456 OA
ENDROOT
BRANCH   1  12
ATOM     12  C   UNL     1     -34.577  -8.573   1.358  1.00  0.00     0.021 A 
ATOM     13  C   UNL     1     -35.614  -8.600   0.406  1.00  0.00     0.016 A 
ATOM     14  C   UNL     1     -35.386  -9.114  -0.874  1.00  0.00     0.051 A 
ATOM     15  C   UNL     1     -34.130  -9.616  -1.223  1.00  0.00     0.157 A 
ATOM     16  C   UNL     1     -33.319  -9.091   1.005  1.00  0.00     0.062 A 
ATOM     17  C   UNL     1     -33.090  -9.607  -0.279  1.00  0.00     0.158 A 
BRANCH  15  18
ATOM     18  O   UNL     1     -33.934 -10.120  -2.508  1.00  0.00    -0.504 OA
ATOM     19  H   UNL     1     -34.647 -10.656  -2.991  1.00  0.00     0.293 HD
ENDBRANCH  15  18
BRANCH  17  20
ATOM     20  O   UNL     1     -31.835 -10.109  -0.620  1.00  0.00    -0.504 OA
ATOM     21  H   UNL     1     -31.133  -9.527  -1.063  1.00  0.00     0.293 HD
ENDBRANCH  17  20
ENDBRANCH   1  12
BRANCH   6  22
ATOM     22  O   UNL     1     -35.080  -5.599   7.291  1.00  0.00    -0.507 OA
ATOM     23  H   UNL     1     -35.508  -4.718   7.054  1.00  0.00     0.293 HD
ENDBRANCH   6  22
BRANCH   8  24
ATOM     24  O   UNL     1     -36.811  -9.999   8.024  1.00  0.00    -0.508 OA
ATOM     25  H   UNL     1     -36.330 -10.861   8.254  1.00  0.00     0.293 HD
ENDBRANCH   8  24
TORSDOF 5
ENDMDL
MODEL 5
REMARK VINA RESULT:    -5.207      3.090      8.144
REMARK INTER + INTRA:          -6.390
REMARK INTER:                  -6.128
REMARK INTRA:                  -0.262
REMARK UNBOUND:                -0.269
REMARK SMILES O=c1cc(-c2ccc(O)c(O)c2)oc2cc(O)cc(O)c12
REMARK SMILES IDX 4 1 3 2 2 3 1 4 21 5 19 6 18 7 16 8 15 9 14 10 13 11 5 12
REMARK SMILES IDX 6 13 7 14 8 15 12 16 10 17 9 18 11 20 20 22 17 24
REMARK H PARENT 9 19 11 21 20 23 17 25
REMARK Flexibility Score: inf
ROOT
ATOM      1  C   UNL     1     -34.891  -8.151   2.038  1.00  0.00     0.138 A 
ATOM      2  C   UNL     1     -34.489  -6.850   2.375  1.00  0.00     0.100 A 
ATOM      3  C   UNL     1     -34.564  -6.428   3.703  1.00  0.00     0.197 A 
ATOM      4  O   UNL     1     -34.249  -5.238   3.965  1.00  0.00    -0.289 OA
ATOM      5  C   UNL     1     -35.008  -7.326   4.704  1.00  0.00     0.107 A 
ATOM      6  C   UNL     1     -35.091  -7.017   6.096  1.00  0.00     0.134 A 
ATOM      7  C   UNL     1     -35.640  -7.956   6.978  1.00  0.00     0.093 A 
ATOM      8  C   UNL     1     -36.053  -9.211   6.532  1.00  0.00     0.123 A 
ATOM      9  C   UNL     1     -35.929  -9.541   5.182  1.00  0.00     0.094 A 
ATOM     10  C   UNL     1     -35.417  -8.615   4.270  1.00  0.00     0.146 A 
ATOM     11  O   UNL     1     -35.333  -8.963   2.991  1.00  0.00    -0.456 OA
ENDROOT
BRANCH   1  12
ATOM     12  C   UNL     1     -34.830  -8.654   0.642  1.00  0.00     0.021 A 
ATOM     13  C   UNL     1     -33.781  -9.480   0.197  1.00  0.00     0.016 A 
ATOM     14  C   UNL     1     -33.745  -9.930  -1.126  1.00  0.00     0.051 A 
ATOM     15  C   UNL     1     -34.746  -9.559  -2.027  1.00  0.00     0.157 A 
ATOM     16  C   UNL     1     -35.827  -8.273  -0.273  1.00  0.00     0.062 A 
ATOM     17  C   UNL     1     -35.793  -8.724  -1.601  1.00  0.00     0.158 A 
BRANCH  15  18
ATOM     18  O   UNL     1     -34.684 -10.026  -3.340  1.00  0.00    -0.504 OA
ATOM     19  H   UNL     1     -33.803 -10.164  -3.821  1.00  0.00     0.293 HD
ENDBRANCH  15  18
BRANCH  17  20
ATOM     20  O   UNL     1     -36.793  -8.348  -2.496  1.00  0.00    -0.504 OA
ATOM     21  H   UNL     1     -37.297  -9.033  -3.047  1.00  0.00     0.293 HD
ENDBRANCH  17  20
ENDBRANCH   1  12
BRANCH   6  22
ATOM     22  O   UNL     1     -34.634  -5.823   6.662  1.00  0.00    -0.507 OA
ATOM     23  H   UNL     1     -35.156  -4.963   6.701  1.00  0.00     0.293 HD
ENDBRANCH   6  22
BRANCH   8  24
ATOM     24  O   UNL     1     -36.579 -10.125   7.441  1.00  0.00    -0.508 OA
ATOM     25  H   UNL     1     -37.577 -10.200   7.601  1.00  0.00     0.293 HD
ENDBRANCH   8  24
TORSDOF 5
ENDMDL
MODEL 6
REMARK VINA RESULT:    -5.103      2.021      7.286
REMARK INTER + INTRA:          -6.267
REMARK INTER:                  -5.982
REMARK INTRA:                  -0.284
REMARK UNBOUND:                -0.269
REMARK SMILES O=c1cc(-c2ccc(O)c(O)c2)oc2cc(O)cc(O)c12
REMARK SMILES IDX 4 1 3 2 2 3 1 4 21 5 19 6 18 7 16 8 15 9 14 10 13 11 5 12
REMARK SMILES IDX 6 13 7 14 8 15 12 16 10 17 9 18 11 20 20 22 17 24
REMARK H PARENT 9 19 11 21 20 23 17 25
REMARK Flexibility Score: inf
ROOT
ATOM      1  C   UNL     1     -34.550  -8.170   3.716  1.00  0.00     0.138 A 
ATOM      2  C   UNL     1     -35.077  -9.024   4.695  1.00  0.00     0.100 A 
ATOM      3  C   UNL     1     -35.581  -8.488   5.881  1.00  0.00     0.197 A 
ATOM      4  O   UNL     1     -35.994  -9.284   6.763  1.00  0.00    -0.289 OA
ATOM      5  C   UNL     1     -35.591  -7.085   6.071  1.00  0.00     0.107 A 
ATOM      6  C   UNL     1     -36.111  -6.423   7.224  1.00  0.00     0.134 A 
ATOM      7  C   UNL     1     -35.976  -5.033   7.341  1.00  0.00     0.093 A 
ATOM      8  C   UNL     1     -35.394  -4.277   6.325  1.00  0.00     0.123 A 
ATOM      9  C   UNL     1     -34.927  -4.908   5.172  1.00  0.00     0.094 A 
ATOM     10  C   UNL     1     -35.016  -6.296   5.039  1.00  0.00     0.146 A 
ATOM     11  O   UNL     1     -34.543  -6.859   3.933  1.00  0.00    -0.456 OA
ENDROOT
BRANCH   1  12
ATOM     12  C   UNL     1     -34.004  -8.686   2.435  1.00  0.00     0.021 A 
ATOM     13  C   UNL     1     -32.993  -9.666   2.403  1.00  0.00     0.016 A 
ATOM     14  C   UNL     1     -32.491 -10.125   1.182  1.00  0.00     0.051 A 
ATOM     15  C   UNL     1     -32.979  -9.612  -0.022  1.00  0.00     0.157 A 
ATOM     16  C   UNL     1     -34.481  -8.164   1.221  1.00  0.00     0.062 A 
ATOM     17  C   UNL     1     -33.978  -8.625  -0.006  1.00  0.00     0.158 A 
BRANCH  15  18
ATOM     18  O   UNL     1     -32.459 -10.092  -1.224  1.00  0.00    -0.504 OA
ATOM     19  H   UNL     1     -31.839 -10.893  -1.261  1.00  0.00     0.293 HD
ENDBRANCH  15  18
BRANCH  17  20
ATOM     20  O   UNL     1     -34.467  -8.107  -1.203  1.00  0.00    -0.504 OA
ATOM     21  H   UNL     1     -35.019  -8.671  -1.840  1.00  0.00     0.293 HD
ENDBRANCH  17  20
ENDBRANCH   1  12
BRANCH   6  22
ATOM     22  O   UNL     1     -36.785  -7.073   8.263  1.00  0.00    -0.507 OA
ATOM     23  H   UNL     1     -36.363  -7.376   9.126  1.00  0.00     0.293 HD
ENDBRANCH   6  22
BRANCH   8  24
ATOM     24  O   UNL     1     -35.290  -2.896   6.470  1.00  0.00    -0.508 OA
ATOM     25  H   UNL     1     -34.631  -2.353   5.926  1.00  0.00     0.293 HD
ENDBRANCH   8  24
TORSDOF 5
ENDMDL
MODEL 7
REMARK VINA RESULT:    -4.087      2.426      4.132
REMARK INTER + INTRA:          -5.073
REMARK INTER:                  -4.810
REMARK INTRA:                  -0.262
REMARK UNBOUND:                -0.269
REMARK SMILES O=c1cc(-c2ccc(O)c(O)c2)oc2cc(O)cc(O)c12
REMARK SMILES IDX 4 1 3 2 2 3 1 4 21 5 19 6 18 7 16 8 15 9 14 10 13 11 5 12
REMARK SMILES IDX 6 13 7 14 8 15 12 16 10 17 9 18 11 20 20 22 17 24
REMARK H PARENT 9 19 11 21 20 23 17 25
REMARK Flexibility Score: inf
ROOT
ATOM      1  C   UNL     1     -34.597  -7.590   3.256  1.00  0.00     0.138 A 
ATOM      2  C   UNL     1     -35.543  -7.793   2.242  1.00  0.00     0.100 A 
ATOM      3  C   UNL     1     -35.171  -8.458   1.073  1.00  0.00     0.197 A 
ATOM      4  O   UNL     1     -36.028  -8.575   0.159  1.00  0.00    -0.289 OA
ATOM      5  C   UNL     1     -33.852  -8.954   0.935  1.00  0.00     0.107 A 
ATOM      6  C   UNL     1     -33.368  -9.678  -0.197  1.00  0.00     0.134 A 
ATOM      7  C   UNL     1     -32.015 -10.033  -0.262  1.00  0.00     0.093 A 
ATOM      8  C   UNL     1     -31.142  -9.743   0.785  1.00  0.00     0.123 A 
ATOM      9  C   UNL     1     -31.615  -9.080   1.918  1.00  0.00     0.094 A 
ATOM     10  C   UNL     1     -32.952  -8.683   1.999  1.00  0.00     0.146 A 
ATOM     11  O   UNL     1     -33.357  -8.038   3.088  1.00  0.00    -0.456 OA
ENDROOT
BRANCH   1  12
ATOM     12  C   UNL     1     -34.939  -6.892   4.521  1.00  0.00     0.021 A 
ATOM     13  C   UNL     1     -35.307  -7.600   5.681  1.00  0.00     0.016 A 
ATOM     14  C   UNL     1     -35.633  -6.915   6.855  1.00  0.00     0.051 A 
ATOM     15  C   UNL     1     -35.607  -5.519   6.891  1.00  0.00     0.157 A 
ATOM     16  C   UNL     1     -34.926  -5.487   4.560  1.00  0.00     0.062 A 
ATOM     17  C   UNL     1     -35.253  -4.798   5.738  1.00  0.00     0.158 A 
BRANCH  15  18
ATOM     18  O   UNL     1     -35.936  -4.864   8.078  1.00  0.00    -0.504 OA
ATOM     19  H   UNL     1     -36.156  -3.875   8.105  1.00  0.00     0.293 HD
ENDBRANCH  15  18
BRANCH  17  20
ATOM     20  O   UNL     1     -35.228  -3.405   5.766  1.00  0.00    -0.504 OA
ATOM     21  H   UNL     1     -36.033  -2.866   6.064  1.00  0.00     0.293 HD
ENDBRANCH  17  20
ENDBRANCH   1  12
BRANCH   6  22
ATOM     22  O   UNL     1     -34.172 -10.090  -1.265  1.00  0.00    -0.507 OA
ATOM     23  H   UNL     1     -33.842 -10.286  -2.197  1.00  0.00     0.293 HD
ENDBRANCH   6  22
BRANCH   8  24
ATOM     24  O   UNL     1     -29.806 -10.125   0.692  1.00  0.00    -0.508 OA
ATOM     25  H   UNL     1     -29.054  -9.464   0.843  1.00  0.00     0.293 HD
ENDBRANCH   8  24
TORSDOF 5
ENDMDL
