MODEL 1
REMARK VINA RESULT:    -6.049      0.000      0.000
REMARK INTER + INTRA:          -7.699
REMARK INTER:                  -7.287
REMARK INTRA:                  -0.412
REMARK UNBOUND:                -0.412
REMARK SMILES O=c1c(O)c(-c2ccc(O)cc2O)oc2cc(O)cc(O)c12
REMARK SMILES IDX 5 1 3 2 2 3 1 4 22 5 20 6 19 7 17 8 16 9 15 10 14 11 6 12
REMARK SMILES IDX 8 13 7 14 9 15 11 16 12 17 10 18 13 20 4 22 21 24 18 26
REMARK H PARENT 10 19 13 21 4 23 21 25 18 27
REMARK Flexibility Score: inf
ROOT
ATOM      1  C   UNL     1      -3.267  14.089 -27.058  1.00  0.00     0.184 A 
ATOM      2  C   UNL     1      -4.133  13.154 -26.467  1.00  0.00     0.208 A 
ATOM      3  C   UNL     1      -4.659  12.122 -27.258  1.00  0.00     0.238 A 
ATOM      4  O   UNL     1      -5.477  11.319 -26.738  1.00  0.00    -0.285 OA
ATOM      5  C   UNL     1      -4.302  12.030 -28.625  1.00  0.00     0.111 A 
ATOM      6  C   UNL     1      -4.744  11.001 -29.511  1.00  0.00     0.134 A 
ATOM      7  C   UNL     1      -4.430  11.082 -30.873  1.00  0.00     0.093 A 
ATOM      8  C   UNL     1      -3.639  12.116 -31.371  1.00  0.00     0.123 A 
ATOM      9  C   UNL     1      -3.151  13.095 -30.503  1.00  0.00     0.094 A 
ATOM     10  C   UNL     1      -3.476  13.061 -29.146  1.00  0.00     0.146 A 
ATOM     11  O   UNL     1      -3.001  14.017 -28.355  1.00  0.00    -0.451 OA
ENDROOT
BRANCH   1  12
ATOM     12  C   UNL     1      -2.665  15.190 -26.276  1.00  0.00     0.063 A 
ATOM     13  C   UNL     1      -0.942  15.941 -24.733  1.00  0.00     0.047 A 
ATOM     14  C   UNL     1      -1.532  14.925 -25.489  1.00  0.00     0.020 A 
ATOM     15  C   UNL     1      -1.485  17.231 -24.744  1.00  0.00     0.119 A 
ATOM     16  C   UNL     1      -2.626  17.498 -25.506  1.00  0.00     0.093 A 
ATOM     17  C   UNL     1      -3.228  16.483 -26.263  1.00  0.00     0.130 A 
BRANCH  15  18
ATOM     18  O   UNL     1      -0.902  18.252 -23.997  1.00  0.00    -0.508 OA
ATOM     19  H   UNL     1      -1.355  19.152 -23.886  1.00  0.00     0.293 HD
ENDBRANCH  15  18
BRANCH  17  20
ATOM     20  O   UNL     1      -4.394  16.751 -26.980  1.00  0.00    -0.507 OA
ATOM     21  H   UNL     1      -5.177  17.236 -26.560  1.00  0.00     0.293 HD
ENDBRANCH  17  20
ENDBRANCH   1  12
BRANCH   2  22
ATOM     22  O   UNL     1      -4.484  13.280 -25.120  1.00  0.00    -0.502 OA
ATOM     23  H   UNL     1      -3.797  13.424 -24.391  1.00  0.00     0.293 HD
ENDBRANCH   2  22
BRANCH   6  24
ATOM     24  O   UNL     1      -5.463   9.875 -29.102  1.00  0.00    -0.507 OA
ATOM     25  H   UNL     1      -6.037   9.308 -29.708  1.00  0.00     0.293 HD
ENDBRANCH   6  24
BRANCH   8  26
ATOM     26  O   UNL     1      -3.334  12.157 -32.729  1.00  0.00    -0.508 OA
ATOM     27  H   UNL     1      -2.375  12.161 -33.058  1.00  0.00     0.293 HD
ENDBRANCH   8  26
TORSDOF 6
ENDMDL
MODEL 2
REMARK VINA RESULT:    -6.018      2.562      6.742
REMARK INTER + INTRA:          -7.661
REMARK INTER:                  -7.267
REMARK INTRA:                  -0.394
REMARK UNBOUND:                -0.412
REMARK SMILES O=c1c(O)c(-c2ccc(O)cc2O)oc2cc(O)cc(O)c12
REMARK SMILES IDX 5 1 3 2 2 3 1 4 22 5 20 6 19 7 17 8 16 9 15 10 14 11 6 12
REMARK SMILES IDX 8 13 7 14 9 15 11 16 12 17 10 18 13 20 4 22 21 24 18 26
REMARK H PARENT 10 19 13 21 4 23 21 25 18 27
REMARK Flexibility Score: inf
ROOT
ATOM      1  C   UNL     1      -3.702  14.968 -26.585  1.00  0.00     0.184 A 
ATOM      2  C   UNL     1      -3.991  15.740 -27.721  1.00  0.00     0.208 A 
ATOM      3  C   UNL     1      -3.341  16.972 -27.890  1.00  0.00     0.238 A 
ATOM      4  O   UNL     1      -3.644  17.685 -28.881  1.00  0.00    -0.285 OA
ATOM      5  C   UNL     1      -2.398  17.407 -26.926  1.00  0.00     0.111 A 
ATOM      6  C   UNL     1      -1.649  18.619 -27.016  1.00  0.00     0.134 A 
ATOM      7  C   UNL     1      -0.840  19.011 -25.943  1.00  0.00     0.093 A 
ATOM      8  C   UNL     1      -0.701  18.207 -24.813  1.00  0.00     0.123 A 
ATOM      9  C   UNL     1      -1.382  16.990 -24.740  1.00  0.00     0.094 A 
ATOM     10  C   UNL     1      -2.225  16.589 -25.779  1.00  0.00     0.146 A 
ATOM     11  O   UNL     1      -2.864  15.430 -25.667  1.00  0.00    -0.451 OA
ENDROOT
BRANCH   1  12
ATOM     12  C   UNL     1      -4.340  13.654 -26.357  1.00  0.00     0.063 A 
ATOM     13  C   UNL     1      -4.262  11.236 -26.605  1.00  0.00     0.047 A 
ATOM     14  C   UNL     1      -3.684  12.493 -26.798  1.00  0.00     0.020 A 
ATOM     15  C   UNL     1      -5.509  11.124 -25.979  1.00  0.00     0.119 A 
ATOM     16  C   UNL     1      -6.180  12.276 -25.558  1.00  0.00     0.093 A 
ATOM     17  C   UNL     1      -5.610  13.542 -25.753  1.00  0.00     0.130 A 
BRANCH  15  18
ATOM     18  O   UNL     1      -6.093   9.876 -25.778  1.00  0.00    -0.508 OA
ATOM     19  H   UNL     1      -5.818   9.280 -25.005  1.00  0.00     0.293 HD
ENDBRANCH  15  18
BRANCH  17  20
ATOM     20  O   UNL     1      -6.312  14.686 -25.372  1.00  0.00    -0.507 OA
ATOM     21  H   UNL     1      -6.882  14.705 -24.535  1.00  0.00     0.293 HD
ENDBRANCH  17  20
ENDBRANCH   1  12
BRANCH   2  22
ATOM     22  O   UNL     1      -4.940  15.295 -28.646  1.00  0.00    -0.502 OA
ATOM     23  H   UNL     1      -4.812  14.454 -29.194  1.00  0.00     0.293 HD
ENDBRANCH   2  22
BRANCH   6  24
ATOM     24  O   UNL     1      -1.644  19.453 -28.138  1.00  0.00    -0.507 OA
ATOM     25  H   UNL     1      -1.865  20.437 -28.125  1.00  0.00     0.293 HD
ENDBRANCH   6  24
BRANCH   8  26
ATOM     26  O   UNL     1       0.125  18.621 -23.771  1.00  0.00    -0.508 OA
ATOM     27  H   UNL     1       0.061  18.208 -22.847  1.00  0.00     0.293 HD
ENDBRANCH   8  26
TORSDOF 6
ENDMDL
MODEL 3
REMARK VINA RESULT:    -5.930      2.187      2.703
REMARK INTER + INTRA:          -7.554
REMARK INTER:                  -7.166
REMARK INTRA:                  -0.388
REMARK UNBOUND:                -0.412
REMARK SMILES O=c1c(O)c(-c2ccc(O)cc2O)oc2cc(O)cc(O)c12
REMARK SMILES IDX 5 1 3 2 2 3 1 4 22 5 20 6 19 7 17 8 16 9 15 10 14 11 6 12
REMARK SMILES IDX 8 13 7 14 9 15 11 16 12 17 10 18 13 20 4 22 21 24 18 26
REMARK H PARENT 10 19 13 21 4 23 21 25 18 27
REMARK Flexibility Score: inf
ROOT
ATOM      1  C   UNL     1      -2.944  15.444 -26.813  1.00  0.00     0.184 A 
ATOM      2  C   UNL     1      -4.221  15.309 -26.245  1.00  0.00     0.208 A 
ATOM      3  C   UNL     1      -4.844  14.053 -26.261  1.00  0.00     0.238 A 
ATOM      4  O   UNL     1      -6.010  13.949 -25.800  1.00  0.00    -0.285 OA
ATOM      5  C   UNL     1      -4.174  12.943 -26.832  1.00  0.00     0.111 A 
ATOM      6  C   UNL     1      -4.694  11.613 -26.867  1.00  0.00     0.134 A 
ATOM      7  C   UNL     1      -4.001  10.621 -27.572  1.00  0.00     0.093 A 
ATOM      8  C   UNL     1      -2.780  10.891 -28.186  1.00  0.00     0.123 A 
ATOM      9  C   UNL     1      -2.233  12.173 -28.106  1.00  0.00     0.094 A 
ATOM     10  C   UNL     1      -2.917  13.193 -27.442  1.00  0.00     0.146 A 
ATOM     11  O   UNL     1      -2.368  14.403 -27.399  1.00  0.00    -0.451 OA
ENDROOT
BRANCH   1  12
ATOM     12  C   UNL     1      -2.227  16.736 -26.813  1.00  0.00     0.063 A 
ATOM     13  C   UNL     1      -0.631  18.226 -25.742  1.00  0.00     0.047 A 
ATOM     14  C   UNL     1      -1.321  17.012 -25.776  1.00  0.00     0.020 A 
ATOM     15  C   UNL     1      -0.848  19.186 -26.737  1.00  0.00     0.119 A 
ATOM     16  C   UNL     1      -1.765  18.930 -27.761  1.00  0.00     0.093 A 
ATOM     17  C   UNL     1      -2.467  17.716 -27.799  1.00  0.00     0.130 A 
BRANCH  15  18
ATOM     18  O   UNL     1      -0.163  20.399 -26.715  1.00  0.00    -0.508 OA
ATOM     19  H   UNL     1      -0.629  21.266 -26.476  1.00  0.00     0.293 HD
ENDBRANCH  15  18
BRANCH  17  20
ATOM     20  O   UNL     1      -3.414  17.493 -28.798  1.00  0.00    -0.507 OA
ATOM     21  H   UNL     1      -3.382  16.671 -29.388  1.00  0.00     0.293 HD
ENDBRANCH  17  20
ENDBRANCH   1  12
BRANCH   2  22
ATOM     22  O   UNL     1      -4.867  16.426 -25.706  1.00  0.00    -0.502 OA
ATOM     23  H   UNL     1      -4.916  17.312 -26.192  1.00  0.00     0.293 HD
ENDBRANCH   2  22
BRANCH   6  24
ATOM     24  O   UNL     1      -5.861  11.214 -26.210  1.00  0.00    -0.507 OA
ATOM     25  H   UNL     1      -5.929  10.421 -25.590  1.00  0.00     0.293 HD
ENDBRANCH   6  24
BRANCH   8  26
ATOM     26  O   UNL     1      -2.111   9.875 -28.864  1.00  0.00    -0.508 OA
ATOM     27  H   UNL     1      -2.495   9.456 -29.703  1.00  0.00     0.293 HD
ENDBRANCH   8  26
TORSDOF 6
ENDMDL
MODEL 4
REMARK VINA RESULT:    -5.821      1.606      6.966
REMARK INTER + INTRA:          -7.424
REMARK INTER:                  -7.138
REMARK INTRA:                  -0.286
REMARK UNBOUND:                -0.412
REMARK SMILES O=c1c(O)c(-c2ccc(O)cc2O)oc2cc(O)cc(O)c12
REMARK SMILES IDX 5 1 3 2 2 3 1 4 22 5 20 6 19 7 17 8 16 9 15 10 14 11 6 12
REMARK SMILES IDX 8 13 7 14 9 15 11 16 12 17 10 18 13 20 4 22 21 24 18 26
REMARK H PARENT 10 19 13 21 4 23 21 25 18 27
REMARK Flexibility Score: inf
ROOT
ATOM      1  C   UNL     1      -3.253  14.566 -28.581  1.00  0.00     0.184 A 
ATOM      2  C   UNL     1      -3.821  15.808 -28.905  1.00  0.00     0.208 A 
ATOM      3  C   UNL     1      -3.449  16.940 -28.166  1.00  0.00     0.238 A 
ATOM      4  O   UNL     1      -4.002  18.041 -28.424  1.00  0.00    -0.285 OA
ATOM      5  C   UNL     1      -2.501  16.817 -27.121  1.00  0.00     0.111 A 
ATOM      6  C   UNL     1      -2.019  17.905 -26.331  1.00  0.00     0.134 A 
ATOM      7  C   UNL     1      -1.179  17.647 -25.241  1.00  0.00     0.093 A 
ATOM      8  C   UNL     1      -0.752  16.353 -24.950  1.00  0.00     0.123 A 
ATOM      9  C   UNL     1      -1.168  15.289 -25.752  1.00  0.00     0.094 A 
ATOM     10  C   UNL     1      -2.035  15.509 -26.824  1.00  0.00     0.146 A 
ATOM     11  O   UNL     1      -2.417  14.468 -27.556  1.00  0.00    -0.451 OA
ENDROOT
BRANCH   1  12
ATOM     12  C   UNL     1      -3.590  13.338 -29.332  1.00  0.00     0.063 A 
ATOM     13  C   UNL     1      -3.730  12.182 -31.467  1.00  0.00     0.047 A 
ATOM     14  C   UNL     1      -3.414  13.323 -30.725  1.00  0.00     0.020 A 
ATOM     15  C   UNL     1      -4.237  11.046 -30.827  1.00  0.00     0.119 A 
ATOM     16  C   UNL     1      -4.438  11.059 -29.443  1.00  0.00     0.093 A 
ATOM     17  C   UNL     1      -4.130  12.203 -28.692  1.00  0.00     0.130 A 
BRANCH  15  18
ATOM     18  O   UNL     1      -4.551   9.901 -31.556  1.00  0.00    -0.508 OA
ATOM     19  H   UNL     1      -5.381   9.853 -32.136  1.00  0.00     0.293 HD
ENDBRANCH  15  18
BRANCH  17  20
ATOM     20  O   UNL     1      -4.380  12.220 -27.320  1.00  0.00    -0.507 OA
ATOM     21  H   UNL     1      -4.126  11.442 -26.724  1.00  0.00     0.293 HD
ENDBRANCH  17  20
ENDBRANCH   1  12
BRANCH   2  22
ATOM     22  O   UNL     1      -4.769  15.897 -29.929  1.00  0.00    -0.502 OA
ATOM     23  H   UNL     1      -4.631  16.475 -30.748  1.00  0.00     0.293 HD
ENDBRANCH   2  22
BRANCH   6  24
ATOM     24  O   UNL     1      -2.311  19.247 -26.591  1.00  0.00    -0.507 OA
ATOM     25  H   UNL     1      -2.908  19.826 -26.020  1.00  0.00     0.293 HD
ENDBRANCH   6  24
BRANCH   8  26
ATOM     26  O   UNL     1       0.096  16.136 -23.867  1.00  0.00    -0.508 OA
ATOM     27  H   UNL     1       0.576  15.252 -23.737  1.00  0.00     0.293 HD
ENDBRANCH   8  26
TORSDOF 6
ENDMDL
MODEL 5
REMARK VINA RESULT:    -5.652      3.366      4.330
REMARK INTER + INTRA:          -7.220
REMARK INTER:                  -6.847
REMARK INTRA:                  -0.373
REMARK UNBOUND:                -0.412
REMARK SMILES O=c1c(O)c(-c2ccc(O)cc2O)oc2cc(O)cc(O)c12
REMARK SMILES IDX 5 1 3 2 2 3 1 4 22 5 20 6 19 7 17 8 16 9 15 10 14 11 6 12
REMARK SMILES IDX 8 13 7 14 9 15 11 16 12 17 10 18 13 20 4 22 21 24 18 26
REMARK H PARENT 10 19 13 21 4 23 21 25 18 27
REMARK Flexibility Score: inf
ROOT
ATOM      1  C   UNL     1      -4.989  15.845 -28.999  1.00  0.00     0.184 A 
ATOM      2  C   UNL     1      -5.362  15.443 -27.707  1.00  0.00     0.208 A 
ATOM      3  C   UNL     1      -5.056  14.140 -27.285  1.00  0.00     0.238 A 
ATOM      4  O   UNL     1      -5.441  13.767 -26.147  1.00  0.00    -0.285 OA
ATOM      5  C   UNL     1      -4.368  13.262 -28.158  1.00  0.00     0.111 A 
ATOM      6  C   UNL     1      -3.971  11.932 -27.821  1.00  0.00     0.134 A 
ATOM      7  C   UNL     1      -3.411  11.110 -28.806  1.00  0.00     0.093 A 
ATOM      8  C   UNL     1      -3.172  11.587 -30.094  1.00  0.00     0.123 A 
ATOM      9  C   UNL     1      -3.501  12.904 -30.417  1.00  0.00     0.094 A 
ATOM     10  C   UNL     1      -4.095  13.738 -29.468  1.00  0.00     0.146 A 
ATOM     11  O   UNL     1      -4.404  14.982 -29.818  1.00  0.00    -0.451 OA
ENDROOT
BRANCH   1  12
ATOM     12  C   UNL     1      -5.266  17.209 -29.497  1.00  0.00     0.063 A 
ATOM     13  C   UNL     1      -4.492  19.486 -29.858  1.00  0.00     0.047 A 
ATOM     14  C   UNL     1      -4.261  18.185 -29.403  1.00  0.00     0.020 A 
ATOM     15  C   UNL     1      -5.734  19.830 -30.401  1.00  0.00     0.119 A 
ATOM     16  C   UNL     1      -6.749  18.872 -30.478  1.00  0.00     0.093 A 
ATOM     17  C   UNL     1      -6.528  17.565 -30.018  1.00  0.00     0.130 A 
BRANCH  15  18
ATOM     18  O   UNL     1      -5.974  21.123 -30.862  1.00  0.00    -0.508 OA
ATOM     19  H   UNL     1      -6.916  21.478 -30.977  1.00  0.00     0.293 HD
ENDBRANCH  15  18
BRANCH  17  20
ATOM     20  O   UNL     1      -7.563  16.632 -30.056  1.00  0.00    -0.507 OA
ATOM     21  H   UNL     1      -7.575  15.878 -30.732  1.00  0.00     0.293 HD
ENDBRANCH  17  20
ENDBRANCH   1  12
BRANCH   2  22
ATOM     22  O   UNL     1      -6.057  16.324 -26.873  1.00  0.00    -0.502 OA
ATOM     23  H   UNL     1      -6.213  17.294 -27.118  1.00  0.00     0.293 HD
ENDBRANCH   2  22
BRANCH   6  24
ATOM     24  O   UNL     1      -4.080  11.386 -26.540  1.00  0.00    -0.507 OA
ATOM     25  H   UNL     1      -4.533  10.510 -26.324  1.00  0.00     0.293 HD
ENDBRANCH   6  24
BRANCH   8  26
ATOM     26  O   UNL     1      -2.598  10.745 -31.044  1.00  0.00    -0.508 OA
ATOM     27  H   UNL     1      -1.607  10.534 -31.035  1.00  0.00     0.293 HD
ENDBRANCH   8  26
TORSDOF 6
ENDMDL
MODEL 6
REMARK VINA RESULT:    -5.640      3.359      5.985
REMARK INTER + INTRA:          -7.206
REMARK INTER:                  -6.813
REMARK INTRA:                  -0.393
REMARK UNBOUND:                -0.412
REMARK SMILES O=c1c(O)c(-c2ccc(O)cc2O)oc2cc(O)cc(O)c12
REMARK SMILES IDX 5 1 3 2 2 3 1 4 22 5 20 6 19 7 17 8 16 9 15 10 14 11 6 12
REMARK SMILES IDX 8 13 7 14 9 15 11 16 12 17 10 18 13 20 4 22 21 24 18 26
REMARK H PARENT 10 19 13 21 4 23 21 25 18 27
REMARK Flexibility Score: inf
ROOT
ATOM      1  C   UNL     1      -4.657  15.193 -27.760  1.00  0.00     0.184 A 
ATOM      2  C   UNL     1      -3.511  16.003 -27.730  1.00  0.00     0.208 A 
ATOM      3  C   UNL     1      -3.527  17.229 -28.410  1.00  0.00     0.238 A 
ATOM      4  O   UNL     1      -2.479  17.926 -28.426  1.00  0.00    -0.285 OA
ATOM      5  C   UNL     1      -4.695  17.636 -29.100  1.00  0.00     0.111 A 
ATOM      6  C   UNL     1      -4.837  18.877 -29.791  1.00  0.00     0.134 A 
ATOM      7  C   UNL     1      -5.991  19.118 -30.546  1.00  0.00     0.093 A 
ATOM      8  C   UNL     1      -7.034  18.194 -30.584  1.00  0.00     0.123 A 
ATOM      9  C   UNL     1      -6.931  17.003 -29.864  1.00  0.00     0.094 A 
ATOM     10  C   UNL     1      -5.778  16.718 -29.131  1.00  0.00     0.146 A 
ATOM     11  O   UNL     1      -5.714  15.568 -28.468  1.00  0.00    -0.451 OA
ENDROOT
BRANCH   1  12
ATOM     12  C   UNL     1      -4.711  13.898 -27.050  1.00  0.00     0.063 A 
ATOM     13  C   UNL     1      -3.976  11.585 -26.888  1.00  0.00     0.047 A 
ATOM     14  C   UNL     1      -3.943  12.825 -27.531  1.00  0.00     0.020 A 
ATOM     15  C   UNL     1      -4.787  11.399 -25.762  1.00  0.00     0.119 A 
ATOM     16  C   UNL     1      -5.573  12.454 -25.290  1.00  0.00     0.093 A 
ATOM     17  C   UNL     1      -5.551  13.700 -25.934  1.00  0.00     0.130 A 
BRANCH  15  18
ATOM     18  O   UNL     1      -4.825  10.168 -25.111  1.00  0.00    -0.508 OA
ATOM     19  H   UNL     1      -5.648   9.860 -24.607  1.00  0.00     0.293 HD
ENDBRANCH  15  18
BRANCH  17  20
ATOM     20  O   UNL     1      -6.376  14.729 -25.481  1.00  0.00    -0.507 OA
ATOM     21  H   UNL     1      -7.373  14.728 -25.659  1.00  0.00     0.293 HD
ENDBRANCH  17  20
ENDBRANCH   1  12
BRANCH   2  22
ATOM     22  O   UNL     1      -2.365  15.568 -27.057  1.00  0.00    -0.502 OA
ATOM     23  H   UNL     1      -2.252  15.668 -26.056  1.00  0.00     0.293 HD
ENDBRANCH   2  22
BRANCH   6  24
ATOM     24  O   UNL     1      -3.895  19.909 -29.745  1.00  0.00    -0.507 OA
ATOM     25  H   UNL     1      -3.618  20.398 -28.908  1.00  0.00     0.293 HD
ENDBRANCH   6  24
BRANCH   8  26
ATOM     26  O   UNL     1      -8.174  18.474 -31.333  1.00  0.00    -0.508 OA
ATOM     27  H   UNL     1      -8.522  17.828 -32.033  1.00  0.00     0.293 HD
ENDBRANCH   8  26
TORSDOF 6
ENDMDL
MODEL 7
REMARK VINA RESULT:    -5.204      1.641      3.502
REMARK INTER + INTRA:          -6.681
REMARK INTER:                  -6.263
REMARK INTRA:                  -0.418
REMARK UNBOUND:                -0.412
REMARK SMILES O=c1c(O)c(-c2ccc(O)cc2O)oc2cc(O)cc(O)c12
REMARK SMILES IDX 5 1 3 2 2 3 1 4 22 5 20 6 19 7 17 8 16 9 15 10 14 11 6 12
REMARK SMILES IDX 8 13 7 14 9 15 11 16 12 17 10 18 13 20 4 22 21 24 18 26
REMARK H PARENT 10 19 13 21 4 23 21 25 18 27
REMARK Flexibility Score: inf
ROOT
ATOM      1  C   UNL     1      -3.278  14.057 -27.169  1.00  0.00     0.184 A 
ATOM      2  C   UNL     1      -3.350  13.506 -28.459  1.00  0.00     0.208 A 
ATOM      3  C   UNL     1      -4.057  12.310 -28.648  1.00  0.00     0.238 A 
ATOM      4  O   UNL     1      -4.073  11.792 -29.795  1.00  0.00    -0.285 OA
ATOM      5  C   UNL     1      -4.697  11.689 -27.548  1.00  0.00     0.111 A 
ATOM      6  C   UNL     1      -5.476  10.495 -27.631  1.00  0.00     0.134 A 
ATOM      7  C   UNL     1      -5.954   9.900 -26.458  1.00  0.00     0.093 A 
ATOM      8  C   UNL     1      -5.739  10.487 -25.212  1.00  0.00     0.123 A 
ATOM      9  C   UNL     1      -5.030  11.686 -25.124  1.00  0.00     0.094 A 
ATOM     10  C   UNL     1      -4.509  12.285 -26.273  1.00  0.00     0.146 A 
ATOM     11  O   UNL     1      -3.830  13.420 -26.146  1.00  0.00    -0.451 OA
ENDROOT
BRANCH   1  12
ATOM     12  C   UNL     1      -2.562  15.324 -26.905  1.00  0.00     0.063 A 
ATOM     13  C   UNL     1      -0.513  16.452 -26.242  1.00  0.00     0.047 A 
ATOM     14  C   UNL     1      -1.217  15.275 -26.506  1.00  0.00     0.020 A 
ATOM     15  C   UNL     1      -1.149  17.693 -26.361  1.00  0.00     0.119 A 
ATOM     16  C   UNL     1      -2.495  17.751 -26.735  1.00  0.00     0.093 A 
ATOM     17  C   UNL     1      -3.211  16.573 -26.996  1.00  0.00     0.130 A 
BRANCH  15  18
ATOM     18  O   UNL     1      -0.456  18.874 -26.104  1.00  0.00    -0.508 OA
ATOM     19  H   UNL     1      -0.367  19.242 -25.164  1.00  0.00     0.293 HD
ENDBRANCH  15  18
BRANCH  17  20
ATOM     20  O   UNL     1      -4.565  16.642 -27.320  1.00  0.00    -0.507 OA
ATOM     21  H   UNL     1      -5.267  16.874 -26.628  1.00  0.00     0.293 HD
ENDBRANCH  17  20
ENDBRANCH   1  12
BRANCH   2  22
ATOM     22  O   UNL     1      -2.693  14.130 -29.523  1.00  0.00    -0.502 OA
ATOM     23  H   UNL     1      -2.661  13.728 -30.452  1.00  0.00     0.293 HD
ENDBRANCH   2  22
BRANCH   6  24
ATOM     24  O   UNL     1      -5.827   9.875 -28.834  1.00  0.00    -0.507 OA
ATOM     25  H   UNL     1      -6.035  10.362 -29.692  1.00  0.00     0.293 HD
ENDBRANCH   6  24
BRANCH   8  26
ATOM     26  O   UNL     1      -6.243   9.875 -24.067  1.00  0.00    -0.508 OA
ATOM     27  H   UNL     1      -6.719  10.407 -23.347  1.00  0.00     0.293 HD
ENDBRANCH   8  26
TORSDOF 6
ENDMDL
MODEL 8
REMARK VINA RESULT:    -5.173      2.307      6.771
REMARK INTER + INTRA:          -6.643
REMARK INTER:                  -6.233
REMARK INTRA:                  -0.410
REMARK UNBOUND:                -0.412
REMARK SMILES O=c1c(O)c(-c2ccc(O)cc2O)oc2cc(O)cc(O)c12
REMARK SMILES IDX 5 1 3 2 2 3 1 4 22 5 20 6 19 7 17 8 16 9 15 10 14 11 6 12
REMARK SMILES IDX 8 13 7 14 9 15 11 16 12 17 10 18 13 20 4 22 21 24 18 26
REMARK H PARENT 10 19 13 21 4 23 21 25 18 27
REMARK Flexibility Score: inf
ROOT
ATOM      1  C   UNL     1      -2.467  15.682 -26.622  1.00  0.00     0.184 A 
ATOM      2  C   UNL     1      -1.458  15.844 -25.659  1.00  0.00     0.208 A 
ATOM      3  C   UNL     1      -0.851  17.101 -25.516  1.00  0.00     0.238 A 
ATOM      4  O   UNL     1       0.090  17.227 -24.690  1.00  0.00    -0.285 OA
ATOM      5  C   UNL     1      -1.271  18.182 -26.328  1.00  0.00     0.111 A 
ATOM      6  C   UNL     1      -0.754  19.510 -26.241  1.00  0.00     0.134 A 
ATOM      7  C   UNL     1      -1.152  20.468 -27.181  1.00  0.00     0.093 A 
ATOM      8  C   UNL     1      -2.095  20.168 -28.162  1.00  0.00     0.123 A 
ATOM      9  C   UNL     1      -2.653  18.889 -28.219  1.00  0.00     0.094 A 
ATOM     10  C   UNL     1      -2.249  17.902 -27.319  1.00  0.00     0.146 A 
ATOM     11  O   UNL     1      -2.795  16.694 -27.413  1.00  0.00    -0.451 OA
ENDROOT
BRANCH   1  12
ATOM     12  C   UNL     1      -3.158  14.389 -26.812  1.00  0.00     0.063 A 
ATOM     13  C   UNL     1      -3.095  12.100 -27.630  1.00  0.00     0.047 A 
ATOM     14  C   UNL     1      -2.469  13.333 -27.429  1.00  0.00     0.020 A 
ATOM     15  C   UNL     1      -4.422  11.911 -27.227  1.00  0.00     0.119 A 
ATOM     16  C   UNL     1      -5.123  12.964 -26.633  1.00  0.00     0.093 A 
ATOM     17  C   UNL     1      -4.505  14.207 -26.433  1.00  0.00     0.130 A 
BRANCH  15  18
ATOM     18  O   UNL     1      -5.054  10.685 -27.418  1.00  0.00    -0.508 OA
ATOM     19  H   UNL     1      -5.154  10.017 -26.663  1.00  0.00     0.293 HD
ENDBRANCH  15  18
BRANCH  17  20
ATOM     20  O   UNL     1      -5.232  15.263 -25.884  1.00  0.00    -0.507 OA
ATOM     21  H   UNL     1      -6.026  15.668 -26.363  1.00  0.00     0.293 HD
ENDBRANCH  17  20
ENDBRANCH   1  12
BRANCH   2  22
ATOM     22  O   UNL     1      -1.049  14.755 -24.885  1.00  0.00    -0.502 OA
ATOM     23  H   UNL     1      -0.665  13.912 -25.293  1.00  0.00     0.293 HD
ENDBRANCH   2  22
BRANCH   6  24
ATOM     24  O   UNL     1       0.125  19.941 -25.243  1.00  0.00    -0.507 OA
ATOM     25  H   UNL     1       0.954  19.445 -24.953  1.00  0.00     0.293 HD
ENDBRANCH   6  24
BRANCH   8  26
ATOM     26  O   UNL     1      -2.479  21.151 -29.071  1.00  0.00    -0.508 OA
ATOM     27  H   UNL     1      -2.069  22.078 -29.054  1.00  0.00     0.293 HD
ENDBRANCH   8  26
TORSDOF 6
ENDMDL
MODEL 9
REMARK VINA RESULT:    -4.965      2.495      3.945
REMARK INTER + INTRA:          -6.393
REMARK INTER:                  -5.985
REMARK INTRA:                  -0.409
REMARK UNBOUND:                -0.412
REMARK SMILES O=c1c(O)c(-c2ccc(O)cc2O)oc2cc(O)cc(O)c12
REMARK SMILES IDX 5 1 3 2 2 3 1 4 22 5 20 6 19 7 17 8 16 9 15 10 14 11 6 12
REMARK SMILES IDX 8 13 7 14 9 15 11 16 12 17 10 18 13 20 4 22 21 24 18 26
REMARK H PARENT 10 19 13 21 4 23 21 25 18 27
REMARK Flexibility Score: inf
ROOT
ATOM      1  C   UNL     1      -1.964  15.136 -26.485  1.00  0.00     0.184 A 
ATOM      2  C   UNL     1      -1.241  14.154 -27.182  1.00  0.00     0.208 A 
ATOM      3  C   UNL     1      -1.821  12.891 -27.376  1.00  0.00     0.238 A 
ATOM      4  O   UNL     1      -1.148  11.998 -27.953  1.00  0.00    -0.285 OA
ATOM      5  C   UNL     1      -3.123  12.632 -26.882  1.00  0.00     0.111 A 
ATOM      6  C   UNL     1      -3.825  11.401 -27.055  1.00  0.00     0.134 A 
ATOM      7  C   UNL     1      -5.055  11.213 -26.414  1.00  0.00     0.093 A 
ATOM      8  C   UNL     1      -5.639  12.230 -25.660  1.00  0.00     0.123 A 
ATOM      9  C   UNL     1      -4.989  13.459 -25.534  1.00  0.00     0.094 A 
ATOM     10  C   UNL     1      -3.745  13.665 -26.131  1.00  0.00     0.146 A 
ATOM     11  O   UNL     1      -3.154  14.845 -25.978  1.00  0.00    -0.451 OA
ENDROOT
BRANCH   1  12
ATOM     12  C   UNL     1      -1.416  16.490 -26.263  1.00  0.00     0.063 A 
ATOM     13  C   UNL     1      -1.162  18.781 -27.040  1.00  0.00     0.047 A 
ATOM     14  C   UNL     1      -1.670  17.491 -27.215  1.00  0.00     0.020 A 
ATOM     15  C   UNL     1      -0.383  19.083 -25.916  1.00  0.00     0.119 A 
ATOM     16  C   UNL     1      -0.106  18.087 -24.975  1.00  0.00     0.093 A 
ATOM     17  C   UNL     1      -0.607  16.788 -25.147  1.00  0.00     0.130 A 
BRANCH  15  18
ATOM     18  O   UNL     1       0.125  20.366 -25.729  1.00  0.00    -0.508 OA
ATOM     19  H   UNL     1       1.111  20.568 -25.847  1.00  0.00     0.293 HD
ENDBRANCH  15  18
BRANCH  17  20
ATOM     20  O   UNL     1      -0.283  15.792 -24.226  1.00  0.00    -0.507 OA
ATOM     21  H   UNL     1      -0.443  14.812 -24.424  1.00  0.00     0.293 HD
ENDBRANCH  17  20
ENDBRANCH   1  12
BRANCH   2  22
ATOM     22  O   UNL     1       0.050  14.431 -27.642  1.00  0.00    -0.502 OA
ATOM     23  H   UNL     1       0.847  14.486 -27.020  1.00  0.00     0.293 HD
ENDBRANCH   2  22
BRANCH   6  24
ATOM     24  O   UNL     1      -3.375  10.353 -27.862  1.00  0.00    -0.507 OA
ATOM     25  H   UNL     1      -3.254   9.400 -27.552  1.00  0.00     0.293 HD
ENDBRANCH   6  24
BRANCH   8  26
ATOM     26  O   UNL     1      -6.872  12.012 -25.049  1.00  0.00    -0.508 OA
ATOM     27  H   UNL     1      -7.344  12.745 -24.532  1.00  0.00     0.293 HD
ENDBRANCH   8  26
TORSDOF 6
ENDMDL
