MODEL 1
REMARK VINA RESULT:    -4.629      0.000      0.000
REMARK INTER + INTRA:         -14.495
REMARK INTER:                 -10.581
REMARK INTRA:                  -3.913
REMARK UNBOUND:                -3.913
REMARK SMILES CCCCCCCCCCCCCCCCCCCCCCCC(=O)[O-]
REMARK SMILES IDX 13 1 14 2 15 3 16 4 17 5 18 6 19 7 20 8 21 9 22 10 23 11
REMARK SMILES IDX 24 12 25 13 26 14 12 15 11 16 10 17 9 18 8 19 7 20 6 21 5 22
REMARK SMILES IDX 4 23 3 24 2 25 1 26
REMARK H PARENT
REMARK Flexibility Score: inf
ROOT
ATOM      1  C   UNL     1      39.022  22.417 224.473  1.00  0.00     0.000 C 
ENDROOT
BRANCH   1   2
ATOM      2  C   UNL     1      39.861  22.817 223.246  1.00  0.00     0.000 C 
BRANCH   2   3
ATOM      3  C   UNL     1      41.379  22.923 223.495  1.00  0.00     0.000 C 
BRANCH   3   4
ATOM      4  C   UNL     1      42.178  21.631 223.234  1.00  0.00     0.000 C 
BRANCH   4   5
ATOM      5  C   UNL     1      41.385  20.507 222.537  1.00  0.00     0.000 C 
BRANCH   5   6
ATOM      6  C   UNL     1      40.930  19.363 223.465  1.00  0.00     0.000 C 
BRANCH   6   7
ATOM      7  C   UNL     1      41.560  19.375 224.873  1.00  0.00     0.000 C 
BRANCH   7   8
ATOM      8  C   UNL     1      40.892  18.431 225.890  1.00  0.00     0.000 C 
BRANCH   8   9
ATOM      9  C   UNL     1      39.735  19.100 226.653  1.00  0.00     0.000 C 
BRANCH   9  10
ATOM     10  C   UNL     1      38.375  18.454 226.346  1.00  0.00     0.006 C 
BRANCH  10  11
ATOM     11  C   UNL     1      37.464  19.368 225.516  1.00  0.00     0.053 C 
BRANCH  11  12
ATOM     12  C   UNL     1      36.180  19.623 226.241  1.00  0.00     0.041 C 
ATOM     13  O   UNL     1      35.910  20.777 226.667  1.00  0.00    -0.550 OA
ATOM     14  O   UNL     1      35.258  18.596 226.403  1.00  0.00    -0.550 OA
ENDBRANCH  11  12
ENDBRANCH  10  11
ENDBRANCH   9  10
ENDBRANCH   8   9
ENDBRANCH   7   8
ENDBRANCH   6   7
ENDBRANCH   5   6
ENDBRANCH   4   5
ENDBRANCH   3   4
ENDBRANCH   2   3
ENDBRANCH   1   2
BRANCH   1  15
ATOM     15  C   UNL     1      39.782  22.591 225.800  1.00  0.00     0.000 C 
BRANCH  15  16
ATOM     16  C   UNL     1      38.837  22.803 226.995  1.00  0.00     0.000 C 
BRANCH  16  17
ATOM     17  C   UNL     1      39.178  24.062 227.805  1.00  0.00     0.000 C 
BRANCH  17  18
ATOM     18  C   UNL     1      38.378  25.272 227.305  1.00  0.00    -0.000 C 
BRANCH  18  19
ATOM     19  C   UNL     1      39.232  26.150 226.379  1.00  0.00    -0.000 C 
BRANCH  19  20
ATOM     20  C   UNL     1      38.692  26.194 224.942  1.00  0.00    -0.000 C 
BRANCH  20  21
ATOM     21  C   UNL     1      37.269  25.617 224.826  1.00  0.00    -0.000 C 
BRANCH  21  22
ATOM     22  C   UNL     1      36.887  25.280 223.376  1.00  0.00    -0.000 C 
BRANCH  22  23
ATOM     23  C   UNL     1      35.967  24.051 223.278  1.00  0.00    -0.000 C 
BRANCH  23  24
ATOM     24  C   UNL     1      35.619  23.682 221.825  1.00  0.00    -0.000 C 
BRANCH  24  25
ATOM     25  C   UNL     1      36.823  23.635 220.867  1.00  0.00    -0.003 C 
ATOM     26  C   UNL     1      36.441  23.907 219.413  1.00  0.00     0.004 C 
ENDBRANCH  24  25
ENDBRANCH  23  24
ENDBRANCH  22  23
ENDBRANCH  21  22
ENDBRANCH  20  21
ENDBRANCH  19  20
ENDBRANCH  18  19
ENDBRANCH  17  18
ENDBRANCH  16  17
ENDBRANCH  15  16
ENDBRANCH   1  15
TORSDOF 22
ENDMDL
MODEL 2
REMARK VINA RESULT:    -4.362      1.328      2.661
REMARK INTER + INTRA:         -13.886
REMARK INTER:                 -10.166
REMARK INTRA:                  -3.720
REMARK UNBOUND:                -3.913
REMARK SMILES CCCCCCCCCCCCCCCCCCCCCCCC(=O)[O-]
REMARK SMILES IDX 13 1 14 2 15 3 16 4 17 5 18 6 19 7 20 8 21 9 22 10 23 11
REMARK SMILES IDX 24 12 25 13 26 14 12 15 11 16 10 17 9 18 8 19 7 20 6 21 5 22
REMARK SMILES IDX 4 23 3 24 2 25 1 26
REMARK H PARENT
REMARK Flexibility Score: inf
ROOT
ATOM      1  C   UNL     1      40.816  22.663 222.823  1.00  0.00     0.000 C 
ENDROOT
BRANCH   1   2
ATOM      2  C   UNL     1      42.060  21.788 223.059  1.00  0.00     0.000 C 
BRANCH   2   3
ATOM      3  C   UNL     1      42.050  20.426 222.335  1.00  0.00     0.000 C 
BRANCH   3   4
ATOM      4  C   UNL     1      41.090  19.376 222.928  1.00  0.00     0.000 C 
BRANCH   4   5
ATOM      5  C   UNL     1      41.102  19.281 224.467  1.00  0.00     0.000 C 
BRANCH   5   6
ATOM      6  C   UNL     1      39.752  18.896 225.103  1.00  0.00     0.000 C 
BRANCH   6   7
ATOM      7  C   UNL     1      39.824  17.767 226.152  1.00  0.00     0.000 C 
BRANCH   7   8
ATOM      8  C   UNL     1      40.035  18.241 227.602  1.00  0.00     0.000 C 
BRANCH   8   9
ATOM      9  C   UNL     1      38.787  18.042 228.480  1.00  0.00     0.000 C 
BRANCH   9  10
ATOM     10  C   UNL     1      37.625  18.959 228.070  1.00  0.00     0.006 C 
BRANCH  10  11
ATOM     11  C   UNL     1      36.488  18.194 227.378  1.00  0.00     0.053 C 
BRANCH  11  12
ATOM     12  C   UNL     1      35.802  19.070 226.378  1.00  0.00     0.041 C 
ATOM     13  O   UNL     1      35.414  20.222 226.706  1.00  0.00    -0.550 OA
ATOM     14  O   UNL     1      35.637  18.634 225.070  1.00  0.00    -0.550 OA
ENDBRANCH  11  12
ENDBRANCH  10  11
ENDBRANCH   9  10
ENDBRANCH   8   9
ENDBRANCH   7   8
ENDBRANCH   6   7
ENDBRANCH   5   6
ENDBRANCH   4   5
ENDBRANCH   3   4
ENDBRANCH   2   3
ENDBRANCH   1   2
BRANCH   1  15
ATOM     15  C   UNL     1      40.774  23.904 223.732  1.00  0.00     0.000 C 
BRANCH  15  16
ATOM     16  C   UNL     1      41.870  23.878 224.811  1.00  0.00     0.000 C 
BRANCH  16  17
ATOM     17  C   UNL     1      41.302  23.696 226.227  1.00  0.00     0.000 C 
BRANCH  17  18
ATOM     18  C   UNL     1      41.156  22.208 226.574  1.00  0.00    -0.000 C 
BRANCH  18  19
ATOM     19  C   UNL     1      39.824  21.942 227.291  1.00  0.00    -0.000 C 
BRANCH  19  20
ATOM     20  C   UNL     1      38.606  22.191 226.389  1.00  0.00    -0.000 C 
BRANCH  20  21
ATOM     21  C   UNL     1      37.808  23.440 226.804  1.00  0.00    -0.000 C 
BRANCH  21  22
ATOM     22  C   UNL     1      36.912  23.969 225.672  1.00  0.00    -0.000 C 
BRANCH  22  23
ATOM     23  C   UNL     1      37.606  25.051 224.827  1.00  0.00    -0.000 C 
BRANCH  23  24
ATOM     24  C   UNL     1      37.080  25.105 223.382  1.00  0.00    -0.000 C 
BRANCH  24  25
ATOM     25  C   UNL     1      37.237  23.794 222.590  1.00  0.00    -0.003 C 
ATOM     26  C   UNL     1      36.394  23.760 221.317  1.00  0.00     0.004 C 
ENDBRANCH  24  25
ENDBRANCH  23  24
ENDBRANCH  22  23
ENDBRANCH  21  22
ENDBRANCH  20  21
ENDBRANCH  19  20
ENDBRANCH  18  19
ENDBRANCH  17  18
ENDBRANCH  16  17
ENDBRANCH  15  16
ENDBRANCH   1  15
TORSDOF 22
ENDMDL
MODEL 3
REMARK VINA RESULT:    -4.319      1.706      3.097
REMARK INTER + INTRA:         -13.788
REMARK INTER:                  -9.871
REMARK INTRA:                  -3.917
REMARK UNBOUND:                -3.913
REMARK SMILES CCCCCCCCCCCCCCCCCCCCCCCC(=O)[O-]
REMARK SMILES IDX 13 1 14 2 15 3 16 4 17 5 18 6 19 7 20 8 21 9 22 10 23 11
REMARK SMILES IDX 24 12 25 13 26 14 12 15 11 16 10 17 9 18 8 19 7 20 6 21 5 22
REMARK SMILES IDX 4 23 3 24 2 25 1 26
REMARK H PARENT
REMARK Flexibility Score: inf
ROOT
ATOM      1  C   UNL     1      41.791  22.538 224.495  1.00  0.00     0.000 C 
ENDROOT
BRANCH   1   2
ATOM      2  C   UNL     1      40.890  21.869 225.547  1.00  0.00     0.000 C 
BRANCH   2   3
ATOM      3  C   UNL     1      41.615  21.381 226.817  1.00  0.00     0.000 C 
BRANCH   3   4
ATOM      4  C   UNL     1      41.154  22.042 228.131  1.00  0.00     0.000 C 
BRANCH   4   5
ATOM      5  C   UNL     1      39.666  22.443 228.167  1.00  0.00     0.000 C 
BRANCH   5   6
ATOM      6  C   UNL     1      38.732  21.412 228.832  1.00  0.00     0.000 C 
BRANCH   6   7
ATOM      7  C   UNL     1      39.449  20.253 229.555  1.00  0.00     0.000 C 
BRANCH   7   8
ATOM      8  C   UNL     1      39.536  18.943 228.750  1.00  0.00     0.000 C 
BRANCH   8   9
ATOM      9  C   UNL     1      38.156  18.413 228.325  1.00  0.00     0.000 C 
BRANCH   9  10
ATOM     10  C   UNL     1      38.058  18.173 226.810  1.00  0.00     0.006 C 
BRANCH  10  11
ATOM     11  C   UNL     1      37.642  19.433 226.040  1.00  0.00     0.053 C 
BRANCH  11  12
ATOM     12  C   UNL     1      36.173  19.675 226.191  1.00  0.00     0.041 C 
ATOM     13  O   UNL     1      35.757  20.694 226.804  1.00  0.00    -0.550 OA
ATOM     14  O   UNL     1      35.261  18.802 225.611  1.00  0.00    -0.550 OA
ENDBRANCH  11  12
ENDBRANCH  10  11
ENDBRANCH   9  10
ENDBRANCH   8   9
ENDBRANCH   7   8
ENDBRANCH   6   7
ENDBRANCH   5   6
ENDBRANCH   4   5
ENDBRANCH   3   4
ENDBRANCH   2   3
ENDBRANCH   1   2
BRANCH   1  15
ATOM     15  C   UNL     1      41.673  24.072 224.493  1.00  0.00     0.000 C 
BRANCH  15  16
ATOM     16  C   UNL     1      42.535  24.730 225.585  1.00  0.00     0.000 C 
BRANCH  16  17
ATOM     17  C   UNL     1      41.857  25.955 226.216  1.00  0.00     0.000 C 
BRANCH  17  18
ATOM     18  C   UNL     1      40.388  25.663 226.546  1.00  0.00    -0.000 C 
BRANCH  18  19
ATOM     19  C   UNL     1      39.455  26.612 225.780  1.00  0.00    -0.000 C 
BRANCH  19  20
ATOM     20  C   UNL     1      38.341  25.867 225.028  1.00  0.00    -0.000 C 
BRANCH  20  21
ATOM     21  C   UNL     1      37.282  25.274 225.975  1.00  0.00    -0.000 C 
BRANCH  21  22
ATOM     22  C   UNL     1      37.212  23.741 225.894  1.00  0.00    -0.000 C 
BRANCH  22  23
ATOM     23  C   UNL     1      37.707  23.199 224.542  1.00  0.00    -0.000 C 
BRANCH  23  24
ATOM     24  C   UNL     1      36.557  22.732 223.631  1.00  0.00    -0.000 C 
BRANCH  24  25
ATOM     25  C   UNL     1      35.897  23.850 222.804  1.00  0.00    -0.003 C 
ATOM     26  C   UNL     1      36.411  23.914 221.367  1.00  0.00     0.004 C 
ENDBRANCH  24  25
ENDBRANCH  23  24
ENDBRANCH  22  23
ENDBRANCH  21  22
ENDBRANCH  20  21
ENDBRANCH  19  20
ENDBRANCH  18  19
ENDBRANCH  17  18
ENDBRANCH  16  17
ENDBRANCH  15  16
ENDBRANCH   1  15
TORSDOF 22
ENDMDL
MODEL 4
REMARK VINA RESULT:    -4.301      1.660      4.317
REMARK INTER + INTRA:         -13.747
REMARK INTER:                  -9.918
REMARK INTRA:                  -3.828
REMARK UNBOUND:                -3.913
REMARK SMILES CCCCCCCCCCCCCCCCCCCCCCCC(=O)[O-]
REMARK SMILES IDX 13 1 14 2 15 3 16 4 17 5 18 6 19 7 20 8 21 9 22 10 23 11
REMARK SMILES IDX 24 12 25 13 26 14 12 15 11 16 10 17 9 18 8 19 7 20 6 21 5 22
REMARK SMILES IDX 4 23 3 24 2 25 1 26
REMARK H PARENT
REMARK Flexibility Score: inf
ROOT
ATOM      1  C   UNL     1      41.101  23.496 223.394  1.00  0.00     0.000 C 
ENDROOT
BRANCH   1   2
ATOM      2  C   UNL     1      41.299  22.055 222.893  1.00  0.00     0.000 C 
BRANCH   2   3
ATOM      3  C   UNL     1      42.476  21.293 223.535  1.00  0.00     0.000 C 
BRANCH   3   4
ATOM      4  C   UNL     1      42.097  19.973 224.236  1.00  0.00     0.000 C 
BRANCH   4   5
ATOM      5  C   UNL     1      41.629  20.124 225.696  1.00  0.00     0.000 C 
BRANCH   5   6
ATOM      6  C   UNL     1      41.808  21.535 226.292  1.00  0.00     0.000 C 
BRANCH   6   7
ATOM      7  C   UNL     1      40.567  22.103 227.011  1.00  0.00     0.000 C 
BRANCH   7   8
ATOM      8  C   UNL     1      39.251  21.989 226.218  1.00  0.00     0.000 C 
BRANCH   8   9
ATOM      9  C   UNL     1      38.020  21.831 227.128  1.00  0.00     0.000 C 
BRANCH   9  10
ATOM     10  C   UNL     1      36.847  21.139 226.417  1.00  0.00     0.006 C 
BRANCH  10  11
ATOM     11  C   UNL     1      36.620  19.705 226.914  1.00  0.00     0.053 C 
BRANCH  11  12
ATOM     12  C   UNL     1      36.967  18.721 225.842  1.00  0.00     0.041 C 
ATOM     13  O   UNL     1      36.057  18.162 225.175  1.00  0.00    -0.550 OA
ATOM     14  O   UNL     1      38.299  18.458 225.546  1.00  0.00    -0.550 OA
ENDBRANCH  11  12
ENDBRANCH  10  11
ENDBRANCH   9  10
ENDBRANCH   8   9
ENDBRANCH   7   8
ENDBRANCH   6   7
ENDBRANCH   5   6
ENDBRANCH   4   5
ENDBRANCH   3   4
ENDBRANCH   2   3
ENDBRANCH   1   2
BRANCH   1  15
ATOM     15  C   UNL     1      39.773  24.117 222.926  1.00  0.00     0.000 C 
BRANCH  15  16
ATOM     16  C   UNL     1      38.633  23.087 222.863  1.00  0.00     0.000 C 
BRANCH  16  17
ATOM     17  C   UNL     1      37.272  23.727 222.548  1.00  0.00     0.000 C 
BRANCH  17  18
ATOM     18  C   UNL     1      36.288  23.527 223.708  1.00  0.00    -0.000 C 
BRANCH  18  19
ATOM     19  C   UNL     1      35.987  24.860 224.407  1.00  0.00    -0.000 C 
BRANCH  19  20
ATOM     20  C   UNL     1      36.839  25.073 225.667  1.00  0.00    -0.000 C 
BRANCH  20  21
ATOM     21  C   UNL     1      38.132  25.859 225.381  1.00  0.00    -0.000 C 
BRANCH  21  22
ATOM     22  C   UNL     1      39.010  26.022 226.633  1.00  0.00    -0.000 C 
BRANCH  22  23
ATOM     23  C   UNL     1      39.869  27.297 226.589  1.00  0.00    -0.000 C 
BRANCH  23  24
ATOM     24  C   UNL     1      41.378  26.998 226.568  1.00  0.00    -0.000 C 
BRANCH  24  25
ATOM     25  C   UNL     1      41.745  25.567 226.135  1.00  0.00    -0.003 C 
ATOM     26  C   UNL     1      43.234  25.261 226.282  1.00  0.00     0.004 C 
ENDBRANCH  24  25
ENDBRANCH  23  24
ENDBRANCH  22  23
ENDBRANCH  21  22
ENDBRANCH  20  21
ENDBRANCH  19  20
ENDBRANCH  18  19
ENDBRANCH  17  18
ENDBRANCH  16  17
ENDBRANCH  15  16
ENDBRANCH   1  15
TORSDOF 22
ENDMDL
MODEL 5
REMARK VINA RESULT:    -4.274      1.577      2.340
REMARK INTER + INTRA:         -13.683
REMARK INTER:                  -9.828
REMARK INTRA:                  -3.855
REMARK UNBOUND:                -3.913
REMARK SMILES CCCCCCCCCCCCCCCCCCCCCCCC(=O)[O-]
REMARK SMILES IDX 13 1 14 2 15 3 16 4 17 5 18 6 19 7 20 8 21 9 22 10 23 11
REMARK SMILES IDX 24 12 25 13 26 14 12 15 11 16 10 17 9 18 8 19 7 20 6 21 5 22
REMARK SMILES IDX 4 23 3 24 2 25 1 26
REMARK H PARENT
REMARK Flexibility Score: inf
ROOT
ATOM      1  C   UNL     1      41.665  23.899 224.502  1.00  0.00     0.000 C 
ENDROOT
BRANCH   1   2
ATOM      2  C   UNL     1      41.017  23.529 223.157  1.00  0.00     0.000 C 
BRANCH   2   3
ATOM      3  C   UNL     1      40.476  22.088 223.064  1.00  0.00     0.000 C 
BRANCH   3   4
ATOM      4  C   UNL     1      41.399  21.087 222.342  1.00  0.00     0.000 C 
BRANCH   4   5
ATOM      5  C   UNL     1      41.609  19.750 223.079  1.00  0.00     0.000 C 
BRANCH   5   6
ATOM      6  C   UNL     1      42.138  19.880 224.522  1.00  0.00     0.000 C 
BRANCH   6   7
ATOM      7  C   UNL     1      41.297  19.156 225.593  1.00  0.00     0.000 C 
BRANCH   7   8
ATOM      8  C   UNL     1      39.789  19.466 225.552  1.00  0.00     0.000 C 
BRANCH   8   9
ATOM      9  C   UNL     1      38.924  18.262 225.963  1.00  0.00     0.000 C 
BRANCH   9  10
ATOM     10  C   UNL     1      37.982  18.585 227.133  1.00  0.00     0.006 C 
BRANCH  10  11
ATOM     11  C   UNL     1      36.553  18.079 226.896  1.00  0.00     0.053 C 
BRANCH  11  12
ATOM     12  C   UNL     1      35.764  19.086 226.120  1.00  0.00     0.041 C 
ATOM     13  O   UNL     1      35.420  18.844 224.933  1.00  0.00    -0.550 OA
ATOM     14  O   UNL     1      35.366  20.272 226.724  1.00  0.00    -0.550 OA
ENDBRANCH  11  12
ENDBRANCH  10  11
ENDBRANCH   9  10
ENDBRANCH   8   9
ENDBRANCH   7   8
ENDBRANCH   6   7
ENDBRANCH   5   6
ENDBRANCH   4   5
ENDBRANCH   3   4
ENDBRANCH   2   3
ENDBRANCH   1   2
BRANCH   1  15
ATOM     15  C   UNL     1      41.029  23.166 225.696  1.00  0.00     0.000 C 
BRANCH  15  16
ATOM     16  C   UNL     1      42.037  22.896 226.826  1.00  0.00     0.000 C 
BRANCH  16  17
ATOM     17  C   UNL     1      41.877  23.865 228.007  1.00  0.00     0.000 C 
BRANCH  17  18
ATOM     18  C   UNL     1      40.701  24.823 227.778  1.00  0.00    -0.000 C 
BRANCH  18  19
ATOM     19  C   UNL     1      41.199  26.257 227.546  1.00  0.00    -0.000 C 
BRANCH  19  20
ATOM     20  C   UNL     1      40.491  26.947 226.371  1.00  0.00    -0.000 C 
BRANCH  20  21
ATOM     21  C   UNL     1      39.017  26.524 226.238  1.00  0.00    -0.000 C 
BRANCH  21  22
ATOM     22  C   UNL     1      38.684  25.985 224.837  1.00  0.00    -0.000 C 
BRANCH  22  23
ATOM     23  C   UNL     1      37.314  25.286 224.784  1.00  0.00    -0.000 C 
BRANCH  23  24
ATOM     24  C   UNL     1      37.136  24.420 223.525  1.00  0.00    -0.000 C 
BRANCH  24  25
ATOM     25  C   UNL     1      36.781  22.948 223.802  1.00  0.00    -0.003 C 
ATOM     26  C   UNL     1      37.466  22.391 225.048  1.00  0.00     0.004 C 
ENDBRANCH  24  25
ENDBRANCH  23  24
ENDBRANCH  22  23
ENDBRANCH  21  22
ENDBRANCH  20  21
ENDBRANCH  19  20
ENDBRANCH  18  19
ENDBRANCH  17  18
ENDBRANCH  16  17
ENDBRANCH  15  16
ENDBRANCH   1  15
TORSDOF 22
ENDMDL
MODEL 6
REMARK VINA RESULT:    -4.224      2.427      6.035
REMARK INTER + INTRA:         -13.569
REMARK INTER:                  -9.360
REMARK INTRA:                  -4.209
REMARK UNBOUND:                -3.913
REMARK SMILES CCCCCCCCCCCCCCCCCCCCCCCC(=O)[O-]
REMARK SMILES IDX 13 1 14 2 15 3 16 4 17 5 18 6 19 7 20 8 21 9 22 10 23 11
REMARK SMILES IDX 24 12 25 13 26 14 12 15 11 16 10 17 9 18 8 19 7 20 6 21 5 22
REMARK SMILES IDX 4 23 3 24 2 25 1 26
REMARK H PARENT
REMARK Flexibility Score: inf
ROOT
ATOM      1  C   UNL     1      41.266  20.011 222.681  1.00  0.00     0.000 C 
ENDROOT
BRANCH   1   2
ATOM      2  C   UNL     1      41.774  21.460 222.779  1.00  0.00     0.000 C 
BRANCH   2   3
ATOM      3  C   UNL     1      40.684  22.546 222.666  1.00  0.00     0.000 C 
BRANCH   3   4
ATOM      4  C   UNL     1      40.853  23.746 223.619  1.00  0.00     0.000 C 
BRANCH   4   5
ATOM      5  C   UNL     1      42.049  23.643 224.585  1.00  0.00     0.000 C 
BRANCH   5   6
ATOM      6  C   UNL     1      42.030  24.653 225.750  1.00  0.00     0.000 C 
BRANCH   6   7
ATOM      7  C   UNL     1      41.423  24.122 227.065  1.00  0.00     0.000 C 
BRANCH   7   8
ATOM      8  C   UNL     1      40.238  24.941 227.608  1.00  0.00     0.000 C 
BRANCH   8   9
ATOM      9  C   UNL     1      39.546  25.781 226.520  1.00  0.00     0.000 C 
BRANCH   9  10
ATOM     10  C   UNL     1      38.039  25.495 226.424  1.00  0.00     0.006 C 
BRANCH  10  11
ATOM     11  C   UNL     1      37.618  25.021 225.026  1.00  0.00     0.053 C 
BRANCH  11  12
ATOM     12  C   UNL     1      36.130  25.085 224.881  1.00  0.00     0.041 C 
ATOM     13  O   UNL     1      35.468  25.954 225.507  1.00  0.00    -0.550 OA
ATOM     14  O   UNL     1      35.479  24.217 224.013  1.00  0.00    -0.550 OA
ENDBRANCH  11  12
ENDBRANCH  10  11
ENDBRANCH   9  10
ENDBRANCH   8   9
ENDBRANCH   7   8
ENDBRANCH   6   7
ENDBRANCH   5   6
ENDBRANCH   4   5
ENDBRANCH   3   4
ENDBRANCH   2   3
ENDBRANCH   1   2
BRANCH   1  15
ATOM     15  C   UNL     1      40.682  19.490 224.006  1.00  0.00     0.000 C 
BRANCH  15  16
ATOM     16  C   UNL     1      41.642  19.691 225.191  1.00  0.00     0.000 C 
BRANCH  16  17
ATOM     17  C   UNL     1      40.990  20.442 226.361  1.00  0.00     0.000 C 
BRANCH  17  18
ATOM     18  C   UNL     1      39.696  21.138 225.916  1.00  0.00    -0.000 C 
BRANCH  18  19
ATOM     19  C   UNL     1      38.780  21.409 227.118  1.00  0.00    -0.000 C 
BRANCH  19  20
ATOM     20  C   UNL     1      39.475  21.152 228.463  1.00  0.00    -0.000 C 
BRANCH  20  21
ATOM     21  C   UNL     1      38.482  20.792 229.583  1.00  0.00    -0.000 C 
BRANCH  21  22
ATOM     22  C   UNL     1      38.499  19.293 229.925  1.00  0.00    -0.000 C 
BRANCH  22  23
ATOM     23  C   UNL     1      39.079  18.435 228.788  1.00  0.00    -0.000 C 
BRANCH  23  24
ATOM     24  C   UNL     1      38.074  17.401 228.251  1.00  0.00    -0.000 C 
BRANCH  24  25
ATOM     25  C   UNL     1      36.883  18.000 227.481  1.00  0.00    -0.003 C 
ATOM     26  C   UNL     1      37.212  18.320 226.024  1.00  0.00     0.004 C 
ENDBRANCH  24  25
ENDBRANCH  23  24
ENDBRANCH  22  23
ENDBRANCH  21  22
ENDBRANCH  20  21
ENDBRANCH  19  20
ENDBRANCH  18  19
ENDBRANCH  17  18
ENDBRANCH  16  17
ENDBRANCH  15  16
ENDBRANCH   1  15
TORSDOF 22
ENDMDL
MODEL 7
REMARK VINA RESULT:    -4.205      1.581      3.042
REMARK INTER + INTRA:         -13.526
REMARK INTER:                  -9.046
REMARK INTRA:                  -4.480
REMARK UNBOUND:                -3.913
REMARK SMILES CCCCCCCCCCCCCCCCCCCCCCCC(=O)[O-]
REMARK SMILES IDX 13 1 14 2 15 3 16 4 17 5 18 6 19 7 20 8 21 9 22 10 23 11
REMARK SMILES IDX 24 12 25 13 26 14 12 15 11 16 10 17 9 18 8 19 7 20 6 21 5 22
REMARK SMILES IDX 4 23 3 24 2 25 1 26
REMARK H PARENT
REMARK Flexibility Score: inf
ROOT
ATOM      1  C   UNL     1      40.467  22.175 223.064  1.00  0.00     0.000 C 
ENDROOT
BRANCH   1   2
ATOM      2  C   UNL     1      41.582  21.216 222.611  1.00  0.00     0.000 C 
BRANCH   2   3
ATOM      3  C   UNL     1      41.389  19.743 223.028  1.00  0.00     0.000 C 
BRANCH   3   4
ATOM      4  C   UNL     1      40.500  19.524 224.268  1.00  0.00     0.000 C 
BRANCH   4   5
ATOM      5  C   UNL     1      41.235  18.963 225.502  1.00  0.00     0.000 C 
BRANCH   5   6
ATOM      6  C   UNL     1      41.054  19.785 226.793  1.00  0.00     0.000 C 
BRANCH   6   7
ATOM      7  C   UNL     1      40.719  21.275 226.577  1.00  0.00     0.000 C 
BRANCH   7   8
ATOM      8  C   UNL     1      39.353  21.720 227.133  1.00  0.00     0.000 C 
BRANCH   8   9
ATOM      9  C   UNL     1      38.247  21.718 226.063  1.00  0.00     0.000 C 
BRANCH   9  10
ATOM     10  C   UNL     1      36.990  20.961 226.516  1.00  0.00     0.006 C 
BRANCH  10  11
ATOM     11  C   UNL     1      37.318  19.747 227.396  1.00  0.00     0.053 C 
BRANCH  11  12
ATOM     12  C   UNL     1      37.479  18.521 226.553  1.00  0.00     0.041 C 
ATOM     13  O   UNL     1      38.232  17.586 226.931  1.00  0.00    -0.550 OA
ATOM     14  O   UNL     1      36.756  18.389 225.374  1.00  0.00    -0.550 OA
ENDBRANCH  11  12
ENDBRANCH  10  11
ENDBRANCH   9  10
ENDBRANCH   8   9
ENDBRANCH   7   8
ENDBRANCH   6   7
ENDBRANCH   5   6
ENDBRANCH   4   5
ENDBRANCH   3   4
ENDBRANCH   2   3
ENDBRANCH   1   2
BRANCH   1  15
ATOM     15  C   UNL     1      40.994  23.571 223.440  1.00  0.00     0.000 C 
BRANCH  15  16
ATOM     16  C   UNL     1      42.081  23.516 224.526  1.00  0.00     0.000 C 
BRANCH  16  17
ATOM     17  C   UNL     1      42.195  24.828 225.317  1.00  0.00     0.000 C 
BRANCH  17  18
ATOM     18  C   UNL     1      42.359  24.553 226.818  1.00  0.00    -0.000 C 
BRANCH  18  19
ATOM     19  C   UNL     1      41.143  25.062 227.605  1.00  0.00    -0.000 C 
BRANCH  19  20
ATOM     20  C   UNL     1      40.181  25.888 226.738  1.00  0.00    -0.000 C 
BRANCH  20  21
ATOM     21  C   UNL     1      38.708  25.705 227.149  1.00  0.00    -0.000 C 
BRANCH  21  22
ATOM     22  C   UNL     1      37.829  25.219 225.986  1.00  0.00    -0.000 C 
BRANCH  22  23
ATOM     23  C   UNL     1      38.196  25.885 224.649  1.00  0.00    -0.000 C 
BRANCH  23  24
ATOM     24  C   UNL     1      37.238  25.501 223.508  1.00  0.00    -0.000 C 
BRANCH  24  25
ATOM     25  C   UNL     1      37.394  24.058 222.995  1.00  0.00    -0.003 C 
ATOM     26  C   UNL     1      36.164  23.193 223.260  1.00  0.00     0.004 C 
ENDBRANCH  24  25
ENDBRANCH  23  24
ENDBRANCH  22  23
ENDBRANCH  21  22
ENDBRANCH  20  21
ENDBRANCH  19  20
ENDBRANCH  18  19
ENDBRANCH  17  18
ENDBRANCH  16  17
ENDBRANCH  15  16
ENDBRANCH   1  15
TORSDOF 22
ENDMDL
MODEL 8
REMARK VINA RESULT:    -4.204      2.907      6.698
REMARK INTER + INTRA:         -13.525
REMARK INTER:                  -9.075
REMARK INTRA:                  -4.450
REMARK UNBOUND:                -3.913
REMARK SMILES CCCCCCCCCCCCCCCCCCCCCCCC(=O)[O-]
REMARK SMILES IDX 13 1 14 2 15 3 16 4 17 5 18 6 19 7 20 8 21 9 22 10 23 11
REMARK SMILES IDX 24 12 25 13 26 14 12 15 11 16 10 17 9 18 8 19 7 20 6 21 5 22
REMARK SMILES IDX 4 23 3 24 2 25 1 26
REMARK H PARENT
REMARK Flexibility Score: inf
ROOT
ATOM      1  C   UNL     1      40.844  21.727 227.911  1.00  0.00     0.000 C 
ENDROOT
BRANCH   1   2
ATOM      2  C   UNL     1      39.817  22.038 226.809  1.00  0.00     0.000 C 
BRANCH   2   3
ATOM      3  C   UNL     1      38.401  22.385 227.311  1.00  0.00     0.000 C 
BRANCH   3   4
ATOM      4  C   UNL     1      37.279  22.231 226.265  1.00  0.00     0.000 C 
BRANCH   4   5
ATOM      5  C   UNL     1      37.763  22.106 224.808  1.00  0.00     0.000 C 
BRANCH   5   6
ATOM      6  C   UNL     1      36.804  22.693 223.753  1.00  0.00     0.000 C 
BRANCH   6   7
ATOM      7  C   UNL     1      37.346  23.918 222.988  1.00  0.00     0.000 C 
BRANCH   7   8
ATOM      8  C   UNL     1      36.891  25.281 223.541  1.00  0.00     0.000 C 
BRANCH   8   9
ATOM      9  C   UNL     1      38.051  26.096 224.141  1.00  0.00     0.000 C 
BRANCH   9  10
ATOM     10  C   UNL     1      38.309  25.756 225.617  1.00  0.00     0.006 C 
BRANCH  10  11
ATOM     11  C   UNL     1      39.741  26.088 226.055  1.00  0.00     0.053 C 
BRANCH  11  12
ATOM     12  C   UNL     1      39.808  27.475 226.612  1.00  0.00     0.041 C 
ATOM     13  O   UNL     1      40.588  28.325 226.107  1.00  0.00    -0.550 OA
ATOM     14  O   UNL     1      38.972  27.845 227.658  1.00  0.00    -0.550 OA
ENDBRANCH  11  12
ENDBRANCH  10  11
ENDBRANCH   9  10
ENDBRANCH   8   9
ENDBRANCH   7   8
ENDBRANCH   6   7
ENDBRANCH   5   6
ENDBRANCH   4   5
ENDBRANCH   3   4
ENDBRANCH   2   3
ENDBRANCH   1   2
BRANCH   1  15
ATOM     15  C   UNL     1      40.867  20.240 228.307  1.00  0.00     0.000 C 
BRANCH  15  16
ATOM     16  C   UNL     1      39.817  19.901 229.378  1.00  0.00     0.000 C 
BRANCH  16  17
ATOM     17  C   UNL     1      39.096  18.573 229.101  1.00  0.00     0.000 C 
BRANCH  17  18
ATOM     18  C   UNL     1      38.019  18.746 228.022  1.00  0.00    -0.000 C 
BRANCH  18  19
ATOM     19  C   UNL     1      38.341  17.895 226.785  1.00  0.00    -0.000 C 
BRANCH  19  20
ATOM     20  C   UNL     1      38.724  18.746 225.566  1.00  0.00    -0.000 C 
BRANCH  20  21
ATOM     21  C   UNL     1      40.234  18.709 225.269  1.00  0.00    -0.000 C 
BRANCH  21  22
ATOM     22  C   UNL     1      40.594  19.421 223.955  1.00  0.00    -0.000 C 
BRANCH  22  23
ATOM     23  C   UNL     1      42.050  19.915 223.930  1.00  0.00    -0.000 C 
BRANCH  23  24
ATOM     24  C   UNL     1      42.159  21.449 223.985  1.00  0.00    -0.000 C 
BRANCH  24  25
ATOM     25  C   UNL     1      41.167  22.198 223.077  1.00  0.00    -0.003 C 
ATOM     26  C   UNL     1      40.987  23.664 223.467  1.00  0.00     0.004 C 
ENDBRANCH  24  25
ENDBRANCH  23  24
ENDBRANCH  22  23
ENDBRANCH  21  22
ENDBRANCH  20  21
ENDBRANCH  19  20
ENDBRANCH  18  19
ENDBRANCH  17  18
ENDBRANCH  16  17
ENDBRANCH  15  16
ENDBRANCH   1  15
TORSDOF 22
ENDMDL
MODEL 9
REMARK VINA RESULT:    -4.169      2.618      5.179
REMARK INTER + INTRA:         -13.445
REMARK INTER:                  -8.282
REMARK INTRA:                  -5.163
REMARK UNBOUND:                -3.913
REMARK SMILES CCCCCCCCCCCCCCCCCCCCCCCC(=O)[O-]
REMARK SMILES IDX 13 1 14 2 15 3 16 4 17 5 18 6 19 7 20 8 21 9 22 10 23 11
REMARK SMILES IDX 24 12 25 13 26 14 12 15 11 16 10 17 9 18 8 19 7 20 6 21 5 22
REMARK SMILES IDX 4 23 3 24 2 25 1 26
REMARK H PARENT
REMARK Flexibility Score: inf
ROOT
ATOM      1  C   UNL     1      42.093  23.518 225.096  1.00  0.00     0.000 C 
ENDROOT
BRANCH   1   2
ATOM      2  C   UNL     1      41.108  24.143 224.093  1.00  0.00     0.000 C 
BRANCH   2   3
ATOM      3  C   UNL     1      40.591  23.187 222.998  1.00  0.00     0.000 C 
BRANCH   3   4
ATOM      4  C   UNL     1      39.122  23.401 222.582  1.00  0.00     0.000 C 
BRANCH   4   5
ATOM      5  C   UNL     1      38.330  24.377 223.474  1.00  0.00     0.000 C 
BRANCH   5   6
ATOM      6  C   UNL     1      36.983  23.836 223.992  1.00  0.00     0.000 C 
BRANCH   6   7
ATOM      7  C   UNL     1      37.053  22.453 224.671  1.00  0.00     0.000 C 
BRANCH   7   8
ATOM      8  C   UNL     1      37.567  22.469 226.123  1.00  0.00     0.000 C 
BRANCH   8   9
ATOM      9  C   UNL     1      38.936  21.784 226.277  1.00  0.00     0.000 C 
BRANCH   9  10
ATOM     10  C   UNL     1      39.099  20.576 225.341  1.00  0.00     0.006 C 
BRANCH  10  11
ATOM     11  C   UNL     1      40.564  20.153 225.175  1.00  0.00     0.053 C 
BRANCH  11  12
ATOM     12  C   UNL     1      41.156  19.790 226.501  1.00  0.00     0.041 C 
ATOM     13  O   UNL     1      42.144  20.428 226.951  1.00  0.00    -0.550 OA
ATOM     14  O   UNL     1      40.583  18.781 227.264  1.00  0.00    -0.550 OA
ENDBRANCH  11  12
ENDBRANCH  10  11
ENDBRANCH   9  10
ENDBRANCH   8   9
ENDBRANCH   7   8
ENDBRANCH   6   7
ENDBRANCH   5   6
ENDBRANCH   4   5
ENDBRANCH   3   4
ENDBRANCH   2   3
ENDBRANCH   1   2
BRANCH   1  15
ATOM     15  C   UNL     1      41.855  23.987 226.541  1.00  0.00     0.000 C 
BRANCH  15  16
ATOM     16  C   UNL     1      43.145  24.479 227.219  1.00  0.00     0.000 C 
BRANCH  16  17
ATOM     17  C   UNL     1      43.433  25.962 226.942  1.00  0.00     0.000 C 
BRANCH  17  18
ATOM     18  C   UNL     1      42.420  26.863 227.660  1.00  0.00    -0.000 C 
BRANCH  18  19
ATOM     19  C   UNL     1      41.738  27.819 226.670  1.00  0.00    -0.000 C 
BRANCH  19  20
ATOM     20  C   UNL     1      40.214  27.869 226.850  1.00  0.00    -0.000 C 
BRANCH  20  21
ATOM     21  C   UNL     1      39.475  26.888 225.921  1.00  0.00    -0.000 C 
BRANCH  21  22
ATOM     22  C   UNL     1      38.599  25.891 226.696  1.00  0.00    -0.000 C 
BRANCH  22  23
ATOM     23  C   UNL     1      38.801  25.986 228.218  1.00  0.00    -0.000 C 
BRANCH  23  24
ATOM     24  C   UNL     1      39.073  24.619 228.870  1.00  0.00    -0.000 C 
BRANCH  24  25
ATOM     25  C   UNL     1      40.317  24.573 229.775  1.00  0.00    -0.003 C 
ATOM     26  C   UNL     1      40.830  23.154 230.015  1.00  0.00     0.004 C 
ENDBRANCH  24  25
ENDBRANCH  23  24
ENDBRANCH  22  23
ENDBRANCH  21  22
ENDBRANCH  20  21
ENDBRANCH  19  20
ENDBRANCH  18  19
ENDBRANCH  17  18
ENDBRANCH  16  17
ENDBRANCH  15  16
ENDBRANCH   1  15
TORSDOF 22
ENDMDL
