MODEL 1
REMARK VINA RESULT:    -4.915      0.000      0.000
REMARK INTER + INTRA:          -5.910
REMARK INTER:                  -5.777
REMARK INTRA:                  -0.133
REMARK UNBOUND:                -0.133
REMARK SMILES O=C([O-])C=Cc1ccc(O)c(O)c1
REMARK SMILES IDX 6 1 13 2 7 3 11 4 8 5 9 6 5 7 4 8 2 9 1 10 3 11 12 12 10 14
REMARK H PARENT 12 13 10 15
REMARK Flexibility Score: inf
ROOT
ATOM      1  C   UNL     1     -37.122 -14.697  -8.257  1.00  0.00    -0.022 A 
ATOM      2  C   UNL     1     -37.583 -14.001  -7.126  1.00  0.00     0.058 A 
ATOM      3  C   UNL     1     -36.667 -13.962  -9.369  1.00  0.00     0.012 A 
ATOM      4  C   UNL     1     -37.566 -12.599  -7.091  1.00  0.00     0.157 A 
ATOM      5  C   UNL     1     -36.651 -12.564  -9.334  1.00  0.00     0.051 A 
ATOM      6  C   UNL     1     -37.095 -11.879  -8.201  1.00  0.00     0.157 A 
ENDROOT
BRANCH   1   7
ATOM      7  C   UNL     1     -37.171 -16.180  -8.246  1.00  0.00     0.010 C 
ATOM      8  C   UNL     1     -37.993 -16.892  -7.460  1.00  0.00     0.025 C 
BRANCH   8   9
ATOM      9  C   UNL     1     -38.021 -18.364  -7.484  1.00  0.00     0.064 C 
ATOM     10  O   UNL     1     -38.890 -19.010  -6.838  1.00  0.00    -0.545 OA
ATOM     11  O   UNL     1     -37.076 -19.053  -8.231  1.00  0.00    -0.545 OA
ENDBRANCH   8   9
ENDBRANCH   1   7
BRANCH   4  12
ATOM     12  O   UNL     1     -38.017 -11.921  -5.960  1.00  0.00    -0.504 OA
ATOM     13  H   UNL     1     -38.874 -11.379  -5.971  1.00  0.00     0.293 HD
ENDBRANCH   4  12
BRANCH   6  14
ATOM     14  O   UNL     1     -37.066 -10.484  -8.197  1.00  0.00    -0.504 OA
ATOM     15  H   UNL     1     -37.898  -9.929  -8.035  1.00  0.00     0.293 HD
ENDBRANCH   6  14
TORSDOF 4
ENDMDL
MODEL 2
REMARK VINA RESULT:    -4.881      3.261      7.065
REMARK INTER + INTRA:          -5.870
REMARK INTER:                  -5.737
REMARK INTRA:                  -0.133
REMARK UNBOUND:                -0.133
REMARK SMILES O=C([O-])C=Cc1ccc(O)c(O)c1
REMARK SMILES IDX 6 1 13 2 7 3 11 4 8 5 9 6 5 7 4 8 2 9 1 10 3 11 12 12 10 14
REMARK H PARENT 12 13 10 15
REMARK Flexibility Score: inf
ROOT
ATOM      1  C   UNL     1     -35.702 -10.779  -8.552  1.00  0.00    -0.022 A 
ATOM      2  C   UNL     1     -36.367 -10.744  -7.314  1.00  0.00     0.058 A 
ATOM      3  C   UNL     1     -35.983 -11.833  -9.443  1.00  0.00     0.012 A 
ATOM      4  C   UNL     1     -37.313 -11.723  -6.980  1.00  0.00     0.157 A 
ATOM      5  C   UNL     1     -36.926 -12.810  -9.111  1.00  0.00     0.051 A 
ATOM      6  C   UNL     1     -37.595 -12.759  -7.885  1.00  0.00     0.157 A 
ENDROOT
BRANCH   1   7
ATOM      7  C   UNL     1     -34.703  -9.724  -8.851  1.00  0.00     0.010 C 
ATOM      8  C   UNL     1     -34.368  -8.751  -7.991  1.00  0.00     0.025 C 
BRANCH   8   9
ATOM      9  C   UNL     1     -33.363  -7.726  -8.318  1.00  0.00     0.064 C 
ATOM     10  O   UNL     1     -32.348  -7.550  -7.590  1.00  0.00    -0.545 OA
ATOM     11  O   UNL     1     -33.534  -6.938  -9.449  1.00  0.00    -0.545 OA
ENDBRANCH   8   9
ENDBRANCH   1   7
BRANCH   4  12
ATOM     12  O   UNL     1     -37.973 -11.671  -5.753  1.00  0.00    -0.504 OA
ATOM     13  H   UNL     1     -37.932 -10.847  -5.163  1.00  0.00     0.293 HD
ENDBRANCH   4  12
BRANCH   6  14
ATOM     14  O   UNL     1     -38.530 -13.748  -7.582  1.00  0.00    -0.504 OA
ATOM     15  H   UNL     1     -38.255 -14.679  -7.293  1.00  0.00     0.293 HD
ENDBRANCH   6  14
TORSDOF 4
ENDMDL
MODEL 3
REMARK VINA RESULT:    -4.848      3.272      4.778
REMARK INTER + INTRA:          -5.832
REMARK INTER:                  -5.703
REMARK INTRA:                  -0.129
REMARK UNBOUND:                -0.133
REMARK SMILES O=C([O-])C=Cc1ccc(O)c(O)c1
REMARK SMILES IDX 6 1 13 2 7 3 11 4 8 5 9 6 5 7 4 8 2 9 1 10 3 11 12 12 10 14
REMARK H PARENT 12 13 10 15
REMARK Flexibility Score: inf
ROOT
ATOM      1  C   UNL     1     -36.742 -13.299  -9.589  1.00  0.00    -0.022 A 
ATOM      2  C   UNL     1     -36.763 -11.915  -9.341  1.00  0.00     0.058 A 
ATOM      3  C   UNL     1     -37.122 -14.180  -8.558  1.00  0.00     0.012 A 
ATOM      4  C   UNL     1     -37.178 -11.417  -8.098  1.00  0.00     0.157 A 
ATOM      5  C   UNL     1     -37.536 -13.683  -7.319  1.00  0.00     0.051 A 
ATOM      6  C   UNL     1     -37.569 -12.306  -7.084  1.00  0.00     0.157 A 
ENDROOT
BRANCH   1   7
ATOM      7  C   UNL     1     -36.285 -13.774 -10.918  1.00  0.00     0.010 C 
ATOM      8  C   UNL     1     -36.786 -13.329 -12.081  1.00  0.00     0.025 C 
BRANCH   8   9
ATOM      9  C   UNL     1     -36.299 -13.816 -13.382  1.00  0.00     0.064 C 
ATOM     10  O   UNL     1     -35.274 -14.546 -13.466  1.00  0.00    -0.545 OA
ATOM     11  O   UNL     1     -36.982 -13.466 -14.540  1.00  0.00    -0.545 OA
ENDBRANCH   8   9
ENDBRANCH   1   7
BRANCH   4  12
ATOM     12  O   UNL     1     -37.203 -10.042  -7.867  1.00  0.00    -0.504 OA
ATOM     13  H   UNL     1     -37.530  -9.391  -8.573  1.00  0.00     0.293 HD
ENDBRANCH   4  12
BRANCH   6  14
ATOM     14  O   UNL     1     -37.987 -11.841  -5.837  1.00  0.00    -0.504 OA
ATOM     15  H   UNL     1     -37.357 -11.367  -5.200  1.00  0.00     0.293 HD
ENDBRANCH   6  14
TORSDOF 4
ENDMDL
MODEL 4
REMARK VINA RESULT:    -4.825     12.173     12.918
REMARK INTER + INTRA:          -5.805
REMARK INTER:                  -5.677
REMARK INTRA:                  -0.128
REMARK UNBOUND:                -0.133
REMARK SMILES O=C([O-])C=Cc1ccc(O)c(O)c1
REMARK SMILES IDX 6 1 13 2 7 3 11 4 8 5 9 6 5 7 4 8 2 9 1 10 3 11 12 12 10 14
REMARK H PARENT 12 13 10 15
REMARK Flexibility Score: inf
ROOT
ATOM      1  C   UNL     1     -27.068 -12.155  -0.831  1.00  0.00    -0.022 A 
ATOM      2  C   UNL     1     -27.850 -11.042  -0.475  1.00  0.00     0.058 A 
ATOM      3  C   UNL     1     -26.390 -12.860   0.182  1.00  0.00     0.012 A 
ATOM      4  C   UNL     1     -27.976 -10.655   0.866  1.00  0.00     0.157 A 
ATOM      5  C   UNL     1     -26.515 -12.474   1.519  1.00  0.00     0.051 A 
ATOM      6  C   UNL     1     -27.307 -11.377   1.867  1.00  0.00     0.157 A 
ENDROOT
BRANCH   1   7
ATOM      7  C   UNL     1     -26.960 -12.516  -2.266  1.00  0.00     0.010 C 
ATOM      8  C   UNL     1     -27.806 -13.350  -2.890  1.00  0.00     0.025 C 
BRANCH   8   9
ATOM      9  C   UNL     1     -27.675 -13.677  -4.319  1.00  0.00     0.064 C 
ATOM     10  O   UNL     1     -26.873 -13.049  -5.062  1.00  0.00    -0.545 OA
ATOM     11  O   UNL     1     -28.447 -14.697  -4.859  1.00  0.00    -0.545 OA
ENDBRANCH   8   9
ENDBRANCH   1   7
BRANCH   4  12
ATOM     12  O   UNL     1     -28.763  -9.555   1.207  1.00  0.00    -0.504 OA
ATOM     13  H   UNL     1     -29.685  -9.418   0.808  1.00  0.00     0.293 HD
ENDBRANCH   4  12
BRANCH   6  14
ATOM     14  O   UNL     1     -27.412 -11.016   3.211  1.00  0.00    -0.504 OA
ATOM     15  H   UNL     1     -27.790 -11.645   3.909  1.00  0.00     0.293 HD
ENDBRANCH   6  14
TORSDOF 4
ENDMDL
MODEL 5
REMARK VINA RESULT:    -4.794      1.209      6.005
REMARK INTER + INTRA:          -5.768
REMARK INTER:                  -5.629
REMARK INTRA:                  -0.139
REMARK UNBOUND:                -0.133
REMARK SMILES O=C([O-])C=Cc1ccc(O)c(O)c1
REMARK SMILES IDX 6 1 13 2 7 3 11 4 8 5 9 6 5 7 4 8 2 9 1 10 3 11 12 12 10 14
REMARK H PARENT 12 13 10 15
REMARK Flexibility Score: inf
ROOT
ATOM      1  C   UNL     1     -38.014 -16.453  -7.400  1.00  0.00    -0.022 A 
ATOM      2  C   UNL     1     -38.885 -17.347  -6.752  1.00  0.00     0.058 A 
ATOM      3  C   UNL     1     -36.938 -16.974  -8.145  1.00  0.00     0.012 A 
ATOM      4  C   UNL     1     -38.704 -18.732  -6.865  1.00  0.00     0.157 A 
ATOM      5  C   UNL     1     -36.758 -18.356  -8.257  1.00  0.00     0.051 A 
ATOM      6  C   UNL     1     -37.636 -19.238  -7.623  1.00  0.00     0.157 A 
ENDROOT
BRANCH   1   7
ATOM      7  C   UNL     1     -38.245 -14.997  -7.240  1.00  0.00     0.010 C 
ATOM      8  C   UNL     1     -37.410 -14.055  -7.705  1.00  0.00     0.025 C 
BRANCH   8   9
ATOM      9  C   UNL     1     -37.677 -12.617  -7.538  1.00  0.00     0.064 C 
ATOM     10  O   UNL     1     -37.760 -12.097  -6.392  1.00  0.00    -0.545 OA
ATOM     11  O   UNL     1     -37.838 -11.817  -8.662  1.00  0.00    -0.545 OA
ENDBRANCH   8   9
ENDBRANCH   1   7
BRANCH   4  12
ATOM     12  O   UNL     1     -39.581 -19.608  -6.225  1.00  0.00    -0.504 OA
ATOM     13  H   UNL     1     -39.250 -20.448  -5.763  1.00  0.00     0.293 HD
ENDBRANCH   4  12
BRANCH   6  14
ATOM     14  O   UNL     1     -37.429 -20.611  -7.754  1.00  0.00    -0.504 OA
ATOM     15  H   UNL     1     -37.898 -21.285  -7.160  1.00  0.00     0.293 HD
ENDBRANCH   6  14
TORSDOF 4
ENDMDL
MODEL 6
REMARK VINA RESULT:    -4.761      1.741      5.447
REMARK INTER + INTRA:          -5.730
REMARK INTER:                  -5.595
REMARK INTRA:                  -0.134
REMARK UNBOUND:                -0.133
REMARK SMILES O=C([O-])C=Cc1ccc(O)c(O)c1
REMARK SMILES IDX 6 1 13 2 7 3 11 4 8 5 9 6 5 7 4 8 2 9 1 10 3 11 12 12 10 14
REMARK H PARENT 12 13 10 15
REMARK Flexibility Score: inf
ROOT
ATOM      1  C   UNL     1     -37.191 -15.009  -8.116  1.00  0.00    -0.022 A 
ATOM      2  C   UNL     1     -37.899 -14.608  -6.970  1.00  0.00     0.058 A 
ATOM      3  C   UNL     1     -37.241 -16.361  -8.506  1.00  0.00     0.012 A 
ATOM      4  C   UNL     1     -38.664 -15.529  -6.241  1.00  0.00     0.157 A 
ATOM      5  C   UNL     1     -38.003 -17.280  -7.779  1.00  0.00     0.051 A 
ATOM      6  C   UNL     1     -38.717 -16.871  -6.650  1.00  0.00     0.157 A 
ENDROOT
BRANCH   1   7
ATOM      7  C   UNL     1     -36.389 -13.996  -8.845  1.00  0.00     0.010 C 
ATOM      8  C   UNL     1     -36.425 -12.682  -8.576  1.00  0.00     0.025 C 
BRANCH   8   9
ATOM      9  C   UNL     1     -35.607 -11.706  -9.314  1.00  0.00     0.064 C 
ATOM     10  O   UNL     1     -35.238 -11.926 -10.499  1.00  0.00    -0.545 OA
ATOM     11  O   UNL     1     -35.235 -10.520  -8.694  1.00  0.00    -0.545 OA
ENDBRANCH   8   9
ENDBRANCH   1   7
BRANCH   4  12
ATOM     12  O   UNL     1     -39.369 -15.116  -5.111  1.00  0.00    -0.504 OA
ATOM     13  H   UNL     1     -40.015 -14.335  -5.145  1.00  0.00     0.293 HD
ENDBRANCH   4  12
BRANCH   6  14
ATOM     14  O   UNL     1     -39.469 -17.812  -5.946  1.00  0.00    -0.504 OA
ATOM     15  H   UNL     1     -39.036 -18.526  -5.373  1.00  0.00     0.293 HD
ENDBRANCH   6  14
TORSDOF 4
ENDMDL
MODEL 7
REMARK VINA RESULT:    -4.751      3.472      4.290
REMARK INTER + INTRA:          -5.718
REMARK INTER:                  -5.585
REMARK INTRA:                  -0.132
REMARK UNBOUND:                -0.133
REMARK SMILES O=C([O-])C=Cc1ccc(O)c(O)c1
REMARK SMILES IDX 6 1 13 2 7 3 11 4 8 5 9 6 5 7 4 8 2 9 1 10 3 11 12 12 10 14
REMARK H PARENT 12 13 10 15
REMARK Flexibility Score: inf
ROOT
ATOM      1  C   UNL     1     -36.517 -12.448  -9.150  1.00  0.00    -0.022 A 
ATOM      2  C   UNL     1     -37.335 -12.743  -8.045  1.00  0.00     0.058 A 
ATOM      3  C   UNL     1     -35.767 -11.256  -9.141  1.00  0.00     0.012 A 
ATOM      4  C   UNL     1     -37.385 -11.880  -6.940  1.00  0.00     0.157 A 
ATOM      5  C   UNL     1     -35.818 -10.396  -8.040  1.00  0.00     0.051 A 
ATOM      6  C   UNL     1     -36.620 -10.703  -6.939  1.00  0.00     0.157 A 
ENDROOT
BRANCH   1   7
ATOM      7  C   UNL     1     -36.509 -13.390 -10.296  1.00  0.00     0.010 C 
ATOM      8  C   UNL     1     -36.869 -13.049 -11.543  1.00  0.00     0.025 C 
BRANCH   8   9
ATOM      9  C   UNL     1     -36.837 -14.007 -12.660  1.00  0.00     0.064 C 
ATOM     10  O   UNL     1     -36.982 -13.625 -13.853  1.00  0.00    -0.545 OA
ATOM     11  O   UNL     1     -36.643 -15.357 -12.396  1.00  0.00    -0.545 OA
ENDBRANCH   8   9
ENDBRANCH   1   7
BRANCH   4  12
ATOM     12  O   UNL     1     -38.193 -12.189  -5.846  1.00  0.00    -0.504 OA
ATOM     13  H   UNL     1     -38.570 -11.466  -5.244  1.00  0.00     0.293 HD
ENDBRANCH   4  12
BRANCH   6  14
ATOM     14  O   UNL     1     -36.649  -9.825  -5.855  1.00  0.00    -0.504 OA
ATOM     15  H   UNL     1     -37.146 -10.042  -5.000  1.00  0.00     0.293 HD
ENDBRANCH   6  14
TORSDOF 4
ENDMDL
MODEL 8
REMARK VINA RESULT:    -4.740      2.847      4.561
REMARK INTER + INTRA:          -5.705
REMARK INTER:                  -5.570
REMARK INTRA:                  -0.135
REMARK UNBOUND:                -0.133
REMARK SMILES O=C([O-])C=Cc1ccc(O)c(O)c1
REMARK SMILES IDX 6 1 13 2 7 3 11 4 8 5 9 6 5 7 4 8 2 9 1 10 3 11 12 12 10 14
REMARK H PARENT 12 13 10 15
REMARK Flexibility Score: inf
ROOT
ATOM      1  C   UNL     1     -37.128 -16.283  -8.633  1.00  0.00    -0.022 A 
ATOM      2  C   UNL     1     -38.021 -17.187  -8.032  1.00  0.00     0.058 A 
ATOM      3  C   UNL     1     -37.054 -14.968  -8.135  1.00  0.00     0.012 A 
ATOM      4  C   UNL     1     -38.807 -16.797  -6.938  1.00  0.00     0.157 A 
ATOM      5  C   UNL     1     -37.838 -14.579  -7.044  1.00  0.00     0.051 A 
ATOM      6  C   UNL     1     -38.711 -15.488  -6.441  1.00  0.00     0.157 A 
ENDROOT
BRANCH   1   7
ATOM      7  C   UNL     1     -36.327 -16.744  -9.794  1.00  0.00     0.010 C 
ATOM      8  C   UNL     1     -36.124 -16.008 -10.897  1.00  0.00     0.025 C 
BRANCH   8   9
ATOM      9  C   UNL     1     -35.313 -16.494 -12.026  1.00  0.00     0.064 C 
ATOM     10  O   UNL     1     -35.738 -16.427 -13.212  1.00  0.00    -0.545 OA
ATOM     11  O   UNL     1     -34.057 -17.034 -11.783  1.00  0.00    -0.545 OA
ENDBRANCH   8   9
ENDBRANCH   1   7
BRANCH   4  12
ATOM     12  O   UNL     1     -39.681 -17.707  -6.344  1.00  0.00    -0.504 OA
ATOM     13  H   UNL     1     -39.429 -18.214  -5.503  1.00  0.00     0.293 HD
ENDBRANCH   4  12
BRANCH   6  14
ATOM     14  O   UNL     1     -39.480 -15.070  -5.354  1.00  0.00    -0.504 OA
ATOM     15  H   UNL     1     -39.164 -15.180  -4.398  1.00  0.00     0.293 HD
ENDBRANCH   6  14
TORSDOF 4
ENDMDL
MODEL 9
REMARK VINA RESULT:    -4.638      1.132      6.006
REMARK INTER + INTRA:          -5.585
REMARK INTER:                  -5.444
REMARK INTRA:                  -0.140
REMARK UNBOUND:                -0.133
REMARK SMILES O=C([O-])C=Cc1ccc(O)c(O)c1
REMARK SMILES IDX 6 1 13 2 7 3 11 4 8 5 9 6 5 7 4 8 2 9 1 10 3 11 12 12 10 14
REMARK H PARENT 12 13 10 15
REMARK Flexibility Score: inf
ROOT
ATOM      1  C   UNL     1     -37.543 -15.222  -7.671  1.00  0.00    -0.022 A 
ATOM      2  C   UNL     1     -36.876 -16.359  -8.159  1.00  0.00     0.058 A 
ATOM      3  C   UNL     1     -38.811 -15.380  -7.079  1.00  0.00     0.012 A 
ATOM      4  C   UNL     1     -37.448 -17.633  -8.036  1.00  0.00     0.157 A 
ATOM      5  C   UNL     1     -39.382 -16.650  -6.956  1.00  0.00     0.051 A 
ATOM      6  C   UNL     1     -38.706 -17.778  -7.429  1.00  0.00     0.157 A 
ENDROOT
BRANCH   1   7
ATOM      7  C   UNL     1     -36.898 -13.896  -7.835  1.00  0.00     0.010 C 
ATOM      8  C   UNL     1     -37.556 -12.731  -7.745  1.00  0.00     0.025 C 
BRANCH   8   9
ATOM      9  C   UNL     1     -36.880 -11.432  -7.902  1.00  0.00     0.064 C 
ATOM     10  O   UNL     1     -35.960 -11.274  -8.750  1.00  0.00    -0.545 OA
ATOM     11  O   UNL     1     -37.263 -10.362  -7.105  1.00  0.00    -0.545 OA
ENDBRANCH   8   9
ENDBRANCH   1   7
BRANCH   4  12
ATOM     12  O   UNL     1     -36.772 -18.754  -8.515  1.00  0.00    -0.504 OA
ATOM     13  H   UNL     1     -36.036 -18.674  -9.207  1.00  0.00     0.293 HD
ENDBRANCH   4  12
BRANCH   6  14
ATOM     14  O   UNL     1     -39.302 -19.032  -7.292  1.00  0.00    -0.504 OA
ATOM     15  H   UNL     1     -40.306 -19.145  -7.213  1.00  0.00     0.293 HD
ENDBRANCH   6  14
TORSDOF 4
ENDMDL
