MODEL 1
REMARK VINA RESULT:    -4.687      0.000      0.000
REMARK INTER + INTRA:          -5.249
REMARK INTER:                  -5.509
REMARK INTRA:                   0.260
REMARK UNBOUND:                 0.260
REMARK SMILES O=c1c(O)c(-c2ccc(O)cc2)oc2cc(O)cc(O)c12
REMARK SMILES IDX 5 1 3 2 2 3 1 4 21 5 19 6 18 7 16 8 15 9 14 10 13 11 6 12
REMARK SMILES IDX 7 13 8 14 9 15 12 16 11 17 10 18 4 20 20 22 17 24
REMARK H PARENT 10 19 4 21 20 23 17 25
REMARK Flexibility Score: inf
ROOT
ATOM      1  C   UNL     1      32.320  11.467  36.347  1.00  0.00     0.180 A 
ATOM      2  C   UNL     1      31.370  10.665  37.002  1.00  0.00     0.208 A 
ATOM      3  C   UNL     1      30.914  11.050  38.273  1.00  0.00     0.238 A 
ATOM      4  O   UNL     1      30.009  10.369  38.821  1.00  0.00    -0.285 OA
ATOM      5  C   UNL     1      31.453  12.201  38.898  1.00  0.00     0.111 A 
ATOM      6  C   UNL     1      31.097  12.660  40.202  1.00  0.00     0.134 A 
ATOM      7  C   UNL     1      31.618  13.873  40.674  1.00  0.00     0.093 A 
ATOM      8  C   UNL     1      32.531  14.608  39.915  1.00  0.00     0.123 A 
ATOM      9  C   UNL     1      32.926  14.141  38.664  1.00  0.00     0.094 A 
ATOM     10  C   UNL     1      32.396  12.955  38.150  1.00  0.00     0.146 A 
ATOM     11  O   UNL     1      32.784  12.558  36.944  1.00  0.00    -0.452 OA
ENDROOT
BRANCH   1  12
ATOM     12  C   UNL     1      32.839  11.135  35.001  1.00  0.00     0.021 A 
ATOM     13  C   UNL     1      34.190  11.336  34.665  1.00  0.00     0.016 A 
ATOM     14  C   UNL     1      34.662  10.991  33.394  1.00  0.00     0.047 A 
ATOM     15  C   UNL     1      33.793  10.430  32.449  1.00  0.00     0.115 A 
ATOM     16  C   UNL     1      31.980  10.553  34.054  1.00  0.00     0.016 A 
ATOM     17  C   UNL     1      32.454  10.210  32.784  1.00  0.00     0.047 A 
BRANCH  15  18
ATOM     18  O   UNL     1      34.251  10.084  31.180  1.00  0.00    -0.508 OA
ATOM     19  H   UNL     1      34.430  10.787  30.473  1.00  0.00     0.293 HD
ENDBRANCH  15  18
ENDBRANCH   1  12
BRANCH   2  20
ATOM     20  O   UNL     1      30.907   9.491  36.403  1.00  0.00    -0.502 OA
ATOM     21  H   UNL     1      30.790   9.401  35.402  1.00  0.00     0.293 HD
ENDBRANCH   2  20
BRANCH   6  22
ATOM     22  O   UNL     1      30.264  11.958  41.078  1.00  0.00    -0.507 OA
ATOM     23  H   UNL     1      29.257  11.973  41.055  1.00  0.00     0.293 HD
ENDBRANCH   6  22
BRANCH   8  24
ATOM     24  O   UNL     1      33.057  15.804  40.399  1.00  0.00    -0.508 OA
ATOM     25  H   UNL     1      34.053  15.927  40.538  1.00  0.00     0.293 HD
ENDBRANCH   8  24
TORSDOF 5
ENDMDL
MODEL 2
REMARK VINA RESULT:    -4.562      1.288      6.550
REMARK INTER + INTRA:          -5.103
REMARK INTER:                  -5.578
REMARK INTRA:                   0.475
REMARK UNBOUND:                 0.260
REMARK SMILES O=c1c(O)c(-c2ccc(O)cc2)oc2cc(O)cc(O)c12
REMARK SMILES IDX 5 1 3 2 2 3 1 4 21 5 19 6 18 7 16 8 15 9 14 10 13 11 6 12
REMARK SMILES IDX 7 13 8 14 9 15 12 16 11 17 10 18 4 20 20 22 17 24
REMARK H PARENT 10 19 4 21 20 23 17 25
REMARK Flexibility Score: inf
ROOT
ATOM      1  C   UNL     1      32.066  12.098  36.719  1.00  0.00     0.180 A 
ATOM      2  C   UNL     1      31.077  11.117  36.531  1.00  0.00     0.208 A 
ATOM      3  C   UNL     1      31.176  10.254  35.429  1.00  0.00     0.238 A 
ATOM      4  O   UNL     1      30.329   9.331  35.308  1.00  0.00    -0.285 OA
ATOM      5  C   UNL     1      32.230  10.416  34.497  1.00  0.00     0.111 A 
ATOM      6  C   UNL     1      32.403   9.627  33.320  1.00  0.00     0.134 A 
ATOM      7  C   UNL     1      33.545   9.810  32.527  1.00  0.00     0.093 A 
ATOM      8  C   UNL     1      34.484  10.796  32.835  1.00  0.00     0.123 A 
ATOM      9  C   UNL     1      34.297  11.606  33.951  1.00  0.00     0.094 A 
ATOM     10  C   UNL     1      33.189  11.425  34.782  1.00  0.00     0.146 A 
ATOM     11  O   UNL     1      33.060  12.206  35.847  1.00  0.00    -0.452 OA
ENDROOT
BRANCH   1  12
ATOM     12  C   UNL     1      32.038  13.036  37.865  1.00  0.00     0.021 A 
ATOM     13  C   UNL     1      31.128  12.873  38.925  1.00  0.00     0.016 A 
ATOM     14  C   UNL     1      31.138  13.757  40.008  1.00  0.00     0.047 A 
ATOM     15  C   UNL     1      32.066  14.806  40.052  1.00  0.00     0.115 A 
ATOM     16  C   UNL     1      32.978  14.078  37.927  1.00  0.00     0.016 A 
ATOM     17  C   UNL     1      32.985  14.961  39.011  1.00  0.00     0.047 A 
BRANCH  15  18
ATOM     18  O   UNL     1      32.084  15.694  41.125  1.00  0.00    -0.508 OA
ATOM     19  H   UNL     1      32.736  15.583  41.893  1.00  0.00     0.293 HD
ENDBRANCH  15  18
ENDBRANCH   1  12
BRANCH   2  20
ATOM     20  O   UNL     1      30.002  11.022  37.418  1.00  0.00    -0.502 OA
ATOM     21  H   UNL     1      29.813  10.186  37.957  1.00  0.00     0.293 HD
ENDBRANCH   2  20
BRANCH   6  22
ATOM     22  O   UNL     1      31.481   8.677  32.872  1.00  0.00    -0.507 OA
ATOM     23  H   UNL     1      31.273   8.484  31.904  1.00  0.00     0.293 HD
ENDBRANCH   6  22
BRANCH   8  24
ATOM     24  O   UNL     1      35.608  10.981  32.032  1.00  0.00    -0.508 OA
ATOM     25  H   UNL     1      35.848  10.325  31.297  1.00  0.00     0.293 HD
ENDBRANCH   8  24
TORSDOF 5
ENDMDL
MODEL 3
REMARK VINA RESULT:    -2.095      1.373      3.199
REMARK INTER + INTRA:          -2.202
REMARK INTER:                  -2.103
REMARK INTRA:                  -0.099
REMARK UNBOUND:                 0.260
REMARK SMILES O=c1c(O)c(-c2ccc(O)cc2)oc2cc(O)cc(O)c12
REMARK SMILES IDX 5 1 3 2 2 3 1 4 21 5 19 6 18 7 16 8 15 9 14 10 13 11 6 12
REMARK SMILES IDX 7 13 8 14 9 15 12 16 11 17 10 18 4 20 20 22 17 24
REMARK H PARENT 10 19 4 21 20 23 17 25
REMARK Flexibility Score: inf
ROOT
ATOM      1  C   UNL     1      32.313  11.217  36.252  1.00  0.00     0.180 A 
ATOM      2  C   UNL     1      32.340  12.550  36.698  1.00  0.00     0.208 A 
ATOM      3  C   UNL     1      31.906  12.841  38.001  1.00  0.00     0.238 A 
ATOM      4  O   UNL     1      32.002  14.025  38.418  1.00  0.00    -0.285 OA
ATOM      5  C   UNL     1      31.398  11.806  38.824  1.00  0.00     0.111 A 
ATOM      6  C   UNL     1      30.891  11.993  40.145  1.00  0.00     0.134 A 
ATOM      7  C   UNL     1      30.514  10.878  40.905  1.00  0.00     0.093 A 
ATOM      8  C   UNL     1      30.566   9.590  40.367  1.00  0.00     0.123 A 
ATOM      9  C   UNL     1      31.009   9.403  39.061  1.00  0.00     0.094 A 
ATOM     10  C   UNL     1      31.427  10.490  38.291  1.00  0.00     0.146 A 
ATOM     11  O   UNL     1      31.862  10.264  37.058  1.00  0.00    -0.452 OA
ENDROOT
BRANCH   1  12
ATOM     12  C   UNL     1      32.767  10.830  34.898  1.00  0.00     0.021 A 
ATOM     13  C   UNL     1      31.876  10.290  33.952  1.00  0.00     0.016 A 
ATOM     14  C   UNL     1      32.324   9.954  32.670  1.00  0.00     0.047 A 
ATOM     15  C   UNL     1      33.662  10.166  32.313  1.00  0.00     0.115 A 
ATOM     16  C   UNL     1      34.102  11.057  34.525  1.00  0.00     0.016 A 
ATOM     17  C   UNL     1      34.547  10.719  33.243  1.00  0.00     0.047 A 
BRANCH  15  18
ATOM     18  O   UNL     1      34.119   9.834  31.040  1.00  0.00    -0.508 OA
ATOM     19  H   UNL     1      34.267  10.541  30.330  1.00  0.00     0.293 HD
ENDBRANCH  15  18
ENDBRANCH   1  12
BRANCH   2  20
ATOM     20  O   UNL     1      32.770  13.569  35.844  1.00  0.00    -0.502 OA
ATOM     21  H   UNL     1      33.740  13.679  35.574  1.00  0.00     0.293 HD
ENDBRANCH   2  20
BRANCH   6  22
ATOM     22  O   UNL     1      30.712  13.244  40.745  1.00  0.00    -0.507 OA
ATOM     23  H   UNL     1      30.544  14.105  40.248  1.00  0.00     0.293 HD
ENDBRANCH   6  22
BRANCH   8  24
ATOM     24  O   UNL     1      30.174   8.488  41.125  1.00  0.00    -0.508 OA
ATOM     25  H   UNL     1      29.532   8.582  41.904  1.00  0.00     0.293 HD
ENDBRANCH   8  24
TORSDOF 5
ENDMDL
