MODEL 1
REMARK VINA RESULT:    21.665      0.000      0.000
REMARK INTER + INTRA:          26.595
REMARK INTER:                  26.097
REMARK INTRA:                   0.497
REMARK UNBOUND:                 0.497
REMARK SMILES O=c1c(O)c(-c2ccc(O)cc2O)oc2cc(O)cc(O)c12
REMARK SMILES IDX 5 1 3 2 2 3 1 4 22 5 20 6 19 7 17 8 16 9 15 10 14 11 6 12
REMARK SMILES IDX 8 13 7 14 9 15 11 16 12 17 10 18 13 20 4 22 21 24 18 26
REMARK H PARENT 10 19 13 21 4 23 21 25 18 27
REMARK Flexibility Score: inf
ROOT
ATOM      1  C   UNL     1      24.267  33.688  -7.789  1.00  0.00     0.184 A 
ATOM      2  C   UNL     1      23.299  34.701  -7.903  1.00  0.00     0.208 A 
ATOM      3  C   UNL     1      23.722  36.038  -7.978  1.00  0.00     0.238 A 
ATOM      4  O   UNL     1      22.864  36.957  -8.070  1.00  0.00    -0.285 OA
ATOM      5  C   UNL     1      25.102  36.333  -7.956  1.00  0.00     0.111 A 
ATOM      6  C   UNL     1      25.612  37.651  -8.030  1.00  0.00     0.134 A 
ATOM      7  C   UNL     1      26.999  37.862  -8.011  1.00  0.00     0.093 A 
ATOM      8  C   UNL     1      27.883  36.781  -7.921  1.00  0.00     0.123 A 
ATOM      9  C   UNL     1      27.384  35.480  -7.848  1.00  0.00     0.094 A 
ATOM     10  C   UNL     1      26.006  35.248  -7.864  1.00  0.00     0.146 A 
ATOM     11  O   UNL     1      25.558  33.999  -7.787  1.00  0.00    -0.451 OA
ENDROOT
BRANCH   1  12
ATOM     12  C   UNL     1      23.889  32.262  -7.696  1.00  0.00     0.063 A 
ATOM     13  C   UNL     1      22.197  30.539  -7.975  1.00  0.00     0.047 A 
ATOM     14  C   UNL     1      22.585  31.880  -8.046  1.00  0.00     0.020 A 
ATOM     15  C   UNL     1      23.113  29.562  -7.566  1.00  0.00     0.119 A 
ATOM     16  C   UNL     1      24.421  29.932  -7.239  1.00  0.00     0.093 A 
ATOM     17  C   UNL     1      24.820  31.274  -7.313  1.00  0.00     0.130 A 
BRANCH  15  18
ATOM     18  O   UNL     1      22.736  28.224  -7.489  1.00  0.00    -0.508 OA
ATOM     19  H   UNL     1      22.496  27.791  -6.604  1.00  0.00     0.293 HD
ENDBRANCH  15  18
BRANCH  17  20
ATOM     20  O   UNL     1      26.142  31.622  -7.031  1.00  0.00    -0.507 OA
ATOM     21  H   UNL     1      26.877  31.519  -7.721  1.00  0.00     0.293 HD
ENDBRANCH  17  20
ENDBRANCH   1  12
BRANCH   2  22
ATOM     22  O   UNL     1      21.943  34.373  -7.968  1.00  0.00    -0.502 OA
ATOM     23  H   UNL     1      21.217  35.002  -7.645  1.00  0.00     0.293 HD
ENDBRANCH   2  22
BRANCH   6  24
ATOM     24  O   UNL     1      24.755  38.749  -8.121  1.00  0.00    -0.507 OA
ATOM     25  H   UNL     1      24.135  39.006  -7.363  1.00  0.00     0.293 HD
ENDBRANCH   6  24
BRANCH   8  26
ATOM     26  O   UNL     1      29.260  36.991  -7.904  1.00  0.00    -0.508 OA
ATOM     27  H   UNL     1      29.904  36.322  -8.310  1.00  0.00     0.293 HD
ENDBRANCH   8  26
TORSDOF 6
ENDMDL
