MODEL 1
REMARK VINA RESULT:    -3.741      0.000      0.000
REMARK INTER + INTRA:          -8.750
REMARK INTER:                  -8.116
REMARK INTRA:                  -0.634
REMARK UNBOUND:                -0.634
REMARK SMILES CCCCCCCCCCCCCCCCCCCCCC(=O)[O-]
REMARK SMILES IDX 12 1 11 2 10 3 9 4 8 5 7 6 6 7 5 8 4 9 3 10 2 11 1 12 13 13
REMARK SMILES IDX 14 14 15 15 16 16 17 17 18 18 19 19 20 20 21 21 22 22 23 23
REMARK SMILES IDX 24 24
REMARK H PARENT
REMARK Flexibility Score: inf
ROOT
ATOM      1  C   UNL     1      42.133  29.515  29.014  1.00  0.00     0.000 C 
ENDROOT
BRANCH   1   2
ATOM      2  C   UNL     1      41.174  29.969  30.125  1.00  0.00     0.000 C 
BRANCH   2   3
ATOM      3  C   UNL     1      39.824  29.227  30.070  1.00  0.00     0.000 C 
BRANCH   3   4
ATOM      4  C   UNL     1      38.647  30.097  29.587  1.00  0.00    -0.000 C 
BRANCH   4   5
ATOM      5  C   UNL     1      37.265  29.422  29.695  1.00  0.00    -0.000 C 
BRANCH   5   6
ATOM      6  C   UNL     1      36.191  30.135  28.857  1.00  0.00    -0.000 C 
BRANCH   6   7
ATOM      7  C   UNL     1      34.973  29.239  28.543  1.00  0.00    -0.000 C 
BRANCH   7   8
ATOM      8  C   UNL     1      34.365  28.540  29.776  1.00  0.00    -0.000 C 
BRANCH   8   9
ATOM      9  C   UNL     1      32.837  28.366  29.742  1.00  0.00    -0.000 C 
BRANCH   9  10
ATOM     10  C   UNL     1      32.374  27.089  29.006  1.00  0.00    -0.000 C 
BRANCH  10  11
ATOM     11  C   UNL     1      32.436  27.242  27.480  1.00  0.00    -0.003 C 
ATOM     12  C   UNL     1      32.004  25.957  26.778  1.00  0.00     0.004 C 
ENDBRANCH  10  11
ENDBRANCH   9  10
ENDBRANCH   8   9
ENDBRANCH   7   8
ENDBRANCH   6   7
ENDBRANCH   5   6
ENDBRANCH   4   5
ENDBRANCH   3   4
ENDBRANCH   2   3
ENDBRANCH   1   2
BRANCH   1  13
ATOM     13  C   UNL     1      43.610  29.530  29.444  1.00  0.00     0.000 C 
BRANCH  13  14
ATOM     14  C   UNL     1      44.165  30.943  29.722  1.00  0.00     0.000 C 
BRANCH  14  15
ATOM     15  C   UNL     1      43.361  32.042  29.005  1.00  0.00     0.000 C 
BRANCH  15  16
ATOM     16  C   UNL     1      43.069  33.248  29.913  1.00  0.00     0.000 C 
BRANCH  16  17
ATOM     17  C   UNL     1      44.256  34.220  30.009  1.00  0.00     0.000 C 
BRANCH  17  18
ATOM     18  C   UNL     1      43.832  35.639  29.608  1.00  0.00     0.000 C 
BRANCH  18  19
ATOM     19  C   UNL     1      44.871  36.286  28.682  1.00  0.00     0.000 C 
BRANCH  19  20
ATOM     20  C   UNL     1      44.390  36.381  27.226  1.00  0.00     0.006 C 
BRANCH  20  21
ATOM     21  C   UNL     1      43.471  35.217  26.828  1.00  0.00     0.053 C 
BRANCH  21  22
ATOM     22  C   UNL     1      43.850  34.689  25.481  1.00  0.00     0.041 C 
ATOM     23  O   UNL     1      44.900  34.009  25.339  1.00  0.00    -0.550 OA
ATOM     24  O   UNL     1      43.019  34.907  24.390  1.00  0.00    -0.550 OA
ENDBRANCH  21  22
ENDBRANCH  20  21
ENDBRANCH  19  20
ENDBRANCH  18  19
ENDBRANCH  17  18
ENDBRANCH  16  17
ENDBRANCH  15  16
ENDBRANCH  14  15
ENDBRANCH  13  14
ENDBRANCH   1  13
TORSDOF 20
ENDMDL
MODEL 2
REMARK VINA RESULT:    -3.430     13.455     15.953
REMARK INTER + INTRA:          -8.074
REMARK INTER:                  -7.021
REMARK INTRA:                  -1.053
REMARK UNBOUND:                -0.634
REMARK SMILES CCCCCCCCCCCCCCCCCCCCCC(=O)[O-]
REMARK SMILES IDX 12 1 11 2 10 3 9 4 8 5 7 6 6 7 5 8 4 9 3 10 2 11 1 12 13 13
REMARK SMILES IDX 14 14 15 15 16 16 17 17 18 18 19 19 20 20 21 21 22 22 23 23
REMARK SMILES IDX 24 24
REMARK H PARENT
REMARK Flexibility Score: inf
ROOT
ATOM      1  C   UNL     1      41.282  26.949  18.628  1.00  0.00     0.000 C 
ENDROOT
BRANCH   1   2
ATOM      2  C   UNL     1      41.679  25.464  18.652  1.00  0.00     0.000 C 
BRANCH   2   3
ATOM      3  C   UNL     1      42.990  25.199  17.887  1.00  0.00     0.000 C 
BRANCH   3   4
ATOM      4  C   UNL     1      43.044  23.825  17.190  1.00  0.00    -0.000 C 
BRANCH   4   5
ATOM      5  C   UNL     1      44.469  23.304  16.913  1.00  0.00    -0.000 C 
BRANCH   5   6
ATOM      6  C   UNL     1      44.716  21.910  17.514  1.00  0.00    -0.000 C 
BRANCH   6   7
ATOM      7  C   UNL     1      43.762  20.831  16.959  1.00  0.00    -0.000 C 
BRANCH   7   8
ATOM      8  C   UNL     1      42.820  20.213  18.013  1.00  0.00    -0.000 C 
BRANCH   8   9
ATOM      9  C   UNL     1      41.574  19.512  17.447  1.00  0.00    -0.000 C 
BRANCH   9  10
ATOM     10  C   UNL     1      41.413  19.671  15.919  1.00  0.00    -0.000 C 
BRANCH  10  11
ATOM     11  C   UNL     1      41.424  18.320  15.189  1.00  0.00    -0.003 C 
ATOM     12  C   UNL     1      40.601  17.279  15.941  1.00  0.00     0.004 C 
ENDBRANCH  10  11
ENDBRANCH   9  10
ENDBRANCH   8   9
ENDBRANCH   7   8
ENDBRANCH   6   7
ENDBRANCH   5   6
ENDBRANCH   4   5
ENDBRANCH   3   4
ENDBRANCH   2   3
ENDBRANCH   1   2
BRANCH   1  13
ATOM     13  C   UNL     1      40.935  27.461  17.220  1.00  0.00     0.000 C 
BRANCH  13  14
ATOM     14  C   UNL     1      40.102  26.467  16.382  1.00  0.00     0.000 C 
BRANCH  14  15
ATOM     15  C   UNL     1      38.721  26.188  17.002  1.00  0.00     0.000 C 
BRANCH  15  16
ATOM     16  C   UNL     1      37.572  26.393  16.003  1.00  0.00     0.000 C 
BRANCH  16  17
ATOM     17  C   UNL     1      36.334  25.547  16.339  1.00  0.00     0.000 C 
BRANCH  17  18
ATOM     18  C   UNL     1      35.072  26.155  15.715  1.00  0.00     0.000 C 
BRANCH  18  19
ATOM     19  C   UNL     1      35.030  27.676  15.921  1.00  0.00     0.000 C 
BRANCH  19  20
ATOM     20  C   UNL     1      35.093  28.455  14.598  1.00  0.00     0.006 C 
BRANCH  20  21
ATOM     21  C   UNL     1      34.958  29.971  14.797  1.00  0.00     0.053 C 
BRANCH  21  22
ATOM     22  C   UNL     1      34.220  30.585  13.650  1.00  0.00     0.041 C 
ATOM     23  O   UNL     1      33.639  31.693  13.791  1.00  0.00    -0.550 OA
ATOM     24  O   UNL     1      34.214  29.958  12.411  1.00  0.00    -0.550 OA
ENDBRANCH  21  22
ENDBRANCH  20  21
ENDBRANCH  19  20
ENDBRANCH  18  19
ENDBRANCH  17  18
ENDBRANCH  16  17
ENDBRANCH  15  16
ENDBRANCH  14  15
ENDBRANCH  13  14
ENDBRANCH   1  13
TORSDOF 20
ENDMDL
MODEL 3
REMARK VINA RESULT:    -3.274     13.316     17.243
REMARK INTER + INTRA:          -7.735
REMARK INTER:                  -6.501
REMARK INTRA:                  -1.235
REMARK UNBOUND:                -0.634
REMARK SMILES CCCCCCCCCCCCCCCCCCCCCC(=O)[O-]
REMARK SMILES IDX 12 1 11 2 10 3 9 4 8 5 7 6 6 7 5 8 4 9 3 10 2 11 1 12 13 13
REMARK SMILES IDX 14 14 15 15 16 16 17 17 18 18 19 19 20 20 21 21 22 22 23 23
REMARK SMILES IDX 24 24
REMARK H PARENT
REMARK Flexibility Score: inf
ROOT
ATOM      1  C   UNL     1      40.745  26.392  17.715  1.00  0.00     0.000 C 
ENDROOT
BRANCH   1   2
ATOM      2  C   UNL     1      41.348  27.273  16.609  1.00  0.00     0.000 C 
BRANCH   2   3
ATOM      3  C   UNL     1      41.833  28.633  17.145  1.00  0.00     0.000 C 
BRANCH   3   4
ATOM      4  C   UNL     1      42.101  29.683  16.048  1.00  0.00    -0.000 C 
BRANCH   4   5
ATOM      5  C   UNL     1      42.434  31.092  16.578  1.00  0.00    -0.000 C 
BRANCH   5   6
ATOM      6  C   UNL     1      43.010  32.013  15.488  1.00  0.00    -0.000 C 
BRANCH   6   7
ATOM      7  C   UNL     1      44.551  31.963  15.404  1.00  0.00    -0.000 C 
BRANCH   7   8
ATOM      8  C   UNL     1      45.247  31.600  16.732  1.00  0.00    -0.000 C 
BRANCH   8   9
ATOM      9  C   UNL     1      46.599  30.881  16.586  1.00  0.00    -0.000 C 
BRANCH   9  10
ATOM     10  C   UNL     1      46.883  30.377  15.153  1.00  0.00    -0.000 C 
BRANCH  10  11
ATOM     11  C   UNL     1      48.171  29.547  15.073  1.00  0.00    -0.003 C 
ATOM     12  C   UNL     1      49.380  30.430  14.776  1.00  0.00     0.004 C 
ENDBRANCH  10  11
ENDBRANCH   9  10
ENDBRANCH   8   9
ENDBRANCH   7   8
ENDBRANCH   6   7
ENDBRANCH   5   6
ENDBRANCH   4   5
ENDBRANCH   3   4
ENDBRANCH   2   3
ENDBRANCH   1   2
BRANCH   1  13
ATOM     13  C   UNL     1      41.802  25.594  18.497  1.00  0.00     0.000 C 
BRANCH  13  14
ATOM     14  C   UNL     1      43.056  25.241  17.669  1.00  0.00     0.000 C 
BRANCH  14  15
ATOM     15  C   UNL     1      43.061  23.773  17.205  1.00  0.00     0.000 C 
BRANCH  15  16
ATOM     16  C   UNL     1      44.480  23.235  16.962  1.00  0.00     0.000 C 
BRANCH  16  17
ATOM     17  C   UNL     1      44.678  21.813  17.510  1.00  0.00     0.000 C 
BRANCH  17  18
ATOM     18  C   UNL     1      43.641  20.851  16.919  1.00  0.00     0.000 C 
BRANCH  18  19
ATOM     19  C   UNL     1      42.853  20.137  18.026  1.00  0.00     0.000 C 
BRANCH  19  20
ATOM     20  C   UNL     1      41.523  19.553  17.525  1.00  0.00     0.006 C 
BRANCH  20  21
ATOM     21  C   UNL     1      41.465  19.441  15.995  1.00  0.00     0.053 C 
BRANCH  21  22
ATOM     22  C   UNL     1      41.168  18.033  15.585  1.00  0.00     0.041 C 
ATOM     23  O   UNL     1      40.652  17.230  16.405  1.00  0.00    -0.550 OA
ATOM     24  O   UNL     1      41.417  17.621  14.282  1.00  0.00    -0.550 OA
ENDBRANCH  21  22
ENDBRANCH  20  21
ENDBRANCH  19  20
ENDBRANCH  18  19
ENDBRANCH  17  18
ENDBRANCH  16  17
ENDBRANCH  15  16
ENDBRANCH  14  15
ENDBRANCH  13  14
ENDBRANCH   1  13
TORSDOF 20
ENDMDL
MODEL 4
REMARK VINA RESULT:    -3.169     12.055     13.325
REMARK INTER + INTRA:          -7.508
REMARK INTER:                  -6.861
REMARK INTRA:                  -0.648
REMARK UNBOUND:                -0.634
REMARK SMILES CCCCCCCCCCCCCCCCCCCCCC(=O)[O-]
REMARK SMILES IDX 12 1 11 2 10 3 9 4 8 5 7 6 6 7 5 8 4 9 3 10 2 11 1 12 13 13
REMARK SMILES IDX 14 14 15 15 16 16 17 17 18 18 19 19 20 20 21 21 22 22 23 23
REMARK SMILES IDX 24 24
REMARK H PARENT
REMARK Flexibility Score: inf
ROOT
ATOM      1  C   UNL     1      41.471  26.698  18.671  1.00  0.00     0.000 C 
ENDROOT
BRANCH   1   2
ATOM      2  C   UNL     1      41.446  25.889  17.365  1.00  0.00     0.000 C 
BRANCH   2   3
ATOM      3  C   UNL     1      40.229  26.235  16.486  1.00  0.00     0.000 C 
BRANCH   3   4
ATOM      4  C   UNL     1      38.875  26.128  17.216  1.00  0.00    -0.000 C 
BRANCH   4   5
ATOM      5  C   UNL     1      37.654  26.524  16.362  1.00  0.00    -0.000 C 
BRANCH   5   6
ATOM      6  C   UNL     1      36.617  25.392  16.252  1.00  0.00    -0.000 C 
BRANCH   6   7
ATOM      7  C   UNL     1      35.193  25.902  15.943  1.00  0.00    -0.000 C 
BRANCH   7   8
ATOM      8  C   UNL     1      35.149  27.281  15.255  1.00  0.00    -0.000 C 
BRANCH   8   9
ATOM      9  C   UNL     1      34.641  28.436  16.135  1.00  0.00    -0.000 C 
BRANCH   9  10
ATOM     10  C   UNL     1      34.974  29.836  15.576  1.00  0.00    -0.000 C 
BRANCH  10  11
ATOM     11  C   UNL     1      34.975  29.865  14.041  1.00  0.00    -0.003 C 
ATOM     12  C   UNL     1      34.093  30.991  13.509  1.00  0.00     0.004 C 
ENDBRANCH  10  11
ENDBRANCH   9  10
ENDBRANCH   8   9
ENDBRANCH   7   8
ENDBRANCH   6   7
ENDBRANCH   5   6
ENDBRANCH   4   5
ENDBRANCH   3   4
ENDBRANCH   2   3
ENDBRANCH   1   2
BRANCH   1  13
ATOM     13  C   UNL     1      41.418  28.218  18.443  1.00  0.00     0.000 C 
BRANCH  13  14
ATOM     14  C   UNL     1      41.900  28.656  17.043  1.00  0.00     0.000 C 
BRANCH  14  15
ATOM     15  C   UNL     1      41.882  30.186  16.867  1.00  0.00     0.000 C 
BRANCH  15  16
ATOM     16  C   UNL     1      42.687  30.649  15.642  1.00  0.00     0.000 C 
BRANCH  16  17
ATOM     17  C   UNL     1      43.372  32.007  15.860  1.00  0.00     0.000 C 
BRANCH  17  18
ATOM     18  C   UNL     1      44.743  31.825  16.522  1.00  0.00     0.000 C 
BRANCH  18  19
ATOM     19  C   UNL     1      45.696  31.034  15.615  1.00  0.00     0.000 C 
BRANCH  19  20
ATOM     20  C   UNL     1      47.027  30.696  16.304  1.00  0.00     0.006 C 
BRANCH  20  21
ATOM     21  C   UNL     1      47.858  29.672  15.518  1.00  0.00     0.053 C 
BRANCH  21  22
ATOM     22  C   UNL     1      48.854  30.367  14.645  1.00  0.00     0.041 C 
ATOM     23  O   UNL     1      48.536  30.725  13.481  1.00  0.00    -0.550 OA
ATOM     24  O   UNL     1      50.120  30.663  15.134  1.00  0.00    -0.550 OA
ENDBRANCH  21  22
ENDBRANCH  20  21
ENDBRANCH  19  20
ENDBRANCH  18  19
ENDBRANCH  17  18
ENDBRANCH  16  17
ENDBRANCH  15  16
ENDBRANCH  14  15
ENDBRANCH  13  14
ENDBRANCH   1  13
TORSDOF 20
ENDMDL
MODEL 5
REMARK VINA RESULT:    -3.155     12.210     16.355
REMARK INTER + INTRA:          -7.479
REMARK INTER:                  -6.789
REMARK INTRA:                  -0.690
REMARK UNBOUND:                -0.634
REMARK SMILES CCCCCCCCCCCCCCCCCCCCCC(=O)[O-]
REMARK SMILES IDX 12 1 11 2 10 3 9 4 8 5 7 6 6 7 5 8 4 9 3 10 2 11 1 12 13 13
REMARK SMILES IDX 14 14 15 15 16 16 17 17 18 18 19 19 20 20 21 21 22 22 23 23
REMARK SMILES IDX 24 24
REMARK H PARENT
REMARK Flexibility Score: inf
ROOT
ATOM      1  C   UNL     1      41.164  27.349  18.879  1.00  0.00     0.000 C 
ENDROOT
BRANCH   1   2
ATOM      2  C   UNL     1      41.594  28.641  18.166  1.00  0.00     0.000 C 
BRANCH   2   3
ATOM      3  C   UNL     1      41.819  28.428  16.657  1.00  0.00     0.000 C 
BRANCH   3   4
ATOM      4  C   UNL     1      42.533  29.600  15.955  1.00  0.00    -0.000 C 
BRANCH   4   5
ATOM      5  C   UNL     1      42.097  30.997  16.440  1.00  0.00    -0.000 C 
BRANCH   5   6
ATOM      6  C   UNL     1      43.025  32.115  15.935  1.00  0.00    -0.000 C 
BRANCH   6   7
ATOM      7  C   UNL     1      44.442  31.615  15.583  1.00  0.00    -0.000 C 
BRANCH   7   8
ATOM      8  C   UNL     1      45.460  31.728  16.736  1.00  0.00    -0.000 C 
BRANCH   8   9
ATOM      9  C   UNL     1      46.633  30.735  16.673  1.00  0.00    -0.000 C 
BRANCH   9  10
ATOM     10  C   UNL     1      47.047  30.353  15.235  1.00  0.00    -0.000 C 
BRANCH  10  11
ATOM     11  C   UNL     1      48.387  29.605  15.194  1.00  0.00    -0.003 C 
ATOM     12  C   UNL     1      49.468  30.446  14.520  1.00  0.00     0.004 C 
ENDBRANCH  10  11
ENDBRANCH   9  10
ENDBRANCH   8   9
ENDBRANCH   7   8
ENDBRANCH   6   7
ENDBRANCH   5   6
ENDBRANCH   4   5
ENDBRANCH   3   4
ENDBRANCH   2   3
ENDBRANCH   1   2
BRANCH   1  13
ATOM     13  C   UNL     1      41.324  26.093  18.006  1.00  0.00     0.000 C 
BRANCH  13  14
ATOM     14  C   UNL     1      40.273  25.977  16.881  1.00  0.00     0.000 C 
BRANCH  14  15
ATOM     15  C   UNL     1      38.845  26.269  17.377  1.00  0.00     0.000 C 
BRANCH  15  16
ATOM     16  C   UNL     1      37.809  26.248  16.243  1.00  0.00     0.000 C 
BRANCH  16  17
ATOM     17  C   UNL     1      36.513  25.521  16.635  1.00  0.00     0.000 C 
BRANCH  17  18
ATOM     18  C   UNL     1      35.355  25.943  15.722  1.00  0.00     0.000 C 
BRANCH  18  19
ATOM     19  C   UNL     1      34.999  27.422  15.926  1.00  0.00     0.000 C 
BRANCH  19  20
ATOM     20  C   UNL     1      35.019  28.223  14.615  1.00  0.00     0.006 C 
BRANCH  20  21
ATOM     21  C   UNL     1      34.946  29.739  14.846  1.00  0.00     0.053 C 
BRANCH  21  22
ATOM     22  C   UNL     1      34.341  30.420  13.660  1.00  0.00     0.041 C 
ATOM     23  O   UNL     1      34.271  29.823  12.554  1.00  0.00    -0.550 OA
ATOM     24  O   UNL     1      33.810  31.697  13.787  1.00  0.00    -0.550 OA
ENDBRANCH  21  22
ENDBRANCH  20  21
ENDBRANCH  19  20
ENDBRANCH  18  19
ENDBRANCH  17  18
ENDBRANCH  16  17
ENDBRANCH  15  16
ENDBRANCH  14  15
ENDBRANCH  13  14
ENDBRANCH   1  13
TORSDOF 20
ENDMDL
MODEL 6
REMARK VINA RESULT:    -3.038     12.468     14.300
REMARK INTER + INTRA:          -7.223
REMARK INTER:                  -6.122
REMARK INTRA:                  -1.102
REMARK UNBOUND:                -0.634
REMARK SMILES CCCCCCCCCCCCCCCCCCCCCC(=O)[O-]
REMARK SMILES IDX 12 1 11 2 10 3 9 4 8 5 7 6 6 7 5 8 4 9 3 10 2 11 1 12 13 13
REMARK SMILES IDX 14 14 15 15 16 16 17 17 18 18 19 19 20 20 21 21 22 22 23 23
REMARK SMILES IDX 24 24
REMARK H PARENT
REMARK Flexibility Score: inf
ROOT
ATOM      1  C   UNL     1      40.994  27.151  18.850  1.00  0.00     0.000 C 
ENDROOT
BRANCH   1   2
ATOM      2  C   UNL     1      40.557  26.390  17.588  1.00  0.00     0.000 C 
BRANCH   2   3
ATOM      3  C   UNL     1      41.753  25.781  16.831  1.00  0.00     0.000 C 
BRANCH   3   4
ATOM      4  C   UNL     1      42.580  24.781  17.662  1.00  0.00    -0.000 C 
BRANCH   4   5
ATOM      5  C   UNL     1      43.463  23.831  16.827  1.00  0.00    -0.000 C 
BRANCH   5   6
ATOM      6  C   UNL     1      44.400  22.976  17.697  1.00  0.00    -0.000 C 
BRANCH   6   7
ATOM      7  C   UNL     1      44.860  21.678  17.000  1.00  0.00    -0.000 C 
BRANCH   7   8
ATOM      8  C   UNL     1      43.727  20.667  16.731  1.00  0.00    -0.000 C 
BRANCH   8   9
ATOM      9  C   UNL     1      42.876  20.297  17.957  1.00  0.00    -0.000 C 
BRANCH   9  10
ATOM     10  C   UNL     1      41.593  19.510  17.609  1.00  0.00    -0.000 C 
BRANCH  10  11
ATOM     11  C   UNL     1      41.370  19.402  16.094  1.00  0.00    -0.003 C 
ATOM     12  C   UNL     1      40.982  17.981  15.693  1.00  0.00     0.004 C 
ENDBRANCH  10  11
ENDBRANCH   9  10
ENDBRANCH   8   9
ENDBRANCH   7   8
ENDBRANCH   6   7
ENDBRANCH   5   6
ENDBRANCH   4   5
ENDBRANCH   3   4
ENDBRANCH   2   3
ENDBRANCH   1   2
BRANCH   1  13
ATOM     13  C   UNL     1      41.376  28.614  18.574  1.00  0.00     0.000 C 
BRANCH  13  14
ATOM     14  C   UNL     1      41.357  28.992  17.077  1.00  0.00     0.000 C 
BRANCH  14  15
ATOM     15  C   UNL     1      42.684  29.617  16.611  1.00  0.00     0.000 C 
BRANCH  15  16
ATOM     16  C   UNL     1      42.476  30.804  15.658  1.00  0.00     0.000 C 
BRANCH  16  17
ATOM     17  C   UNL     1      43.475  31.946  15.903  1.00  0.00     0.000 C 
BRANCH  17  18
ATOM     18  C   UNL     1      44.899  31.513  15.532  1.00  0.00     0.000 C 
BRANCH  18  19
ATOM     19  C   UNL     1      45.814  31.506  16.765  1.00  0.00     0.000 C 
BRANCH  19  20
ATOM     20  C   UNL     1      47.028  30.579  16.598  1.00  0.00     0.006 C 
BRANCH  20  21
ATOM     21  C   UNL     1      47.152  30.019  15.174  1.00  0.00     0.053 C 
BRANCH  21  22
ATOM     22  C   UNL     1      48.473  30.392  14.579  1.00  0.00     0.041 C 
ATOM     23  O   UNL     1      49.510  30.397  15.292  1.00  0.00    -0.550 OA
ATOM     24  O   UNL     1      48.568  30.687  13.225  1.00  0.00    -0.550 OA
ENDBRANCH  21  22
ENDBRANCH  20  21
ENDBRANCH  19  20
ENDBRANCH  18  19
ENDBRANCH  17  18
ENDBRANCH  16  17
ENDBRANCH  15  16
ENDBRANCH  14  15
ENDBRANCH  13  14
ENDBRANCH   1  13
TORSDOF 20
ENDMDL
MODEL 7
REMARK VINA RESULT:    -3.003     11.883     16.364
REMARK INTER + INTRA:          -7.148
REMARK INTER:                  -7.205
REMARK INTRA:                   0.057
REMARK UNBOUND:                -0.634
REMARK SMILES CCCCCCCCCCCCCCCCCCCCCC(=O)[O-]
REMARK SMILES IDX 12 1 11 2 10 3 9 4 8 5 7 6 6 7 5 8 4 9 3 10 2 11 1 12 13 13
REMARK SMILES IDX 14 14 15 15 16 16 17 17 18 18 19 19 20 20 21 21 22 22 23 23
REMARK SMILES IDX 24 24
REMARK H PARENT
REMARK Flexibility Score: inf
ROOT
ATOM      1  C   UNL     1      41.836  26.221  17.602  1.00  0.00     0.000 C 
ENDROOT
BRANCH   1   2
ATOM      2  C   UNL     1      41.431  27.284  16.569  1.00  0.00     0.000 C 
BRANCH   2   3
ATOM      3  C   UNL     1      41.744  28.714  17.050  1.00  0.00     0.000 C 
BRANCH   3   4
ATOM      4  C   UNL     1      42.589  29.540  16.060  1.00  0.00    -0.000 C 
BRANCH   4   5
ATOM      5  C   UNL     1      42.193  31.027  15.967  1.00  0.00    -0.000 C 
BRANCH   5   6
ATOM      6  C   UNL     1      43.333  31.970  16.389  1.00  0.00    -0.000 C 
BRANCH   6   7
ATOM      7  C   UNL     1      44.557  31.900  15.452  1.00  0.00    -0.000 C 
BRANCH   7   8
ATOM      8  C   UNL     1      45.768  31.150  16.045  1.00  0.00    -0.000 C 
BRANCH   8   9
ATOM      9  C   UNL     1      46.584  30.324  15.036  1.00  0.00    -0.000 C 
BRANCH   9  10
ATOM     10  C   UNL     1      48.009  29.980  15.523  1.00  0.00    -0.000 C 
BRANCH  10  11
ATOM     11  C   UNL     1      49.082  30.343  14.487  1.00  0.00    -0.003 C 
ATOM     12  C   UNL     1      50.406  30.690  15.162  1.00  0.00     0.004 C 
ENDBRANCH  10  11
ENDBRANCH   9  10
ENDBRANCH   8   9
ENDBRANCH   7   8
ENDBRANCH   6   7
ENDBRANCH   5   6
ENDBRANCH   4   5
ENDBRANCH   3   4
ENDBRANCH   2   3
ENDBRANCH   1   2
BRANCH   1  13
ATOM     13  C   UNL     1      41.310  26.519  19.016  1.00  0.00     0.000 C 
BRANCH  13  14
ATOM     14  C   UNL     1      39.770  26.547  19.116  1.00  0.00     0.000 C 
BRANCH  14  15
ATOM     15  C   UNL     1      39.096  26.774  17.751  1.00  0.00     0.000 C 
BRANCH  15  16
ATOM     16  C   UNL     1      38.240  25.578  17.308  1.00  0.00     0.000 C 
BRANCH  16  17
ATOM     17  C   UNL     1      37.362  25.894  16.087  1.00  0.00     0.000 C 
BRANCH  17  18
ATOM     18  C   UNL     1      35.893  25.556  16.370  1.00  0.00     0.000 C 
BRANCH  18  19
ATOM     19  C   UNL     1      34.955  26.356  15.455  1.00  0.00     0.000 C 
BRANCH  19  20
ATOM     20  C   UNL     1      35.070  27.873  15.670  1.00  0.00     0.006 C 
BRANCH  20  21
ATOM     21  C   UNL     1      35.124  28.656  14.351  1.00  0.00     0.053 C 
BRANCH  21  22
ATOM     22  C   UNL     1      34.816  30.101  14.587  1.00  0.00     0.041 C 
ATOM     23  O   UNL     1      34.384  30.818  13.648  1.00  0.00    -0.550 OA
ATOM     24  O   UNL     1      34.961  30.644  15.857  1.00  0.00    -0.550 OA
ENDBRANCH  21  22
ENDBRANCH  20  21
ENDBRANCH  19  20
ENDBRANCH  18  19
ENDBRANCH  17  18
ENDBRANCH  16  17
ENDBRANCH  15  16
ENDBRANCH  14  15
ENDBRANCH  13  14
ENDBRANCH   1  13
TORSDOF 20
ENDMDL
MODEL 8
REMARK VINA RESULT:    -2.996     13.694     15.698
REMARK INTER + INTRA:          -7.132
REMARK INTER:                  -6.044
REMARK INTRA:                  -1.088
REMARK UNBOUND:                -0.634
REMARK SMILES CCCCCCCCCCCCCCCCCCCCCC(=O)[O-]
REMARK SMILES IDX 12 1 11 2 10 3 9 4 8 5 7 6 6 7 5 8 4 9 3 10 2 11 1 12 13 13
REMARK SMILES IDX 14 14 15 15 16 16 17 17 18 18 19 19 20 20 21 21 22 22 23 23
REMARK SMILES IDX 24 24
REMARK H PARENT
REMARK Flexibility Score: inf
ROOT
ATOM      1  C   UNL     1      41.442  26.348  19.241  1.00  0.00     0.000 C 
ENDROOT
BRANCH   1   2
ATOM      2  C   UNL     1      40.034  26.939  19.069  1.00  0.00     0.000 C 
BRANCH   2   3
ATOM      3  C   UNL     1      39.575  26.935  17.598  1.00  0.00     0.000 C 
BRANCH   3   4
ATOM      4  C   UNL     1      38.597  25.797  17.247  1.00  0.00    -0.000 C 
BRANCH   4   5
ATOM      5  C   UNL     1      37.536  26.168  16.192  1.00  0.00    -0.000 C 
BRANCH   5   6
ATOM      6  C   UNL     1      36.192  25.455  16.427  1.00  0.00    -0.000 C 
BRANCH   6   7
ATOM      7  C   UNL     1      35.075  25.936  15.477  1.00  0.00    -0.000 C 
BRANCH   7   8
ATOM      8  C   UNL     1      35.198  27.414  15.050  1.00  0.00    -0.000 C 
BRANCH   8   9
ATOM      9  C   UNL     1      34.948  28.440  16.167  1.00  0.00    -0.000 C 
BRANCH   9  10
ATOM     10  C   UNL     1      34.671  29.869  15.647  1.00  0.00    -0.000 C 
BRANCH  10  11
ATOM     11  C   UNL     1      35.019  30.024  14.160  1.00  0.00    -0.003 C 
ATOM     12  C   UNL     1      34.169  31.110  13.506  1.00  0.00     0.004 C 
ENDBRANCH  10  11
ENDBRANCH   9  10
ENDBRANCH   8   9
ENDBRANCH   7   8
ENDBRANCH   6   7
ENDBRANCH   5   6
ENDBRANCH   4   5
ENDBRANCH   3   4
ENDBRANCH   2   3
ENDBRANCH   1   2
BRANCH   1  13
ATOM     13  C   UNL     1      42.068  25.878  17.916  1.00  0.00     0.000 C 
BRANCH  13  14
ATOM     14  C   UNL     1      43.185  24.826  18.092  1.00  0.00     0.000 C 
BRANCH  14  15
ATOM     15  C   UNL     1      43.144  23.738  17.004  1.00  0.00     0.000 C 
BRANCH  15  16
ATOM     16  C   UNL     1      44.517  23.092  16.763  1.00  0.00     0.000 C 
BRANCH  16  17
ATOM     17  C   UNL     1      44.664  21.731  17.461  1.00  0.00     0.000 C 
BRANCH  17  18
ATOM     18  C   UNL     1      43.619  20.736  16.941  1.00  0.00     0.000 C 
BRANCH  18  19
ATOM     19  C   UNL     1      42.863  20.071  18.100  1.00  0.00     0.000 C 
BRANCH  19  20
ATOM     20  C   UNL     1      41.499  19.509  17.673  1.00  0.00     0.006 C 
BRANCH  20  21
ATOM     21  C   UNL     1      41.311  19.505  16.149  1.00  0.00     0.053 C 
BRANCH  21  22
ATOM     22  C   UNL     1      41.140  18.107  15.646  1.00  0.00     0.041 C 
ATOM     23  O   UNL     1      40.530  17.254  16.343  1.00  0.00    -0.550 OA
ATOM     24  O   UNL     1      41.611  17.757  14.388  1.00  0.00    -0.550 OA
ENDBRANCH  21  22
ENDBRANCH  20  21
ENDBRANCH  19  20
ENDBRANCH  18  19
ENDBRANCH  17  18
ENDBRANCH  16  17
ENDBRANCH  15  16
ENDBRANCH  14  15
ENDBRANCH  13  14
ENDBRANCH   1  13
TORSDOF 20
ENDMDL
