MODEL 1
REMARK VINA RESULT:    13.990      0.000      0.000
REMARK INTER + INTRA:          23.424
REMARK INTER:                  23.804
REMARK INTRA:                  -0.380
REMARK UNBOUND:                -0.380
REMARK SMILES CCCCCCCCCCCCCC(=O)[O-]
REMARK SMILES IDX 8 1 9 2 10 3 11 4 12 5 13 6 14 7 15 8 16 9 7 10 6 11 5 12
REMARK SMILES IDX 4 13 3 14 2 15 1 16
REMARK H PARENT
REMARK Flexibility Score: inf
ROOT
ATOM      1  C   UNL     1      56.359  47.832  20.868  1.00  0.00     0.000 C 
ENDROOT
BRANCH   1   2
ATOM      2  C   UNL     1      56.587  46.355  21.223  1.00  0.00     0.000 C 
BRANCH   2   3
ATOM      3  C   UNL     1      55.674  45.406  20.429  1.00  0.00     0.000 C 
BRANCH   3   4
ATOM      4  C   UNL     1      56.283  44.003  20.265  1.00  0.00     0.000 C 
BRANCH   4   5
ATOM      5  C   UNL     1      55.248  42.876  20.434  1.00  0.00     0.006 C 
BRANCH   5   6
ATOM      6  C   UNL     1      55.732  41.706  21.310  1.00  0.00     0.053 C 
BRANCH   6   7
ATOM      7  C   UNL     1      55.240  40.378  20.821  1.00  0.00     0.041 C 
ATOM      8  O   UNL     1      54.061  40.259  20.393  1.00  0.00    -0.550 OA
ATOM      9  O   UNL     1      56.069  39.265  20.869  1.00  0.00    -0.550 OA
ENDBRANCH   6   7
ENDBRANCH   5   6
ENDBRANCH   4   5
ENDBRANCH   3   4
ENDBRANCH   2   3
ENDBRANCH   1   2
BRANCH   1  10
ATOM     10  C   UNL     1      55.930  47.984  19.400  1.00  0.00     0.000 C 
BRANCH  10  11
ATOM     11  C   UNL     1      57.054  47.629  18.413  1.00  0.00    -0.000 C 
BRANCH  11  12
ATOM     12  C   UNL     1      57.074  48.554  17.184  1.00  0.00    -0.000 C 
BRANCH  12  13
ATOM     13  C   UNL     1      55.701  49.185  16.899  1.00  0.00    -0.000 C 
BRANCH  13  14
ATOM     14  C   UNL     1      55.775  50.338  15.885  1.00  0.00    -0.000 C 
BRANCH  14  15
ATOM     15  C   UNL     1      54.625  50.254  14.875  1.00  0.00    -0.003 C 
ATOM     16  C   UNL     1      53.304  49.932  15.568  1.00  0.00     0.004 C 
ENDBRANCH  14  15
ENDBRANCH  13  14
ENDBRANCH  12  13
ENDBRANCH  11  12
ENDBRANCH  10  11
ENDBRANCH   1  10
TORSDOF 12
ENDMDL
MODEL 2
REMARK VINA RESULT:    14.319      4.261      8.526
REMARK INTER + INTRA:          23.985
REMARK INTER:                  24.386
REMARK INTRA:                  -0.401
REMARK UNBOUND:                -0.380
REMARK SMILES CCCCCCCCCCCCCC(=O)[O-]
REMARK SMILES IDX 8 1 9 2 10 3 11 4 12 5 13 6 14 7 15 8 16 9 7 10 6 11 5 12
REMARK SMILES IDX 4 13 3 14 2 15 1 16
REMARK H PARENT
REMARK Flexibility Score: inf
ROOT
ATOM      1  C   UNL     1      56.402  46.191  21.155  1.00  0.00     0.000 C 
ENDROOT
BRANCH   1   2
ATOM      2  C   UNL     1      56.419  47.697  20.850  1.00  0.00     0.000 C 
BRANCH   2   3
ATOM      3  C   UNL     1      55.987  48.016  19.409  1.00  0.00     0.000 C 
BRANCH   3   4
ATOM      4  C   UNL     1      57.121  47.801  18.393  1.00  0.00     0.000 C 
BRANCH   4   5
ATOM      5  C   UNL     1      56.897  48.563  17.074  1.00  0.00     0.006 C 
BRANCH   5   6
ATOM      6  C   UNL     1      55.492  49.176  16.934  1.00  0.00     0.053 C 
BRANCH   6   7
ATOM      7  C   UNL     1      55.408  50.177  15.822  1.00  0.00     0.041 C 
ATOM      8  O   UNL     1      56.258  51.101  15.738  1.00  0.00    -0.550 OA
ATOM      9  O   UNL     1      54.372  50.111  14.899  1.00  0.00    -0.550 OA
ENDBRANCH   6   7
ENDBRANCH   5   6
ENDBRANCH   4   5
ENDBRANCH   3   4
ENDBRANCH   2   3
ENDBRANCH   1   2
BRANCH   1  10
ATOM     10  C   UNL     1      55.518  45.438  20.147  1.00  0.00     0.000 C 
BRANCH  10  11
ATOM     11  C   UNL     1      56.007  44.004  19.882  1.00  0.00    -0.000 C 
BRANCH  11  12
ATOM     12  C   UNL     1      55.068  42.940  20.475  1.00  0.00    -0.000 C 
BRANCH  12  13
ATOM     13  C   UNL     1      55.827  41.846  21.243  1.00  0.00    -0.000 C 
BRANCH  13  14
ATOM     14  C   UNL     1      55.123  40.481  21.186  1.00  0.00    -0.000 C 
BRANCH  14  15
ATOM     15  C   UNL     1      55.942  39.476  20.368  1.00  0.00    -0.003 C 
ATOM     16  C   UNL     1      56.835  38.627  21.269  1.00  0.00     0.004 C 
ENDBRANCH  14  15
ENDBRANCH  13  14
ENDBRANCH  12  13
ENDBRANCH  11  12
ENDBRANCH  10  11
ENDBRANCH   1  10
TORSDOF 12
ENDMDL
MODEL 3
REMARK VINA RESULT:    15.438      0.957      1.642
REMARK INTER + INTRA:          25.889
REMARK INTER:                  26.417
REMARK INTRA:                  -0.528
REMARK UNBOUND:                -0.380
REMARK SMILES CCCCCCCCCCCCCC(=O)[O-]
REMARK SMILES IDX 8 1 9 2 10 3 11 4 12 5 13 6 14 7 15 8 16 9 7 10 6 11 5 12
REMARK SMILES IDX 4 13 3 14 2 15 1 16
REMARK H PARENT
REMARK Flexibility Score: inf
ROOT
ATOM      1  C   UNL     1      56.389  46.312  21.238  1.00  0.00     0.000 C 
ENDROOT
BRANCH   1   2
ATOM      2  C   UNL     1      55.757  45.239  20.338  1.00  0.00     0.000 C 
BRANCH   2   3
ATOM      3  C   UNL     1      56.382  43.849  20.544  1.00  0.00     0.000 C 
BRANCH   3   4
ATOM      4  C   UNL     1      55.373  42.710  20.319  1.00  0.00     0.000 C 
BRANCH   4   5
ATOM      5  C   UNL     1      55.404  41.651  21.436  1.00  0.00     0.006 C 
BRANCH   5   6
ATOM      6  C   UNL     1      55.140  40.215  20.946  1.00  0.00     0.053 C 
BRANCH   6   7
ATOM      7  C   UNL     1      56.391  39.395  20.866  1.00  0.00     0.041 C 
ATOM      8  O   UNL     1      56.401  38.212  21.297  1.00  0.00    -0.550 OA
ATOM      9  O   UNL     1      57.557  39.946  20.348  1.00  0.00    -0.550 OA
ENDBRANCH   6   7
ENDBRANCH   5   6
ENDBRANCH   4   5
ENDBRANCH   3   4
ENDBRANCH   2   3
ENDBRANCH   1   2
BRANCH   1  10
ATOM     10  C   UNL     1      56.280  47.702  20.591  1.00  0.00     0.000 C 
BRANCH  10  11
ATOM     11  C   UNL     1      56.032  47.636  19.075  1.00  0.00    -0.000 C 
BRANCH  11  12
ATOM     12  C   UNL     1      57.292  47.961  18.255  1.00  0.00    -0.000 C 
BRANCH  12  13
ATOM     13  C   UNL     1      56.961  48.483  16.847  1.00  0.00    -0.000 C 
BRANCH  13  14
ATOM     14  C   UNL     1      55.622  49.234  16.791  1.00  0.00    -0.000 C 
BRANCH  14  15
ATOM     15  C   UNL     1      55.600  50.228  15.625  1.00  0.00    -0.003 C 
ATOM     16  C   UNL     1      54.177  50.463  15.126  1.00  0.00     0.004 C 
ENDBRANCH  14  15
ENDBRANCH  13  14
ENDBRANCH  12  13
ENDBRANCH  11  12
ENDBRANCH  10  11
ENDBRANCH   1  10
TORSDOF 12
ENDMDL
MODEL 4
REMARK VINA RESULT:    15.516     16.654     18.411
REMARK INTER + INTRA:          26.021
REMARK INTER:                  26.456
REMARK INTRA:                  -0.435
REMARK UNBOUND:                -0.380
REMARK SMILES CCCCCCCCCCCCCC(=O)[O-]
REMARK SMILES IDX 8 1 9 2 10 3 11 4 12 5 13 6 14 7 15 8 16 9 7 10 6 11 5 12
REMARK SMILES IDX 4 13 3 14 2 15 1 16
REMARK H PARENT
REMARK Flexibility Score: inf
ROOT
ATOM      1  C   UNL     1      48.124  41.094  32.756  1.00  0.00     0.000 C 
ENDROOT
BRANCH   1   2
ATOM      2  C   UNL     1      47.074  40.124  32.192  1.00  0.00     0.000 C 
BRANCH   2   3
ATOM      3  C   UNL     1      45.663  40.395  32.739  1.00  0.00     0.000 C 
BRANCH   3   4
ATOM      4  C   UNL     1      44.811  39.117  32.830  1.00  0.00     0.000 C 
BRANCH   4   5
ATOM      5  C   UNL     1      43.308  39.408  32.990  1.00  0.00     0.006 C 
BRANCH   5   6
ATOM      6  C   UNL     1      42.644  39.990  31.729  1.00  0.00     0.053 C 
BRANCH   6   7
ATOM      7  C   UNL     1      41.948  41.290  31.992  1.00  0.00     0.041 C 
ATOM      8  O   UNL     1      42.564  42.379  31.844  1.00  0.00    -0.550 OA
ATOM      9  O   UNL     1      40.632  41.302  32.436  1.00  0.00    -0.550 OA
ENDBRANCH   6   7
ENDBRANCH   5   6
ENDBRANCH   4   5
ENDBRANCH   3   4
ENDBRANCH   2   3
ENDBRANCH   1   2
BRANCH   1  10
ATOM     10  C   UNL     1      49.547  40.606  32.439  1.00  0.00     0.000 C 
BRANCH  10  11
ATOM     11  C   UNL     1      49.990  39.440  33.339  1.00  0.00    -0.000 C 
BRANCH  11  12
ATOM     12  C   UNL     1      50.147  39.857  34.811  1.00  0.00    -0.000 C 
BRANCH  12  13
ATOM     13  C   UNL     1      51.255  40.904  35.012  1.00  0.00    -0.000 C 
BRANCH  13  14
ATOM     14  C   UNL     1      50.725  42.346  34.979  1.00  0.00    -0.000 C 
BRANCH  14  15
ATOM     15  C   UNL     1      51.870  43.354  35.124  1.00  0.00    -0.003 C 
ATOM     16  C   UNL     1      51.347  44.788  35.123  1.00  0.00     0.004 C 
ENDBRANCH  14  15
ENDBRANCH  13  14
ENDBRANCH  12  13
ENDBRANCH  11  12
ENDBRANCH  10  11
ENDBRANCH   1  10
TORSDOF 12
ENDMDL
MODEL 5
REMARK VINA RESULT:    15.821      1.618      2.371
REMARK INTER + INTRA:          26.540
REMARK INTER:                  27.306
REMARK INTRA:                  -0.765
REMARK UNBOUND:                -0.380
REMARK SMILES CCCCCCCCCCCCCC(=O)[O-]
REMARK SMILES IDX 8 1 9 2 10 3 11 4 12 5 13 6 14 7 15 8 16 9 7 10 6 11 5 12
REMARK SMILES IDX 4 13 3 14 2 15 1 16
REMARK H PARENT
REMARK Flexibility Score: inf
ROOT
ATOM      1  C   UNL     1      56.013  47.346  20.523  1.00  0.00     0.000 C 
ENDROOT
BRANCH   1   2
ATOM      2  C   UNL     1      56.922  48.006  21.571  1.00  0.00     0.000 C 
BRANCH   2   3
ATOM      3  C   UNL     1      57.674  46.980  22.435  1.00  0.00     0.000 C 
BRANCH   3   4
ATOM      4  C   UNL     1      56.738  45.915  23.033  1.00  0.00     0.000 C 
BRANCH   4   5
ATOM      5  C   UNL     1      57.212  44.476  22.756  1.00  0.00     0.006 C 
BRANCH   5   6
ATOM      6  C   UNL     1      57.318  44.128  21.261  1.00  0.00     0.053 C 
BRANCH   6   7
ATOM      7  C   UNL     1      56.073  43.485  20.730  1.00  0.00     0.041 C 
ATOM      8  O   UNL     1      55.776  42.308  21.065  1.00  0.00    -0.550 OA
ATOM      9  O   UNL     1      55.258  44.170  19.838  1.00  0.00    -0.550 OA
ENDBRANCH   6   7
ENDBRANCH   5   6
ENDBRANCH   4   5
ENDBRANCH   3   4
ENDBRANCH   2   3
ENDBRANCH   1   2
BRANCH   1  10
ATOM     10  C   UNL     1      56.037  48.134  19.203  1.00  0.00     0.000 C 
BRANCH  10  11
ATOM     11  C   UNL     1      57.195  47.715  18.282  1.00  0.00    -0.000 C 
BRANCH  11  12
ATOM     12  C   UNL     1      57.224  48.515  16.969  1.00  0.00    -0.000 C 
BRANCH  12  13
ATOM     13  C   UNL     1      55.843  49.075  16.589  1.00  0.00    -0.000 C 
BRANCH  13  14
ATOM     14  C   UNL     1      55.928  50.425  15.862  1.00  0.00    -0.000 C 
BRANCH  14  15
ATOM     15  C   UNL     1      54.716  50.632  14.947  1.00  0.00    -0.003 C 
ATOM     16  C   UNL     1      53.492  49.889  15.475  1.00  0.00     0.004 C 
ENDBRANCH  14  15
ENDBRANCH  13  14
ENDBRANCH  12  13
ENDBRANCH  11  12
ENDBRANCH  10  11
ENDBRANCH   1  10
TORSDOF 12
ENDMDL
MODEL 6
REMARK VINA RESULT:    16.015      2.706      3.099
REMARK INTER + INTRA:          26.871
REMARK INTER:                  27.830
REMARK INTRA:                  -0.959
REMARK UNBOUND:                -0.380
REMARK SMILES CCCCCCCCCCCCCC(=O)[O-]
REMARK SMILES IDX 8 1 9 2 10 3 11 4 12 5 13 6 14 7 15 8 16 9 7 10 6 11 5 12
REMARK SMILES IDX 4 13 3 14 2 15 1 16
REMARK H PARENT
REMARK Flexibility Score: inf
ROOT
ATOM      1  C   UNL     1      56.360  47.667  20.762  1.00  0.00     0.000 C 
ENDROOT
BRANCH   1   2
ATOM      2  C   UNL     1      56.463  46.155  21.016  1.00  0.00     0.000 C 
BRANCH   2   3
ATOM      3  C   UNL     1      55.439  45.346  20.203  1.00  0.00     0.000 C 
BRANCH   3   4
ATOM      4  C   UNL     1      56.016  44.017  19.685  1.00  0.00     0.000 C 
BRANCH   4   5
ATOM      5  C   UNL     1      57.220  44.210  18.746  1.00  0.00     0.006 C 
BRANCH   5   6
ATOM      6  C   UNL     1      56.892  44.009  17.256  1.00  0.00     0.053 C 
BRANCH   6   7
ATOM      7  C   UNL     1      58.008  43.346  16.505  1.00  0.00     0.041 C 
ATOM      8  O   UNL     1      57.824  42.939  15.328  1.00  0.00    -0.550 OA
ATOM      9  O   UNL     1      59.239  43.147  17.116  1.00  0.00    -0.550 OA
ENDBRANCH   6   7
ENDBRANCH   5   6
ENDBRANCH   4   5
ENDBRANCH   3   4
ENDBRANCH   2   3
ENDBRANCH   1   2
BRANCH   1  10
ATOM     10  C   UNL     1      56.028  47.954  19.289  1.00  0.00     0.000 C 
BRANCH  10  11
ATOM     11  C   UNL     1      57.245  47.794  18.363  1.00  0.00    -0.000 C 
BRANCH  11  12
ATOM     12  C   UNL     1      57.085  48.561  17.039  1.00  0.00    -0.000 C 
BRANCH  12  13
ATOM     13  C   UNL     1      55.685  49.176  16.880  1.00  0.00    -0.000 C 
BRANCH  13  14
ATOM     14  C   UNL     1      55.678  50.411  15.966  1.00  0.00    -0.000 C 
BRANCH  14  15
ATOM     15  C   UNL     1      54.594  50.290  14.889  1.00  0.00    -0.003 C 
ATOM     16  C   UNL     1      53.218  50.069  15.512  1.00  0.00     0.004 C 
ENDBRANCH  14  15
ENDBRANCH  13  14
ENDBRANCH  12  13
ENDBRANCH  11  12
ENDBRANCH  10  11
ENDBRANCH   1  10
TORSDOF 12
ENDMDL
MODEL 7
REMARK VINA RESULT:    16.214     11.471     12.771
REMARK INTER + INTRA:          27.209
REMARK INTER:                  27.217
REMARK INTRA:                  -0.008
REMARK UNBOUND:                -0.380
REMARK SMILES CCCCCCCCCCCCCC(=O)[O-]
REMARK SMILES IDX 8 1 9 2 10 3 11 4 12 5 13 6 14 7 15 8 16 9 7 10 6 11 5 12
REMARK SMILES IDX 4 13 3 14 2 15 1 16
REMARK H PARENT
REMARK Flexibility Score: inf
ROOT
ATOM      1  C   UNL     1      53.298  56.820  24.735  1.00  0.00     0.000 C 
ENDROOT
BRANCH   1   2
ATOM      2  C   UNL     1      52.136  56.358  25.628  1.00  0.00     0.000 C 
BRANCH   2   3
ATOM      3  C   UNL     1      52.614  55.661  26.912  1.00  0.00     0.000 C 
BRANCH   3   4
ATOM      4  C   UNL     1      53.421  54.384  26.624  1.00  0.00     0.000 C 
BRANCH   4   5
ATOM      5  C   UNL     1      53.185  53.276  27.668  1.00  0.00     0.006 C 
BRANCH   5   6
ATOM      6  C   UNL     1      52.277  53.700  28.837  1.00  0.00     0.053 C 
BRANCH   6   7
ATOM      7  C   UNL     1      51.064  52.831  28.967  1.00  0.00     0.041 C 
ATOM      8  O   UNL     1      50.746  52.044  28.037  1.00  0.00    -0.550 OA
ATOM      9  O   UNL     1      50.263  52.914  30.100  1.00  0.00    -0.550 OA
ENDBRANCH   6   7
ENDBRANCH   5   6
ENDBRANCH   4   5
ENDBRANCH   3   4
ENDBRANCH   2   3
ENDBRANCH   1   2
BRANCH   1  10
ATOM     10  C   UNL     1      53.973  55.621  24.051  1.00  0.00     0.000 C 
BRANCH  10  11
ATOM     11  C   UNL     1      55.339  55.976  23.440  1.00  0.00    -0.000 C 
BRANCH  11  12
ATOM     12  C   UNL     1      56.054  57.103  24.206  1.00  0.00    -0.000 C 
BRANCH  12  13
ATOM     13  C   UNL     1      56.266  56.763  25.691  1.00  0.00    -0.000 C 
BRANCH  13  14
ATOM     14  C   UNL     1      57.674  57.125  26.189  1.00  0.00    -0.000 C 
BRANCH  14  15
ATOM     15  C   UNL     1      58.519  55.865  26.406  1.00  0.00    -0.003 C 
ATOM     16  C   UNL     1      57.868  54.645  25.760  1.00  0.00     0.004 C 
ENDBRANCH  14  15
ENDBRANCH  13  14
ENDBRANCH  12  13
ENDBRANCH  11  12
ENDBRANCH  10  11
ENDBRANCH   1  10
TORSDOF 12
ENDMDL
MODEL 8
REMARK VINA RESULT:    16.520      6.867      8.461
REMARK INTER + INTRA:          27.730
REMARK INTER:                  28.041
REMARK INTRA:                  -0.312
REMARK UNBOUND:                -0.380
REMARK SMILES CCCCCCCCCCCCCC(=O)[O-]
REMARK SMILES IDX 8 1 9 2 10 3 11 4 12 5 13 6 14 7 15 8 16 9 7 10 6 11 5 12
REMARK SMILES IDX 4 13 3 14 2 15 1 16
REMARK H PARENT
REMARK Flexibility Score: inf
ROOT
ATOM      1  C   UNL     1      53.953  52.542  21.623  1.00  0.00     0.000 C 
ENDROOT
BRANCH   1   2
ATOM      2  C   UNL     1      55.123  51.911  20.852  1.00  0.00     0.000 C 
BRANCH   2   3
ATOM      3  C   UNL     1      54.861  50.444  20.473  1.00  0.00     0.000 C 
BRANCH   3   4
ATOM      4  C   UNL     1      56.002  49.510  20.912  1.00  0.00     0.000 C 
BRANCH   4   5
ATOM      5  C   UNL     1      56.013  48.175  20.144  1.00  0.00     0.006 C 
BRANCH   5   6
ATOM      6  C   UNL     1      56.182  46.937  21.043  1.00  0.00     0.053 C 
BRANCH   6   7
ATOM      7  C   UNL     1      57.052  47.204  22.234  1.00  0.00     0.041 C 
ATOM      8  O   UNL     1      56.562  47.179  23.394  1.00  0.00    -0.550 OA
ATOM      9  O   UNL     1      58.395  47.516  22.063  1.00  0.00    -0.550 OA
ENDBRANCH   6   7
ENDBRANCH   5   6
ENDBRANCH   4   5
ENDBRANCH   3   4
ENDBRANCH   2   3
ENDBRANCH   1   2
BRANCH   1  10
ATOM     10  C   UNL     1      54.338  53.929  22.164  1.00  0.00     0.000 C 
BRANCH  10  11
ATOM     11  C   UNL     1      53.216  54.576  22.993  1.00  0.00    -0.000 C 
BRANCH  11  12
ATOM     12  C   UNL     1      53.751  55.329  24.223  1.00  0.00    -0.000 C 
BRANCH  12  13
ATOM     13  C   UNL     1      54.697  56.481  23.845  1.00  0.00    -0.000 C 
BRANCH  13  14
ATOM     14  C   UNL     1      56.160  56.195  24.218  1.00  0.00    -0.000 C 
BRANCH  14  15
ATOM     15  C   UNL     1      56.398  56.421  25.715  1.00  0.00    -0.003 C 
ATOM     16  C   UNL     1      57.730  57.125  25.963  1.00  0.00     0.004 C 
ENDBRANCH  14  15
ENDBRANCH  13  14
ENDBRANCH  12  13
ENDBRANCH  11  12
ENDBRANCH  10  11
ENDBRANCH   1  10
TORSDOF 12
ENDMDL
