MODEL 1
REMARK VINA RESULT:    -6.215      0.000      0.000
REMARK INTER + INTRA:          -7.491
REMARK INTER:                  -7.305
REMARK INTRA:                  -0.186
REMARK UNBOUND:                -0.186
REMARK SMILES O=c1c(O)c(-c2ccc(O)cc2)oc2cc(O)cc(O)c12
REMARK SMILES IDX 5 1 3 2 2 3 1 4 21 5 19 6 18 7 16 8 15 9 14 10 13 11 6 12
REMARK SMILES IDX 7 13 8 14 9 15 12 16 11 17 10 18 4 20 20 22 17 24
REMARK H PARENT 10 19 4 21 20 23 17 25
REMARK Flexibility Score: inf
ROOT
ATOM      1  C   UNL     1       9.922  30.414  -1.636  1.00  0.00     0.180 A 
ATOM      2  C   UNL     1       9.247  31.346  -2.444  1.00  0.00     0.208 A 
ATOM      3  C   UNL     1       9.747  31.623  -3.726  1.00  0.00     0.238 A 
ATOM      4  O   UNL     1       9.107  32.418  -4.464  1.00  0.00    -0.285 OA
ATOM      5  C   UNL     1      10.922  30.978  -4.180  1.00  0.00     0.111 A 
ATOM      6  C   UNL     1      11.539  31.212  -5.445  1.00  0.00     0.134 A 
ATOM      7  C   UNL     1      12.624  30.422  -5.842  1.00  0.00     0.093 A 
ATOM      8  C   UNL     1      13.155  29.450  -4.991  1.00  0.00     0.123 A 
ATOM      9  C   UNL     1      12.598  29.254  -3.730  1.00  0.00     0.094 A 
ATOM     10  C   UNL     1      11.491  30.003  -3.320  1.00  0.00     0.146 A 
ATOM     11  O   UNL     1      10.983  29.777  -2.115  1.00  0.00    -0.452 OA
ENDROOT
BRANCH   1  12
ATOM     12  C   UNL     1       9.472  30.088  -0.263  1.00  0.00     0.021 A 
ATOM     13  C   UNL     1       9.534  31.037   0.773  1.00  0.00     0.016 A 
ATOM     14  C   UNL     1       9.126  30.699   2.068  1.00  0.00     0.047 A 
ATOM     15  C   UNL     1       8.664  29.406   2.344  1.00  0.00     0.115 A 
ATOM     16  C   UNL     1       9.026  28.788   0.028  1.00  0.00     0.016 A 
ATOM     17  C   UNL     1       8.617  28.452   1.323  1.00  0.00     0.047 A 
BRANCH  15  18
ATOM     18  O   UNL     1       8.252  29.057   3.629  1.00  0.00    -0.508 OA
ATOM     19  H   UNL     1       7.548  29.594   4.122  1.00  0.00     0.293 HD
ENDBRANCH  15  18
ENDBRANCH   1  12
BRANCH   2  20
ATOM     20  O   UNL     1       8.076  31.956  -1.984  1.00  0.00    -0.502 OA
ATOM     21  H   UNL     1       7.449  31.504  -1.329  1.00  0.00     0.293 HD
ENDBRANCH   2  20
BRANCH   6  22
ATOM     22  O   UNL     1      11.144  32.220  -6.330  1.00  0.00    -0.507 OA
ATOM     23  H   UNL     1      10.563  33.007  -6.083  1.00  0.00     0.293 HD
ENDBRANCH   6  22
BRANCH   8  24
ATOM     24  O   UNL     1      14.246  28.678  -5.387  1.00  0.00    -0.508 OA
ATOM     25  H   UNL     1      14.244  28.167  -6.262  1.00  0.00     0.293 HD
ENDBRANCH   8  24
TORSDOF 5
ENDMDL
MODEL 2
REMARK VINA RESULT:    -6.167      1.526      3.415
REMARK INTER + INTRA:          -7.435
REMARK INTER:                  -7.523
REMARK INTRA:                   0.087
REMARK UNBOUND:                -0.186
REMARK SMILES O=c1c(O)c(-c2ccc(O)cc2)oc2cc(O)cc(O)c12
REMARK SMILES IDX 5 1 3 2 2 3 1 4 21 5 19 6 18 7 16 8 15 9 14 10 13 11 6 12
REMARK SMILES IDX 7 13 8 14 9 15 12 16 11 17 10 18 4 20 20 22 17 24
REMARK H PARENT 10 19 4 21 20 23 17 25
REMARK Flexibility Score: inf
ROOT
ATOM      1  C   UNL     1      10.649  29.446  -2.271  1.00  0.00     0.180 A 
ATOM      2  C   UNL     1      11.893  29.039  -2.784  1.00  0.00     0.208 A 
ATOM      3  C   UNL     1      12.383  29.651  -3.948  1.00  0.00     0.238 A 
ATOM      4  O   UNL     1      13.522  29.321  -4.370  1.00  0.00    -0.285 OA
ATOM      5  C   UNL     1      11.617  30.651  -4.594  1.00  0.00     0.111 A 
ATOM      6  C   UNL     1      11.997  31.310  -5.801  1.00  0.00     0.134 A 
ATOM      7  C   UNL     1      11.225  32.375  -6.281  1.00  0.00     0.093 A 
ATOM      8  C   UNL     1      10.050  32.761  -5.631  1.00  0.00     0.123 A 
ATOM      9  C   UNL     1       9.639  32.086  -4.485  1.00  0.00     0.094 A 
ATOM     10  C   UNL     1      10.408  31.042  -3.963  1.00  0.00     0.146 A 
ATOM     11  O   UNL     1       9.985  30.432  -2.862  1.00  0.00    -0.452 OA
ENDROOT
BRANCH   1  12
ATOM     12  C   UNL     1      10.054  28.830  -1.062  1.00  0.00     0.021 A 
ATOM     13  C   UNL     1      10.063  27.437  -0.870  1.00  0.00     0.016 A 
ATOM     14  C   UNL     1       9.473  26.876   0.267  1.00  0.00     0.047 A 
ATOM     15  C   UNL     1       8.859  27.699   1.219  1.00  0.00     0.115 A 
ATOM     16  C   UNL     1       9.418  29.646  -0.113  1.00  0.00     0.016 A 
ATOM     17  C   UNL     1       8.831  29.083   1.025  1.00  0.00     0.047 A 
BRANCH  15  18
ATOM     18  O   UNL     1       8.270  27.152   2.358  1.00  0.00    -0.508 OA
ATOM     19  H   UNL     1       8.401  27.570   3.272  1.00  0.00     0.293 HD
ENDBRANCH  15  18
ENDBRANCH   1  12
BRANCH   2  20
ATOM     20  O   UNL     1      12.643  28.066  -2.117  1.00  0.00    -0.502 OA
ATOM     21  H   UNL     1      12.764  27.128  -2.481  1.00  0.00     0.293 HD
ENDBRANCH   2  20
BRANCH   6  22
ATOM     22  O   UNL     1      13.101  30.941  -6.577  1.00  0.00    -0.507 OA
ATOM     23  H   UNL     1      13.653  30.110  -6.432  1.00  0.00     0.293 HD
ENDBRANCH   6  22
BRANCH   8  24
ATOM     24  O   UNL     1       9.278  33.812  -6.124  1.00  0.00    -0.508 OA
ATOM     25  H   UNL     1       9.537  34.779  -5.967  1.00  0.00     0.293 HD
ENDBRANCH   8  24
TORSDOF 5
ENDMDL
MODEL 3
REMARK VINA RESULT:    -6.082      1.761      2.658
REMARK INTER + INTRA:          -7.334
REMARK INTER:                  -7.069
REMARK INTRA:                  -0.266
REMARK UNBOUND:                -0.186
REMARK SMILES O=c1c(O)c(-c2ccc(O)cc2)oc2cc(O)cc(O)c12
REMARK SMILES IDX 5 1 3 2 2 3 1 4 21 5 19 6 18 7 16 8 15 9 14 10 13 11 6 12
REMARK SMILES IDX 7 13 8 14 9 15 12 16 11 17 10 18 4 20 20 22 17 24
REMARK H PARENT 10 19 4 21 20 23 17 25
REMARK Flexibility Score: inf
ROOT
ATOM      1  C   UNL     1      10.306  30.049  -2.160  1.00  0.00     0.180 A 
ATOM      2  C   UNL     1      11.639  30.480  -2.276  1.00  0.00     0.208 A 
ATOM      3  C   UNL     1      12.193  30.644  -3.555  1.00  0.00     0.238 A 
ATOM      4  O   UNL     1      13.370  31.082  -3.652  1.00  0.00    -0.285 OA
ATOM      5  C   UNL     1      11.413  30.362  -4.702  1.00  0.00     0.111 A 
ATOM      6  C   UNL     1      11.884  30.455  -6.046  1.00  0.00     0.134 A 
ATOM      7  C   UNL     1      10.988  30.279  -7.107  1.00  0.00     0.093 A 
ATOM      8  C   UNL     1       9.651  29.948  -6.872  1.00  0.00     0.123 A 
ATOM      9  C   UNL     1       9.195  29.796  -5.565  1.00  0.00     0.094 A 
ATOM     10  C   UNL     1      10.058  30.001  -4.484  1.00  0.00     0.146 A 
ATOM     11  O   UNL     1       9.581  29.857  -3.254  1.00  0.00    -0.452 OA
ENDROOT
BRANCH   1  12
ATOM     12  C   UNL     1       9.660  29.829  -0.845  1.00  0.00     0.021 A 
ATOM     13  C   UNL     1       9.131  30.899  -0.101  1.00  0.00     0.016 A 
ATOM     14  C   UNL     1       8.548  30.671   1.150  1.00  0.00     0.047 A 
ATOM     15  C   UNL     1       8.496  29.374   1.675  1.00  0.00     0.115 A 
ATOM     16  C   UNL     1       9.622  28.535  -0.301  1.00  0.00     0.016 A 
ATOM     17  C   UNL     1       9.036  28.308   0.948  1.00  0.00     0.047 A 
BRANCH  15  18
ATOM     18  O   UNL     1       7.915  29.132   2.918  1.00  0.00    -0.508 OA
ATOM     19  H   UNL     1       7.027  28.651   3.002  1.00  0.00     0.293 HD
ENDBRANCH  15  18
ENDBRANCH   1  12
BRANCH   2  20
ATOM     20  O   UNL     1      12.384  30.774  -1.130  1.00  0.00    -0.502 OA
ATOM     21  H   UNL     1      13.392  30.880  -1.149  1.00  0.00     0.293 HD
ENDBRANCH   2  20
BRANCH   6  22
ATOM     22  O   UNL     1      13.219  30.690  -6.390  1.00  0.00    -0.507 OA
ATOM     23  H   UNL     1      13.693  30.268  -7.174  1.00  0.00     0.293 HD
ENDBRANCH   6  22
BRANCH   8  24
ATOM     24  O   UNL     1       8.769  29.758  -7.933  1.00  0.00    -0.508 OA
ATOM     25  H   UNL     1       8.191  28.928  -8.000  1.00  0.00     0.293 HD
ENDBRANCH   8  24
TORSDOF 5
ENDMDL
MODEL 4
REMARK VINA RESULT:    -5.826      1.863      2.726
REMARK INTER + INTRA:          -7.034
REMARK INTER:                  -6.780
REMARK INTRA:                  -0.254
REMARK UNBOUND:                -0.186
REMARK SMILES O=c1c(O)c(-c2ccc(O)cc2)oc2cc(O)cc(O)c12
REMARK SMILES IDX 5 1 3 2 2 3 1 4 21 5 19 6 18 7 16 8 15 9 14 10 13 11 6 12
REMARK SMILES IDX 7 13 8 14 9 15 12 16 11 17 10 18 4 20 20 22 17 24
REMARK H PARENT 10 19 4 21 20 23 17 25
REMARK Flexibility Score: inf
ROOT
ATOM      1  C   UNL     1      10.697  29.572  -3.741  1.00  0.00     0.180 A 
ATOM      2  C   UNL     1       9.824  29.711  -4.833  1.00  0.00     0.208 A 
ATOM      3  C   UNL     1      10.361  29.852  -6.122  1.00  0.00     0.238 A 
ATOM      4  O   UNL     1       9.573  29.922  -7.101  1.00  0.00    -0.285 OA
ATOM      5  C   UNL     1      11.765  29.867  -6.302  1.00  0.00     0.111 A 
ATOM      6  C   UNL     1      12.419  30.044  -7.558  1.00  0.00     0.134 A 
ATOM      7  C   UNL     1      13.811  29.911  -7.637  1.00  0.00     0.093 A 
ATOM      8  C   UNL     1      14.577  29.672  -6.494  1.00  0.00     0.123 A 
ATOM      9  C   UNL     1      13.954  29.557  -5.254  1.00  0.00     0.094 A 
ATOM     10  C   UNL     1      12.563  29.649  -5.149  1.00  0.00     0.146 A 
ATOM     11  O   UNL     1      12.007  29.523  -3.950  1.00  0.00    -0.452 OA
ENDROOT
BRANCH   1  12
ATOM     12  C   UNL     1      10.207  29.444  -2.349  1.00  0.00     0.021 A 
ATOM     13  C   UNL     1      10.125  28.191  -1.714  1.00  0.00     0.016 A 
ATOM     14  C   UNL     1       9.635  28.091  -0.408  1.00  0.00     0.047 A 
ATOM     15  C   UNL     1       9.211  29.239   0.274  1.00  0.00     0.115 A 
ATOM     16  C   UNL     1       9.760  30.586  -1.666  1.00  0.00     0.016 A 
ATOM     17  C   UNL     1       9.273  30.484  -0.358  1.00  0.00     0.047 A 
BRANCH  15  18
ATOM     18  O   UNL     1       8.724  29.153   1.576  1.00  0.00    -0.508 OA
ATOM     19  H   UNL     1       7.729  29.108   1.766  1.00  0.00     0.293 HD
ENDBRANCH  15  18
ENDBRANCH   1  12
BRANCH   2  20
ATOM     20  O   UNL     1       8.440  29.672  -4.635  1.00  0.00    -0.502 OA
ATOM     21  H   UNL     1       8.017  29.199  -3.845  1.00  0.00     0.293 HD
ENDBRANCH   2  20
BRANCH   6  22
ATOM     22  O   UNL     1      11.756  30.376  -8.743  1.00  0.00    -0.507 OA
ATOM     23  H   UNL     1      11.594  31.318  -9.067  1.00  0.00     0.293 HD
ENDBRANCH   6  22
BRANCH   8  24
ATOM     24  O   UNL     1      15.964  29.557  -6.579  1.00  0.00    -0.508 OA
ATOM     25  H   UNL     1      16.495  30.056  -7.282  1.00  0.00     0.293 HD
ENDBRANCH   8  24
TORSDOF 5
ENDMDL
MODEL 5
REMARK VINA RESULT:    -5.779      3.588      6.923
REMARK INTER + INTRA:          -6.979
REMARK INTER:                  -6.748
REMARK INTRA:                  -0.231
REMARK UNBOUND:                -0.186
REMARK SMILES O=c1c(O)c(-c2ccc(O)cc2)oc2cc(O)cc(O)c12
REMARK SMILES IDX 5 1 3 2 2 3 1 4 21 5 19 6 18 7 16 8 15 9 14 10 13 11 6 12
REMARK SMILES IDX 7 13 8 14 9 15 12 16 11 17 10 18 4 20 20 22 17 24
REMARK H PARENT 10 19 4 21 20 23 17 25
REMARK Flexibility Score: inf
ROOT
ATOM      1  C   UNL     1       9.211  30.450   4.401  1.00  0.00     0.180 A 
ATOM      2  C   UNL     1       8.954  29.068   4.419  1.00  0.00     0.208 A 
ATOM      3  C   UNL     1       8.859  28.377   3.201  1.00  0.00     0.238 A 
ATOM      4  O   UNL     1       8.682  27.130   3.226  1.00  0.00    -0.285 OA
ATOM      5  C   UNL     1       9.006  29.077   1.980  1.00  0.00     0.111 A 
ATOM      6  C   UNL     1       8.890  28.486   0.687  1.00  0.00     0.134 A 
ATOM      7  C   UNL     1       9.184  29.247  -0.451  1.00  0.00     0.093 A 
ATOM      8  C   UNL     1       9.528  30.596  -0.344  1.00  0.00     0.123 A 
ATOM      9  C   UNL     1       9.587  31.199   0.910  1.00  0.00     0.094 A 
ATOM     10  C   UNL     1       9.333  30.456   2.066  1.00  0.00     0.146 A 
ATOM     11  O   UNL     1       9.410  31.065   3.242  1.00  0.00    -0.452 OA
ENDROOT
BRANCH   1  12
ATOM     12  C   UNL     1       9.300  31.252   5.643  1.00  0.00     0.021 A 
ATOM     13  C   UNL     1      10.433  31.189   6.476  1.00  0.00     0.016 A 
ATOM     14  C   UNL     1      10.485  31.937   7.656  1.00  0.00     0.047 A 
ATOM     15  C   UNL     1       9.403  32.746   8.025  1.00  0.00     0.115 A 
ATOM     16  C   UNL     1       8.212  32.049   6.032  1.00  0.00     0.016 A 
ATOM     17  C   UNL     1       8.267  32.798   7.212  1.00  0.00     0.047 A 
BRANCH  15  18
ATOM     18  O   UNL     1       9.444  33.497   9.198  1.00  0.00    -0.508 OA
ATOM     19  H   UNL     1       8.600  33.881   9.609  1.00  0.00     0.293 HD
ENDBRANCH  15  18
ENDBRANCH   1  12
BRANCH   2  20
ATOM     20  O   UNL     1       8.833  28.392   5.637  1.00  0.00    -0.502 OA
ATOM     21  H   UNL     1       8.521  27.430   5.697  1.00  0.00     0.293 HD
ENDBRANCH   2  20
BRANCH   6  22
ATOM     22  O   UNL     1       8.464  27.172   0.466  1.00  0.00    -0.507 OA
ATOM     23  H   UNL     1       8.316  26.761  -0.444  1.00  0.00     0.293 HD
ENDBRANCH   6  22
BRANCH   8  24
ATOM     24  O   UNL     1       9.804  31.352  -1.482  1.00  0.00    -0.508 OA
ATOM     25  H   UNL     1       9.175  32.080  -1.801  1.00  0.00     0.293 HD
ENDBRANCH   8  24
TORSDOF 5
ENDMDL
MODEL 6
REMARK VINA RESULT:    -5.756      1.714      7.228
REMARK INTER + INTRA:          -6.952
REMARK INTER:                  -6.673
REMARK INTRA:                  -0.279
REMARK UNBOUND:                -0.186
REMARK SMILES O=c1c(O)c(-c2ccc(O)cc2)oc2cc(O)cc(O)c12
REMARK SMILES IDX 5 1 3 2 2 3 1 4 21 5 19 6 18 7 16 8 15 9 14 10 13 11 6 12
REMARK SMILES IDX 7 13 8 14 9 15 12 16 11 17 10 18 4 20 20 22 17 24
REMARK H PARENT 10 19 4 21 20 23 17 25
REMARK Flexibility Score: inf
ROOT
ATOM      1  C   UNL     1      10.068  29.820  -1.024  1.00  0.00     0.180 A 
ATOM      2  C   UNL     1       9.758  28.466  -0.808  1.00  0.00     0.208 A 
ATOM      3  C   UNL     1       9.216  28.080   0.428  1.00  0.00     0.238 A 
ATOM      4  O   UNL     1       8.890  26.875   0.594  1.00  0.00    -0.285 OA
ATOM      5  C   UNL     1       9.006  29.048   1.439  1.00  0.00     0.111 A 
ATOM      6  C   UNL     1       8.500  28.763   2.742  1.00  0.00     0.134 A 
ATOM      7  C   UNL     1       8.209  29.817   3.617  1.00  0.00     0.093 A 
ATOM      8  C   UNL     1       8.467  31.142   3.258  1.00  0.00     0.123 A 
ATOM      9  C   UNL     1       9.017  31.426   2.010  1.00  0.00     0.094 A 
ATOM     10  C   UNL     1       9.284  30.398   1.102  1.00  0.00     0.146 A 
ATOM     11  O   UNL     1       9.797  30.714  -0.081  1.00  0.00    -0.452 OA
ENDROOT
BRANCH   1  12
ATOM     12  C   UNL     1      10.665  30.300  -2.292  1.00  0.00     0.021 A 
ATOM     13  C   UNL     1       9.865  30.808  -3.331  1.00  0.00     0.016 A 
ATOM     14  C   UNL     1      10.448  31.233  -4.529  1.00  0.00     0.047 A 
ATOM     15  C   UNL     1      11.835  31.145  -4.707  1.00  0.00     0.115 A 
ATOM     16  C   UNL     1      12.052  30.196  -2.486  1.00  0.00     0.016 A 
ATOM     17  C   UNL     1      12.633  30.623  -3.685  1.00  0.00     0.047 A 
BRANCH  15  18
ATOM     18  O   UNL     1      12.428  31.567  -5.895  1.00  0.00    -0.508 OA
ATOM     19  H   UNL     1      12.320  31.042  -6.755  1.00  0.00     0.293 HD
ENDBRANCH  15  18
ENDBRANCH   1  12
BRANCH   2  20
ATOM     20  O   UNL     1       9.953  27.530  -1.828  1.00  0.00    -0.502 OA
ATOM     21  H   UNL     1       9.390  27.516  -2.670  1.00  0.00     0.293 HD
ENDBRANCH   2  20
BRANCH   6  22
ATOM     22  O   UNL     1       8.293  27.470   3.233  1.00  0.00    -0.507 OA
ATOM     23  H   UNL     1       8.981  26.929   3.734  1.00  0.00     0.293 HD
ENDBRANCH   6  22
BRANCH   8  24
ATOM     24  O   UNL     1       8.190  32.184   4.140  1.00  0.00    -0.508 OA
ATOM     25  H   UNL     1       7.564  32.940   3.888  1.00  0.00     0.293 HD
ENDBRANCH   8  24
TORSDOF 5
ENDMDL
MODEL 7
REMARK VINA RESULT:    -5.737      1.887      6.966
REMARK INTER + INTRA:          -6.930
REMARK INTER:                  -6.916
REMARK INTRA:                  -0.014
REMARK UNBOUND:                -0.186
REMARK SMILES O=c1c(O)c(-c2ccc(O)cc2)oc2cc(O)cc(O)c12
REMARK SMILES IDX 5 1 3 2 2 3 1 4 21 5 19 6 18 7 16 8 15 9 14 10 13 11 6 12
REMARK SMILES IDX 7 13 8 14 9 15 12 16 11 17 10 18 4 20 20 22 17 24
REMARK H PARENT 10 19 4 21 20 23 17 25
REMARK Flexibility Score: inf
ROOT
ATOM      1  C   UNL     1      11.611  30.274  -5.232  1.00  0.00     0.180 A 
ATOM      2  C   UNL     1      10.879  31.475  -5.234  1.00  0.00     0.208 A 
ATOM      3  C   UNL     1      10.053  31.770  -4.139  1.00  0.00     0.238 A 
ATOM      4  O   UNL     1       9.443  32.872  -4.123  1.00  0.00    -0.285 OA
ATOM      5  C   UNL     1       9.955  30.856  -3.062  1.00  0.00     0.111 A 
ATOM      6  C   UNL     1       9.119  31.035  -1.920  1.00  0.00     0.134 A 
ATOM      7  C   UNL     1       9.200  30.131  -0.855  1.00  0.00     0.093 A 
ATOM      8  C   UNL     1      10.041  29.017  -0.919  1.00  0.00     0.123 A 
ATOM      9  C   UNL     1      10.818  28.802  -2.054  1.00  0.00     0.094 A 
ATOM     10  C   UNL     1      10.785  29.707  -3.119  1.00  0.00     0.146 A 
ATOM     11  O   UNL     1      11.550  29.470  -4.178  1.00  0.00    -0.452 OA
ENDROOT
BRANCH   1  12
ATOM     12  C   UNL     1      12.485  29.881  -6.361  1.00  0.00     0.021 A 
ATOM     13  C   UNL     1      12.008  29.865  -7.685  1.00  0.00     0.016 A 
ATOM     14  C   UNL     1      12.844  29.466  -8.732  1.00  0.00     0.047 A 
ATOM     15  C   UNL     1      14.160  29.066  -8.470  1.00  0.00     0.115 A 
ATOM     16  C   UNL     1      13.799  29.459  -6.104  1.00  0.00     0.016 A 
ATOM     17  C   UNL     1      14.634  29.062  -7.154  1.00  0.00     0.047 A 
BRANCH  15  18
ATOM     18  O   UNL     1      15.003  28.669  -9.505  1.00  0.00    -0.508 OA
ATOM     19  H   UNL     1      15.540  27.811  -9.449  1.00  0.00     0.293 HD
ENDBRANCH  15  18
ENDBRANCH   1  12
BRANCH   2  20
ATOM     20  O   UNL     1      11.007  32.373  -6.297  1.00  0.00    -0.502 OA
ATOM     21  H   UNL     1      10.647  32.175  -7.223  1.00  0.00     0.293 HD
ENDBRANCH   2  20
BRANCH   6  22
ATOM     22  O   UNL     1       8.177  32.062  -1.796  1.00  0.00    -0.507 OA
ATOM     23  H   UNL     1       7.466  32.276  -2.479  1.00  0.00     0.293 HD
ENDBRANCH   6  22
BRANCH   8  24
ATOM     24  O   UNL     1      10.105  28.112   0.139  1.00  0.00    -0.508 OA
ATOM     25  H   UNL     1       9.805  27.151   0.032  1.00  0.00     0.293 HD
ENDBRANCH   8  24
TORSDOF 5
ENDMDL
MODEL 8
REMARK VINA RESULT:    -5.671      2.626      7.511
REMARK INTER + INTRA:          -6.851
REMARK INTER:                  -6.808
REMARK INTRA:                  -0.043
REMARK UNBOUND:                -0.186
REMARK SMILES O=c1c(O)c(-c2ccc(O)cc2)oc2cc(O)cc(O)c12
REMARK SMILES IDX 5 1 3 2 2 3 1 4 21 5 19 6 18 7 16 8 15 9 14 10 13 11 6 12
REMARK SMILES IDX 7 13 8 14 9 15 12 16 11 17 10 18 4 20 20 22 17 24
REMARK H PARENT 10 19 4 21 20 23 17 25
REMARK Flexibility Score: inf
ROOT
ATOM      1  C   UNL     1      10.769  32.005  -5.691  1.00  0.00     0.180 A 
ATOM      2  C   UNL     1      11.866  31.127  -5.647  1.00  0.00     0.208 A 
ATOM      3  C   UNL     1      12.066  30.344  -4.500  1.00  0.00     0.238 A 
ATOM      4  O   UNL     1      13.018  29.520  -4.490  1.00  0.00    -0.285 OA
ATOM      5  C   UNL     1      11.177  30.458  -3.405  1.00  0.00     0.111 A 
ATOM      6  C   UNL     1      11.307  29.742  -2.177  1.00  0.00     0.134 A 
ATOM      7  C   UNL     1      10.297  29.835  -1.212  1.00  0.00     0.093 A 
ATOM      8  C   UNL     1       9.193  30.669  -1.404  1.00  0.00     0.123 A 
ATOM      9  C   UNL     1       9.087  31.418  -2.573  1.00  0.00     0.094 A 
ATOM     10  C   UNL     1      10.061  31.319  -3.570  1.00  0.00     0.146 A 
ATOM     11  O   UNL     1       9.916  32.041  -4.674  1.00  0.00    -0.452 OA
ENDROOT
BRANCH   1  12
ATOM     12  C   UNL     1      10.505  32.882  -6.855  1.00  0.00     0.021 A 
ATOM     13  C   UNL     1      10.333  32.352  -8.147  1.00  0.00     0.016 A 
ATOM     14  C   UNL     1      10.110  33.202  -9.235  1.00  0.00     0.047 A 
ATOM     15  C   UNL     1      10.069  34.589  -9.049  1.00  0.00     0.115 A 
ATOM     16  C   UNL     1      10.483  34.276  -6.680  1.00  0.00     0.016 A 
ATOM     17  C   UNL     1      10.258  35.123  -7.770  1.00  0.00     0.047 A 
BRANCH  15  18
ATOM     18  O   UNL     1       9.845  35.445 -10.125  1.00  0.00    -0.508 OA
ATOM     19  H   UNL     1       9.948  35.129 -11.082  1.00  0.00     0.293 HD
ENDBRANCH  15  18
ENDBRANCH   1  12
BRANCH   2  20
ATOM     20  O   UNL     1      12.718  31.014  -6.749  1.00  0.00    -0.502 OA
ATOM     21  H   UNL     1      12.857  31.770  -7.410  1.00  0.00     0.293 HD
ENDBRANCH   2  20
BRANCH   6  22
ATOM     22  O   UNL     1      12.414  28.953  -1.848  1.00  0.00    -0.507 OA
ATOM     23  H   UNL     1      13.152  29.233  -1.219  1.00  0.00     0.293 HD
ENDBRANCH   6  22
BRANCH   8  24
ATOM     24  O   UNL     1       8.200  30.769  -0.432  1.00  0.00    -0.508 OA
ATOM     25  H   UNL     1       7.273  30.387  -0.580  1.00  0.00     0.293 HD
ENDBRANCH   8  24
TORSDOF 5
ENDMDL
MODEL 9
REMARK VINA RESULT:    -5.641      2.934      5.120
REMARK INTER + INTRA:          -6.817
REMARK INTER:                  -6.531
REMARK INTRA:                  -0.286
REMARK UNBOUND:                -0.186
REMARK SMILES O=c1c(O)c(-c2ccc(O)cc2)oc2cc(O)cc(O)c12
REMARK SMILES IDX 5 1 3 2 2 3 1 4 21 5 19 6 18 7 16 8 15 9 14 10 13 11 6 12
REMARK SMILES IDX 7 13 8 14 9 15 12 16 11 17 10 18 4 20 20 22 17 24
REMARK H PARENT 10 19 4 21 20 23 17 25
REMARK Flexibility Score: inf
ROOT
ATOM      1  C   UNL     1      10.594  31.295  -5.237  1.00  0.00     0.180 A 
ATOM      2  C   UNL     1      10.969  30.681  -6.444  1.00  0.00     0.208 A 
ATOM      3  C   UNL     1      10.943  31.434  -7.628  1.00  0.00     0.238 A 
ATOM      4  O   UNL     1      11.332  30.892  -8.697  1.00  0.00    -0.285 OA
ATOM      5  C   UNL     1      10.529  32.787  -7.595  1.00  0.00     0.111 A 
ATOM      6  C   UNL     1      10.427  33.632  -8.739  1.00  0.00     0.134 A 
ATOM      7  C   UNL     1      10.132  34.991  -8.572  1.00  0.00     0.093 A 
ATOM      8  C   UNL     1       9.872  35.519  -7.305  1.00  0.00     0.123 A 
ATOM      9  C   UNL     1       9.911  34.690  -6.188  1.00  0.00     0.094 A 
ATOM     10  C   UNL     1      10.238  33.337  -6.319  1.00  0.00     0.146 A 
ATOM     11  O   UNL     1      10.274  32.584  -5.227  1.00  0.00    -0.452 OA
ENDROOT
BRANCH   1  12
ATOM     12  C   UNL     1      10.571  30.560  -3.951  1.00  0.00     0.021 A 
ATOM     13  C   UNL     1      11.686  30.551  -3.093  1.00  0.00     0.016 A 
ATOM     14  C   UNL     1      11.651  29.830  -1.896  1.00  0.00     0.047 A 
ATOM     15  C   UNL     1      10.507  29.100  -1.547  1.00  0.00     0.115 A 
ATOM     16  C   UNL     1       9.437  29.810  -3.603  1.00  0.00     0.016 A 
ATOM     17  C   UNL     1       9.403  29.091  -2.404  1.00  0.00     0.047 A 
BRANCH  15  18
ATOM     18  O   UNL     1      10.459  28.380  -0.356  1.00  0.00    -0.508 OA
ATOM     19  H   UNL     1       9.637  27.848  -0.093  1.00  0.00     0.293 HD
ENDBRANCH  15  18
ENDBRANCH   1  12
BRANCH   2  20
ATOM     20  O   UNL     1      11.395  29.350  -6.451  1.00  0.00    -0.502 OA
ATOM     21  H   UNL     1      11.605  28.850  -7.308  1.00  0.00     0.293 HD
ENDBRANCH   2  20
BRANCH   6  22
ATOM     22  O   UNL     1      10.577  33.185 -10.056  1.00  0.00    -0.507 OA
ATOM     23  H   UNL     1      10.818  33.773 -10.839  1.00  0.00     0.293 HD
ENDBRANCH   6  22
BRANCH   8  24
ATOM     24  O   UNL     1       9.564  36.869  -7.148  1.00  0.00    -0.508 OA
ATOM     25  H   UNL     1       9.152  37.410  -7.900  1.00  0.00     0.293 HD
ENDBRANCH   8  24
TORSDOF 5
ENDMDL
