MODEL 1
REMARK VINA RESULT:    -5.143      0.000      0.000
REMARK INTER + INTRA:          -6.485
REMARK INTER:                  -6.196
REMARK INTRA:                  -0.289
REMARK UNBOUND:                -0.289
REMARK SMILES Oc1cc(O)c2cc(O)c(-c3ccc(O)c(O)c3)[o+]c2c1
REMARK SMILES IDX 10 1 19 2 20 3 21 4 2 5 3 6 4 7 6 8 7 9 8 10 11 11 12 12
REMARK SMILES IDX 13 13 14 14 18 15 16 16 15 17 17 19 9 21 1 23 5 25
REMARK H PARENT 15 18 17 20 9 22 1 24 5 26
REMARK Flexibility Score: inf
ROOT
ATOM      1  C   UNL     1      32.507  -5.498   0.294  1.00  0.00     0.402 A 
ATOM      2  O   UNL     1      33.416  -5.944  -0.567  1.00  0.00    -0.202 OA
ATOM      3  C   UNL     1      33.106  -6.525  -1.721  1.00  0.00     0.368 A 
ATOM      4  C   UNL     1      34.134  -6.960  -2.562  1.00  0.00     0.162 A 
ATOM      5  C   UNL     1      33.838  -7.569  -3.781  1.00  0.00     0.128 A 
ATOM      6  C   UNL     1      32.504  -7.747  -4.166  1.00  0.00     0.093 A 
ATOM      7  C   UNL     1      31.455  -7.319  -3.342  1.00  0.00     0.136 A 
ATOM      8  C   UNL     1      31.753  -6.701  -2.099  1.00  0.00     0.125 A 
ATOM      9  C   UNL     1      30.768  -6.253  -1.203  1.00  0.00     0.078 A 
ATOM     10  C   UNL     1      31.138  -5.658   0.006  1.00  0.00     0.223 A 
ENDROOT
BRANCH   1  11
ATOM     11  C   UNL     1      32.979  -4.859   1.545  1.00  0.00     0.087 A 
ATOM     12  C   UNL     1      33.519  -3.561   1.546  1.00  0.00     0.022 A 
ATOM     13  C   UNL     1      33.981  -2.989   2.734  1.00  0.00     0.051 A 
ATOM     14  C   UNL     1      33.921  -3.708   3.935  1.00  0.00     0.157 A 
ATOM     15  C   UNL     1      32.941  -5.584   2.747  1.00  0.00     0.068 A 
ATOM     16  C   UNL     1      33.401  -5.013   3.940  1.00  0.00     0.158 A 
BRANCH  14  17
ATOM     17  O   UNL     1      34.379  -3.134   5.119  1.00  0.00    -0.504 OA
ATOM     18  H   UNL     1      34.900  -2.265   5.120  1.00  0.00     0.293 HD
ENDBRANCH  14  17
BRANCH  16  19
ATOM     19  O   UNL     1      33.334  -5.759   5.116  1.00  0.00    -0.504 OA
ATOM     20  H   UNL     1      32.709  -6.551   5.216  1.00  0.00     0.293 HD
ENDBRANCH  16  19
ENDBRANCH   1  11
BRANCH  10  21
ATOM     21  O   UNL     1      30.161  -5.259   0.917  1.00  0.00    -0.500 OA
ATOM     22  H   UNL     1      29.191  -5.148   0.644  1.00  0.00     0.294 HD
ENDBRANCH  10  21
BRANCH   5  23
ATOM     23  O   UNL     1      34.877  -7.997  -4.605  1.00  0.00    -0.507 OA
ATOM     24  H   UNL     1      35.208  -7.431  -5.377  1.00  0.00     0.293 HD
ENDBRANCH   5  23
BRANCH   7  25
ATOM     25  O   UNL     1      30.151  -7.529  -3.798  1.00  0.00    -0.507 OA
ATOM     26  H   UNL     1      29.686  -8.425  -3.806  1.00  0.00     0.293 HD
ENDBRANCH   7  25
TORSDOF 6
ENDMDL
MODEL 2
REMARK VINA RESULT:    -5.085      1.634      2.451
REMARK INTER + INTRA:          -6.414
REMARK INTER:                  -6.065
REMARK INTRA:                  -0.349
REMARK UNBOUND:                -0.289
REMARK SMILES Oc1cc(O)c2cc(O)c(-c3ccc(O)c(O)c3)[o+]c2c1
REMARK SMILES IDX 10 1 19 2 20 3 21 4 2 5 3 6 4 7 6 8 7 9 8 10 11 11 12 12
REMARK SMILES IDX 13 13 14 14 18 15 16 16 15 17 17 19 9 21 1 23 5 25
REMARK H PARENT 15 18 17 20 9 22 1 24 5 26
REMARK Flexibility Score: inf
ROOT
ATOM      1  C   UNL     1      33.229  -4.480   1.131  1.00  0.00     0.402 A 
ATOM      2  O   UNL     1      33.819  -4.930   0.027  1.00  0.00    -0.202 OA
ATOM      3  C   UNL     1      33.200  -5.679  -0.879  1.00  0.00     0.368 A 
ATOM      4  C   UNL     1      33.905  -6.102  -2.009  1.00  0.00     0.162 A 
ATOM      5  C   UNL     1      33.279  -6.885  -2.978  1.00  0.00     0.128 A 
ATOM      6  C   UNL     1      31.936  -7.249  -2.820  1.00  0.00     0.093 A 
ATOM      7  C   UNL     1      31.207  -6.838  -1.697  1.00  0.00     0.136 A 
ATOM      8  C   UNL     1      31.842  -6.043  -0.707  1.00  0.00     0.125 A 
ATOM      9  C   UNL     1      31.196  -5.596   0.456  1.00  0.00     0.078 A 
ATOM     10  C   UNL     1      31.888  -4.820   1.390  1.00  0.00     0.223 A 
ENDROOT
BRANCH   1  11
ATOM     11  C   UNL     1      34.025  -3.646   2.061  1.00  0.00     0.087 A 
ATOM     12  C   UNL     1      34.765  -4.220   3.110  1.00  0.00     0.022 A 
ATOM     13  C   UNL     1      35.488  -3.411   3.990  1.00  0.00     0.051 A 
ATOM     14  C   UNL     1      35.475  -2.018   3.842  1.00  0.00     0.157 A 
ATOM     15  C   UNL     1      33.997  -2.248   1.931  1.00  0.00     0.068 A 
ATOM     16  C   UNL     1      34.723  -1.434   2.809  1.00  0.00     0.158 A 
BRANCH  14  17
ATOM     17  O   UNL     1      36.200  -1.213   4.720  1.00  0.00    -0.504 OA
ATOM     18  H   UNL     1      36.201  -0.204   4.637  1.00  0.00     0.293 HD
ENDBRANCH  14  17
BRANCH  16  19
ATOM     19  O   UNL     1      34.682  -0.051   2.640  1.00  0.00    -0.504 OA
ATOM     20  H   UNL     1      35.361   0.442   2.071  1.00  0.00     0.293 HD
ENDBRANCH  16  19
ENDBRANCH   1  11
BRANCH  10  21
ATOM     21  O   UNL     1      31.260  -4.417   2.569  1.00  0.00    -0.500 OA
ATOM     22  H   UNL     1      30.827  -5.085   3.196  1.00  0.00     0.294 HD
ENDBRANCH  10  21
BRANCH   5  23
ATOM     23  O   UNL     1      33.998  -7.297  -4.098  1.00  0.00    -0.507 OA
ATOM     24  H   UNL     1      33.599  -7.258  -5.028  1.00  0.00     0.293 HD
ENDBRANCH   5  23
BRANCH   7  25
ATOM     25  O   UNL     1      29.871  -7.240  -1.614  1.00  0.00    -0.507 OA
ATOM     26  H   UNL     1      29.311  -7.526  -2.403  1.00  0.00     0.293 HD
ENDBRANCH   7  25
TORSDOF 6
ENDMDL
MODEL 3
REMARK VINA RESULT:    -5.068      1.894      7.375
REMARK INTER + INTRA:          -6.394
REMARK INTER:                  -6.042
REMARK INTRA:                  -0.352
REMARK UNBOUND:                -0.289
REMARK SMILES Oc1cc(O)c2cc(O)c(-c3ccc(O)c(O)c3)[o+]c2c1
REMARK SMILES IDX 10 1 19 2 20 3 21 4 2 5 3 6 4 7 6 8 7 9 8 10 11 11 12 12
REMARK SMILES IDX 13 13 14 14 18 15 16 16 15 17 17 19 9 21 1 23 5 25
REMARK H PARENT 15 18 17 20 9 22 1 24 5 26
REMARK Flexibility Score: inf
ROOT
ATOM      1  C   UNL     1      33.097  -6.212   1.697  1.00  0.00     0.402 A 
ATOM      2  O   UNL     1      32.712  -5.090   2.298  1.00  0.00    -0.202 OA
ATOM      3  C   UNL     1      32.938  -4.835   3.582  1.00  0.00     0.368 A 
ATOM      4  C   UNL     1      32.497  -3.625   4.123  1.00  0.00     0.162 A 
ATOM      5  C   UNL     1      32.723  -3.328   5.467  1.00  0.00     0.128 A 
ATOM      6  C   UNL     1      33.398  -4.248   6.279  1.00  0.00     0.093 A 
ATOM      7  C   UNL     1      33.851  -5.468   5.761  1.00  0.00     0.136 A 
ATOM      8  C   UNL     1      33.619  -5.773   4.395  1.00  0.00     0.125 A 
ATOM      9  C   UNL     1      34.025  -6.976   3.792  1.00  0.00     0.078 A 
ATOM     10  C   UNL     1      33.757  -7.209   2.441  1.00  0.00     0.223 A 
ENDROOT
BRANCH   1  11
ATOM     11  C   UNL     1      32.794  -6.376   0.256  1.00  0.00     0.087 A 
ATOM     12  C   UNL     1      33.725  -6.014  -0.734  1.00  0.00     0.022 A 
ATOM     13  C   UNL     1      33.407  -6.154  -2.087  1.00  0.00     0.051 A 
ATOM     14  C   UNL     1      32.153  -6.646  -2.472  1.00  0.00     0.157 A 
ATOM     15  C   UNL     1      31.530  -6.847  -0.135  1.00  0.00     0.068 A 
ATOM     16  C   UNL     1      31.209  -6.991  -1.490  1.00  0.00     0.158 A 
BRANCH  14  17
ATOM     17  O   UNL     1      31.840  -6.787  -3.823  1.00  0.00    -0.504 OA
ATOM     18  H   UNL     1      32.054  -7.637  -4.331  1.00  0.00     0.293 HD
ENDBRANCH  14  17
BRANCH  16  19
ATOM     19  O   UNL     1      29.949  -7.476  -1.839  1.00  0.00    -0.504 OA
ATOM     20  H   UNL     1      29.446  -8.134  -1.255  1.00  0.00     0.293 HD
ENDBRANCH  16  19
ENDBRANCH   1  11
BRANCH  10  21
ATOM     21  O   UNL     1      34.116  -8.423   1.855  1.00  0.00    -0.500 OA
ATOM     22  H   UNL     1      34.985  -8.889   2.085  1.00  0.00     0.294 HD
ENDBRANCH  10  21
BRANCH   5  23
ATOM     23  O   UNL     1      32.275  -2.117   5.988  1.00  0.00    -0.507 OA
ATOM     24  H   UNL     1      32.864  -1.546   6.583  1.00  0.00     0.293 HD
ENDBRANCH   5  23
BRANCH   7  25
ATOM     25  O   UNL     1      34.518  -6.330   6.635  1.00  0.00    -0.507 OA
ATOM     26  H   UNL     1      34.110  -7.160   7.040  1.00  0.00     0.293 HD
ENDBRANCH   7  25
TORSDOF 6
ENDMDL
MODEL 4
REMARK VINA RESULT:    -5.060      1.794      7.089
REMARK INTER + INTRA:          -6.384
REMARK INTER:                  -6.097
REMARK INTRA:                  -0.288
REMARK UNBOUND:                -0.289
REMARK SMILES Oc1cc(O)c2cc(O)c(-c3ccc(O)c(O)c3)[o+]c2c1
REMARK SMILES IDX 10 1 19 2 20 3 21 4 2 5 3 6 4 7 6 8 7 9 8 10 11 11 12 12
REMARK SMILES IDX 13 13 14 14 18 15 16 16 15 17 17 19 9 21 1 23 5 25
REMARK H PARENT 15 18 17 20 9 22 1 24 5 26
REMARK Flexibility Score: inf
ROOT
ATOM      1  C   UNL     1      32.540  -6.600  -1.898  1.00  0.00     0.402 A 
ATOM      2  O   UNL     1      33.568  -5.908  -1.416  1.00  0.00    -0.202 OA
ATOM      3  C   UNL     1      33.516  -5.218  -0.282  1.00  0.00     0.368 A 
ATOM      4  C   UNL     1      34.651  -4.523   0.145  1.00  0.00     0.162 A 
ATOM      5  C   UNL     1      34.627  -3.794   1.333  1.00  0.00     0.128 A 
ATOM      6  C   UNL     1      33.459  -3.757   2.105  1.00  0.00     0.093 A 
ATOM      7  C   UNL     1      32.308  -4.445   1.700  1.00  0.00     0.136 A 
ATOM      8  C   UNL     1      32.329  -5.186   0.490  1.00  0.00     0.125 A 
ATOM      9  C   UNL     1      31.220  -5.895  -0.001  1.00  0.00     0.078 A 
ATOM     10  C   UNL     1      31.314  -6.598  -1.205  1.00  0.00     0.223 A 
ENDROOT
BRANCH   1  11
ATOM     11  C   UNL     1      32.725  -7.337  -3.170  1.00  0.00     0.087 A 
ATOM     12  C   UNL     1      32.801  -8.741  -3.198  1.00  0.00     0.022 A 
ATOM     13  C   UNL     1      33.001  -9.412  -4.407  1.00  0.00     0.051 A 
ATOM     14  C   UNL     1      33.139  -8.693  -5.601  1.00  0.00     0.157 A 
ATOM     15  C   UNL     1      32.887  -6.620  -4.366  1.00  0.00     0.068 A 
ATOM     16  C   UNL     1      33.085  -7.290  -5.579  1.00  0.00     0.158 A 
BRANCH  14  17
ATOM     17  O   UNL     1      33.336  -9.366  -6.806  1.00  0.00    -0.504 OA
ATOM     18  H   UNL     1      32.654  -9.325  -7.554  1.00  0.00     0.293 HD
ENDBRANCH  14  17
BRANCH  16  19
ATOM     19  O   UNL     1      33.227  -6.543  -6.749  1.00  0.00    -0.504 OA
ATOM     20  H   UNL     1      32.907  -5.584  -6.817  1.00  0.00     0.293 HD
ENDBRANCH  16  19
ENDBRANCH   1  11
BRANCH  10  21
ATOM     21  O   UNL     1      30.199  -7.261  -1.717  1.00  0.00    -0.500 OA
ATOM     22  H   UNL     1      29.392  -6.756  -2.065  1.00  0.00     0.294 HD
ENDBRANCH  10  21
BRANCH   5  23
ATOM     23  O   UNL     1      35.769  -3.107   1.741  1.00  0.00    -0.507 OA
ATOM     24  H   UNL     1      36.442  -2.753   1.072  1.00  0.00     0.293 HD
ENDBRANCH   5  23
BRANCH   7  25
ATOM     25  O   UNL     1      31.184  -4.362   2.527  1.00  0.00    -0.507 OA
ATOM     26  H   UNL     1      30.986  -4.997   3.286  1.00  0.00     0.293 HD
ENDBRANCH   7  25
TORSDOF 6
ENDMDL
MODEL 5
REMARK VINA RESULT:    -5.035      1.811      3.138
REMARK INTER + INTRA:          -6.355
REMARK INTER:                  -6.002
REMARK INTRA:                  -0.353
REMARK UNBOUND:                -0.289
REMARK SMILES Oc1cc(O)c2cc(O)c(-c3ccc(O)c(O)c3)[o+]c2c1
REMARK SMILES IDX 10 1 19 2 20 3 21 4 2 5 3 6 4 7 6 8 7 9 8 10 11 11 12 12
REMARK SMILES IDX 13 13 14 14 18 15 16 16 15 17 17 19 9 21 1 23 5 25
REMARK H PARENT 15 18 17 20 9 22 1 24 5 26
REMARK Flexibility Score: inf
ROOT
ATOM      1  C   UNL     1      33.132  -6.251  -0.984  1.00  0.00     0.402 A 
ATOM      2  O   UNL     1      32.147  -6.962  -1.525  1.00  0.00    -0.202 OA
ATOM      3  C   UNL     1      31.990  -7.114  -2.835  1.00  0.00     0.368 A 
ATOM      4  C   UNL     1      30.924  -7.882  -3.309  1.00  0.00     0.162 A 
ATOM      5  C   UNL     1      30.737  -8.062  -4.679  1.00  0.00     0.128 A 
ATOM      6  C   UNL     1      31.624  -7.471  -5.587  1.00  0.00     0.093 A 
ATOM      7  C   UNL     1      32.702  -6.696  -5.139  1.00  0.00     0.136 A 
ATOM      8  C   UNL     1      32.892  -6.509  -3.745  1.00  0.00     0.125 A 
ATOM      9  C   UNL     1      33.935  -5.739  -3.204  1.00  0.00     0.078 A 
ATOM     10  C   UNL     1      34.056  -5.595  -1.819  1.00  0.00     0.223 A 
ENDROOT
BRANCH   1  11
ATOM     11  C   UNL     1      33.204  -6.164   0.493  1.00  0.00     0.087 A 
ATOM     12  C   UNL     1      33.979  -7.067   1.243  1.00  0.00     0.022 A 
ATOM     13  C   UNL     1      34.012  -6.981   2.637  1.00  0.00     0.051 A 
ATOM     14  C   UNL     1      33.265  -6.000   3.303  1.00  0.00     0.157 A 
ATOM     15  C   UNL     1      32.440  -5.198   1.166  1.00  0.00     0.068 A 
ATOM     16  C   UNL     1      32.473  -5.106   2.563  1.00  0.00     0.158 A 
BRANCH  14  17
ATOM     17  O   UNL     1      33.303  -5.914   4.694  1.00  0.00    -0.504 OA
ATOM     18  H   UNL     1      33.254  -6.741   5.277  1.00  0.00     0.293 HD
ENDBRANCH  14  17
BRANCH  16  19
ATOM     19  O   UNL     1      31.711  -4.124   3.195  1.00  0.00    -0.504 OA
ATOM     20  H   UNL     1      31.451  -3.262   2.728  1.00  0.00     0.293 HD
ENDBRANCH  16  19
ENDBRANCH   1  11
BRANCH  10  21
ATOM     21  O   UNL     1      35.062  -4.790  -1.284  1.00  0.00    -0.500 OA
ATOM     22  H   UNL     1      35.489  -4.044  -1.820  1.00  0.00     0.294 HD
ENDBRANCH  10  21
BRANCH   5  23
ATOM     23  O   UNL     1      29.668  -8.832  -5.132  1.00  0.00    -0.507 OA
ATOM     24  H   UNL     1      29.501  -8.978  -6.121  1.00  0.00     0.293 HD
ENDBRANCH   5  23
BRANCH   7  25
ATOM     25  O   UNL     1      33.544  -6.142  -6.107  1.00  0.00    -0.507 OA
ATOM     26  H   UNL     1      33.391  -6.210  -7.102  1.00  0.00     0.293 HD
ENDBRANCH   7  25
TORSDOF 6
ENDMDL
MODEL 6
REMARK VINA RESULT:    -4.931      2.084      6.569
REMARK INTER + INTRA:          -6.229
REMARK INTER:                  -5.884
REMARK INTRA:                  -0.344
REMARK UNBOUND:                -0.289
REMARK SMILES Oc1cc(O)c2cc(O)c(-c3ccc(O)c(O)c3)[o+]c2c1
REMARK SMILES IDX 10 1 19 2 20 3 21 4 2 5 3 6 4 7 6 8 7 9 8 10 11 11 12 12
REMARK SMILES IDX 13 13 14 14 18 15 16 16 15 17 17 19 9 21 1 23 5 25
REMARK H PARENT 15 18 17 20 9 22 1 24 5 26
REMARK Flexibility Score: inf
ROOT
ATOM      1  C   UNL     1      32.363  -5.958  -0.132  1.00  0.00     0.402 A 
ATOM      2  O   UNL     1      33.657  -5.692  -0.279  1.00  0.00    -0.202 OA
ATOM      3  C   UNL     1      34.302  -4.782   0.444  1.00  0.00     0.368 A 
ATOM      4  C   UNL     1      35.666  -4.575   0.218  1.00  0.00     0.162 A 
ATOM      5  C   UNL     1      36.369  -3.630   0.964  1.00  0.00     0.128 A 
ATOM      6  C   UNL     1      35.707  -2.884   1.947  1.00  0.00     0.093 A 
ATOM      7  C   UNL     1      34.341  -3.073   2.193  1.00  0.00     0.136 A 
ATOM      8  C   UNL     1      33.622  -4.032   1.433  1.00  0.00     0.125 A 
ATOM      9  C   UNL     1      32.249  -4.280   1.602  1.00  0.00     0.078 A 
ATOM     10  C   UNL     1      31.607  -5.237   0.812  1.00  0.00     0.223 A 
ENDROOT
BRANCH   1  11
ATOM     11  C   UNL     1      31.760  -7.002  -0.993  1.00  0.00     0.087 A 
ATOM     12  C   UNL     1      31.807  -8.362  -0.637  1.00  0.00     0.022 A 
ATOM     13  C   UNL     1      31.252  -9.331  -1.477  1.00  0.00     0.051 A 
ATOM     14  C   UNL     1      30.654  -8.959  -2.688  1.00  0.00     0.157 A 
ATOM     15  C   UNL     1      31.180  -6.637  -2.218  1.00  0.00     0.068 A 
ATOM     16  C   UNL     1      30.621  -7.605  -3.061  1.00  0.00     0.158 A 
BRANCH  14  17
ATOM     17  O   UNL     1      30.100  -9.928  -3.523  1.00  0.00    -0.504 OA
ATOM     18  H   UNL     1      30.681 -10.547  -4.075  1.00  0.00     0.293 HD
ENDBRANCH  14  17
BRANCH  16  19
ATOM     19  O   UNL     1      30.041  -7.202  -4.264  1.00  0.00    -0.504 OA
ATOM     20  H   UNL     1      29.098  -6.833  -4.309  1.00  0.00     0.293 HD
ENDBRANCH  16  19
ENDBRANCH   1  11
BRANCH  10  21
ATOM     21  O   UNL     1      30.234  -5.448   0.945  1.00  0.00    -0.500 OA
ATOM     22  H   UNL     1      29.615  -4.723   1.288  1.00  0.00     0.294 HD
ENDBRANCH  10  21
BRANCH   5  23
ATOM     23  O   UNL     1      37.728  -3.438   0.724  1.00  0.00    -0.507 OA
ATOM     24  H   UNL     1      38.385  -4.208   0.755  1.00  0.00     0.293 HD
ENDBRANCH   5  23
BRANCH   7  25
ATOM     25  O   UNL     1      33.753  -2.292   3.193  1.00  0.00    -0.507 OA
ATOM     26  H   UNL     1      33.021  -2.612   3.810  1.00  0.00     0.293 HD
ENDBRANCH   7  25
TORSDOF 6
ENDMDL
MODEL 7
REMARK VINA RESULT:    -4.925      2.323      4.080
REMARK INTER + INTRA:          -6.221
REMARK INTER:                  -5.925
REMARK INTRA:                  -0.297
REMARK UNBOUND:                -0.289
REMARK SMILES Oc1cc(O)c2cc(O)c(-c3ccc(O)c(O)c3)[o+]c2c1
REMARK SMILES IDX 10 1 19 2 20 3 21 4 2 5 3 6 4 7 6 8 7 9 8 10 11 11 12 12
REMARK SMILES IDX 13 13 14 14 18 15 16 16 15 17 17 19 9 21 1 23 5 25
REMARK H PARENT 15 18 17 20 9 22 1 24 5 26
REMARK Flexibility Score: inf
ROOT
ATOM      1  C   UNL     1      33.085  -5.120   3.386  1.00  0.00     0.402 A 
ATOM      2  O   UNL     1      32.476  -4.899   2.224  1.00  0.00    -0.202 OA
ATOM      3  C   UNL     1      32.334  -5.828   1.285  1.00  0.00     0.368 A 
ATOM      4  C   UNL     1      31.676  -5.501   0.097  1.00  0.00     0.162 A 
ATOM      5  C   UNL     1      31.510  -6.458  -0.904  1.00  0.00     0.128 A 
ATOM      6  C   UNL     1      32.003  -7.755  -0.718  1.00  0.00     0.093 A 
ATOM      7  C   UNL     1      32.665  -8.109   0.464  1.00  0.00     0.136 A 
ATOM      8  C   UNL     1      32.839  -7.137   1.483  1.00  0.00     0.125 A 
ATOM      9  C   UNL     1      33.501  -7.397   2.695  1.00  0.00     0.078 A 
ATOM     10  C   UNL     1      33.638  -6.387   3.650  1.00  0.00     0.223 A 
ENDROOT
BRANCH   1  11
ATOM     11  C   UNL     1      33.171  -4.003   4.355  1.00  0.00     0.087 A 
ATOM     12  C   UNL     1      32.392  -3.988   5.526  1.00  0.00     0.022 A 
ATOM     13  C   UNL     1      32.473  -2.912   6.414  1.00  0.00     0.051 A 
ATOM     14  C   UNL     1      33.322  -1.832   6.140  1.00  0.00     0.157 A 
ATOM     15  C   UNL     1      34.003  -2.908   4.075  1.00  0.00     0.068 A 
ATOM     16  C   UNL     1      34.088  -1.829   4.963  1.00  0.00     0.158 A 
BRANCH  14  17
ATOM     17  O   UNL     1      33.402  -0.761   7.029  1.00  0.00    -0.504 OA
ATOM     18  H   UNL     1      32.573  -0.345   7.435  1.00  0.00     0.293 HD
ENDBRANCH  14  17
BRANCH  16  19
ATOM     19  O   UNL     1      34.937  -0.766   4.657  1.00  0.00    -0.504 OA
ATOM     20  H   UNL     1      35.475  -0.737   3.798  1.00  0.00     0.293 HD
ENDBRANCH  16  19
ENDBRANCH   1  11
BRANCH  10  21
ATOM     21  O   UNL     1      34.339  -6.631   4.832  1.00  0.00    -0.500 OA
ATOM     22  H   UNL     1      33.948  -7.198   5.575  1.00  0.00     0.294 HD
ENDBRANCH  10  21
BRANCH   5  23
ATOM     23  O   UNL     1      30.851  -6.112  -2.082  1.00  0.00    -0.507 OA
ATOM     24  H   UNL     1      31.264  -6.288  -2.991  1.00  0.00     0.293 HD
ENDBRANCH   5  23
BRANCH   7  25
ATOM     25  O   UNL     1      33.126  -9.424   0.575  1.00  0.00    -0.507 OA
ATOM     26  H   UNL     1      32.821 -10.186  -0.012  1.00  0.00     0.293 HD
ENDBRANCH   7  25
TORSDOF 6
ENDMDL
MODEL 8
REMARK VINA RESULT:    -4.878      3.067      8.476
REMARK INTER + INTRA:          -6.165
REMARK INTER:                  -5.815
REMARK INTRA:                  -0.351
REMARK UNBOUND:                -0.289
REMARK SMILES Oc1cc(O)c2cc(O)c(-c3ccc(O)c(O)c3)[o+]c2c1
REMARK SMILES IDX 10 1 19 2 20 3 21 4 2 5 3 6 4 7 6 8 7 9 8 10 11 11 12 12
REMARK SMILES IDX 13 13 14 14 18 15 16 16 15 17 17 19 9 21 1 23 5 25
REMARK H PARENT 15 18 17 20 9 22 1 24 5 26
REMARK Flexibility Score: inf
ROOT
ATOM      1  C   UNL     1      33.269  -3.708   4.406  1.00  0.00     0.402 A 
ATOM      2  O   UNL     1      33.880  -2.560   4.128  1.00  0.00    -0.202 OA
ATOM      3  C   UNL     1      34.117  -1.620   5.036  1.00  0.00     0.368 A 
ATOM      4  C   UNL     1      34.768  -0.447   4.647  1.00  0.00     0.162 A 
ATOM      5  C   UNL     1      35.034   0.555   5.580  1.00  0.00     0.128 A 
ATOM      6  C   UNL     1      34.647   0.385   6.915  1.00  0.00     0.093 A 
ATOM      7  C   UNL     1      33.994  -0.782   7.331  1.00  0.00     0.136 A 
ATOM      8  C   UNL     1      33.719  -1.802   6.383  1.00  0.00     0.125 A 
ATOM      9  C   UNL     1      33.058  -2.999   6.705  1.00  0.00     0.078 A 
ATOM     10  C   UNL     1      32.818  -3.956   5.717  1.00  0.00     0.223 A 
ENDROOT
BRANCH   1  11
ATOM     11  C   UNL     1      33.070  -4.681   3.307  1.00  0.00     0.087 A 
ATOM     12  C   UNL     1      33.965  -5.747   3.102  1.00  0.00     0.022 A 
ATOM     13  C   UNL     1      33.770  -6.638   2.044  1.00  0.00     0.051 A 
ATOM     14  C   UNL     1      32.689  -6.472   1.168  1.00  0.00     0.157 A 
ATOM     15  C   UNL     1      32.001  -4.506   2.414  1.00  0.00     0.068 A 
ATOM     16  C   UNL     1      31.802  -5.398   1.354  1.00  0.00     0.158 A 
BRANCH  14  17
ATOM     17  O   UNL     1      32.496  -7.364   0.115  1.00  0.00    -0.504 OA
ATOM     18  H   UNL     1      33.058  -8.201   0.019  1.00  0.00     0.293 HD
ENDBRANCH  14  17
BRANCH  16  19
ATOM     19  O   UNL     1      30.720  -5.199   0.496  1.00  0.00    -0.504 OA
ATOM     20  H   UNL     1      30.774  -4.576  -0.302  1.00  0.00     0.293 HD
ENDBRANCH  16  19
ENDBRANCH   1  11
BRANCH  10  21
ATOM     21  O   UNL     1      32.118  -5.122   6.026  1.00  0.00    -0.500 OA
ATOM     22  H   UNL     1      31.111  -5.126   6.135  1.00  0.00     0.294 HD
ENDBRANCH  10  21
BRANCH   5  23
ATOM     23  O   UNL     1      35.683   1.719   5.173  1.00  0.00    -0.507 OA
ATOM     24  H   UNL     1      36.347   2.193   5.773  1.00  0.00     0.293 HD
ENDBRANCH   5  23
BRANCH   7  25
ATOM     25  O   UNL     1      33.643  -0.877   8.680  1.00  0.00    -0.507 OA
ATOM     26  H   UNL     1      34.053  -0.323   9.417  1.00  0.00     0.293 HD
ENDBRANCH   7  25
TORSDOF 6
ENDMDL
MODEL 9
REMARK VINA RESULT:    -4.824      1.673      7.113
REMARK INTER + INTRA:          -6.101
REMARK INTER:                  -6.432
REMARK INTRA:                   0.331
REMARK UNBOUND:                -0.289
REMARK SMILES Oc1cc(O)c2cc(O)c(-c3ccc(O)c(O)c3)[o+]c2c1
REMARK SMILES IDX 10 1 19 2 20 3 21 4 2 5 3 6 4 7 6 8 7 9 8 10 11 11 12 12
REMARK SMILES IDX 13 13 14 14 18 15 16 16 15 17 17 19 9 21 1 23 5 25
REMARK H PARENT 15 18 17 20 9 22 1 24 5 26
REMARK Flexibility Score: inf
ROOT
ATOM      1  C   UNL     1      32.894  -5.954  -1.111  1.00  0.00     0.402 A 
ATOM      2  O   UNL     1      32.307  -5.733   0.062  1.00  0.00    -0.202 OA
ATOM      3  C   UNL     1      32.880  -5.054   1.050  1.00  0.00     0.368 A 
ATOM      4  C   UNL     1      32.181  -4.872   2.246  1.00  0.00     0.162 A 
ATOM      5  C   UNL     1      32.757  -4.161   3.298  1.00  0.00     0.128 A 
ATOM      6  C   UNL     1      34.042  -3.624   3.156  1.00  0.00     0.093 A 
ATOM      7  C   UNL     1      34.764  -3.791   1.967  1.00  0.00     0.136 A 
ATOM      8  C   UNL     1      34.182  -4.518   0.896  1.00  0.00     0.125 A 
ATOM      9  C   UNL     1      34.834  -4.747  -0.327  1.00  0.00     0.078 A 
ATOM     10  C   UNL     1      34.199  -5.477  -1.335  1.00  0.00     0.223 A 
ENDROOT
BRANCH   1  11
ATOM     11  C   UNL     1      32.146  -6.718  -2.136  1.00  0.00     0.087 A 
ATOM     12  C   UNL     1      32.537  -6.707  -3.487  1.00  0.00     0.022 A 
ATOM     13  C   UNL     1      31.802  -7.416  -4.440  1.00  0.00     0.051 A 
ATOM     14  C   UNL     1      30.661  -8.136  -4.062  1.00  0.00     0.157 A 
ATOM     15  C   UNL     1      30.990  -7.422  -1.766  1.00  0.00     0.068 A 
ATOM     16  C   UNL     1      30.252  -8.136  -2.718  1.00  0.00     0.158 A 
BRANCH  14  17
ATOM     17  O   UNL     1      29.931  -8.845  -5.015  1.00  0.00    -0.504 OA
ATOM     18  H   UNL     1      29.853  -8.521  -5.971  1.00  0.00     0.293 HD
ENDBRANCH  14  17
BRANCH  16  19
ATOM     19  O   UNL     1      29.117  -8.835  -2.309  1.00  0.00    -0.504 OA
ATOM     20  H   UNL     1      28.223  -8.731  -2.777  1.00  0.00     0.293 HD
ENDBRANCH  16  19
ENDBRANCH   1  11
BRANCH  10  21
ATOM     21  O   UNL     1      34.867  -5.747  -2.530  1.00  0.00    -0.500 OA
ATOM     22  H   UNL     1      35.809  -6.119  -2.542  1.00  0.00     0.294 HD
ENDBRANCH  10  21
BRANCH   5  23
ATOM     23  O   UNL     1      32.045  -3.990   4.483  1.00  0.00    -0.507 OA
ATOM     24  H   UNL     1      32.015  -4.713   5.192  1.00  0.00     0.293 HD
ENDBRANCH   5  23
BRANCH   7  25
ATOM     25  O   UNL     1      36.039  -3.223   1.902  1.00  0.00    -0.507 OA
ATOM     26  H   UNL     1      36.308  -2.370   2.370  1.00  0.00     0.293 HD
ENDBRANCH   7  25
TORSDOF 6
ENDMDL
