MODEL 1
REMARK VINA RESULT:    -3.408      0.000      0.000
REMARK INTER + INTRA:         -10.581
REMARK INTER:                  -7.393
REMARK INTRA:                  -3.188
REMARK UNBOUND:                -3.188
REMARK SMILES CCCCCCCCCCCCCCCCCCCCCC(=O)[O-]
REMARK SMILES IDX 12 1 11 2 10 3 9 4 8 5 7 6 6 7 5 8 4 9 3 10 2 11 1 12 13 13
REMARK SMILES IDX 14 14 15 15 16 16 17 17 18 18 19 19 20 20 21 21 22 22 23 23
REMARK SMILES IDX 24 24
REMARK H PARENT
REMARK Flexibility Score: inf
ROOT
ATOM      1  C   UNL     1     -32.194  -9.512 -28.781  1.00  0.00     0.000 C 
ENDROOT
BRANCH   1   2
ATOM      2  C   UNL     1     -30.969  -9.831 -27.912  1.00  0.00     0.000 C 
BRANCH   2   3
ATOM      3  C   UNL     1     -31.229 -11.057 -27.029  1.00  0.00     0.000 C 
BRANCH   3   4
ATOM      4  C   UNL     1     -32.622 -10.993 -26.389  1.00  0.00    -0.000 C 
BRANCH   4   5
ATOM      5  C   UNL     1     -32.575 -11.451 -24.927  1.00  0.00    -0.000 C 
BRANCH   5   6
ATOM      6  C   UNL     1     -32.867 -10.284 -23.972  1.00  0.00    -0.000 C 
BRANCH   6   7
ATOM      7  C   UNL     1     -32.901  -8.928 -24.692  1.00  0.00    -0.000 C 
BRANCH   7   8
ATOM      8  C   UNL     1     -31.567  -8.170 -24.590  1.00  0.00    -0.000 C 
BRANCH   8   9
ATOM      9  C   UNL     1     -31.595  -6.822 -25.328  1.00  0.00    -0.000 C 
BRANCH   9  10
ATOM     10  C   UNL     1     -32.672  -6.772 -26.427  1.00  0.00    -0.000 C 
BRANCH  10  11
ATOM     11  C   UNL     1     -32.241  -5.932 -27.639  1.00  0.00    -0.003 C 
ATOM     12  C   UNL     1     -30.769  -6.131 -28.000  1.00  0.00     0.004 C 
ENDBRANCH  10  11
ENDBRANCH   9  10
ENDBRANCH   8   9
ENDBRANCH   7   8
ENDBRANCH   6   7
ENDBRANCH   5   6
ENDBRANCH   4   5
ENDBRANCH   3   4
ENDBRANCH   2   3
ENDBRANCH   1   2
BRANCH   1  13
ATOM     13  C   UNL     1     -31.854  -9.426 -30.277  1.00  0.00     0.000 C 
BRANCH  13  14
ATOM     14  C   UNL     1     -33.049  -8.964 -31.130  1.00  0.00     0.000 C 
BRANCH  14  15
ATOM     15  C   UNL     1     -33.488  -7.529 -30.799  1.00  0.00     0.000 C 
BRANCH  15  16
ATOM     16  C   UNL     1     -34.679  -7.066 -31.656  1.00  0.00     0.000 C 
BRANCH  16  17
ATOM     17  C   UNL     1     -35.695  -6.235 -30.854  1.00  0.00     0.000 C 
BRANCH  17  18
ATOM     18  C   UNL     1     -35.080  -5.353 -29.749  1.00  0.00     0.000 C 
BRANCH  18  19
ATOM     19  C   UNL     1     -34.698  -3.936 -30.227  1.00  0.00     0.000 C 
BRANCH  19  20
ATOM     20  C   UNL     1     -33.201  -3.816 -30.556  1.00  0.00     0.006 C 
BRANCH  20  21
ATOM     21  C   UNL     1     -32.958  -3.140 -31.911  1.00  0.00     0.053 C 
BRANCH  21  22
ATOM     22  C   UNL     1     -33.049  -4.121 -33.041  1.00  0.00     0.041 C 
ATOM     23  O   UNL     1     -32.046  -4.809 -33.364  1.00  0.00    -0.550 OA
ATOM     24  O   UNL     1     -34.234  -4.254 -33.754  1.00  0.00    -0.550 OA
ENDBRANCH  21  22
ENDBRANCH  20  21
ENDBRANCH  19  20
ENDBRANCH  18  19
ENDBRANCH  17  18
ENDBRANCH  16  17
ENDBRANCH  15  16
ENDBRANCH  14  15
ENDBRANCH  13  14
ENDBRANCH   1  13
TORSDOF 20
ENDMDL
MODEL 2
REMARK VINA RESULT:    -3.378     10.191     14.174
REMARK INTER + INTRA:         -10.516
REMARK INTER:                  -6.345
REMARK INTRA:                  -4.170
REMARK UNBOUND:                -3.188
REMARK SMILES CCCCCCCCCCCCCCCCCCCCCC(=O)[O-]
REMARK SMILES IDX 12 1 11 2 10 3 9 4 8 5 7 6 6 7 5 8 4 9 3 10 2 11 1 12 13 13
REMARK SMILES IDX 14 14 15 15 16 16 17 17 18 18 19 19 20 20 21 21 22 22 23 23
REMARK SMILES IDX 24 24
REMARK H PARENT
REMARK Flexibility Score: inf
ROOT
ATOM      1  C   UNL     1     -28.251   0.952 -35.509  1.00  0.00     0.000 C 
ENDROOT
BRANCH   1   2
ATOM      2  C   UNL     1     -26.797   0.974 -36.004  1.00  0.00     0.000 C 
BRANCH   2   3
ATOM      3  C   UNL     1     -26.684   0.337 -37.394  1.00  0.00     0.000 C 
BRANCH   3   4
ATOM      4  C   UNL     1     -27.463  -0.982 -37.464  1.00  0.00    -0.000 C 
BRANCH   4   5
ATOM      5  C   UNL     1     -28.176  -1.127 -38.813  1.00  0.00    -0.000 C 
BRANCH   5   6
ATOM      6  C   UNL     1     -28.442   0.246 -39.448  1.00  0.00    -0.000 C 
BRANCH   6   7
ATOM      7  C   UNL     1     -29.928   0.471 -39.764  1.00  0.00    -0.000 C 
BRANCH   7   8
ATOM      8  C   UNL     1     -30.831  -0.630 -39.184  1.00  0.00    -0.000 C 
BRANCH   8   9
ATOM      9  C   UNL     1     -32.103  -0.067 -38.531  1.00  0.00    -0.000 C 
BRANCH   9  10
ATOM     10  C   UNL     1     -31.976   0.060 -37.001  1.00  0.00    -0.000 C 
BRANCH  10  11
ATOM     11  C   UNL     1     -31.026  -0.987 -36.399  1.00  0.00    -0.003 C 
ATOM     12  C   UNL     1     -31.409  -1.381 -34.973  1.00  0.00     0.004 C 
ENDBRANCH  10  11
ENDBRANCH   9  10
ENDBRANCH   8   9
ENDBRANCH   7   8
ENDBRANCH   6   7
ENDBRANCH   5   6
ENDBRANCH   4   5
ENDBRANCH   3   4
ENDBRANCH   2   3
ENDBRANCH   1   2
BRANCH   1  13
ATOM     13  C   UNL     1     -28.683   2.284 -34.877  1.00  0.00     0.000 C 
BRANCH  13  14
ATOM     14  C   UNL     1     -29.909   2.900 -35.575  1.00  0.00     0.000 C 
BRANCH  14  15
ATOM     15  C   UNL     1     -29.717   3.028 -37.095  1.00  0.00     0.000 C 
BRANCH  15  16
ATOM     16  C   UNL     1     -28.915   4.284 -37.482  1.00  0.00     0.000 C 
BRANCH  16  17
ATOM     17  C   UNL     1     -27.468   3.958 -37.887  1.00  0.00     0.000 C 
BRANCH  17  18
ATOM     18  C   UNL     1     -26.388   4.538 -36.952  1.00  0.00     0.000 C 
BRANCH  18  19
ATOM     19  C   UNL     1     -26.925   5.600 -35.969  1.00  0.00     0.000 C 
BRANCH  19  20
ATOM     20  C   UNL     1     -26.440   5.358 -34.530  1.00  0.00     0.006 C 
BRANCH  20  21
ATOM     21  C   UNL     1     -25.471   4.172 -34.437  1.00  0.00     0.053 C 
BRANCH  21  22
ATOM     22  C   UNL     1     -24.193   4.557 -33.754  1.00  0.00     0.041 C 
ATOM     23  O   UNL     1     -24.211   5.349 -32.777  1.00  0.00    -0.550 OA
ATOM     24  O   UNL     1     -22.980   4.062 -34.217  1.00  0.00    -0.550 OA
ENDBRANCH  21  22
ENDBRANCH  20  21
ENDBRANCH  19  20
ENDBRANCH  18  19
ENDBRANCH  17  18
ENDBRANCH  16  17
ENDBRANCH  15  16
ENDBRANCH  14  15
ENDBRANCH  13  14
ENDBRANCH   1  13
TORSDOF 20
ENDMDL
MODEL 3
REMARK VINA RESULT:    -3.342     10.506     14.058
REMARK INTER + INTRA:         -10.437
REMARK INTER:                  -6.741
REMARK INTRA:                  -3.696
REMARK UNBOUND:                -3.188
REMARK SMILES CCCCCCCCCCCCCCCCCCCCCC(=O)[O-]
REMARK SMILES IDX 12 1 11 2 10 3 9 4 8 5 7 6 6 7 5 8 4 9 3 10 2 11 1 12 13 13
REMARK SMILES IDX 14 14 15 15 16 16 17 17 18 18 19 19 20 20 21 21 22 22 23 23
REMARK SMILES IDX 24 24
REMARK H PARENT
REMARK Flexibility Score: inf
ROOT
ATOM      1  C   UNL     1     -29.948   4.397 -38.622  1.00  0.00     0.000 C 
ENDROOT
BRANCH   1   2
ATOM      2  C   UNL     1     -28.538   4.936 -38.335  1.00  0.00     0.000 C 
BRANCH   2   3
ATOM      3  C   UNL     1     -27.625   3.824 -37.808  1.00  0.00     0.000 C 
BRANCH   3   4
ATOM      4  C   UNL     1     -26.436   4.404 -37.032  1.00  0.00    -0.000 C 
BRANCH   4   5
ATOM      5  C   UNL     1     -26.395   3.857 -35.600  1.00  0.00    -0.000 C 
BRANCH   5   6
ATOM      6  C   UNL     1     -27.560   4.408 -34.765  1.00  0.00    -0.000 C 
BRANCH   6   7
ATOM      7  C   UNL     1     -28.575   3.322 -34.380  1.00  0.00    -0.000 C 
BRANCH   7   8
ATOM      8  C   UNL     1     -29.980   3.600 -34.939  1.00  0.00    -0.000 C 
BRANCH   8   9
ATOM      9  C   UNL     1     -30.632   2.349 -35.550  1.00  0.00    -0.000 C 
BRANCH   9  10
ATOM     10  C   UNL     1     -29.596   1.293 -35.978  1.00  0.00    -0.000 C 
BRANCH  10  11
ATOM     11  C   UNL     1     -30.067  -0.143 -35.700  1.00  0.00    -0.003 C 
ATOM     12  C   UNL     1     -31.496  -0.201 -35.161  1.00  0.00     0.004 C 
ENDBRANCH  10  11
ENDBRANCH   9  10
ENDBRANCH   8   9
ENDBRANCH   7   8
ENDBRANCH   6   7
ENDBRANCH   5   6
ENDBRANCH   4   5
ENDBRANCH   3   4
ENDBRANCH   2   3
ENDBRANCH   1   2
BRANCH   1  13
ATOM     13  C   UNL     1     -31.056   5.322 -38.097  1.00  0.00     0.000 C 
BRANCH  13  14
ATOM     14  C   UNL     1     -32.458   4.700 -38.227  1.00  0.00     0.000 C 
BRANCH  14  15
ATOM     15  C   UNL     1     -32.419   3.284 -38.825  1.00  0.00     0.000 C 
BRANCH  15  16
ATOM     16  C   UNL     1     -33.282   2.288 -38.033  1.00  0.00     0.000 C 
BRANCH  16  17
ATOM     17  C   UNL     1     -33.030   0.828 -38.448  1.00  0.00     0.000 C 
BRANCH  17  18
ATOM     18  C   UNL     1     -31.626   0.552 -39.021  1.00  0.00     0.000 C 
BRANCH  18  19
ATOM     19  C   UNL     1     -31.238  -0.942 -39.021  1.00  0.00     0.000 C 
BRANCH  19  20
ATOM     20  C   UNL     1     -30.087  -1.244 -39.996  1.00  0.00     0.006 C 
BRANCH  20  21
ATOM     21  C   UNL     1     -28.712  -1.109 -39.328  1.00  0.00     0.053 C 
BRANCH  21  22
ATOM     22  C   UNL     1     -27.938  -2.391 -39.397  1.00  0.00     0.041 C 
ATOM     23  O   UNL     1     -28.532  -3.496 -39.286  1.00  0.00    -0.550 OA
ATOM     24  O   UNL     1     -26.558  -2.364 -39.554  1.00  0.00    -0.550 OA
ENDBRANCH  21  22
ENDBRANCH  20  21
ENDBRANCH  19  20
ENDBRANCH  18  19
ENDBRANCH  17  18
ENDBRANCH  16  17
ENDBRANCH  15  16
ENDBRANCH  14  15
ENDBRANCH  13  14
ENDBRANCH   1  13
TORSDOF 20
ENDMDL
MODEL 4
REMARK VINA RESULT:    -3.338     11.494     15.078
REMARK INTER + INTRA:         -10.429
REMARK INTER:                  -7.132
REMARK INTRA:                  -3.297
REMARK UNBOUND:                -3.188
REMARK SMILES CCCCCCCCCCCCCCCCCCCCCC(=O)[O-]
REMARK SMILES IDX 12 1 11 2 10 3 9 4 8 5 7 6 6 7 5 8 4 9 3 10 2 11 1 12 13 13
REMARK SMILES IDX 14 14 15 15 16 16 17 17 18 18 19 19 20 20 21 21 22 22 23 23
REMARK SMILES IDX 24 24
REMARK H PARENT
REMARK Flexibility Score: inf
ROOT
ATOM      1  C   UNL     1     -30.213   4.089 -39.374  1.00  0.00     0.000 C 
ENDROOT
BRANCH   1   2
ATOM      2  C   UNL     1     -31.706   3.786 -39.568  1.00  0.00     0.000 C 
BRANCH   2   3
ATOM      3  C   UNL     1     -31.989   2.291 -39.376  1.00  0.00     0.000 C 
BRANCH   3   4
ATOM      4  C   UNL     1     -30.688   1.479 -39.362  1.00  0.00    -0.000 C 
BRANCH   4   5
ATOM      5  C   UNL     1     -30.909   0.100 -38.730  1.00  0.00    -0.000 C 
BRANCH   5   6
ATOM      6  C   UNL     1     -32.191   0.079 -37.884  1.00  0.00    -0.000 C 
BRANCH   6   7
ATOM      7  C   UNL     1     -31.940  -0.398 -36.445  1.00  0.00    -0.000 C 
BRANCH   7   8
ATOM      8  C   UNL     1     -30.528  -0.051 -35.944  1.00  0.00    -0.000 C 
BRANCH   8   9
ATOM      9  C   UNL     1     -30.506   1.209 -35.063  1.00  0.00    -0.000 C 
BRANCH   9  10
ATOM     10  C   UNL     1     -29.738   2.373 -35.715  1.00  0.00    -0.000 C 
BRANCH  10  11
ATOM     11  C   UNL     1     -30.546   3.680 -35.728  1.00  0.00    -0.003 C 
ATOM     12  C   UNL     1     -32.051   3.442 -35.838  1.00  0.00     0.004 C 
ENDBRANCH  10  11
ENDBRANCH   9  10
ENDBRANCH   8   9
ENDBRANCH   7   8
ENDBRANCH   6   7
ENDBRANCH   5   6
ENDBRANCH   4   5
ENDBRANCH   3   4
ENDBRANCH   2   3
ENDBRANCH   1   2
BRANCH   1  13
ATOM     13  C   UNL     1     -29.947   5.562 -39.024  1.00  0.00     0.000 C 
BRANCH  13  14
ATOM     14  C   UNL     1     -28.626   5.759 -38.260  1.00  0.00     0.000 C 
BRANCH  14  15
ATOM     15  C   UNL     1     -27.862   4.441 -38.057  1.00  0.00     0.000 C 
BRANCH  15  16
ATOM     16  C   UNL     1     -26.660   4.599 -37.109  1.00  0.00     0.000 C 
BRANCH  16  17
ATOM     17  C   UNL     1     -27.012   5.386 -35.835  1.00  0.00     0.000 C 
BRANCH  17  18
ATOM     18  C   UNL     1     -25.983   5.262 -34.693  1.00  0.00     0.000 C 
BRANCH  18  19
ATOM     19  C   UNL     1     -26.064   3.924 -33.929  1.00  0.00     0.000 C 
BRANCH  19  20
ATOM     20  C   UNL     1     -25.022   3.834 -32.801  1.00  0.00     0.006 C 
BRANCH  20  21
ATOM     21  C   UNL     1     -24.267   5.155 -32.604  1.00  0.00     0.053 C 
BRANCH  21  22
ATOM     22  C   UNL     1     -24.559   5.761 -31.264  1.00  0.00     0.041 C 
ATOM     23  O   UNL     1     -23.787   6.631 -30.781  1.00  0.00    -0.550 OA
ATOM     24  O   UNL     1     -25.667   5.343 -30.537  1.00  0.00    -0.550 OA
ENDBRANCH  21  22
ENDBRANCH  20  21
ENDBRANCH  19  20
ENDBRANCH  18  19
ENDBRANCH  17  18
ENDBRANCH  16  17
ENDBRANCH  15  16
ENDBRANCH  14  15
ENDBRANCH  13  14
ENDBRANCH   1  13
TORSDOF 20
ENDMDL
MODEL 5
REMARK VINA RESULT:    -3.335     10.401     13.908
REMARK INTER + INTRA:         -10.423
REMARK INTER:                  -6.888
REMARK INTRA:                  -3.534
REMARK UNBOUND:                -3.188
REMARK SMILES CCCCCCCCCCCCCCCCCCCCCC(=O)[O-]
REMARK SMILES IDX 12 1 11 2 10 3 9 4 8 5 7 6 6 7 5 8 4 9 3 10 2 11 1 12 13 13
REMARK SMILES IDX 14 14 15 15 16 16 17 17 18 18 19 19 20 20 21 21 22 22 23 23
REMARK SMILES IDX 24 24
REMARK H PARENT
REMARK Flexibility Score: inf
ROOT
ATOM      1  C   UNL     1     -29.312   1.901 -35.343  1.00  0.00     0.000 C 
ENDROOT
BRANCH   1   2
ATOM      2  C   UNL     1     -29.976   0.818 -34.478  1.00  0.00     0.000 C 
BRANCH   2   3
ATOM      3  C   UNL     1     -31.200   0.229 -35.186  1.00  0.00     0.000 C 
BRANCH   3   4
ATOM      4  C   UNL     1     -31.057  -1.287 -35.373  1.00  0.00    -0.000 C 
BRANCH   4   5
ATOM      5  C   UNL     1     -29.612  -1.662 -35.723  1.00  0.00    -0.000 C 
BRANCH   5   6
ATOM      6  C   UNL     1     -29.458  -1.923 -37.228  1.00  0.00    -0.000 C 
BRANCH   6   7
ATOM      7  C   UNL     1     -28.847  -0.727 -37.975  1.00  0.00    -0.000 C 
BRANCH   7   8
ATOM      8  C   UNL     1     -29.889   0.054 -38.793  1.00  0.00    -0.000 C 
BRANCH   8   9
ATOM      9  C   UNL     1     -31.163  -0.762 -39.061  1.00  0.00    -0.000 C 
BRANCH   9  10
ATOM     10  C   UNL     1     -32.443  -0.014 -38.643  1.00  0.00    -0.000 C 
BRANCH  10  11
ATOM     11  C   UNL     1     -32.306   1.511 -38.779  1.00  0.00    -0.003 C 
ATOM     12  C   UNL     1     -33.175   2.272 -37.779  1.00  0.00     0.004 C 
ENDBRANCH  10  11
ENDBRANCH   9  10
ENDBRANCH   8   9
ENDBRANCH   7   8
ENDBRANCH   6   7
ENDBRANCH   5   6
ENDBRANCH   4   5
ENDBRANCH   3   4
ENDBRANCH   2   3
ENDBRANCH   1   2
BRANCH   1  13
ATOM     13  C   UNL     1     -30.113   3.211 -35.372  1.00  0.00     0.000 C 
BRANCH  13  14
ATOM     14  C   UNL     1     -30.055   3.909 -36.743  1.00  0.00     0.000 C 
BRANCH  14  15
ATOM     15  C   UNL     1     -28.923   3.368 -37.631  1.00  0.00     0.000 C 
BRANCH  15  16
ATOM     16  C   UNL     1     -27.898   4.454 -38.002  1.00  0.00     0.000 C 
BRANCH  16  17
ATOM     17  C   UNL     1     -26.688   4.474 -37.052  1.00  0.00     0.000 C 
BRANCH  17  18
ATOM     18  C   UNL     1     -26.697   5.618 -36.019  1.00  0.00     0.000 C 
BRANCH  18  19
ATOM     19  C   UNL     1     -26.964   5.147 -34.574  1.00  0.00     0.000 C 
BRANCH  19  20
ATOM     20  C   UNL     1     -25.664   4.946 -33.777  1.00  0.00     0.006 C 
BRANCH  20  21
ATOM     21  C   UNL     1     -25.221   3.477 -33.752  1.00  0.00     0.053 C 
BRANCH  21  22
ATOM     22  C   UNL     1     -23.731   3.350 -33.854  1.00  0.00     0.041 C 
ATOM     23  O   UNL     1     -23.001   4.372 -33.776  1.00  0.00    -0.550 OA
ATOM     24  O   UNL     1     -23.152   2.104 -34.064  1.00  0.00    -0.550 OA
ENDBRANCH  21  22
ENDBRANCH  20  21
ENDBRANCH  19  20
ENDBRANCH  18  19
ENDBRANCH  17  18
ENDBRANCH  16  17
ENDBRANCH  15  16
ENDBRANCH  14  15
ENDBRANCH  13  14
ENDBRANCH   1  13
TORSDOF 20
ENDMDL
MODEL 6
REMARK VINA RESULT:    -3.331     11.556     14.786
REMARK INTER + INTRA:         -10.413
REMARK INTER:                  -7.183
REMARK INTRA:                  -3.230
REMARK UNBOUND:                -3.188
REMARK SMILES CCCCCCCCCCCCCCCCCCCCCC(=O)[O-]
REMARK SMILES IDX 12 1 11 2 10 3 9 4 8 5 7 6 6 7 5 8 4 9 3 10 2 11 1 12 13 13
REMARK SMILES IDX 14 14 15 15 16 16 17 17 18 18 19 19 20 20 21 21 22 22 23 23
REMARK SMILES IDX 24 24
REMARK H PARENT
REMARK Flexibility Score: inf
ROOT
ATOM      1  C   UNL     1     -30.159   0.559 -35.445  1.00  0.00     0.000 C 
ENDROOT
BRANCH   1   2
ATOM      2  C   UNL     1     -30.722  -0.545 -36.351  1.00  0.00     0.000 C 
BRANCH   2   3
ATOM      3  C   UNL     1     -30.152  -0.431 -37.770  1.00  0.00     0.000 C 
BRANCH   3   4
ATOM      4  C   UNL     1     -31.274  -0.380 -38.815  1.00  0.00    -0.000 C 
BRANCH   4   5
ATOM      5  C   UNL     1     -32.578   0.135 -38.196  1.00  0.00    -0.000 C 
BRANCH   5   6
ATOM      6  C   UNL     1     -33.146   1.312 -39.003  1.00  0.00    -0.000 C 
BRANCH   6   7
ATOM      7  C   UNL     1     -32.075   2.353 -39.360  1.00  0.00    -0.000 C 
BRANCH   7   8
ATOM      8  C   UNL     1     -32.666   3.609 -40.021  1.00  0.00    -0.000 C 
BRANCH   8   9
ATOM      9  C   UNL     1     -32.106   4.910 -39.426  1.00  0.00    -0.000 C 
BRANCH   9  10
ATOM     10  C   UNL     1     -32.790   5.297 -38.102  1.00  0.00    -0.000 C 
BRANCH  10  11
ATOM     11  C   UNL     1     -34.306   5.044 -38.124  1.00  0.00    -0.003 C 
ATOM     12  C   UNL     1     -34.760   4.086 -37.024  1.00  0.00     0.004 C 
ENDBRANCH  10  11
ENDBRANCH   9  10
ENDBRANCH   8   9
ENDBRANCH   7   8
ENDBRANCH   6   7
ENDBRANCH   5   6
ENDBRANCH   4   5
ENDBRANCH   3   4
ENDBRANCH   2   3
ENDBRANCH   1   2
BRANCH   1  13
ATOM     13  C   UNL     1     -31.250   1.492 -34.897  1.00  0.00     0.000 C 
BRANCH  13  14
ATOM     14  C   UNL     1     -31.435   2.756 -35.755  1.00  0.00     0.000 C 
BRANCH  14  15
ATOM     15  C   UNL     1     -30.170   3.629 -35.794  1.00  0.00     0.000 C 
BRANCH  15  16
ATOM     16  C   UNL     1     -29.539   3.686 -37.196  1.00  0.00     0.000 C 
BRANCH  16  17
ATOM     17  C   UNL     1     -28.032   3.377 -37.177  1.00  0.00     0.000 C 
BRANCH  17  18
ATOM     18  C   UNL     1     -27.121   4.580 -37.492  1.00  0.00     0.000 C 
BRANCH  18  19
ATOM     19  C   UNL     1     -26.812   5.463 -36.265  1.00  0.00     0.000 C 
BRANCH  19  20
ATOM     20  C   UNL     1     -26.573   4.630 -34.994  1.00  0.00     0.006 C 
BRANCH  20  21
ATOM     21  C   UNL     1     -25.158   4.038 -34.947  1.00  0.00     0.053 C 
BRANCH  21  22
ATOM     22  C   UNL     1     -24.376   4.573 -33.785  1.00  0.00     0.041 C 
ATOM     23  O   UNL     1     -24.812   5.552 -33.126  1.00  0.00    -0.550 OA
ATOM     24  O   UNL     1     -23.153   4.006 -33.449  1.00  0.00    -0.550 OA
ENDBRANCH  21  22
ENDBRANCH  20  21
ENDBRANCH  19  20
ENDBRANCH  18  19
ENDBRANCH  17  18
ENDBRANCH  16  17
ENDBRANCH  15  16
ENDBRANCH  14  15
ENDBRANCH  13  14
ENDBRANCH   1  13
TORSDOF 20
ENDMDL
MODEL 7
REMARK VINA RESULT:    -3.300     10.709     14.275
REMARK INTER + INTRA:         -10.346
REMARK INTER:                  -6.420
REMARK INTRA:                  -3.926
REMARK UNBOUND:                -3.188
REMARK SMILES CCCCCCCCCCCCCCCCCCCCCC(=O)[O-]
REMARK SMILES IDX 12 1 11 2 10 3 9 4 8 5 7 6 6 7 5 8 4 9 3 10 2 11 1 12 13 13
REMARK SMILES IDX 14 14 15 15 16 16 17 17 18 18 19 19 20 20 21 21 22 22 23 23
REMARK SMILES IDX 24 24
REMARK H PARENT
REMARK Flexibility Score: inf
ROOT
ATOM      1  C   UNL     1     -32.089   1.326 -39.380  1.00  0.00     0.000 C 
ENDROOT
BRANCH   1   2
ATOM      2  C   UNL     1     -33.227   1.444 -38.354  1.00  0.00     0.000 C 
BRANCH   2   3
ATOM      3  C   UNL     1     -32.816   2.346 -37.185  1.00  0.00     0.000 C 
BRANCH   3   4
ATOM      4  C   UNL     1     -32.408   3.741 -37.678  1.00  0.00    -0.000 C 
BRANCH   4   5
ATOM      5  C   UNL     1     -31.513   4.445 -36.652  1.00  0.00    -0.000 C 
BRANCH   5   6
ATOM      6  C   UNL     1     -31.240   3.539 -35.442  1.00  0.00    -0.000 C 
BRANCH   6   7
ATOM      7  C   UNL     1     -29.788   3.634 -34.951  1.00  0.00    -0.000 C 
BRANCH   7   8
ATOM      8  C   UNL     1     -29.109   2.258 -34.838  1.00  0.00    -0.000 C 
BRANCH   8   9
ATOM      9  C   UNL     1     -29.817   1.181 -35.676  1.00  0.00    -0.000 C 
BRANCH   9  10
ATOM     10  C   UNL     1     -30.434   0.069 -34.807  1.00  0.00    -0.000 C 
BRANCH  10  11
ATOM     11  C   UNL     1     -30.998  -1.090 -35.645  1.00  0.00    -0.003 C 
ATOM     12  C   UNL     1     -29.903  -1.954 -36.268  1.00  0.00     0.004 C 
ENDBRANCH  10  11
ENDBRANCH   9  10
ENDBRANCH   8   9
ENDBRANCH   7   8
ENDBRANCH   6   7
ENDBRANCH   5   6
ENDBRANCH   4   5
ENDBRANCH   3   4
ENDBRANCH   2   3
ENDBRANCH   1   2
BRANCH   1  13
ATOM     13  C   UNL     1     -31.074   0.231 -39.018  1.00  0.00     0.000 C 
BRANCH  13  14
ATOM     14  C   UNL     1     -29.619   0.673 -39.251  1.00  0.00     0.000 C 
BRANCH  14  15
ATOM     15  C   UNL     1     -29.510   2.157 -39.638  1.00  0.00     0.000 C 
BRANCH  15  16
ATOM     16  C   UNL     1     -28.619   2.953 -38.667  1.00  0.00     0.000 C 
BRANCH  16  17
ATOM     17  C   UNL     1     -28.632   4.463 -38.959  1.00  0.00     0.000 C 
BRANCH  17  18
ATOM     18  C   UNL     1     -28.137   5.349 -37.798  1.00  0.00     0.000 C 
BRANCH  18  19
ATOM     19  C   UNL     1     -26.964   4.735 -37.005  1.00  0.00     0.000 C 
BRANCH  19  20
ATOM     20  C   UNL     1     -26.375   5.720 -35.981  1.00  0.00     0.006 C 
BRANCH  20  21
ATOM     21  C   UNL     1     -26.558   5.232 -34.537  1.00  0.00     0.053 C 
BRANCH  21  22
ATOM     22  C   UNL     1     -25.239   4.999 -33.863  1.00  0.00     0.041 C 
ATOM     23  O   UNL     1     -24.340   4.339 -34.445  1.00  0.00    -0.550 OA
ATOM     24  O   UNL     1     -25.017   5.486 -32.582  1.00  0.00    -0.550 OA
ENDBRANCH  21  22
ENDBRANCH  20  21
ENDBRANCH  19  20
ENDBRANCH  18  19
ENDBRANCH  17  18
ENDBRANCH  16  17
ENDBRANCH  15  16
ENDBRANCH  14  15
ENDBRANCH  13  14
ENDBRANCH   1  13
TORSDOF 20
ENDMDL
MODEL 8
REMARK VINA RESULT:    -3.279      7.579     12.230
REMARK INTER + INTRA:         -10.300
REMARK INTER:                  -7.140
REMARK INTRA:                  -3.159
REMARK UNBOUND:                -3.188
REMARK SMILES CCCCCCCCCCCCCCCCCCCCCC(=O)[O-]
REMARK SMILES IDX 12 1 11 2 10 3 9 4 8 5 7 6 6 7 5 8 4 9 3 10 2 11 1 12 13 13
REMARK SMILES IDX 14 14 15 15 16 16 17 17 18 18 19 19 20 20 21 21 22 22 23 23
REMARK SMILES IDX 24 24
REMARK H PARENT
REMARK Flexibility Score: inf
ROOT
ATOM      1  C   UNL     1     -30.555   0.525 -39.391  1.00  0.00     0.000 C 
ENDROOT
BRANCH   1   2
ATOM      2  C   UNL     1     -29.264  -0.188 -39.822  1.00  0.00     0.000 C 
BRANCH   2   3
ATOM      3  C   UNL     1     -29.225  -1.622 -39.281  1.00  0.00     0.000 C 
BRANCH   3   4
ATOM      4  C   UNL     1     -28.162  -1.772 -38.186  1.00  0.00    -0.000 C 
BRANCH   4   5
ATOM      5  C   UNL     1     -28.780  -2.316 -36.893  1.00  0.00    -0.000 C 
BRANCH   5   6
ATOM      6  C   UNL     1     -29.474  -1.199 -36.100  1.00  0.00    -0.000 C 
BRANCH   6   7
ATOM      7  C   UNL     1     -30.883  -1.596 -35.632  1.00  0.00    -0.000 C 
BRANCH   7   8
ATOM      8  C   UNL     1     -31.437  -0.650 -34.554  1.00  0.00    -0.000 C 
BRANCH   8   9
ATOM      9  C   UNL     1     -32.542  -1.302 -33.707  1.00  0.00    -0.000 C 
BRANCH   9  10
ATOM     10  C   UNL     1     -32.452  -2.839 -33.701  1.00  0.00    -0.000 C 
BRANCH  10  11
ATOM     11  C   UNL     1     -33.831  -3.511 -33.622  1.00  0.00    -0.003 C 
ATOM     12  C   UNL     1     -33.764  -4.933 -33.065  1.00  0.00     0.004 C 
ENDBRANCH  10  11
ENDBRANCH   9  10
ENDBRANCH   8   9
ENDBRANCH   7   8
ENDBRANCH   6   7
ENDBRANCH   5   6
ENDBRANCH   4   5
ENDBRANCH   3   4
ENDBRANCH   2   3
ENDBRANCH   1   2
BRANCH   1  13
ATOM     13  C   UNL     1     -31.627  -0.448 -38.878  1.00  0.00     0.000 C 
BRANCH  13  14
ATOM     14  C   UNL     1     -32.928   0.267 -38.471  1.00  0.00     0.000 C 
BRANCH  14  15
ATOM     15  C   UNL     1     -32.955   1.737 -38.917  1.00  0.00     0.000 C 
BRANCH  15  16
ATOM     16  C   UNL     1     -33.101   2.708 -37.732  1.00  0.00     0.000 C 
BRANCH  16  17
ATOM     17  C   UNL     1     -31.759   3.332 -37.312  1.00  0.00     0.000 C 
BRANCH  17  18
ATOM     18  C   UNL     1     -30.978   2.531 -36.251  1.00  0.00     0.000 C 
BRANCH  18  19
ATOM     19  C   UNL     1     -29.528   3.021 -36.047  1.00  0.00     0.000 C 
BRANCH  19  20
ATOM     20  C   UNL     1     -28.541   2.330 -37.003  1.00  0.00     0.006 C 
BRANCH  20  21
ATOM     21  C   UNL     1     -28.238   3.185 -38.240  1.00  0.00     0.053 C 
BRANCH  21  22
ATOM     22  C   UNL     1     -27.847   4.582 -37.862  1.00  0.00     0.041 C 
ATOM     23  O   UNL     1     -28.545   5.559 -38.240  1.00  0.00    -0.550 OA
ATOM     24  O   UNL     1     -26.696   4.805 -37.116  1.00  0.00    -0.550 OA
ENDBRANCH  21  22
ENDBRANCH  20  21
ENDBRANCH  19  20
ENDBRANCH  18  19
ENDBRANCH  17  18
ENDBRANCH  16  17
ENDBRANCH  15  16
ENDBRANCH  14  15
ENDBRANCH  13  14
ENDBRANCH   1  13
TORSDOF 20
ENDMDL
MODEL 9
REMARK VINA RESULT:    -3.201     11.665     14.584
REMARK INTER + INTRA:         -10.130
REMARK INTER:                  -6.200
REMARK INTRA:                  -3.930
REMARK UNBOUND:                -3.188
REMARK SMILES CCCCCCCCCCCCCCCCCCCCCC(=O)[O-]
REMARK SMILES IDX 12 1 11 2 10 3 9 4 8 5 7 6 6 7 5 8 4 9 3 10 2 11 1 12 13 13
REMARK SMILES IDX 14 14 15 15 16 16 17 17 18 18 19 19 20 20 21 21 22 22 23 23
REMARK SMILES IDX 24 24
REMARK H PARENT
REMARK Flexibility Score: inf
ROOT
ATOM      1  C   UNL     1     -30.925  -0.833 -36.893  1.00  0.00     0.000 C 
ENDROOT
BRANCH   1   2
ATOM      2  C   UNL     1     -31.487   0.548 -37.261  1.00  0.00     0.000 C 
BRANCH   2   3
ATOM      3  C   UNL     1     -32.917   0.428 -37.802  1.00  0.00     0.000 C 
BRANCH   3   4
ATOM      4  C   UNL     1     -33.138   1.367 -38.995  1.00  0.00    -0.000 C 
BRANCH   4   5
ATOM      5  C   UNL     1     -31.899   2.233 -39.249  1.00  0.00    -0.000 C 
BRANCH   5   6
ATOM      6  C   UNL     1     -32.263   3.501 -40.034  1.00  0.00    -0.000 C 
BRANCH   6   7
ATOM      7  C   UNL     1     -31.254   4.639 -39.817  1.00  0.00    -0.000 C 
BRANCH   7   8
ATOM      8  C   UNL     1     -31.022   4.949 -38.329  1.00  0.00    -0.000 C 
BRANCH   8   9
ATOM      9  C   UNL     1     -32.287   5.469 -37.629  1.00  0.00    -0.000 C 
BRANCH   9  10
ATOM     10  C   UNL     1     -32.418   4.954 -36.184  1.00  0.00    -0.000 C 
BRANCH  10  11
ATOM     11  C   UNL     1     -31.380   3.872 -35.847  1.00  0.00    -0.003 C 
ATOM     12  C   UNL     1     -31.415   3.459 -34.376  1.00  0.00     0.004 C 
ENDBRANCH  10  11
ENDBRANCH   9  10
ENDBRANCH   8   9
ENDBRANCH   7   8
ENDBRANCH   6   7
ENDBRANCH   5   6
ENDBRANCH   4   5
ENDBRANCH   3   4
ENDBRANCH   2   3
ENDBRANCH   1   2
BRANCH   1  13
ATOM     13  C   UNL     1     -29.733  -1.243 -37.771  1.00  0.00     0.000 C 
BRANCH  13  14
ATOM     14  C   UNL     1     -30.105  -1.350 -39.261  1.00  0.00     0.000 C 
BRANCH  14  15
ATOM     15  C   UNL     1     -29.378  -0.308 -40.125  1.00  0.00     0.000 C 
BRANCH  15  16
ATOM     16  C   UNL     1     -28.276   0.434 -39.348  1.00  0.00     0.000 C 
BRANCH  16  17
ATOM     17  C   UNL     1     -28.241   1.939 -39.664  1.00  0.00     0.000 C 
BRANCH  17  18
ATOM     18  C   UNL     1     -28.287   2.860 -38.428  1.00  0.00     0.000 C 
BRANCH  18  19
ATOM     19  C   UNL     1     -28.329   2.096 -37.087  1.00  0.00     0.000 C 
BRANCH  19  20
ATOM     20  C   UNL     1     -27.599   2.853 -35.964  1.00  0.00     0.006 C 
BRANCH  20  21
ATOM     21  C   UNL     1     -26.468   3.739 -36.502  1.00  0.00     0.053 C 
BRANCH  21  22
ATOM     22  C   UNL     1     -26.718   5.188 -36.211  1.00  0.00     0.041 C 
ATOM     23  O   UNL     1     -27.179   5.943 -37.106  1.00  0.00    -0.550 OA
ATOM     24  O   UNL     1     -26.413   5.709 -34.960  1.00  0.00    -0.550 OA
ENDBRANCH  21  22
ENDBRANCH  20  21
ENDBRANCH  19  20
ENDBRANCH  18  19
ENDBRANCH  17  18
ENDBRANCH  16  17
ENDBRANCH  15  16
ENDBRANCH  14  15
ENDBRANCH  13  14
ENDBRANCH   1  13
TORSDOF 20
ENDMDL
