MODEL 1
REMARK VINA RESULT:    -5.634      0.000      0.000
REMARK INTER + INTRA:          -6.940
REMARK INTER:                  -6.622
REMARK INTRA:                  -0.318
REMARK UNBOUND:                -0.318
REMARK SMILES O=c1cc(-c2ccc(O)c(O)c2)oc2cc(O)cc(O)c12
REMARK SMILES IDX 4 1 3 2 2 3 1 4 21 5 19 6 18 7 16 8 15 9 14 10 13 11 5 12
REMARK SMILES IDX 6 13 7 14 8 15 12 16 10 17 9 18 11 20 20 22 17 24
REMARK H PARENT 9 19 11 21 20 23 17 25
REMARK Flexibility Score: inf
ROOT
ATOM      1  C   UNL     1     214.039 216.619 220.106  1.00  0.00     0.138 A 
ATOM      2  C   UNL     1     213.297 215.429 220.111  1.00  0.00     0.100 A 
ATOM      3  C   UNL     1     213.962 214.202 220.113  1.00  0.00     0.197 A 
ATOM      4  O   UNL     1     213.269 213.153 220.054  1.00  0.00    -0.289 OA
ATOM      5  C   UNL     1     215.377 214.167 220.143  1.00  0.00     0.107 A 
ATOM      6  C   UNL     1     216.159 212.975 220.188  1.00  0.00     0.134 A 
ATOM      7  C   UNL     1     217.554 213.062 220.097  1.00  0.00     0.093 A 
ATOM      8  C   UNL     1     218.196 214.297 220.022  1.00  0.00     0.123 A 
ATOM      9  C   UNL     1     217.443 215.472 220.032  1.00  0.00     0.094 A 
ATOM     10  C   UNL     1     216.048 215.418 220.086  1.00  0.00     0.146 A 
ATOM     11  O   UNL     1     215.366 216.559 220.078  1.00  0.00    -0.456 OA
ENDROOT
BRANCH   1  12
ATOM     12  C   UNL     1     213.384 217.951 220.105  1.00  0.00     0.021 A 
ATOM     13  C   UNL     1     211.982 218.086 220.105  1.00  0.00     0.016 A 
ATOM     14  C   UNL     1     211.393 219.353 220.114  1.00  0.00     0.051 A 
ATOM     15  C   UNL     1     212.186 220.503 220.133  1.00  0.00     0.157 A 
ATOM     16  C   UNL     1     214.176 219.113 220.137  1.00  0.00     0.062 A 
ATOM     17  C   UNL     1     213.585 220.384 220.146  1.00  0.00     0.158 A 
BRANCH  15  18
ATOM     18  O   UNL     1     211.567 221.753 220.140  1.00  0.00    -0.504 OA
ATOM     19  H   UNL     1     210.659 221.902 220.564  1.00  0.00     0.293 HD
ENDBRANCH  15  18
BRANCH  17  20
ATOM     20  O   UNL     1     214.382 221.527 220.169  1.00  0.00    -0.504 OA
ATOM     21  H   UNL     1     215.386 221.477 220.044  1.00  0.00     0.293 HD
ENDBRANCH  17  20
ENDBRANCH   1  12
BRANCH   6  22
ATOM     22  O   UNL     1     215.622 211.694 220.345  1.00  0.00    -0.507 OA
ATOM     23  H   UNL     1     215.014 211.412 221.099  1.00  0.00     0.293 HD
ENDBRANCH   6  22
BRANCH   8  24
ATOM     24  O   UNL     1     219.586 214.346 219.947  1.00  0.00    -0.508 OA
ATOM     25  H   UNL     1     220.130 213.542 219.656  1.00  0.00     0.293 HD
ENDBRANCH   8  24
TORSDOF 5
ENDMDL
MODEL 2
REMARK VINA RESULT:    -5.634      3.995      9.022
REMARK INTER + INTRA:          -6.939
REMARK INTER:                  -6.622
REMARK INTRA:                  -0.318
REMARK UNBOUND:                -0.318
REMARK SMILES O=c1cc(-c2ccc(O)c(O)c2)oc2cc(O)cc(O)c12
REMARK SMILES IDX 4 1 3 2 2 3 1 4 21 5 19 6 18 7 16 8 15 9 14 10 13 11 5 12
REMARK SMILES IDX 6 13 7 14 8 15 12 16 10 17 9 18 11 20 20 22 17 24
REMARK H PARENT 9 19 11 21 20 23 17 25
REMARK Flexibility Score: inf
ROOT
ATOM      1  C   UNL     1     220.334 217.778 220.090  1.00  0.00     0.138 A 
ATOM      2  C   UNL     1     221.074 218.969 220.086  1.00  0.00     0.100 A 
ATOM      3  C   UNL     1     220.408 220.195 220.094  1.00  0.00     0.197 A 
ATOM      4  O   UNL     1     221.098 221.245 220.027  1.00  0.00    -0.289 OA
ATOM      5  C   UNL     1     218.993 220.227 220.137  1.00  0.00     0.107 A 
ATOM      6  C   UNL     1     218.210 221.419 220.188  1.00  0.00     0.134 A 
ATOM      7  C   UNL     1     216.814 221.329 220.111  1.00  0.00     0.093 A 
ATOM      8  C   UNL     1     216.173 220.093 220.043  1.00  0.00     0.123 A 
ATOM      9  C   UNL     1     216.928 218.919 220.047  1.00  0.00     0.094 A 
ATOM     10  C   UNL     1     218.324 218.976 220.088  1.00  0.00     0.146 A 
ATOM     11  O   UNL     1     219.007 217.836 220.074  1.00  0.00    -0.456 OA
ENDROOT
BRANCH   1  12
ATOM     12  C   UNL     1     220.991 216.447 220.083  1.00  0.00     0.021 A 
ATOM     13  C   UNL     1     222.393 216.313 220.054  1.00  0.00     0.016 A 
ATOM     14  C   UNL     1     222.984 215.048 220.059  1.00  0.00     0.051 A 
ATOM     15  C   UNL     1     222.194 213.896 220.102  1.00  0.00     0.157 A 
ATOM     16  C   UNL     1     220.202 215.284 220.140  1.00  0.00     0.062 A 
ATOM     17  C   UNL     1     220.795 214.013 220.144  1.00  0.00     0.158 A 
BRANCH  15  18
ATOM     18  O   UNL     1     222.815 212.647 220.105  1.00  0.00    -0.504 OA
ATOM     19  H   UNL     1     223.818 212.545 220.194  1.00  0.00     0.293 HD
ENDBRANCH  15  18
BRANCH  17  20
ATOM     20  O   UNL     1     220.000 212.869 220.191  1.00  0.00    -0.504 OA
ATOM     21  H   UNL     1     219.906 212.255 219.391  1.00  0.00     0.293 HD
ENDBRANCH  17  20
ENDBRANCH   1  12
BRANCH   6  22
ATOM     22  O   UNL     1     218.746 222.700 220.340  1.00  0.00    -0.507 OA
ATOM     23  H   UNL     1     218.905 223.352 219.587  1.00  0.00     0.293 HD
ENDBRANCH   6  22
BRANCH   8  24
ATOM     24  O   UNL     1     214.783 220.042 219.981  1.00  0.00    -0.508 OA
ATOM     25  H   UNL     1     214.206 220.354 220.754  1.00  0.00     0.293 HD
ENDBRANCH   8  24
TORSDOF 5
ENDMDL
MODEL 3
REMARK VINA RESULT:    -5.560      4.469      8.813
REMARK INTER + INTRA:          -6.853
REMARK INTER:                  -6.559
REMARK INTRA:                  -0.294
REMARK UNBOUND:                -0.318
REMARK SMILES O=c1cc(-c2ccc(O)c(O)c2)oc2cc(O)cc(O)c12
REMARK SMILES IDX 4 1 3 2 2 3 1 4 21 5 19 6 18 7 16 8 15 9 14 10 13 11 5 12
REMARK SMILES IDX 6 13 7 14 8 15 12 16 10 17 9 18 11 20 20 22 17 24
REMARK H PARENT 9 19 11 21 20 23 17 25
REMARK Flexibility Score: inf
ROOT
ATOM      1  C   UNL     1     219.957 217.439 220.063  1.00  0.00     0.138 A 
ATOM      2  C   UNL     1     218.556 217.441 220.141  1.00  0.00     0.100 A 
ATOM      3  C   UNL     1     217.868 218.655 220.139  1.00  0.00     0.197 A 
ATOM      4  O   UNL     1     216.617 218.627 220.273  1.00  0.00    -0.289 OA
ATOM      5  C   UNL     1     218.584 219.870 220.027  1.00  0.00     0.107 A 
ATOM      6  C   UNL     1     217.984 221.164 219.974  1.00  0.00     0.134 A 
ATOM      7  C   UNL     1     218.800 222.302 219.980  1.00  0.00     0.093 A 
ATOM      8  C   UNL     1     220.190 222.194 219.976  1.00  0.00     0.123 A 
ATOM      9  C   UNL     1     220.787 220.932 219.972  1.00  0.00     0.094 A 
ATOM     10  C   UNL     1     220.001 219.778 220.003  1.00  0.00     0.146 A 
ATOM     11  O   UNL     1     220.608 218.595 220.014  1.00  0.00    -0.456 OA
ENDROOT
BRANCH   1  12
ATOM     12  C   UNL     1     220.739 216.177 220.060  1.00  0.00     0.021 A 
ATOM     13  C   UNL     1     222.142 216.176 219.937  1.00  0.00     0.016 A 
ATOM     14  C   UNL     1     222.853 214.974 219.947  1.00  0.00     0.051 A 
ATOM     15  C   UNL     1     222.184 213.756 220.089  1.00  0.00     0.157 A 
ATOM     16  C   UNL     1     220.072 214.948 220.214  1.00  0.00     0.062 A 
ATOM     17  C   UNL     1     220.786 213.741 220.224  1.00  0.00     0.158 A 
BRANCH  15  18
ATOM     18  O   UNL     1     222.922 212.572 220.094  1.00  0.00    -0.504 OA
ATOM     19  H   UNL     1     223.934 212.569 220.051  1.00  0.00     0.293 HD
ENDBRANCH  15  18
BRANCH  17  20
ATOM     20  O   UNL     1     220.112 212.530 220.369  1.00  0.00    -0.504 OA
ATOM     21  H   UNL     1     220.313 211.898 221.135  1.00  0.00     0.293 HD
ENDBRANCH  17  20
ENDBRANCH   1  12
BRANCH   6  22
ATOM     22  O   UNL     1     216.607 221.384 219.890  1.00  0.00    -0.507 OA
ATOM     23  H   UNL     1     216.144 221.865 219.134  1.00  0.00     0.293 HD
ENDBRANCH   6  22
BRANCH   8  24
ATOM     24  O   UNL     1     220.970 223.348 219.967  1.00  0.00    -0.508 OA
ATOM     25  H   UNL     1     220.839 224.082 220.653  1.00  0.00     0.293 HD
ENDBRANCH   8  24
TORSDOF 5
ENDMDL
MODEL 4
REMARK VINA RESULT:    -5.547      3.933      6.783
REMARK INTER + INTRA:          -6.838
REMARK INTER:                  -6.543
REMARK INTRA:                  -0.294
REMARK UNBOUND:                -0.318
REMARK SMILES O=c1cc(-c2ccc(O)c(O)c2)oc2cc(O)cc(O)c12
REMARK SMILES IDX 4 1 3 2 2 3 1 4 21 5 19 6 18 7 16 8 15 9 14 10 13 11 5 12
REMARK SMILES IDX 6 13 7 14 8 15 12 16 10 17 9 18 11 20 20 22 17 24
REMARK H PARENT 9 19 11 21 20 23 17 25
REMARK Flexibility Score: inf
ROOT
ATOM      1  C   UNL     1     216.969 219.887 220.069  1.00  0.00     0.138 A 
ATOM      2  C   UNL     1     216.975 218.486 220.126  1.00  0.00     0.100 A 
ATOM      3  C   UNL     1     215.764 217.791 220.125  1.00  0.00     0.197 A 
ATOM      4  O   UNL     1     215.800 216.538 220.241  1.00  0.00    -0.289 OA
ATOM      5  C   UNL     1     214.544 218.502 220.035  1.00  0.00     0.107 A 
ATOM      6  C   UNL     1     213.253 217.896 219.985  1.00  0.00     0.134 A 
ATOM      7  C   UNL     1     212.111 218.706 220.013  1.00  0.00     0.093 A 
ATOM      8  C   UNL     1     212.212 220.096 220.029  1.00  0.00     0.123 A 
ATOM      9  C   UNL     1     213.470 220.700 220.023  1.00  0.00     0.094 A 
ATOM     10  C   UNL     1     214.629 219.920 220.031  1.00  0.00     0.146 A 
ATOM     11  O   UNL     1     215.808 220.533 220.040  1.00  0.00    -0.456 OA
ENDROOT
BRANCH   1  12
ATOM     12  C   UNL     1     218.226 220.676 220.066  1.00  0.00     0.021 A 
ATOM     13  C   UNL     1     218.219 222.081 219.965  1.00  0.00     0.016 A 
ATOM     14  C   UNL     1     219.417 222.798 219.974  1.00  0.00     0.051 A 
ATOM     15  C   UNL     1     220.640 222.133 220.094  1.00  0.00     0.157 A 
ATOM     16  C   UNL     1     219.460 220.014 220.199  1.00  0.00     0.062 A 
ATOM     17  C   UNL     1     220.664 220.734 220.208  1.00  0.00     0.158 A 
BRANCH  15  18
ATOM     18  O   UNL     1     221.820 222.878 220.100  1.00  0.00    -0.504 OA
ATOM     19  H   UNL     1     222.165 223.346 219.270  1.00  0.00     0.293 HD
ENDBRANCH  15  18
BRANCH  17  20
ATOM     20  O   UNL     1     221.880 220.064 220.332  1.00  0.00    -0.504 OA
ATOM     21  H   UNL     1     222.764 220.541 220.206  1.00  0.00     0.293 HD
ENDBRANCH  17  20
ENDBRANCH   1  12
BRANCH   6  22
ATOM     22  O   UNL     1     213.040 216.519 219.883  1.00  0.00    -0.507 OA
ATOM     23  H   UNL     1     213.579 215.815 220.363  1.00  0.00     0.293 HD
ENDBRANCH   6  22
BRANCH   8  24
ATOM     24  O   UNL     1     211.054 220.870 220.042  1.00  0.00    -0.508 OA
ATOM     25  H   UNL     1     211.007 221.763 219.566  1.00  0.00     0.293 HD
ENDBRANCH   8  24
TORSDOF 5
ENDMDL
MODEL 5
REMARK VINA RESULT:    -5.546      1.176      2.696
REMARK INTER + INTRA:          -6.837
REMARK INTER:                  -6.542
REMARK INTRA:                  -0.295
REMARK UNBOUND:                -0.318
REMARK SMILES O=c1cc(-c2ccc(O)c(O)c2)oc2cc(O)cc(O)c12
REMARK SMILES IDX 4 1 3 2 2 3 1 4 21 5 19 6 18 7 16 8 15 9 14 10 13 11 5 12
REMARK SMILES IDX 6 13 7 14 8 15 12 16 10 17 9 18 11 20 20 22 17 24
REMARK H PARENT 9 19 11 21 20 23 17 25
REMARK Flexibility Score: inf
ROOT
ATOM      1  C   UNL     1     214.414 216.948 220.063  1.00  0.00     0.138 A 
ATOM      2  C   UNL     1     215.815 216.945 220.127  1.00  0.00     0.100 A 
ATOM      3  C   UNL     1     216.503 215.731 220.115  1.00  0.00     0.197 A 
ATOM      4  O   UNL     1     217.755 215.758 220.237  1.00  0.00    -0.289 OA
ATOM      5  C   UNL     1     215.785 214.516 220.007  1.00  0.00     0.107 A 
ATOM      6  C   UNL     1     216.383 213.222 219.944  1.00  0.00     0.134 A 
ATOM      7  C   UNL     1     215.567 212.084 219.955  1.00  0.00     0.093 A 
ATOM      8  C   UNL     1     214.178 212.193 219.965  1.00  0.00     0.123 A 
ATOM      9  C   UNL     1     213.581 213.455 219.971  1.00  0.00     0.094 A 
ATOM     10  C   UNL     1     214.368 214.609 219.997  1.00  0.00     0.146 A 
ATOM     11  O   UNL     1     213.762 215.791 220.018  1.00  0.00    -0.456 OA
ENDROOT
BRANCH   1  12
ATOM     12  C   UNL     1     213.632 218.210 220.071  1.00  0.00     0.021 A 
ATOM     13  C   UNL     1     212.229 218.212 219.956  1.00  0.00     0.016 A 
ATOM     14  C   UNL     1     211.518 219.414 219.977  1.00  0.00     0.051 A 
ATOM     15  C   UNL     1     212.188 220.631 220.122  1.00  0.00     0.157 A 
ATOM     16  C   UNL     1     214.300 219.438 220.230  1.00  0.00     0.062 A 
ATOM     17  C   UNL     1     213.587 220.645 220.251  1.00  0.00     0.158 A 
BRANCH  15  18
ATOM     18  O   UNL     1     211.450 221.815 220.138  1.00  0.00    -0.504 OA
ATOM     19  H   UNL     1     211.546 222.519 219.416  1.00  0.00     0.293 HD
ENDBRANCH  15  18
BRANCH  17  20
ATOM     20  O   UNL     1     214.262 221.855 220.400  1.00  0.00    -0.504 OA
ATOM     21  H   UNL     1     215.218 221.973 220.083  1.00  0.00     0.293 HD
ENDBRANCH  17  20
ENDBRANCH   1  12
BRANCH   6  22
ATOM     22  O   UNL     1     217.760 213.002 219.846  1.00  0.00    -0.507 OA
ATOM     23  H   UNL     1     218.355 212.716 220.608  1.00  0.00     0.293 HD
ENDBRANCH   6  22
BRANCH   8  24
ATOM     24  O   UNL     1     213.397 211.039 219.961  1.00  0.00    -0.508 OA
ATOM     25  H   UNL     1     213.429 210.375 220.725  1.00  0.00     0.293 HD
ENDBRANCH   8  24
TORSDOF 5
ENDMDL
MODEL 6
REMARK VINA RESULT:    -5.546      4.787      9.064
REMARK INTER + INTRA:          -6.837
REMARK INTER:                  -6.542
REMARK INTRA:                  -0.294
REMARK UNBOUND:                -0.318
REMARK SMILES O=c1cc(-c2ccc(O)c(O)c2)oc2cc(O)cc(O)c12
REMARK SMILES IDX 4 1 3 2 2 3 1 4 21 5 19 6 18 7 16 8 15 9 14 10 13 11 5 12
REMARK SMILES IDX 6 13 7 14 8 15 12 16 10 17 9 18 11 20 20 22 17 24
REMARK H PARENT 9 19 11 21 20 23 17 25
REMARK Flexibility Score: inf
ROOT
ATOM      1  C   UNL     1     220.569 217.018 220.703  1.00  0.00     0.138 A 
ATOM      2  C   UNL     1     221.853 217.470 221.039  1.00  0.00     0.100 A 
ATOM      3  C   UNL     1     222.125 218.839 221.038  1.00  0.00     0.197 A 
ATOM      4  O   UNL     1     223.302 219.210 221.282  1.00  0.00    -0.289 OA
ATOM      5  C   UNL     1     221.096 219.760 220.728  1.00  0.00     0.107 A 
ATOM      6  C   UNL     1     221.248 221.179 220.735  1.00  0.00     0.134 A 
ATOM      7  C   UNL     1     220.191 221.987 220.298  1.00  0.00     0.093 A 
ATOM      8  C   UNL     1     218.971 221.434 219.913  1.00  0.00     0.123 A 
ATOM      9  C   UNL     1     218.794 220.050 219.954  1.00  0.00     0.094 A 
ATOM     10  C   UNL     1     219.840 219.214 220.351  1.00  0.00     0.146 A 
ATOM     11  O   UNL     1     219.636 217.901 220.363  1.00  0.00    -0.456 OA
ENDROOT
BRANCH   1  12
ATOM     12  C   UNL     1     220.226 215.574 220.690  1.00  0.00     0.021 A 
ATOM     13  C   UNL     1     218.950 215.120 220.302  1.00  0.00     0.016 A 
ATOM     14  C   UNL     1     218.658 213.754 220.290  1.00  0.00     0.051 A 
ATOM     15  C   UNL     1     219.629 212.818 220.653  1.00  0.00     0.157 A 
ATOM     16  C   UNL     1     221.203 214.625 221.042  1.00  0.00     0.062 A 
ATOM     17  C   UNL     1     220.910 213.254 221.031  1.00  0.00     0.158 A 
BRANCH  15  18
ATOM     18  O   UNL     1     219.306 211.461 220.631  1.00  0.00    -0.504 OA
ATOM     19  H   UNL     1     218.431 211.110 221.003  1.00  0.00     0.293 HD
ENDBRANCH  15  18
BRANCH  17  20
ATOM     20  O   UNL     1     221.885 212.326 221.391  1.00  0.00    -0.504 OA
ATOM     21  H   UNL     1     222.156 212.189 222.357  1.00  0.00     0.293 HD
ENDBRANCH  17  20
ENDBRANCH   1  12
BRANCH   6  22
ATOM     22  O   UNL     1     222.396 221.840 221.180  1.00  0.00    -0.507 OA
ATOM     23  H   UNL     1     223.192 221.390 221.606  1.00  0.00     0.293 HD
ENDBRANCH   6  22
BRANCH   8  24
ATOM     24  O   UNL     1     217.937 222.269 219.498  1.00  0.00    -0.508 OA
ATOM     25  H   UNL     1     217.587 222.248 218.547  1.00  0.00     0.293 HD
ENDBRANCH   8  24
TORSDOF 5
ENDMDL
MODEL 7
REMARK VINA RESULT:    -5.539      3.797      6.152
REMARK INTER + INTRA:          -6.828
REMARK INTER:                  -6.534
REMARK INTRA:                  -0.294
REMARK UNBOUND:                -0.318
REMARK SMILES O=c1cc(-c2ccc(O)c(O)c2)oc2cc(O)cc(O)c12
REMARK SMILES IDX 4 1 3 2 2 3 1 4 21 5 19 6 18 7 16 8 15 9 14 10 13 11 5 12
REMARK SMILES IDX 6 13 7 14 8 15 12 16 10 17 9 18 11 20 20 22 17 24
REMARK H PARENT 9 19 11 21 20 23 17 25
REMARK Flexibility Score: inf
ROOT
ATOM      1  C   UNL     1     217.410 214.485 220.059  1.00  0.00     0.138 A 
ATOM      2  C   UNL     1     217.422 215.886 220.102  1.00  0.00     0.100 A 
ATOM      3  C   UNL     1     218.641 216.566 220.088  1.00  0.00     0.197 A 
ATOM      4  O   UNL     1     218.621 217.820 220.191  1.00  0.00    -0.289 OA
ATOM      5  C   UNL     1     219.852 215.839 219.998  1.00  0.00     0.107 A 
ATOM      6  C   UNL     1     221.150 216.428 219.936  1.00  0.00     0.134 A 
ATOM      7  C   UNL     1     222.282 215.605 219.966  1.00  0.00     0.093 A 
ATOM      8  C   UNL     1     222.164 214.216 219.996  1.00  0.00     0.123 A 
ATOM      9  C   UNL     1     220.898 213.628 220.003  1.00  0.00     0.094 A 
ATOM     10  C   UNL     1     219.749 214.422 220.009  1.00  0.00     0.146 A 
ATOM     11  O   UNL     1     218.563 213.824 220.031  1.00  0.00    -0.456 OA
ENDROOT
BRANCH   1  12
ATOM     12  C   UNL     1     216.143 213.711 220.071  1.00  0.00     0.021 A 
ATOM     13  C   UNL     1     216.133 212.306 219.980  1.00  0.00     0.016 A 
ATOM     14  C   UNL     1     214.926 211.603 220.003  1.00  0.00     0.051 A 
ATOM     15  C   UNL     1     213.712 212.284 220.127  1.00  0.00     0.157 A 
ATOM     16  C   UNL     1     214.918 214.390 220.208  1.00  0.00     0.062 A 
ATOM     17  C   UNL     1     213.707 213.684 220.231  1.00  0.00     0.158 A 
BRANCH  15  18
ATOM     18  O   UNL     1     212.523 211.554 220.146  1.00  0.00    -0.504 OA
ATOM     19  H   UNL     1     212.472 210.618 220.531  1.00  0.00     0.293 HD
ENDBRANCH  15  18
BRANCH  17  20
ATOM     20  O   UNL     1     212.500 214.370 220.359  1.00  0.00    -0.504 OA
ATOM     21  H   UNL     1     212.461 215.383 220.358  1.00  0.00     0.293 HD
ENDBRANCH  17  20
ENDBRANCH   1  12
BRANCH   6  22
ATOM     22  O   UNL     1     221.379 217.802 219.818  1.00  0.00    -0.507 OA
ATOM     23  H   UNL     1     221.274 218.470 220.566  1.00  0.00     0.293 HD
ENDBRANCH   6  22
BRANCH   8  24
ATOM     24  O   UNL     1     223.313 213.429 220.011  1.00  0.00    -0.508 OA
ATOM     25  H   UNL     1     223.325 212.502 219.603  1.00  0.00     0.293 HD
ENDBRANCH   8  24
TORSDOF 5
ENDMDL
MODEL 8
REMARK VINA RESULT:    -5.519      3.484      5.024
REMARK INTER + INTRA:          -6.805
REMARK INTER:                  -6.508
REMARK INTRA:                  -0.297
REMARK UNBOUND:                -0.318
REMARK SMILES O=c1cc(-c2ccc(O)c(O)c2)oc2cc(O)cc(O)c12
REMARK SMILES IDX 4 1 3 2 2 3 1 4 21 5 19 6 18 7 16 8 15 9 14 10 13 11 5 12
REMARK SMILES IDX 6 13 7 14 8 15 12 16 10 17 9 18 11 20 20 22 17 24
REMARK H PARENT 9 19 11 21 20 23 17 25
REMARK Flexibility Score: inf
ROOT
ATOM      1  C   UNL     1     216.003 219.304 220.279  1.00  0.00     0.138 A 
ATOM      2  C   UNL     1     216.528 218.052 220.633  1.00  0.00     0.100 A 
ATOM      3  C   UNL     1     217.911 217.874 220.685  1.00  0.00     0.197 A 
ATOM      4  O   UNL     1     218.351 216.723 220.944  1.00  0.00    -0.289 OA
ATOM      5  C   UNL     1     218.772 218.963 220.411  1.00  0.00     0.107 A 
ATOM      6  C   UNL     1     220.197 218.907 220.474  1.00  0.00     0.134 A 
ATOM      7  C   UNL     1     220.948 220.017 220.069  1.00  0.00     0.093 A 
ATOM      8  C   UNL     1     220.329 221.198 219.662  1.00  0.00     0.123 A 
ATOM      9  C   UNL     1     218.936 221.282 219.650  1.00  0.00     0.094 A 
ATOM     10  C   UNL     1     218.157 220.180 220.014  1.00  0.00     0.146 A 
ATOM     11  O   UNL     1     216.834 220.295 219.974  1.00  0.00    -0.456 OA
ENDROOT
BRANCH   1  12
ATOM     12  C   UNL     1     214.541 219.549 220.209  1.00  0.00     0.021 A 
ATOM     13  C   UNL     1     213.652 218.584 219.700  1.00  0.00     0.016 A 
ATOM     14  C   UNL     1     212.279 218.838 219.656  1.00  0.00     0.051 A 
ATOM     15  C   UNL     1     211.768 220.051 220.125  1.00  0.00     0.157 A 
ATOM     16  C   UNL     1     214.019 220.763 220.692  1.00  0.00     0.062 A 
ATOM     17  C   UNL     1     212.641 221.019 220.647  1.00  0.00     0.158 A 
BRANCH  15  18
ATOM     18  O   UNL     1     210.392 220.275 220.066  1.00  0.00    -0.504 OA
ATOM     19  H   UNL     1     209.758 219.915 220.768  1.00  0.00     0.293 HD
ENDBRANCH  15  18
BRANCH  17  20
ATOM     20  O   UNL     1     212.138 222.230 221.120  1.00  0.00    -0.504 OA
ATOM     21  H   UNL     1     211.798 222.947 220.490  1.00  0.00     0.293 HD
ENDBRANCH  17  20
ENDBRANCH   1  12
BRANCH   6  22
ATOM     22  O   UNL     1     220.915 217.805 220.945  1.00  0.00    -0.507 OA
ATOM     23  H   UNL     1     220.522 216.893 221.124  1.00  0.00     0.293 HD
ENDBRANCH   6  22
BRANCH   8  24
ATOM     24  O   UNL     1     221.108 222.287 219.281  1.00  0.00    -0.508 OA
ATOM     25  H   UNL     1     221.906 222.587 219.829  1.00  0.00     0.293 HD
ENDBRANCH   8  24
TORSDOF 5
ENDMDL
MODEL 9
REMARK VINA RESULT:    -5.482      4.448      8.003
REMARK INTER + INTRA:          -6.761
REMARK INTER:                  -6.481
REMARK INTRA:                  -0.281
REMARK UNBOUND:                -0.318
REMARK SMILES O=c1cc(-c2ccc(O)c(O)c2)oc2cc(O)cc(O)c12
REMARK SMILES IDX 4 1 3 2 2 3 1 4 21 5 19 6 18 7 16 8 15 9 14 10 13 11 5 12
REMARK SMILES IDX 6 13 7 14 8 15 12 16 10 17 9 18 11 20 20 22 17 24
REMARK H PARENT 9 19 11 21 20 23 17 25
REMARK Flexibility Score: inf
ROOT
ATOM      1  C   UNL     1     217.301 221.171 221.055  1.00  0.00     0.138 A 
ATOM      2  C   UNL     1     216.640 222.362 221.387  1.00  0.00     0.100 A 
ATOM      3  C   UNL     1     215.249 222.429 221.286  1.00  0.00     0.197 A 
ATOM      4  O   UNL     1     214.690 223.530 221.530  1.00  0.00    -0.289 OA
ATOM      5  C   UNL     1     214.516 221.288 220.881  1.00  0.00     0.107 A 
ATOM      6  C   UNL     1     213.094 221.230 220.782  1.00  0.00     0.134 A 
ATOM      7  C   UNL     1     212.486 220.082 220.259  1.00  0.00     0.093 A 
ATOM      8  C   UNL     1     213.242 218.971 219.888  1.00  0.00     0.123 A 
ATOM      9  C   UNL     1     214.630 218.997 220.032  1.00  0.00     0.094 A 
ATOM     10  C   UNL     1     215.270 220.140 220.517  1.00  0.00     0.146 A 
ATOM     11  O   UNL     1     216.594 220.131 220.625  1.00  0.00    -0.456 OA
ENDROOT
BRANCH   1  12
ATOM     12  C   UNL     1     218.777 221.043 221.145  1.00  0.00     0.021 A 
ATOM     13  C   UNL     1     219.519 220.327 220.185  1.00  0.00     0.016 A 
ATOM     14  C   UNL     1     220.908 220.232 220.290  1.00  0.00     0.051 A 
ATOM     15  C   UNL     1     221.584 220.854 221.343  1.00  0.00     0.157 A 
ATOM     16  C   UNL     1     219.465 221.678 222.196  1.00  0.00     0.062 A 
ATOM     17  C   UNL     1     220.860 221.582 222.301  1.00  0.00     0.158 A 
BRANCH  15  18
ATOM     18  O   UNL     1     222.972 220.740 221.420  1.00  0.00    -0.504 OA
ATOM     19  H   UNL     1     223.575 221.550 221.499  1.00  0.00     0.293 HD
ENDBRANCH  15  18
BRANCH  17  20
ATOM     20  O   UNL     1     221.528 222.209 223.352  1.00  0.00    -0.504 OA
ATOM     21  H   UNL     1     221.418 223.199 223.535  1.00  0.00     0.293 HD
ENDBRANCH  17  20
ENDBRANCH   1  12
BRANCH   6  22
ATOM     22  O   UNL     1     212.239 222.252 221.203  1.00  0.00    -0.507 OA
ATOM     23  H   UNL     1     212.351 222.784 222.053  1.00  0.00     0.293 HD
ENDBRANCH   6  22
BRANCH   8  24
ATOM     24  O   UNL     1     212.602 217.841 219.385  1.00  0.00    -0.508 OA
ATOM     25  H   UNL     1     213.070 217.206 218.749  1.00  0.00     0.293 HD
ENDBRANCH   8  24
TORSDOF 5
ENDMDL
