MODEL 1
REMARK VINA RESULT:    -6.218      0.000      0.000
REMARK INTER + INTRA:          -7.688
REMARK INTER:                  -7.490
REMARK INTRA:                  -0.198
REMARK UNBOUND:                -0.198
REMARK SMILES Oc1cc(O)c2cc(O)c(-c3ccc(O)c(O)c3)[o+]c2c1.[Cl-]
REMARK SMILES IDX 10 1 19 2 20 3 21 4 2 5 3 6 4 7 6 8 7 9 8 10 11 11 12 12
REMARK SMILES IDX 13 13 14 14 18 15 16 16 15 17 17 19 9 21 1 23 5 25
REMARK H PARENT 15 18 17 20 9 22 1 24 5 26
REMARK Flexibility Score: inf
ROOT
ATOM      1  C   UNL     1      -7.439  14.362  -2.796  1.00  0.00     0.402 A 
ATOM      2  O   UNL     1      -7.461  15.057  -3.930  1.00  0.00    -0.202 OA
ATOM      3  C   UNL     1      -7.521  14.492  -5.132  1.00  0.00     0.368 A 
ATOM      4  C   UNL     1      -7.538  15.307  -6.266  1.00  0.00     0.162 A 
ATOM      5  C   UNL     1      -7.597  14.742  -7.540  1.00  0.00     0.128 A 
ATOM      6  C   UNL     1      -7.639  13.350  -7.683  1.00  0.00     0.093 A 
ATOM      7  C   UNL     1      -7.624  12.511  -6.562  1.00  0.00     0.136 A 
ATOM      8  C   UNL     1      -7.566  13.083  -5.265  1.00  0.00     0.125 A 
ATOM      9  C   UNL     1      -7.559  12.322  -4.085  1.00  0.00     0.078 A 
ATOM     10  C   UNL     1      -7.506  12.957  -2.840  1.00  0.00     0.223 A 
ENDROOT
BRANCH   1  11
ATOM     11  C   UNL     1      -7.360  15.108  -1.519  1.00  0.00     0.087 A 
ATOM     12  C   UNL     1      -8.412  15.933  -1.087  1.00  0.00     0.022 A 
ATOM     13  C   UNL     1      -8.324  16.608   0.134  1.00  0.00     0.051 A 
ATOM     14  C   UNL     1      -7.191  16.458   0.945  1.00  0.00     0.157 A 
ATOM     15  C   UNL     1      -6.237  14.945  -0.692  1.00  0.00     0.068 A 
ATOM     16  C   UNL     1      -6.144  15.620   0.530  1.00  0.00     0.158 A 
BRANCH  14  17
ATOM     17  O   UNL     1      -7.105  17.135   2.161  1.00  0.00    -0.504 OA
ATOM     18  H   UNL     1      -7.218  16.652   3.046  1.00  0.00     0.293 HD
ENDBRANCH  14  17
BRANCH  16  19
ATOM     19  O   UNL     1      -5.007  15.443   1.317  1.00  0.00    -0.504 OA
ATOM     20  H   UNL     1      -4.905  14.656   1.948  1.00  0.00     0.293 HD
ENDBRANCH  16  19
ENDBRANCH   1  11
BRANCH  10  21
ATOM     21  O   UNL     1      -7.550  12.204  -1.668  1.00  0.00    -0.500 OA
ATOM     22  H   UNL     1      -8.408  12.086  -1.141  1.00  0.00     0.294 HD
ENDBRANCH  10  21
BRANCH   5  23
ATOM     23  O   UNL     1      -7.613  15.571  -8.660  1.00  0.00    -0.507 OA
ATOM     24  H   UNL     1      -6.827  16.169  -8.887  1.00  0.00     0.293 HD
ENDBRANCH   5  23
BRANCH   7  25
ATOM     25  O   UNL     1      -7.665  11.132  -6.789  1.00  0.00    -0.507 OA
ATOM     26  H   UNL     1      -6.865  10.521  -6.729  1.00  0.00     0.293 HD
ENDBRANCH   7  25
TORSDOF 6
ENDMDL
MODEL 2
REMARK VINA RESULT:    -6.067      1.847      7.177
REMARK INTER + INTRA:          -7.506
REMARK INTER:                  -7.552
REMARK INTRA:                   0.046
REMARK UNBOUND:                -0.198
REMARK SMILES Oc1cc(O)c2cc(O)c(-c3ccc(O)c(O)c3)[o+]c2c1.[Cl-]
REMARK SMILES IDX 10 1 19 2 20 3 21 4 2 5 3 6 4 7 6 8 7 9 8 10 11 11 12 12
REMARK SMILES IDX 13 13 14 14 18 15 16 16 15 17 17 19 9 21 1 23 5 25
REMARK H PARENT 15 18 17 20 9 22 1 24 5 26
REMARK Flexibility Score: inf
ROOT
ATOM      1  C   UNL     1      -7.748  15.301  -2.566  1.00  0.00     0.402 A 
ATOM      2  O   UNL     1      -7.334  14.384  -1.697  1.00  0.00    -0.202 OA
ATOM      3  C   UNL     1      -7.361  14.563  -0.379  1.00  0.00     0.368 A 
ATOM      4  C   UNL     1      -6.901  13.541   0.455  1.00  0.00     0.162 A 
ATOM      5  C   UNL     1      -6.914  13.702   1.840  1.00  0.00     0.128 A 
ATOM      6  C   UNL     1      -7.390  14.894   2.399  1.00  0.00     0.093 A 
ATOM      7  C   UNL     1      -7.856  15.934   1.585  1.00  0.00     0.136 A 
ATOM      8  C   UNL     1      -7.846  15.772   0.175  1.00  0.00     0.125 A 
ATOM      9  C   UNL     1      -8.305  16.754  -0.718  1.00  0.00     0.078 A 
ATOM     10  C   UNL     1      -8.269  16.521  -2.097  1.00  0.00     0.223 A 
ENDROOT
BRANCH   1  11
ATOM     11  C   UNL     1      -7.658  14.987  -4.011  1.00  0.00     0.087 A 
ATOM     12  C   UNL     1      -8.721  15.262  -4.888  1.00  0.00     0.022 A 
ATOM     13  C   UNL     1      -8.602  14.978  -6.251  1.00  0.00     0.051 A 
ATOM     14  C   UNL     1      -7.419  14.428  -6.759  1.00  0.00     0.157 A 
ATOM     15  C   UNL     1      -6.466  14.455  -4.529  1.00  0.00     0.068 A 
ATOM     16  C   UNL     1      -6.344  14.169  -5.894  1.00  0.00     0.158 A 
BRANCH  14  17
ATOM     17  O   UNL     1      -7.305  14.144  -8.119  1.00  0.00    -0.504 OA
ATOM     18  H   UNL     1      -6.668  14.659  -8.718  1.00  0.00     0.293 HD
ENDBRANCH  14  17
BRANCH  16  19
ATOM     19  O   UNL     1      -5.150  13.629  -6.368  1.00  0.00    -0.504 OA
ATOM     20  H   UNL     1      -4.282  14.153  -6.363  1.00  0.00     0.293 HD
ENDBRANCH  16  19
ENDBRANCH   1  11
BRANCH  10  21
ATOM     21  O   UNL     1      -8.772  17.475  -2.980  1.00  0.00    -0.500 OA
ATOM     22  H   UNL     1      -8.186  18.207  -3.364  1.00  0.00     0.294 HD
ENDBRANCH  10  21
BRANCH   5  23
ATOM     23  O   UNL     1      -6.451  12.671   2.656  1.00  0.00    -0.507 OA
ATOM     24  H   UNL     1      -6.826  11.732   2.588  1.00  0.00     0.293 HD
ENDBRANCH   5  23
BRANCH   7  25
ATOM     25  O   UNL     1      -8.311  17.093   2.218  1.00  0.00    -0.507 OA
ATOM     26  H   UNL     1      -8.345  18.004   1.785  1.00  0.00     0.293 HD
ENDBRANCH   7  25
TORSDOF 6
ENDMDL
MODEL 3
REMARK VINA RESULT:    -6.024      3.244      8.494
REMARK INTER + INTRA:          -7.455
REMARK INTER:                  -7.265
REMARK INTRA:                  -0.190
REMARK UNBOUND:                -0.198
REMARK SMILES Oc1cc(O)c2cc(O)c(-c3ccc(O)c(O)c3)[o+]c2c1.[Cl-]
REMARK SMILES IDX 10 1 19 2 20 3 21 4 2 5 3 6 4 7 6 8 7 9 8 10 11 11 12 12
REMARK SMILES IDX 13 13 14 14 18 15 16 16 15 17 17 19 9 21 1 23 5 25
REMARK H PARENT 15 18 17 20 9 22 1 24 5 26
REMARK Flexibility Score: inf
ROOT
ATOM      1  C   UNL     1      -7.537  16.061   1.367  1.00  0.00     0.402 A 
ATOM      2  O   UNL     1      -7.169  17.177   1.989  1.00  0.00    -0.202 OA
ATOM      3  C   UNL     1      -6.869  17.226   3.284  1.00  0.00     0.368 A 
ATOM      4  C   UNL     1      -6.496  18.448   3.849  1.00  0.00     0.162 A 
ATOM      5  C   UNL     1      -6.179  18.531   5.205  1.00  0.00     0.128 A 
ATOM      6  C   UNL     1      -6.236  17.383   6.005  1.00  0.00     0.093 A 
ATOM      7  C   UNL     1      -6.608  16.147   5.463  1.00  0.00     0.136 A 
ATOM      8  C   UNL     1      -6.929  16.059   4.083  1.00  0.00     0.125 A 
ATOM      9  C   UNL     1      -7.299  14.861   3.451  1.00  0.00     0.078 A 
ATOM     10  C   UNL     1      -7.595  14.851   2.084  1.00  0.00     0.223 A 
ENDROOT
BRANCH   1  11
ATOM     11  C   UNL     1      -7.855  16.137  -0.077  1.00  0.00     0.087 A 
ATOM     12  C   UNL     1      -8.945  16.888  -0.549  1.00  0.00     0.022 A 
ATOM     13  C   UNL     1      -9.211  16.963  -1.919  1.00  0.00     0.051 A 
ATOM     14  C   UNL     1      -8.388  16.299  -2.837  1.00  0.00     0.157 A 
ATOM     15  C   UNL     1      -7.020  15.491  -1.003  1.00  0.00     0.068 A 
ATOM     16  C   UNL     1      -7.285  15.562  -2.376  1.00  0.00     0.158 A 
BRANCH  14  17
ATOM     17  O   UNL     1      -8.657  16.374  -4.202  1.00  0.00    -0.504 OA
ATOM     18  H   UNL     1      -9.354  15.781  -4.639  1.00  0.00     0.293 HD
ENDBRANCH  14  17
BRANCH  16  19
ATOM     19  O   UNL     1      -6.440  14.897  -3.264  1.00  0.00    -0.504 OA
ATOM     20  H   UNL     1      -5.449  15.102  -3.321  1.00  0.00     0.293 HD
ENDBRANCH  16  19
ENDBRANCH   1  11
BRANCH  10  21
ATOM     21  O   UNL     1      -7.914  13.653   1.446  1.00  0.00    -0.500 OA
ATOM     22  H   UNL     1      -7.719  13.504   0.463  1.00  0.00     0.294 HD
ENDBRANCH  10  21
BRANCH   5  23
ATOM     23  O   UNL     1      -5.809  19.758   5.751  1.00  0.00    -0.507 OA
ATOM     24  H   UNL     1      -5.433  19.829   6.689  1.00  0.00     0.293 HD
ENDBRANCH   5  23
BRANCH   7  25
ATOM     25  O   UNL     1      -6.645  15.049   6.327  1.00  0.00    -0.507 OA
ATOM     26  H   UNL     1      -7.303  14.288   6.254  1.00  0.00     0.293 HD
ENDBRANCH   7  25
TORSDOF 6
ENDMDL
MODEL 4
REMARK VINA RESULT:    -5.963      1.761      1.892
REMARK INTER + INTRA:          -7.381
REMARK INTER:                  -7.151
REMARK INTRA:                  -0.230
REMARK UNBOUND:                -0.198
REMARK SMILES Oc1cc(O)c2cc(O)c(-c3ccc(O)c(O)c3)[o+]c2c1.[Cl-]
REMARK SMILES IDX 10 1 19 2 20 3 21 4 2 5 3 6 4 7 6 8 7 9 8 10 11 11 12 12
REMARK SMILES IDX 13 13 14 14 18 15 16 16 15 17 17 19 9 21 1 23 5 25
REMARK H PARENT 15 18 17 20 9 22 1 24 5 26
REMARK Flexibility Score: inf
ROOT
ATOM      1  C   UNL     1      -8.470  15.122  -2.014  1.00  0.00     0.402 A 
ATOM      2  O   UNL     1      -7.848  15.394  -3.157  1.00  0.00    -0.202 OA
ATOM      3  C   UNL     1      -8.279  14.971  -4.342  1.00  0.00     0.368 A 
ATOM      4  C   UNL     1      -7.554  15.307  -5.489  1.00  0.00     0.162 A 
ATOM      5  C   UNL     1      -7.981  14.875  -6.744  1.00  0.00     0.128 A 
ATOM      6  C   UNL     1      -9.141  14.099  -6.857  1.00  0.00     0.093 A 
ATOM      7  C   UNL     1      -9.885  13.749  -5.724  1.00  0.00     0.136 A 
ATOM      8  C   UNL     1      -9.455  14.189  -4.445  1.00  0.00     0.125 A 
ATOM      9  C   UNL     1     -10.144  13.898  -3.256  1.00  0.00     0.078 A 
ATOM     10  C   UNL     1      -9.661  14.372  -2.032  1.00  0.00     0.223 A 
ENDROOT
BRANCH   1  11
ATOM     11  C   UNL     1      -7.885  15.642  -0.757  1.00  0.00     0.087 A 
ATOM     12  C   UNL     1      -8.525  16.646  -0.012  1.00  0.00     0.022 A 
ATOM     13  C   UNL     1      -7.964  17.103   1.184  1.00  0.00     0.051 A 
ATOM     14  C   UNL     1      -6.765  16.557   1.658  1.00  0.00     0.157 A 
ATOM     15  C   UNL     1      -6.694  15.082  -0.267  1.00  0.00     0.068 A 
ATOM     16  C   UNL     1      -6.129  15.539   0.930  1.00  0.00     0.158 A 
BRANCH  14  17
ATOM     17  O   UNL     1      -6.207  17.017   2.850  1.00  0.00    -0.504 OA
ATOM     18  H   UNL     1      -6.786  17.286   3.638  1.00  0.00     0.293 HD
ENDBRANCH  14  17
BRANCH  16  19
ATOM     19  O   UNL     1      -4.938  14.968   1.377  1.00  0.00    -0.504 OA
ATOM     20  H   UNL     1      -4.431  14.282   0.830  1.00  0.00     0.293 HD
ENDBRANCH  16  19
ENDBRANCH   1  11
BRANCH  10  21
ATOM     21  O   UNL     1     -10.372  14.125  -0.858  1.00  0.00    -0.500 OA
ATOM     22  H   UNL     1     -11.346  14.386  -0.760  1.00  0.00     0.294 HD
ENDBRANCH  10  21
BRANCH   5  23
ATOM     23  O   UNL     1      -7.245  15.219  -7.876  1.00  0.00    -0.507 OA
ATOM     24  H   UNL     1      -6.831  16.139  -7.980  1.00  0.00     0.293 HD
ENDBRANCH   5  23
BRANCH   7  25
ATOM     25  O   UNL     1     -11.029  12.970  -5.919  1.00  0.00    -0.507 OA
ATOM     26  H   UNL     1     -11.731  12.802  -5.214  1.00  0.00     0.293 HD
ENDBRANCH   7  25
TORSDOF 6
ENDMDL
MODEL 5
REMARK VINA RESULT:    -5.954      1.186      2.529
REMARK INTER + INTRA:          -7.371
REMARK INTER:                  -7.222
REMARK INTRA:                  -0.149
REMARK UNBOUND:                -0.198
REMARK SMILES Oc1cc(O)c2cc(O)c(-c3ccc(O)c(O)c3)[o+]c2c1.[Cl-]
REMARK SMILES IDX 10 1 19 2 20 3 21 4 2 5 3 6 4 7 6 8 7 9 8 10 11 11 12 12
REMARK SMILES IDX 13 13 14 14 18 15 16 16 15 17 17 19 9 21 1 23 5 25
REMARK H PARENT 15 18 17 20 9 22 1 24 5 26
REMARK Flexibility Score: inf
ROOT
ATOM      1  C   UNL     1      -7.798  15.163  -2.742  1.00  0.00     0.402 A 
ATOM      2  O   UNL     1      -7.387  14.005  -3.251  1.00  0.00    -0.202 OA
ATOM      3  C   UNL     1      -7.461  13.708  -4.545  1.00  0.00     0.368 A 
ATOM      4  C   UNL     1      -7.005  12.463  -4.984  1.00  0.00     0.162 A 
ATOM      5  C   UNL     1      -7.074  12.122  -6.334  1.00  0.00     0.128 A 
ATOM      6  C   UNL     1      -7.603  13.034  -7.256  1.00  0.00     0.093 A 
ATOM      7  C   UNL     1      -8.067  14.288  -6.842  1.00  0.00     0.136 A 
ATOM      8  C   UNL     1      -7.997  14.638  -5.468  1.00  0.00     0.125 A 
ATOM      9  C   UNL     1      -8.425  15.877  -4.964  1.00  0.00     0.078 A 
ATOM     10  C   UNL     1      -8.319  16.153  -3.597  1.00  0.00     0.223 A 
ENDROOT
BRANCH   1  11
ATOM     11  C   UNL     1      -7.672  15.371  -1.281  1.00  0.00     0.087 A 
ATOM     12  C   UNL     1      -8.786  15.693  -0.488  1.00  0.00     0.022 A 
ATOM     13  C   UNL     1      -8.645  15.861   0.892  1.00  0.00     0.051 A 
ATOM     14  C   UNL     1      -7.394  15.700   1.500  1.00  0.00     0.157 A 
ATOM     15  C   UNL     1      -6.423  15.190  -0.664  1.00  0.00     0.068 A 
ATOM     16  C   UNL     1      -6.278  15.359   0.719  1.00  0.00     0.158 A 
BRANCH  14  17
ATOM     17  O   UNL     1      -7.256  15.871   2.877  1.00  0.00    -0.504 OA
ATOM     18  H   UNL     1      -6.790  16.682   3.267  1.00  0.00     0.293 HD
ENDBRANCH  14  17
BRANCH  16  19
ATOM     19  O   UNL     1      -5.021  15.183   1.294  1.00  0.00    -0.504 OA
ATOM     20  H   UNL     1      -4.508  15.951   1.712  1.00  0.00     0.293 HD
ENDBRANCH  16  19
ENDBRANCH   1  11
BRANCH  10  21
ATOM     21  O   UNL     1      -8.697  17.401  -3.104  1.00  0.00    -0.500 OA
ATOM     22  H   UNL     1      -9.665  17.703  -3.104  1.00  0.00     0.294 HD
ENDBRANCH  10  21
BRANCH   5  23
ATOM     23  O   UNL     1      -6.615  10.876  -6.753  1.00  0.00    -0.507 OA
ATOM     24  H   UNL     1      -5.624  10.663  -6.800  1.00  0.00     0.293 HD
ENDBRANCH   5  23
BRANCH   7  25
ATOM     25  O   UNL     1      -8.585  15.139  -7.822  1.00  0.00    -0.507 OA
ATOM     26  H   UNL     1      -8.972  14.828  -8.700  1.00  0.00     0.293 HD
ENDBRANCH   7  25
TORSDOF 6
ENDMDL
MODEL 6
REMARK VINA RESULT:    -5.806      1.885      6.896
REMARK INTER + INTRA:          -7.192
REMARK INTER:                  -6.862
REMARK INTRA:                  -0.331
REMARK UNBOUND:                -0.198
REMARK SMILES Oc1cc(O)c2cc(O)c(-c3ccc(O)c(O)c3)[o+]c2c1.[Cl-]
REMARK SMILES IDX 10 1 19 2 20 3 21 4 2 5 3 6 4 7 6 8 7 9 8 10 11 11 12 12
REMARK SMILES IDX 13 13 14 14 18 15 16 16 15 17 17 19 9 21 1 23 5 25
REMARK H PARENT 15 18 17 20 9 22 1 24 5 26
REMARK Flexibility Score: inf
ROOT
ATOM      1  C   UNL     1      -7.677  14.671  -2.038  1.00  0.00     0.402 A 
ATOM      2  O   UNL     1      -7.177  15.638  -1.274  1.00  0.00    -0.202 OA
ATOM      3  C   UNL     1      -7.199  15.603   0.055  1.00  0.00     0.368 A 
ATOM      4  C   UNL     1      -6.650  16.669   0.772  1.00  0.00     0.162 A 
ATOM      5  C   UNL     1      -6.662  16.662   2.167  1.00  0.00     0.128 A 
ATOM      6  C   UNL     1      -7.228  15.580   2.853  1.00  0.00     0.093 A 
ATOM      7  C   UNL     1      -7.785  14.500   2.158  1.00  0.00     0.136 A 
ATOM      8  C   UNL     1      -7.772  14.503   0.739  1.00  0.00     0.125 A 
ATOM      9  C   UNL     1      -8.295  13.459  -0.041  1.00  0.00     0.078 A 
ATOM     10  C   UNL     1      -8.242  13.531  -1.437  1.00  0.00     0.223 A 
ENDROOT
BRANCH   1  11
ATOM     11  C   UNL     1      -7.602  14.830  -3.508  1.00  0.00     0.087 A 
ATOM     12  C   UNL     1      -8.546  15.598  -4.212  1.00  0.00     0.022 A 
ATOM     13  C   UNL     1      -8.439  15.752  -5.597  1.00  0.00     0.051 A 
ATOM     14  C   UNL     1      -7.383  15.154  -6.296  1.00  0.00     0.157 A 
ATOM     15  C   UNL     1      -6.533  14.250  -4.212  1.00  0.00     0.068 A 
ATOM     16  C   UNL     1      -6.424  14.402  -5.599  1.00  0.00     0.158 A 
BRANCH  14  17
ATOM     17  O   UNL     1      -7.282  15.308  -7.678  1.00  0.00    -0.504 OA
ATOM     18  H   UNL     1      -7.037  16.199  -8.096  1.00  0.00     0.293 HD
ENDBRANCH  14  17
BRANCH  16  19
ATOM     19  O   UNL     1      -5.357  13.799  -6.264  1.00  0.00    -0.504 OA
ATOM     20  H   UNL     1      -5.268  12.792  -6.338  1.00  0.00     0.293 HD
ENDBRANCH  16  19
ENDBRANCH   1  11
BRANCH  10  21
ATOM     21  O   UNL     1      -8.715  12.471  -2.210  1.00  0.00    -0.500 OA
ATOM     22  H   UNL     1      -9.699  12.231  -2.240  1.00  0.00     0.294 HD
ENDBRANCH  10  21
BRANCH   5  23
ATOM     23  O   UNL     1      -6.110  17.734   2.864  1.00  0.00    -0.507 OA
ATOM     24  H   UNL     1      -6.130  18.676   2.491  1.00  0.00     0.293 HD
ENDBRANCH   5  23
BRANCH   7  25
ATOM     25  O   UNL     1      -8.334  13.461   2.915  1.00  0.00    -0.507 OA
ATOM     26  H   UNL     1      -8.581  13.536   3.890  1.00  0.00     0.293 HD
ENDBRANCH   7  25
TORSDOF 6
ENDMDL
MODEL 7
REMARK VINA RESULT:    -5.781      2.309      7.776
REMARK INTER + INTRA:          -7.162
REMARK INTER:                  -6.809
REMARK INTRA:                  -0.353
REMARK UNBOUND:                -0.198
REMARK SMILES Oc1cc(O)c2cc(O)c(-c3ccc(O)c(O)c3)[o+]c2c1.[Cl-]
REMARK SMILES IDX 10 1 19 2 20 3 21 4 2 5 3 6 4 7 6 8 7 9 8 10 11 11 12 12
REMARK SMILES IDX 13 13 14 14 18 15 16 16 15 17 17 19 9 21 1 23 5 25
REMARK H PARENT 15 18 17 20 9 22 1 24 5 26
REMARK Flexibility Score: inf
ROOT
ATOM      1  C   UNL     1      -8.116  15.766  -0.673  1.00  0.00     0.402 A 
ATOM      2  O   UNL     1      -9.115  16.344  -0.012  1.00  0.00    -0.202 OA
ATOM      3  C   UNL     1      -8.990  16.832   1.219  1.00  0.00     0.368 A 
ATOM      4  C   UNL     1     -10.099  17.419   1.833  1.00  0.00     0.162 A 
ATOM      5  C   UNL     1      -9.998  17.937   3.124  1.00  0.00     0.128 A 
ATOM      6  C   UNL     1      -8.779  17.868   3.809  1.00  0.00     0.093 A 
ATOM      7  C   UNL     1      -7.653  17.285   3.216  1.00  0.00     0.136 A 
ATOM      8  C   UNL     1      -7.752  16.759   1.901  1.00  0.00     0.125 A 
ATOM      9  C   UNL     1      -6.673  16.168   1.223  1.00  0.00     0.078 A 
ATOM     10  C   UNL     1      -6.846  15.677  -0.075  1.00  0.00     0.223 A 
ENDROOT
BRANCH   1  11
ATOM     11  C   UNL     1      -8.384  15.251  -2.036  1.00  0.00     0.087 A 
ATOM     12  C   UNL     1      -8.804  13.928  -2.249  1.00  0.00     0.022 A 
ATOM     13  C   UNL     1      -9.073  13.472  -3.543  1.00  0.00     0.051 A 
ATOM     14  C   UNL     1      -8.937  14.334  -4.639  1.00  0.00     0.157 A 
ATOM     15  C   UNL     1      -8.270  16.117  -3.136  1.00  0.00     0.068 A 
ATOM     16  C   UNL     1      -8.537  15.664  -4.433  1.00  0.00     0.158 A 
BRANCH  14  17
ATOM     17  O   UNL     1      -9.204  13.876  -5.928  1.00  0.00    -0.504 OA
ATOM     18  H   UNL     1      -9.395  12.898  -6.115  1.00  0.00     0.293 HD
ENDBRANCH  14  17
BRANCH  16  19
ATOM     19  O   UNL     1      -8.400  16.550  -5.501  1.00  0.00    -0.504 OA
ATOM     20  H   UNL     1      -8.431  17.555  -5.374  1.00  0.00     0.293 HD
ENDBRANCH  16  19
ENDBRANCH   1  11
BRANCH  10  21
ATOM     21  O   UNL     1      -5.763  15.136  -0.767  1.00  0.00    -0.500 OA
ATOM     22  H   UNL     1      -4.814  15.221  -0.423  1.00  0.00     0.294 HD
ENDBRANCH  10  21
BRANCH   5  23
ATOM     23  O   UNL     1     -11.115  18.518   3.721  1.00  0.00    -0.507 OA
ATOM     24  H   UNL     1     -11.337  18.361   4.697  1.00  0.00     0.293 HD
ENDBRANCH   5  23
BRANCH   7  25
ATOM     25  O   UNL     1      -6.474  17.251   3.966  1.00  0.00    -0.507 OA
ATOM     26  H   UNL     1      -5.595  17.643   3.664  1.00  0.00     0.293 HD
ENDBRANCH   7  25
TORSDOF 6
ENDMDL
MODEL 8
REMARK VINA RESULT:    -5.771      3.884      5.974
REMARK INTER + INTRA:          -7.149
REMARK INTER:                  -6.855
REMARK INTRA:                  -0.294
REMARK UNBOUND:                -0.198
REMARK SMILES Oc1cc(O)c2cc(O)c(-c3ccc(O)c(O)c3)[o+]c2c1.[Cl-]
REMARK SMILES IDX 10 1 19 2 20 3 21 4 2 5 3 6 4 7 6 8 7 9 8 10 11 11 12 12
REMARK SMILES IDX 13 13 14 14 18 15 16 16 15 17 17 19 9 21 1 23 5 25
REMARK H PARENT 15 18 17 20 9 22 1 24 5 26
REMARK Flexibility Score: inf
ROOT
ATOM      1  C   UNL     1      -8.608  16.911   2.166  1.00  0.00     0.402 A 
ATOM      2  O   UNL     1      -8.290  17.148   0.897  1.00  0.00    -0.202 OA
ATOM      3  C   UNL     1      -8.880  16.543  -0.130  1.00  0.00     0.368 A 
ATOM      4  C   UNL     1      -8.475  16.857  -1.429  1.00  0.00     0.162 A 
ATOM      5  C   UNL     1      -9.073  16.235  -2.524  1.00  0.00     0.128 A 
ATOM      6  C   UNL     1     -10.086  15.290  -2.321  1.00  0.00     0.093 A 
ATOM      7  C   UNL     1     -10.510  14.957  -1.029  1.00  0.00     0.136 A 
ATOM      8  C   UNL     1      -9.904  15.590   0.088  1.00  0.00     0.125 A 
ATOM      9  C   UNL     1     -10.273  15.329   1.417  1.00  0.00     0.078 A 
ATOM     10  C   UNL     1      -9.634  15.996   2.467  1.00  0.00     0.223 A 
ENDROOT
BRANCH   1  11
ATOM     11  C   UNL     1      -7.870  17.642   3.222  1.00  0.00     0.087 A 
ATOM     12  C   UNL     1      -6.925  16.996   4.036  1.00  0.00     0.022 A 
ATOM     13  C   UNL     1      -6.224  17.714   5.010  1.00  0.00     0.051 A 
ATOM     14  C   UNL     1      -6.449  19.087   5.176  1.00  0.00     0.157 A 
ATOM     15  C   UNL     1      -8.076  19.023   3.378  1.00  0.00     0.068 A 
ATOM     16  C   UNL     1      -7.377  19.744   4.353  1.00  0.00     0.158 A 
BRANCH  14  17
ATOM     17  O   UNL     1      -5.750  19.799   6.150  1.00  0.00    -0.504 OA
ATOM     18  H   UNL     1      -5.804  19.549   7.131  1.00  0.00     0.293 HD
ENDBRANCH  14  17
BRANCH  16  19
ATOM     19  O   UNL     1      -7.618  21.111   4.486  1.00  0.00    -0.504 OA
ATOM     20  H   UNL     1      -8.164  21.489   5.253  1.00  0.00     0.293 HD
ENDBRANCH  16  19
ENDBRANCH   1  11
BRANCH  10  21
ATOM     21  O   UNL     1     -10.035  15.774   3.784  1.00  0.00    -0.500 OA
ATOM     22  H   UNL     1     -10.793  15.142   4.011  1.00  0.00     0.294 HD
ENDBRANCH  10  21
BRANCH   5  23
ATOM     23  O   UNL     1      -8.656  16.562  -3.813  1.00  0.00    -0.507 OA
ATOM     24  H   UNL     1      -8.976  17.404  -4.277  1.00  0.00     0.293 HD
ENDBRANCH   5  23
BRANCH   7  25
ATOM     25  O   UNL     1     -11.523  14.002  -0.910  1.00  0.00    -0.507 OA
ATOM     26  H   UNL     1     -11.362  13.013  -0.785  1.00  0.00     0.293 HD
ENDBRANCH   7  25
TORSDOF 6
ENDMDL
MODEL 9
REMARK VINA RESULT:    -5.705      1.841      7.130
REMARK INTER + INTRA:          -7.071
REMARK INTER:                  -6.742
REMARK INTRA:                  -0.328
REMARK UNBOUND:                -0.198
REMARK SMILES Oc1cc(O)c2cc(O)c(-c3ccc(O)c(O)c3)[o+]c2c1.[Cl-]
REMARK SMILES IDX 10 1 19 2 20 3 21 4 2 5 3 6 4 7 6 8 7 9 8 10 11 11 12 12
REMARK SMILES IDX 13 13 14 14 18 15 16 16 15 17 17 19 9 21 1 23 5 25
REMARK H PARENT 15 18 17 20 9 22 1 24 5 26
REMARK Flexibility Score: inf
ROOT
ATOM      1  C   UNL     1      -8.597  14.011  -4.330  1.00  0.00     0.402 A 
ATOM      2  O   UNL     1      -7.541  14.344  -3.593  1.00  0.00    -0.202 OA
ATOM      3  C   UNL     1      -7.625  14.683  -2.309  1.00  0.00     0.368 A 
ATOM      4  C   UNL     1      -6.459  15.021  -1.618  1.00  0.00     0.162 A 
ATOM      5  C   UNL     1      -6.515  15.384  -0.273  1.00  0.00     0.128 A 
ATOM      6  C   UNL     1      -7.749  15.411   0.389  1.00  0.00     0.093 A 
ATOM      7  C   UNL     1      -8.932  15.077  -0.281  1.00  0.00     0.136 A 
ATOM      8  C   UNL     1      -8.877  14.705  -1.649  1.00  0.00     0.125 A 
ATOM      9  C   UNL     1     -10.009  14.342  -2.397  1.00  0.00     0.078 A 
ATOM     10  C   UNL     1      -9.875  13.982  -3.742  1.00  0.00     0.223 A 
ENDROOT
BRANCH   1  11
ATOM     11  C   UNL     1      -8.376  13.662  -5.752  1.00  0.00     0.087 A 
ATOM     12  C   UNL     1      -8.282  12.325  -6.173  1.00  0.00     0.022 A 
ATOM     13  C   UNL     1      -8.097  12.022  -7.524  1.00  0.00     0.051 A 
ATOM     14  C   UNL     1      -8.015  13.047  -8.475  1.00  0.00     0.157 A 
ATOM     15  C   UNL     1      -8.314  14.686  -6.712  1.00  0.00     0.068 A 
ATOM     16  C   UNL     1      -8.127  14.385  -8.066  1.00  0.00     0.158 A 
BRANCH  14  17
ATOM     17  O   UNL     1      -7.827  12.741  -9.822  1.00  0.00    -0.504 OA
ATOM     18  H   UNL     1      -8.570  12.337 -10.383  1.00  0.00     0.293 HD
ENDBRANCH  14  17
BRANCH  16  19
ATOM     19  O   UNL     1      -8.058  15.429  -8.988  1.00  0.00    -0.504 OA
ATOM     20  H   UNL     1      -7.782  15.279  -9.952  1.00  0.00     0.293 HD
ENDBRANCH  16  19
ENDBRANCH   1  11
BRANCH  10  21
ATOM     21  O   UNL     1     -10.991  13.574  -4.471  1.00  0.00    -0.500 OA
ATOM     22  H   UNL     1     -10.931  12.851  -5.178  1.00  0.00     0.294 HD
ENDBRANCH  10  21
BRANCH   5  23
ATOM     23  O   UNL     1      -5.342  15.717   0.399  1.00  0.00    -0.507 OA
ATOM     24  H   UNL     1      -5.001  15.165   1.177  1.00  0.00     0.293 HD
ENDBRANCH   5  23
BRANCH   7  25
ATOM     25  O   UNL     1     -10.123  15.131   0.449  1.00  0.00    -0.507 OA
ATOM     26  H   UNL     1     -10.389  14.462   1.156  1.00  0.00     0.293 HD
ENDBRANCH   7  25
TORSDOF 6
ENDMDL
