MODEL 1
REMARK VINA RESULT:    -5.195      0.000      0.000
REMARK INTER + INTRA:         -11.556
REMARK INTER:                  -9.448
REMARK INTRA:                  -2.109
REMARK UNBOUND:                -2.109
REMARK SMILES CCCCCCCCCCCCCCCC(=O)[O-]
REMARK SMILES IDX 9 1 10 2 11 3 12 4 13 5 14 6 15 7 16 8 17 9 18 10 8 11 7 12
REMARK SMILES IDX 6 13 5 14 4 15 3 16 2 17 1 18
REMARK H PARENT
REMARK Flexibility Score: inf
ROOT
ATOM      1  C   UNL     1      -4.353   7.017 -22.482  1.00  0.00     0.000 C 
ENDROOT
BRANCH   1   2
ATOM      2  C   UNL     1      -3.812   5.638 -22.047  1.00  0.00     0.000 C 
BRANCH   2   3
ATOM      3  C   UNL     1      -2.753   5.710 -20.931  1.00  0.00     0.000 C 
BRANCH   3   4
ATOM      4  C   UNL     1      -2.742   4.508 -19.970  1.00  0.00     0.000 C 
BRANCH   4   5
ATOM      5  C   UNL     1      -1.350   4.116 -19.429  1.00  0.00     0.000 C 
BRANCH   5   6
ATOM      6  C   UNL     1      -0.925   4.836 -18.133  1.00  0.00     0.006 C 
BRANCH   6   7
ATOM      7  C   UNL     1      -2.093   5.392 -17.302  1.00  0.00     0.053 C 
BRANCH   7   8
ATOM      8  C   UNL     1      -2.082   6.888 -17.254  1.00  0.00     0.041 C 
ATOM      9  O   UNL     1      -1.294   7.542 -17.988  1.00  0.00    -0.550 OA
ATOM     10  O   UNL     1      -2.919   7.562 -16.373  1.00  0.00    -0.550 OA
ENDBRANCH   7   8
ENDBRANCH   6   7
ENDBRANCH   5   6
ENDBRANCH   4   5
ENDBRANCH   3   4
ENDBRANCH   2   3
ENDBRANCH   1   2
BRANCH   1  11
ATOM     11  C   UNL     1      -5.724   6.923 -23.176  1.00  0.00     0.000 C 
BRANCH  11  12
ATOM     12  C   UNL     1      -6.879   6.785 -22.159  1.00  0.00    -0.000 C 
BRANCH  12  13
ATOM     13  C   UNL     1      -7.431   8.133 -21.664  1.00  0.00    -0.000 C 
BRANCH  13  14
ATOM     14  C   UNL     1      -7.651   8.162 -20.143  1.00  0.00    -0.000 C 
BRANCH  14  15
ATOM     15  C   UNL     1      -7.006   6.967 -19.419  1.00  0.00    -0.000 C 
BRANCH  15  16
ATOM     16  C   UNL     1      -5.562   7.197 -18.933  1.00  0.00    -0.000 C 
BRANCH  16  17
ATOM     17  C   UNL     1      -5.258   8.670 -18.627  1.00  0.00    -0.003 C 
ATOM     18  C   UNL     1      -4.107   9.185 -19.486  1.00  0.00     0.004 C 
ENDBRANCH  16  17
ENDBRANCH  15  16
ENDBRANCH  14  15
ENDBRANCH  13  14
ENDBRANCH  12  13
ENDBRANCH  11  12
ENDBRANCH   1  11
TORSDOF 14
ENDMDL
MODEL 2
REMARK VINA RESULT:    -5.188      1.746      5.382
REMARK INTER + INTRA:         -11.543
REMARK INTER:                  -9.483
REMARK INTRA:                  -2.060
REMARK UNBOUND:                -2.109
REMARK SMILES CCCCCCCCCCCCCCCC(=O)[O-]
REMARK SMILES IDX 9 1 10 2 11 3 12 4 13 5 14 6 15 7 16 8 17 9 18 10 8 11 7 12
REMARK SMILES IDX 6 13 5 14 4 15 3 16 2 17 1 18
REMARK H PARENT
REMARK Flexibility Score: inf
ROOT
ATOM      1  C   UNL     1      -2.377   5.250 -20.639  1.00  0.00     0.000 C 
ENDROOT
BRANCH   1   2
ATOM      2  C   UNL     1      -3.659   6.068 -20.904  1.00  0.00     0.000 C 
BRANCH   2   3
ATOM      3  C   UNL     1      -4.108   6.061 -22.377  1.00  0.00     0.000 C 
BRANCH   3   4
ATOM      4  C   UNL     1      -5.173   7.112 -22.736  1.00  0.00     0.000 C 
BRANCH   4   5
ATOM      5  C   UNL     1      -6.611   6.762 -22.297  1.00  0.00     0.000 C 
BRANCH   5   6
ATOM      6  C   UNL     1      -7.241   7.735 -21.280  1.00  0.00     0.006 C 
BRANCH   6   7
ATOM      7  C   UNL     1      -6.893   7.435 -19.814  1.00  0.00     0.053 C 
BRANCH   7   8
ATOM      8  C   UNL     1      -6.142   8.562 -19.176  1.00  0.00     0.041 C 
ATOM      9  O   UNL     1      -5.123   9.045 -19.738  1.00  0.00    -0.550 OA
ATOM     10  O   UNL     1      -6.548   9.059 -17.944  1.00  0.00    -0.550 OA
ENDBRANCH   7   8
ENDBRANCH   6   7
ENDBRANCH   5   6
ENDBRANCH   4   5
ENDBRANCH   3   4
ENDBRANCH   2   3
ENDBRANCH   1   2
BRANCH   1  11
ATOM     11  C   UNL     1      -2.648   3.971 -19.827  1.00  0.00     0.000 C 
BRANCH  11  12
ATOM     12  C   UNL     1      -1.659   3.811 -18.651  1.00  0.00    -0.000 C 
BRANCH  12  13
ATOM     13  C   UNL     1      -0.487   4.807 -18.691  1.00  0.00    -0.000 C 
BRANCH  13  14
ATOM     14  C   UNL     1      -0.519   5.810 -17.526  1.00  0.00    -0.000 C 
BRANCH  14  15
ATOM     15  C   UNL     1      -1.050   7.194 -17.939  1.00  0.00    -0.000 C 
BRANCH  15  16
ATOM     16  C   UNL     1      -2.401   7.590 -17.314  1.00  0.00    -0.000 C 
BRANCH  16  17
ATOM     17  C   UNL     1      -3.053   6.451 -16.518  1.00  0.00    -0.003 C 
ATOM     18  C   UNL     1      -4.355   5.999 -17.169  1.00  0.00     0.004 C 
ENDBRANCH  16  17
ENDBRANCH  15  16
ENDBRANCH  14  15
ENDBRANCH  13  14
ENDBRANCH  12  13
ENDBRANCH  11  12
ENDBRANCH   1  11
TORSDOF 14
ENDMDL
MODEL 3
REMARK VINA RESULT:    -5.159      2.173      5.043
REMARK INTER + INTRA:         -11.490
REMARK INTER:                  -9.444
REMARK INTRA:                  -2.045
REMARK UNBOUND:                -2.109
REMARK SMILES CCCCCCCCCCCCCCCC(=O)[O-]
REMARK SMILES IDX 9 1 10 2 11 3 12 4 13 5 14 6 15 7 16 8 17 9 18 10 8 11 7 12
REMARK SMILES IDX 6 13 5 14 4 15 3 16 2 17 1 18
REMARK H PARENT
REMARK Flexibility Score: inf
ROOT
ATOM      1  C   UNL     1      -0.724   5.188 -17.572  1.00  0.00     0.000 C 
ENDROOT
BRANCH   1   2
ATOM      2  C   UNL     1      -0.675   6.539 -18.317  1.00  0.00     0.000 C 
BRANCH   2   3
ATOM      3  C   UNL     1      -1.667   7.585 -17.774  1.00  0.00     0.000 C 
BRANCH   3   4
ATOM      4  C   UNL     1      -2.894   7.001 -17.051  1.00  0.00     0.000 C 
BRANCH   4   5
ATOM      5  C   UNL     1      -4.229   7.138 -17.813  1.00  0.00     0.000 C 
BRANCH   5   6
ATOM      6  C   UNL     1      -5.163   5.914 -17.725  1.00  0.00     0.006 C 
BRANCH   6   7
ATOM      7  C   UNL     1      -6.661   6.256 -17.721  1.00  0.00     0.053 C 
BRANCH   7   8
ATOM      8  C   UNL     1      -7.136   6.668 -16.362  1.00  0.00     0.041 C 
ATOM      9  O   UNL     1      -6.745   6.048 -15.338  1.00  0.00    -0.550 OA
ATOM     10  O   UNL     1      -8.036   7.717 -16.229  1.00  0.00    -0.550 OA
ENDBRANCH   7   8
ENDBRANCH   6   7
ENDBRANCH   5   6
ENDBRANCH   4   5
ENDBRANCH   3   4
ENDBRANCH   2   3
ENDBRANCH   1   2
BRANCH   1  11
ATOM     11  C   UNL     1      -1.428   4.088 -18.386  1.00  0.00     0.000 C 
BRANCH  11  12
ATOM     12  C   UNL     1      -1.501   4.438 -19.889  1.00  0.00    -0.000 C 
BRANCH  12  13
ATOM     13  C   UNL     1      -2.933   4.686 -20.395  1.00  0.00    -0.000 C 
BRANCH  13  14
ATOM     14  C   UNL     1      -3.084   6.038 -21.111  1.00  0.00    -0.000 C 
BRANCH  14  15
ATOM     15  C   UNL     1      -3.752   5.917 -22.492  1.00  0.00    -0.000 C 
BRANCH  15  16
ATOM     16  C   UNL     1      -5.077   6.685 -22.650  1.00  0.00    -0.000 C 
BRANCH  16  17
ATOM     17  C   UNL     1      -5.612   7.239 -21.322  1.00  0.00    -0.003 C 
ATOM     18  C   UNL     1      -7.134   7.154 -21.262  1.00  0.00     0.004 C 
ENDBRANCH  16  17
ENDBRANCH  15  16
ENDBRANCH  14  15
ENDBRANCH  13  14
ENDBRANCH  12  13
ENDBRANCH  11  12
ENDBRANCH   1  11
TORSDOF 14
ENDMDL
MODEL 4
REMARK VINA RESULT:    -5.147      1.236      4.780
REMARK INTER + INTRA:         -11.469
REMARK INTER:                  -9.433
REMARK INTRA:                  -2.035
REMARK UNBOUND:                -2.109
REMARK SMILES CCCCCCCCCCCCCCCC(=O)[O-]
REMARK SMILES IDX 9 1 10 2 11 3 12 4 13 5 14 6 15 7 16 8 17 9 18 10 8 11 7 12
REMARK SMILES IDX 6 13 5 14 4 15 3 16 2 17 1 18
REMARK H PARENT
REMARK Flexibility Score: inf
ROOT
ATOM      1  C   UNL     1      -3.994   7.006 -22.470  1.00  0.00     0.000 C 
ENDROOT
BRANCH   1   2
ATOM      2  C   UNL     1      -5.392   6.988 -23.126  1.00  0.00     0.000 C 
BRANCH   2   3
ATOM      3  C   UNL     1      -6.542   6.739 -22.132  1.00  0.00     0.000 C 
BRANCH   3   4
ATOM      4  C   UNL     1      -6.615   7.735 -20.961  1.00  0.00     0.000 C 
BRANCH   4   5
ATOM      5  C   UNL     1      -6.273   7.143 -19.577  1.00  0.00     0.000 C 
BRANCH   5   6
ATOM      6  C   UNL     1      -5.538   8.102 -18.618  1.00  0.00     0.006 C 
BRANCH   6   7
ATOM      7  C   UNL     1      -4.456   8.964 -19.288  1.00  0.00     0.053 C 
BRANCH   7   8
ATOM      8  C   UNL     1      -3.724   9.812 -18.295  1.00  0.00     0.041 C 
ATOM      9  O   UNL     1      -3.986   9.722 -17.066  1.00  0.00    -0.550 OA
ATOM     10  O   UNL     1      -2.773  10.727 -18.729  1.00  0.00    -0.550 OA
ENDBRANCH   7   8
ENDBRANCH   6   7
ENDBRANCH   5   6
ENDBRANCH   4   5
ENDBRANCH   3   4
ENDBRANCH   2   3
ENDBRANCH   1   2
BRANCH   1  11
ATOM     11  C   UNL     1      -3.561   5.619 -21.962  1.00  0.00     0.000 C 
BRANCH  11  12
ATOM     12  C   UNL     1      -3.035   5.672 -20.511  1.00  0.00    -0.000 C 
BRANCH  12  13
ATOM     13  C   UNL     1      -2.719   4.288 -19.918  1.00  0.00    -0.000 C 
BRANCH  13  14
ATOM     14  C   UNL     1      -1.240   4.134 -19.526  1.00  0.00    -0.000 C 
BRANCH  14  15
ATOM     15  C   UNL     1      -0.961   4.527 -18.065  1.00  0.00    -0.000 C 
BRANCH  15  16
ATOM     16  C   UNL     1      -0.449   5.965 -17.859  1.00  0.00    -0.000 C 
BRANCH  16  17
ATOM     17  C   UNL     1      -1.560   6.947 -17.462  1.00  0.00    -0.003 C 
ATOM     18  C   UNL     1      -2.702   6.228 -16.752  1.00  0.00     0.004 C 
ENDBRANCH  16  17
ENDBRANCH  15  16
ENDBRANCH  14  15
ENDBRANCH  13  14
ENDBRANCH  12  13
ENDBRANCH  11  12
ENDBRANCH   1  11
TORSDOF 14
ENDMDL
MODEL 5
REMARK VINA RESULT:    -5.126      1.490      3.322
REMARK INTER + INTRA:         -11.431
REMARK INTER:                  -9.888
REMARK INTRA:                  -1.543
REMARK UNBOUND:                -2.109
REMARK SMILES CCCCCCCCCCCCCCCC(=O)[O-]
REMARK SMILES IDX 9 1 10 2 11 3 12 4 13 5 14 6 15 7 16 8 17 9 18 10 8 11 7 12
REMARK SMILES IDX 6 13 5 14 4 15 3 16 2 17 1 18
REMARK H PARENT
REMARK Flexibility Score: inf
ROOT
ATOM      1  C   UNL     1      -3.020   4.774 -19.582  1.00  0.00     0.000 C 
ENDROOT
BRANCH   1   2
ATOM      2  C   UNL     1      -1.840   3.868 -19.167  1.00  0.00     0.000 C 
BRANCH   2   3
ATOM      3  C   UNL     1      -0.566   4.645 -18.785  1.00  0.00     0.000 C 
BRANCH   3   4
ATOM      4  C   UNL     1      -0.729   5.616 -17.601  1.00  0.00     0.000 C 
BRANCH   4   5
ATOM      5  C   UNL     1      -0.617   7.112 -17.963  1.00  0.00     0.000 C 
BRANCH   5   6
ATOM      6  C   UNL     1      -1.864   7.959 -17.636  1.00  0.00     0.006 C 
BRANCH   6   7
ATOM      7  C   UNL     1      -2.939   7.221 -16.823  1.00  0.00     0.053 C 
BRANCH   7   8
ATOM      8  C   UNL     1      -3.488   8.072 -15.720  1.00  0.00     0.041 C 
ATOM      9  O   UNL     1      -4.194   7.558 -14.812  1.00  0.00    -0.550 OA
ATOM     10  O   UNL     1      -3.248   9.440 -15.713  1.00  0.00    -0.550 OA
ENDBRANCH   7   8
ENDBRANCH   6   7
ENDBRANCH   5   6
ENDBRANCH   4   5
ENDBRANCH   3   4
ENDBRANCH   2   3
ENDBRANCH   1   2
BRANCH   1  11
ATOM     11  C   UNL     1      -2.687   5.662 -20.794  1.00  0.00     0.000 C 
BRANCH  11  12
ATOM     12  C   UNL     1      -3.780   5.590 -21.883  1.00  0.00    -0.000 C 
BRANCH  12  13
ATOM     13  C   UNL     1      -4.226   6.968 -22.402  1.00  0.00    -0.000 C 
BRANCH  13  14
ATOM     14  C   UNL     1      -5.531   6.903 -23.212  1.00  0.00    -0.000 C 
BRANCH  14  15
ATOM     15  C   UNL     1      -6.786   6.819 -22.325  1.00  0.00    -0.000 C 
BRANCH  15  16
ATOM     16  C   UNL     1      -6.775   7.732 -21.084  1.00  0.00    -0.000 C 
BRANCH  16  17
ATOM     17  C   UNL     1      -7.537   7.135 -19.892  1.00  0.00    -0.003 C 
ATOM     18  C   UNL     1      -6.598   6.859 -18.722  1.00  0.00     0.004 C 
ENDBRANCH  16  17
ENDBRANCH  15  16
ENDBRANCH  14  15
ENDBRANCH  13  14
ENDBRANCH  12  13
ENDBRANCH  11  12
ENDBRANCH   1  11
TORSDOF 14
ENDMDL
MODEL 6
REMARK VINA RESULT:    -5.125      1.484      4.125
REMARK INTER + INTRA:         -11.428
REMARK INTER:                  -9.249
REMARK INTRA:                  -2.179
REMARK UNBOUND:                -2.109
REMARK SMILES CCCCCCCCCCCCCCCC(=O)[O-]
REMARK SMILES IDX 9 1 10 2 11 3 12 4 13 5 14 6 15 7 16 8 17 9 18 10 8 11 7 12
REMARK SMILES IDX 6 13 5 14 4 15 3 16 2 17 1 18
REMARK H PARENT
REMARK Flexibility Score: inf
ROOT
ATOM      1  C   UNL     1      -6.799   7.772 -21.009  1.00  0.00     0.000 C 
ENDROOT
BRANCH   1   2
ATOM      2  C   UNL     1      -7.773   7.379 -19.878  1.00  0.00     0.000 C 
BRANCH   2   3
ATOM      3  C   UNL     1      -7.076   7.062 -18.541  1.00  0.00     0.000 C 
BRANCH   3   4
ATOM      4  C   UNL     1      -5.635   6.538 -18.668  1.00  0.00     0.000 C 
BRANCH   4   5
ATOM      5  C   UNL     1      -4.566   7.378 -17.938  1.00  0.00     0.000 C 
BRANCH   5   6
ATOM      6  C   UNL     1      -3.871   8.449 -18.803  1.00  0.00     0.006 C 
BRANCH   6   7
ATOM      7  C   UNL     1      -2.846   9.310 -18.048  1.00  0.00     0.053 C 
BRANCH   7   8
ATOM      8  C   UNL     1      -3.474  10.058 -16.913  1.00  0.00     0.041 C 
ATOM      9  O   UNL     1      -4.329  10.955 -17.138  1.00  0.00    -0.550 OA
ATOM     10  O   UNL     1      -3.090   9.787 -15.605  1.00  0.00    -0.550 OA
ENDBRANCH   7   8
ENDBRANCH   6   7
ENDBRANCH   5   6
ENDBRANCH   4   5
ENDBRANCH   3   4
ENDBRANCH   2   3
ENDBRANCH   1   2
BRANCH   1  11
ATOM     11  C   UNL     1      -6.873   6.816 -22.213  1.00  0.00     0.000 C 
BRANCH  11  12
ATOM     12  C   UNL     1      -5.583   6.855 -23.063  1.00  0.00    -0.000 C 
BRANCH  12  13
ATOM     13  C   UNL     1      -4.299   7.005 -22.229  1.00  0.00    -0.000 C 
BRANCH  13  14
ATOM     14  C   UNL     1      -3.596   5.662 -21.974  1.00  0.00    -0.000 C 
BRANCH  14  15
ATOM     15  C   UNL     1      -2.626   5.708 -20.780  1.00  0.00    -0.000 C 
BRANCH  15  16
ATOM     16  C   UNL     1      -2.617   4.448 -19.893  1.00  0.00    -0.000 C 
BRANCH  16  17
ATOM     17  C   UNL     1      -1.897   4.662 -18.554  1.00  0.00    -0.003 C 
ATOM     18  C   UNL     1      -0.831   5.746 -18.669  1.00  0.00     0.004 C 
ENDBRANCH  16  17
ENDBRANCH  15  16
ENDBRANCH  14  15
ENDBRANCH  13  14
ENDBRANCH  12  13
ENDBRANCH  11  12
ENDBRANCH   1  11
TORSDOF 14
ENDMDL
MODEL 7
REMARK VINA RESULT:    -5.098      1.579      2.333
REMARK INTER + INTRA:         -11.379
REMARK INTER:                  -9.349
REMARK INTRA:                  -2.031
REMARK UNBOUND:                -2.109
REMARK SMILES CCCCCCCCCCCCCCCC(=O)[O-]
REMARK SMILES IDX 9 1 10 2 11 3 12 4 13 5 14 6 15 7 16 8 17 9 18 10 8 11 7 12
REMARK SMILES IDX 6 13 5 14 4 15 3 16 2 17 1 18
REMARK H PARENT
REMARK Flexibility Score: inf
ROOT
ATOM      1  C   UNL     1      -4.254   7.041 -22.560  1.00  0.00     0.000 C 
ENDROOT
BRANCH   1   2
ATOM      2  C   UNL     1      -3.611   5.711 -22.113  1.00  0.00     0.000 C 
BRANCH   2   3
ATOM      3  C   UNL     1      -2.948   5.777 -20.724  1.00  0.00     0.000 C 
BRANCH   3   4
ATOM      4  C   UNL     1      -3.901   6.125 -19.566  1.00  0.00     0.000 C 
BRANCH   4   5
ATOM      5  C   UNL     1      -3.611   7.468 -18.862  1.00  0.00     0.000 C 
BRANCH   5   6
ATOM      6  C   UNL     1      -2.541   7.409 -17.754  1.00  0.00     0.006 C 
BRANCH   6   7
ATOM      7  C   UNL     1      -2.374   6.026 -17.104  1.00  0.00     0.053 C 
BRANCH   7   8
ATOM      8  C   UNL     1      -1.095   5.366 -17.517  1.00  0.00     0.041 C 
ATOM      9  O   UNL     1      -0.007   5.997 -17.459  1.00  0.00    -0.550 OA
ATOM     10  O   UNL     1      -1.110   4.063 -17.998  1.00  0.00    -0.550 OA
ENDBRANCH   7   8
ENDBRANCH   6   7
ENDBRANCH   5   6
ENDBRANCH   4   5
ENDBRANCH   3   4
ENDBRANCH   2   3
ENDBRANCH   1   2
BRANCH   1  11
ATOM     11  C   UNL     1      -5.617   6.838 -23.246  1.00  0.00     0.000 C 
BRANCH  11  12
ATOM     12  C   UNL     1      -6.794   7.209 -22.317  1.00  0.00    -0.000 C 
BRANCH  12  13
ATOM     13  C   UNL     1      -6.478   8.365 -21.352  1.00  0.00    -0.000 C 
BRANCH  13  14
ATOM     14  C   UNL     1      -7.510   8.494 -20.220  1.00  0.00    -0.000 C 
BRANCH  14  15
ATOM     15  C   UNL     1      -7.658   7.205 -19.392  1.00  0.00    -0.000 C 
BRANCH  15  16
ATOM     16  C   UNL     1      -7.261   7.329 -17.909  1.00  0.00    -0.000 C 
BRANCH  16  17
ATOM     17  C   UNL     1      -6.801   5.999 -17.297  1.00  0.00    -0.003 C 
ATOM     18  C   UNL     1      -5.974   6.229 -16.037  1.00  0.00     0.004 C 
ENDBRANCH  16  17
ENDBRANCH  15  16
ENDBRANCH  14  15
ENDBRANCH  13  14
ENDBRANCH  12  13
ENDBRANCH  11  12
ENDBRANCH   1  11
TORSDOF 14
ENDMDL
MODEL 8
REMARK VINA RESULT:    -5.093      1.921      4.563
REMARK INTER + INTRA:         -11.369
REMARK INTER:                  -9.432
REMARK INTRA:                  -1.937
REMARK UNBOUND:                -2.109
REMARK SMILES CCCCCCCCCCCCCCCC(=O)[O-]
REMARK SMILES IDX 9 1 10 2 11 3 12 4 13 5 14 6 15 7 16 8 17 9 18 10 8 11 7 12
REMARK SMILES IDX 6 13 5 14 4 15 3 16 2 17 1 18
REMARK H PARENT
REMARK Flexibility Score: inf
ROOT
ATOM      1  C   UNL     1      -6.657   8.007 -21.743  1.00  0.00     0.000 C 
ENDROOT
BRANCH   1   2
ATOM      2  C   UNL     1      -7.348   7.234 -20.599  1.00  0.00     0.000 C 
BRANCH   2   3
ATOM      3  C   UNL     1      -6.799   7.574 -19.200  1.00  0.00     0.000 C 
BRANCH   3   4
ATOM      4  C   UNL     1      -5.509   6.829 -18.811  1.00  0.00     0.000 C 
BRANCH   4   5
ATOM      5  C   UNL     1      -4.470   7.677 -18.048  1.00  0.00     0.000 C 
BRANCH   5   6
ATOM      6  C   UNL     1      -3.636   8.634 -18.923  1.00  0.00     0.006 C 
BRANCH   6   7
ATOM      7  C   UNL     1      -3.136   9.891 -18.192  1.00  0.00     0.053 C 
BRANCH   7   8
ATOM      8  C   UNL     1      -3.564  11.147 -18.886  1.00  0.00     0.041 C 
ATOM      9  O   UNL     1      -4.629  11.171 -19.558  1.00  0.00    -0.550 OA
ATOM     10  O   UNL     1      -2.769  12.284 -18.816  1.00  0.00    -0.550 OA
ENDBRANCH   7   8
ENDBRANCH   6   7
ENDBRANCH   5   6
ENDBRANCH   4   5
ENDBRANCH   3   4
ENDBRANCH   2   3
ENDBRANCH   1   2
BRANCH   1  11
ATOM     11  C   UNL     1      -5.878   7.082 -22.696  1.00  0.00     0.000 C 
BRANCH  11  12
ATOM     12  C   UNL     1      -4.365   7.072 -22.384  1.00  0.00    -0.000 C 
BRANCH  12  13
ATOM     13  C   UNL     1      -3.825   5.685 -21.995  1.00  0.00    -0.000 C 
BRANCH  13  14
ATOM     14  C   UNL     1      -2.684   5.759 -20.967  1.00  0.00    -0.000 C 
BRANCH  14  15
ATOM     15  C   UNL     1      -2.685   4.576 -19.982  1.00  0.00    -0.000 C 
BRANCH  15  16
ATOM     16  C   UNL     1      -1.306   4.199 -19.409  1.00  0.00    -0.000 C 
BRANCH  16  17
ATOM     17  C   UNL     1      -1.129   4.619 -17.943  1.00  0.00    -0.003 C 
ATOM     18  C   UNL     1      -0.728   6.086 -17.836  1.00  0.00     0.004 C 
ENDBRANCH  16  17
ENDBRANCH  15  16
ENDBRANCH  14  15
ENDBRANCH  13  14
ENDBRANCH  12  13
ENDBRANCH  11  12
ENDBRANCH   1  11
TORSDOF 14
ENDMDL
MODEL 9
REMARK VINA RESULT:    -5.078      1.069      2.543
REMARK INTER + INTRA:         -11.344
REMARK INTER:                  -9.233
REMARK INTRA:                  -2.110
REMARK UNBOUND:                -2.109
REMARK SMILES CCCCCCCCCCCCCCCC(=O)[O-]
REMARK SMILES IDX 9 1 10 2 11 3 12 4 13 5 14 6 15 7 16 8 17 9 18 10 8 11 7 12
REMARK SMILES IDX 6 13 5 14 4 15 3 16 2 17 1 18
REMARK H PARENT
REMARK Flexibility Score: inf
ROOT
ATOM      1  C   UNL     1      -6.968   7.209 -22.074  1.00  0.00     0.000 C 
ENDROOT
BRANCH   1   2
ATOM      2  C   UNL     1      -5.762   6.757 -22.926  1.00  0.00     0.000 C 
BRANCH   2   3
ATOM      3  C   UNL     1      -4.397   7.039 -22.270  1.00  0.00     0.000 C 
BRANCH   3   4
ATOM      4  C   UNL     1      -3.514   5.797 -22.052  1.00  0.00     0.000 C 
BRANCH   4   5
ATOM      5  C   UNL     1      -2.708   5.791 -20.736  1.00  0.00     0.000 C 
BRANCH   5   6
ATOM      6  C   UNL     1      -2.699   4.447 -19.979  1.00  0.00     0.006 C 
BRANCH   6   7
ATOM      7  C   UNL     1      -1.467   4.227 -19.087  1.00  0.00     0.053 C 
BRANCH   7   8
ATOM      8  C   UNL     1      -1.510   5.079 -17.856  1.00  0.00     0.041 C 
ATOM      9  O   UNL     1      -2.592   5.241 -17.232  1.00  0.00    -0.550 OA
ATOM     10  O   UNL     1      -0.360   5.722 -17.416  1.00  0.00    -0.550 OA
ENDBRANCH   7   8
ENDBRANCH   6   7
ENDBRANCH   5   6
ENDBRANCH   4   5
ENDBRANCH   3   4
ENDBRANCH   2   3
ENDBRANCH   1   2
BRANCH   1  11
ATOM     11  C   UNL     1      -6.675   8.484 -21.262  1.00  0.00     0.000 C 
BRANCH  11  12
ATOM     12  C   UNL     1      -7.246   8.402 -19.829  1.00  0.00    -0.000 C 
BRANCH  12  13
ATOM     13  C   UNL     1      -7.087   7.016 -19.180  1.00  0.00    -0.000 C 
BRANCH  13  14
ATOM     14  C   UNL     1      -5.652   6.747 -18.698  1.00  0.00    -0.000 C 
BRANCH  14  15
ATOM     15  C   UNL     1      -5.035   7.942 -17.950  1.00  0.00    -0.000 C 
BRANCH  15  16
ATOM     16  C   UNL     1      -3.829   8.600 -18.647  1.00  0.00    -0.000 C 
BRANCH  16  17
ATOM     17  C   UNL     1      -3.764  10.118 -18.429  1.00  0.00    -0.003 C 
ATOM     18  C   UNL     1      -4.424  10.869 -19.580  1.00  0.00     0.004 C 
ENDBRANCH  16  17
ENDBRANCH  15  16
ENDBRANCH  14  15
ENDBRANCH  13  14
ENDBRANCH  12  13
ENDBRANCH  11  12
ENDBRANCH   1  11
TORSDOF 14
ENDMDL
