MODEL 1
REMARK VINA RESULT:    -4.616      0.000      0.000
REMARK INTER + INTRA:          -6.699
REMARK INTER:                  -6.100
REMARK INTRA:                  -0.599
REMARK UNBOUND:                -0.599
REMARK SMILES CC[C@H](C=C[C@H](C)[C@H]1CC[C@H]2C3=CC[C@H]4C[C@H](O)CC[C@@]4(C)[C@@H]3CC[C@@]12C)C(C)C
REMARK SMILES IDX 6 1 7 2 5 3 4 4 3 5 2 6 1 7 28 8 29 9 30 10 8 11 9 12 26 13
REMARK SMILES IDX 10 14 11 15 25 16 27 17 12 18 24 19 23 20 13 21 21 22 14 23
REMARK SMILES IDX 15 24 20 25 22 26 16 27 19 28 17 29 18 30
REMARK H PARENT 18 31
REMARK Flexibility Score: inf
ROOT
ATOM      1  C   UNL     1       6.063  10.432  -3.510  1.00  0.00     0.012 C 
ATOM      2  C   UNL     1       6.008   9.218  -2.568  1.00  0.00     0.012 C 
ENDROOT
BRANCH   1   3
ATOM      3  C   UNL     1       6.610  11.610  -2.729  1.00  0.00    -0.028 C 
ATOM      4  C   UNL     1       7.192  11.446  -1.528  1.00  0.00    -0.027 C 
BRANCH   4   5
ATOM      5  C   UNL     1       7.691  12.610  -0.691  1.00  0.00     0.014 C 
BRANCH   5   6
ATOM      6  C   UNL     1       6.926  12.691   0.656  1.00  0.00     0.004 C 
ATOM      7  C   UNL     1       6.200  11.390   1.017  1.00  0.00     0.004 C 
ENDBRANCH   5   6
BRANCH   5   8
ATOM      8  C   UNL     1       9.242  12.561  -0.496  1.00  0.00    -0.011 C 
ATOM      9  C   UNL     1       9.743  13.720   0.394  1.00  0.00     0.008 C 
ATOM     10  C   UNL     1       9.992  12.611  -1.840  1.00  0.00     0.008 C 
ENDBRANCH   5   8
ENDBRANCH   4   5
ENDBRANCH   1   3
BRANCH   1  11
ATOM     11  C   UNL     1       6.902  10.236  -4.825  1.00  0.00     0.002 C 
ATOM     12  C   UNL     1       8.382   9.859  -4.648  1.00  0.00     0.005 C 
ATOM     13  C   UNL     1       6.352   9.223  -5.868  1.00  0.00    -0.023 C 
ATOM     14  C   UNL     1       8.835   9.301  -5.998  1.00  0.00     0.009 C 
ATOM     15  C   UNL     1       7.566   9.100  -6.843  1.00  0.00     0.021 C 
ATOM     16  C   UNL     1       5.959   7.849  -5.210  1.00  0.00     0.008 C 
ATOM     17  C   UNL     1       5.125   9.808  -6.607  1.00  0.00     0.012 C 
ATOM     18  C   UNL     1       7.545   7.797  -7.620  1.00  0.00    -0.067 C 
ATOM     19  C   UNL     1       5.950   6.644  -6.179  1.00  0.00     0.009 C 
ATOM     20  C   UNL     1       7.335   6.521  -6.839  1.00  0.00     0.021 C 
ATOM     21  C   UNL     1       7.300   7.821  -8.938  1.00  0.00    -0.027 C 
ATOM     22  C   UNL     1       7.659   5.237  -7.712  1.00  0.00    -0.023 C 
ATOM     23  C   UNL     1       6.530   6.711  -9.592  1.00  0.00     0.031 C 
ATOM     24  C   UNL     1       6.924   5.278  -9.120  1.00  0.00     0.002 C 
ATOM     25  C   UNL     1       9.233   5.165  -7.832  1.00  0.00     0.010 C 
ATOM     26  C   UNL     1       7.185   3.979  -6.938  1.00  0.00     0.012 C 
ATOM     27  C   UNL     1       7.587   4.470 -10.292  1.00  0.00     0.036 C 
ATOM     28  C   UNL     1       9.804   4.915  -9.226  1.00  0.00     0.032 C 
ATOM     29  C   UNL     1       8.983   3.917 -10.024  1.00  0.00     0.114 C 
BRANCH  29  30
ATOM     30  O   UNL     1       8.913   2.683  -9.350  1.00  0.00    -0.393 OA
ATOM     31  H   UNL     1       8.171   2.168  -9.754  1.00  0.00     0.210 HD
ENDBRANCH  29  30
ENDBRANCH   1  11
TORSDOF 6
ENDMDL
MODEL 2
REMARK VINA RESULT:    -4.600      3.297      5.149
REMARK INTER + INTRA:          -6.678
REMARK INTER:                  -5.386
REMARK INTRA:                  -1.292
REMARK UNBOUND:                -0.599
REMARK SMILES CC[C@H](C=C[C@H](C)[C@H]1CC[C@H]2C3=CC[C@H]4C[C@H](O)CC[C@@]4(C)[C@@H]3CC[C@@]12C)C(C)C
REMARK SMILES IDX 6 1 7 2 5 3 4 4 3 5 2 6 1 7 28 8 29 9 30 10 8 11 9 12 26 13
REMARK SMILES IDX 10 14 11 15 25 16 27 17 12 18 24 19 23 20 13 21 21 22 14 23
REMARK SMILES IDX 15 24 20 25 22 26 16 27 19 28 17 29 18 30
REMARK H PARENT 18 31
REMARK Flexibility Score: inf
ROOT
ATOM      1  C   UNL     1       9.516  10.810  -9.225  1.00  0.00     0.012 C 
ATOM      2  C   UNL     1       8.399  11.522 -10.006  1.00  0.00     0.012 C 
ENDROOT
BRANCH   1   3
ATOM      3  C   UNL     1      10.309  11.861  -8.474  1.00  0.00    -0.028 C 
ATOM      4  C   UNL     1      10.848  11.605  -7.269  1.00  0.00    -0.027 C 
BRANCH   4   5
ATOM      5  C   UNL     1      11.592  12.654  -6.462  1.00  0.00     0.014 C 
BRANCH   5   6
ATOM      6  C   UNL     1      10.823  12.997  -5.159  1.00  0.00     0.004 C 
ATOM      7  C   UNL     1       9.523  12.200  -4.997  1.00  0.00     0.004 C 
ENDBRANCH   5   6
BRANCH   5   8
ATOM      8  C   UNL     1      13.073  12.233  -6.190  1.00  0.00    -0.011 C 
ATOM      9  C   UNL     1      13.864  13.353  -5.478  1.00  0.00     0.008 C 
ATOM     10  C   UNL     1      13.811  11.857  -7.489  1.00  0.00     0.008 C 
ENDBRANCH   5   8
ENDBRANCH   4   5
ENDBRANCH   1   3
BRANCH   1  11
ATOM     11  C   UNL     1       9.043   9.692  -8.226  1.00  0.00     0.002 C 
ATOM     12  C   UNL     1       7.527   9.564  -8.004  1.00  0.00     0.005 C 
ATOM     13  C   UNL     1       9.530   8.243  -8.506  1.00  0.00    -0.023 C 
ATOM     14  C   UNL     1       7.311   8.183  -7.385  1.00  0.00     0.009 C 
ATOM     15  C   UNL     1       8.643   7.426  -7.514  1.00  0.00     0.021 C 
ATOM     16  C   UNL     1       9.311   7.823 -10.007  1.00  0.00     0.008 C 
ATOM     17  C   UNL     1      11.026   8.089  -8.143  1.00  0.00     0.012 C 
ATOM     18  C   UNL     1       8.489   5.979  -7.945  1.00  0.00    -0.067 C 
ATOM     19  C   UNL     1       9.227   6.298 -10.248  1.00  0.00     0.009 C 
ATOM     20  C   UNL     1       8.097   5.715  -9.379  1.00  0.00     0.021 C 
ATOM     21  C   UNL     1       9.075   5.013  -7.223  1.00  0.00    -0.027 C 
ATOM     22  C   UNL     1       7.658   4.207  -9.601  1.00  0.00    -0.023 C 
ATOM     23  C   UNL     1       9.632   3.791  -7.894  1.00  0.00     0.031 C 
ATOM     24  C   UNL     1       8.724   3.188  -9.008  1.00  0.00     0.002 C 
ATOM     25  C   UNL     1       6.225   4.060  -8.951  1.00  0.00     0.010 C 
ATOM     26  C   UNL     1       7.516   3.951 -11.124  1.00  0.00     0.012 C 
ATOM     27  C   UNL     1       8.193   1.771  -8.587  1.00  0.00     0.036 C 
ATOM     28  C   UNL     1       6.003   2.849  -8.047  1.00  0.00     0.032 C 
ATOM     29  C   UNL     1       6.678   1.594  -8.574  1.00  0.00     0.114 C 
BRANCH  29  30
ATOM     30  O   UNL     1       6.199   1.278  -9.859  1.00  0.00    -0.393 OA
ATOM     31  H   UNL     1       6.825   1.678 -10.514  1.00  0.00     0.210 HD
ENDBRANCH  29  30
ENDBRANCH   1  11
TORSDOF 6
ENDMDL
MODEL 3
REMARK VINA RESULT:    -4.577      1.513      2.822
REMARK INTER + INTRA:          -6.647
REMARK INTER:                  -5.474
REMARK INTRA:                  -1.173
REMARK UNBOUND:                -0.599
REMARK SMILES CC[C@H](C=C[C@H](C)[C@H]1CC[C@H]2C3=CC[C@H]4C[C@H](O)CC[C@@]4(C)[C@@H]3CC[C@@]12C)C(C)C
REMARK SMILES IDX 6 1 7 2 5 3 4 4 3 5 2 6 1 7 28 8 29 9 30 10 8 11 9 12 26 13
REMARK SMILES IDX 10 14 11 15 25 16 27 17 12 18 24 19 23 20 13 21 21 22 14 23
REMARK SMILES IDX 15 24 20 25 22 26 16 27 19 28 17 29 18 30
REMARK H PARENT 18 31
REMARK Flexibility Score: inf
ROOT
ATOM      1  C   UNL     1       7.735  11.888  -6.147  1.00  0.00     0.012 C 
ATOM      2  C   UNL     1       7.622  13.067  -7.129  1.00  0.00     0.012 C 
ENDROOT
BRANCH   1   3
ATOM      3  C   UNL     1       7.374  12.391  -4.764  1.00  0.00    -0.028 C 
ATOM      4  C   UNL     1       8.194  12.205  -3.714  1.00  0.00    -0.027 C 
BRANCH   4   5
ATOM      5  C   UNL     1       7.834  12.638  -2.304  1.00  0.00     0.014 C 
BRANCH   5   6
ATOM      6  C   UNL     1       6.523  11.954  -1.833  1.00  0.00     0.004 C 
ATOM      7  C   UNL     1       6.655  10.433  -1.686  1.00  0.00     0.004 C 
ENDBRANCH   5   6
BRANCH   5   8
ATOM      8  C   UNL     1       9.018  12.413  -1.308  1.00  0.00    -0.011 C 
ATOM      9  C   UNL     1       8.724  13.026   0.079  1.00  0.00     0.008 C 
ATOM     10  C   UNL     1      10.336  13.005  -1.840  1.00  0.00     0.008 C 
ENDBRANCH   5   8
ENDBRANCH   4   5
ENDBRANCH   1   3
BRANCH   1  11
ATOM     11  C   UNL     1       6.865  10.626  -6.494  1.00  0.00     0.002 C 
ATOM     12  C   UNL     1       6.226  10.594  -7.892  1.00  0.00     0.005 C 
ATOM     13  C   UNL     1       7.540   9.236  -6.330  1.00  0.00    -0.023 C 
ATOM     14  C   UNL     1       5.836   9.137  -8.139  1.00  0.00     0.009 C 
ATOM     15  C   UNL     1       6.497   8.307  -7.026  1.00  0.00     0.021 C 
ATOM     16  C   UNL     1       8.957   9.181  -7.015  1.00  0.00     0.008 C 
ATOM     17  C   UNL     1       7.678   8.867  -4.834  1.00  0.00     0.012 C 
ATOM     18  C   UNL     1       7.120   7.011  -7.513  1.00  0.00    -0.067 C 
ATOM     19  C   UNL     1       9.438   7.762  -7.395  1.00  0.00     0.009 C 
ATOM     20  C   UNL     1       8.394   7.109  -8.318  1.00  0.00     0.021 C 
ATOM     21  C   UNL     1       6.800   5.859  -6.906  1.00  0.00    -0.027 C 
ATOM     22  C   UNL     1       8.748   5.735  -9.028  1.00  0.00    -0.023 C 
ATOM     23  C   UNL     1       7.820   4.769  -6.750  1.00  0.00     0.031 C 
ATOM     24  C   UNL     1       8.701   4.515  -8.010  1.00  0.00     0.002 C 
ATOM     25  C   UNL     1       7.736   5.581 -10.232  1.00  0.00     0.010 C 
ATOM     26  C   UNL     1      10.178   5.836  -9.620  1.00  0.00     0.012 C 
ATOM     27  C   UNL     1       8.409   3.096  -8.616  1.00  0.00     0.036 C 
ATOM     28  C   UNL     1       7.048   4.227 -10.382  1.00  0.00     0.032 C 
ATOM     29  C   UNL     1       7.975   3.062 -10.078  1.00  0.00     0.114 C 
BRANCH  29  30
ATOM     30  O   UNL     1       9.092   3.084 -10.933  1.00  0.00    -0.393 OA
ATOM     31  H   UNL     1       8.802   3.495 -11.786  1.00  0.00     0.210 HD
ENDBRANCH  29  30
ENDBRANCH   1  11
TORSDOF 6
ENDMDL
MODEL 4
REMARK VINA RESULT:    -4.525     16.300     17.838
REMARK INTER + INTRA:          -6.578
REMARK INTER:                  -5.441
REMARK INTRA:                  -1.138
REMARK UNBOUND:                -0.599
REMARK SMILES CC[C@H](C=C[C@H](C)[C@H]1CC[C@H]2C3=CC[C@H]4C[C@H](O)CC[C@@]4(C)[C@@H]3CC[C@@]12C)C(C)C
REMARK SMILES IDX 6 1 7 2 5 3 4 4 3 5 2 6 1 7 28 8 29 9 30 10 8 11 9 12 26 13
REMARK SMILES IDX 10 14 11 15 25 16 27 17 12 18 24 19 23 20 13 21 21 22 14 23
REMARK SMILES IDX 15 24 20 25 22 26 16 27 19 28 17 29 18 30
REMARK H PARENT 18 31
REMARK Flexibility Score: inf
ROOT
ATOM      1  C   UNL     1      22.542   0.659   4.912  1.00  0.00     0.012 C 
ATOM      2  C   UNL     1      23.949   0.269   5.394  1.00  0.00     0.012 C 
ENDROOT
BRANCH   1   3
ATOM      3  C   UNL     1      21.768   1.196   6.099  1.00  0.00    -0.028 C 
ATOM      4  C   UNL     1      20.508   0.801   6.352  1.00  0.00    -0.027 C 
BRANCH   4   5
ATOM      5  C   UNL     1      19.684   1.366   7.494  1.00  0.00     0.014 C 
BRANCH   5   6
ATOM      6  C   UNL     1      19.513   2.902   7.346  1.00  0.00     0.004 C 
ATOM      7  C   UNL     1      18.095   3.386   7.672  1.00  0.00     0.004 C 
ENDBRANCH   5   6
BRANCH   5   8
ATOM      8  C   UNL     1      18.315   0.625   7.644  1.00  0.00    -0.011 C 
ATOM      9  C   UNL     1      18.146   0.016   9.054  1.00  0.00     0.008 C 
ATOM     10  C   UNL     1      18.152  -0.495   6.600  1.00  0.00     0.008 C 
ENDBRANCH   5   8
ENDBRANCH   4   5
ENDBRANCH   1   3
BRANCH   1  11
ATOM     11  C   UNL     1      22.490   1.699   3.734  1.00  0.00     0.002 C 
ATOM     12  C   UNL     1      23.840   2.224   3.219  1.00  0.00     0.005 C 
ATOM     13  C   UNL     1      21.709   1.281   2.457  1.00  0.00    -0.023 C 
ATOM     14  C   UNL     1      23.555   2.831   1.845  1.00  0.00     0.009 C 
ATOM     15  C   UNL     1      22.127   2.408   1.461  1.00  0.00     0.021 C 
ATOM     16  C   UNL     1      22.115  -0.155   1.957  1.00  0.00     0.008 C 
ATOM     17  C   UNL     1      20.183   1.323   2.709  1.00  0.00     0.012 C 
ATOM     18  C   UNL     1      21.983   1.974   0.014  1.00  0.00    -0.067 C 
ATOM     19  C   UNL     1      21.846  -0.421   0.458  1.00  0.00     0.009 C 
ATOM     20  C   UNL     1      22.579   0.643  -0.379  1.00  0.00     0.021 C 
ATOM     21  C   UNL     1      21.028   2.529  -0.747  1.00  0.00    -0.027 C 
ATOM     22  C   UNL     1      22.645   0.470  -1.954  1.00  0.00    -0.023 C 
ATOM     23  C   UNL     1      20.322   1.721  -1.796  1.00  0.00     0.031 C 
ATOM     24  C   UNL     1      21.251   0.799  -2.644  1.00  0.00     0.002 C 
ATOM     25  C   UNL     1      23.823   1.396  -2.456  1.00  0.00     0.010 C 
ATOM     26  C   UNL     1      23.026  -0.998  -2.277  1.00  0.00     0.012 C 
ATOM     27  C   UNL     1      21.294   1.277  -4.139  1.00  0.00     0.036 C 
ATOM     28  C   UNL     1      23.530   2.288  -3.660  1.00  0.00     0.032 C 
ATOM     29  C   UNL     1      22.673   1.596  -4.707  1.00  0.00     0.114 C 
BRANCH  29  30
ATOM     30  O   UNL     1      23.308   0.428  -5.169  1.00  0.00    -0.393 OA
ATOM     31  H   UNL     1      22.608  -0.151  -5.564  1.00  0.00     0.210 HD
ENDBRANCH  29  30
ENDBRANCH   1  11
TORSDOF 6
ENDMDL
MODEL 5
REMARK VINA RESULT:    -4.478     15.125     18.989
REMARK INTER + INTRA:          -6.517
REMARK INTER:                  -5.322
REMARK INTRA:                  -1.194
REMARK UNBOUND:                -0.599
REMARK SMILES CC[C@H](C=C[C@H](C)[C@H]1CC[C@H]2C3=CC[C@H]4C[C@H](O)CC[C@@]4(C)[C@@H]3CC[C@@]12C)C(C)C
REMARK SMILES IDX 6 1 7 2 5 3 4 4 3 5 2 6 1 7 28 8 29 9 30 10 8 11 9 12 26 13
REMARK SMILES IDX 10 14 11 15 25 16 27 17 12 18 24 19 23 20 13 21 21 22 14 23
REMARK SMILES IDX 15 24 20 25 22 26 16 27 19 28 17 29 18 30
REMARK H PARENT 18 31
REMARK Flexibility Score: inf
ROOT
ATOM      1  C   UNL     1      21.679  -2.524  -5.659  1.00  0.00     0.012 C 
ATOM      2  C   UNL     1      20.783  -3.566  -4.968  1.00  0.00     0.012 C 
ENDROOT
BRANCH   1   3
ATOM      3  C   UNL     1      21.587  -2.741  -7.156  1.00  0.00    -0.028 C 
ATOM      4  C   UNL     1      20.402  -2.908  -7.769  1.00  0.00    -0.027 C 
BRANCH   4   5
ATOM      5  C   UNL     1      20.278  -3.192  -9.255  1.00  0.00     0.014 C 
BRANCH   5   6
ATOM      6  C   UNL     1      20.688  -4.654  -9.574  1.00  0.00     0.004 C 
ATOM      7  C   UNL     1      20.002  -5.685  -8.670  1.00  0.00     0.004 C 
ENDBRANCH   5   6
BRANCH   5   8
ATOM      8  C   UNL     1      18.855  -2.839  -9.797  1.00  0.00    -0.011 C 
ATOM      9  C   UNL     1      18.903  -1.683 -10.821  1.00  0.00     0.008 C 
ATOM     10  C   UNL     1      17.888  -2.452  -8.662  1.00  0.00     0.008 C 
ENDBRANCH   5   8
ENDBRANCH   4   5
ENDBRANCH   1   3
BRANCH   1  11
ATOM     11  C   UNL     1      21.359  -1.022  -5.323  1.00  0.00     0.002 C 
ATOM     12  C   UNL     1      20.057  -0.751  -4.552  1.00  0.00     0.005 C 
ATOM     13  C   UNL     1      22.451  -0.222  -4.559  1.00  0.00    -0.023 C 
ATOM     14  C   UNL     1      20.199   0.658  -3.975  1.00  0.00     0.009 C 
ATOM     15  C   UNL     1      21.667   1.072  -4.173  1.00  0.00     0.021 C 
ATOM     16  C   UNL     1      22.991  -1.004  -3.305  1.00  0.00     0.008 C 
ATOM     17  C   UNL     1      23.633   0.124  -5.496  1.00  0.00     0.012 C 
ATOM     18  C   UNL     1      22.275   1.772  -2.972  1.00  0.00    -0.067 C 
ATOM     19  C   UNL     1      23.619  -0.115  -2.207  1.00  0.00     0.009 C 
ATOM     20  C   UNL     1      22.583   0.931  -1.756  1.00  0.00     0.021 C 
ATOM     21  C   UNL     1      22.887   2.953  -3.140  1.00  0.00    -0.027 C 
ATOM     22  C   UNL     1      22.900   1.828  -0.486  1.00  0.00    -0.023 C 
ATOM     23  C   UNL     1      24.090   3.314  -2.319  1.00  0.00     0.031 C 
ATOM     24  C   UNL     1      23.982   2.947  -0.807  1.00  0.00     0.002 C 
ATOM     25  C   UNL     1      21.517   2.419  -0.001  1.00  0.00     0.010 C 
ATOM     26  C   UNL     1      23.447   0.915   0.642  1.00  0.00     0.012 C 
ATOM     27  C   UNL     1      23.947   4.243   0.078  1.00  0.00     0.036 C 
ATOM     28  C   UNL     1      21.480   3.913   0.310  1.00  0.00     0.032 C 
ATOM     29  C   UNL     1      22.743   4.398   1.001  1.00  0.00     0.114 C 
BRANCH  29  30
ATOM     30  O   UNL     1      22.943   3.703   2.208  1.00  0.00    -0.393 OA
ATOM     31  H   UNL     1      23.033   2.743   1.984  1.00  0.00     0.210 HD
ENDBRANCH  29  30
ENDBRANCH   1  11
TORSDOF 6
ENDMDL
MODEL 6
REMARK VINA RESULT:    -4.436      4.981     10.367
REMARK INTER + INTRA:          -6.461
REMARK INTER:                  -5.350
REMARK INTRA:                  -1.112
REMARK UNBOUND:                -0.599
REMARK SMILES CC[C@H](C=C[C@H](C)[C@H]1CC[C@H]2C3=CC[C@H]4C[C@H](O)CC[C@@]4(C)[C@@H]3CC[C@@]12C)C(C)C
REMARK SMILES IDX 6 1 7 2 5 3 4 4 3 5 2 6 1 7 28 8 29 9 30 10 8 11 9 12 26 13
REMARK SMILES IDX 10 14 11 15 25 16 27 17 12 18 24 19 23 20 13 21 21 22 14 23
REMARK SMILES IDX 15 24 20 25 22 26 16 27 19 28 17 29 18 30
REMARK H PARENT 18 31
REMARK Flexibility Score: inf
ROOT
ATOM      1  C   UNL     1       7.240   1.827  -8.653  1.00  0.00     0.012 C 
ATOM      2  C   UNL     1       5.767   1.922  -9.086  1.00  0.00     0.012 C 
ENDROOT
BRANCH   1   3
ATOM      3  C   UNL     1       7.708   0.404  -8.885  1.00  0.00    -0.028 C 
ATOM      4  C   UNL     1       6.991  -0.458  -9.628  1.00  0.00    -0.027 C 
BRANCH   4   5
ATOM      5  C   UNL     1       7.397  -1.907  -9.827  1.00  0.00     0.014 C 
BRANCH   5   6
ATOM      6  C   UNL     1       8.826  -2.161  -9.276  1.00  0.00     0.004 C 
ATOM      7  C   UNL     1       9.751  -2.842 -10.291  1.00  0.00     0.004 C 
ENDBRANCH   5   6
BRANCH   5   8
ATOM      8  C   UNL     1       6.342  -2.893  -9.228  1.00  0.00    -0.011 C 
ATOM      9  C   UNL     1       4.983  -2.198  -8.986  1.00  0.00     0.008 C 
ATOM     10  C   UNL     1       6.822  -3.513  -7.903  1.00  0.00     0.008 C 
ENDBRANCH   5   8
ENDBRANCH   4   5
ENDBRANCH   1   3
BRANCH   1  11
ATOM     11  C   UNL     1       8.223   2.828  -9.360  1.00  0.00     0.002 C 
ATOM     12  C   UNL     1       7.774   3.391 -10.718  1.00  0.00     0.005 C 
ATOM     13  C   UNL     1       8.676   4.069  -8.542  1.00  0.00    -0.023 C 
ATOM     14  C   UNL     1       8.640   4.626 -10.966  1.00  0.00     0.009 C 
ATOM     15  C   UNL     1       9.371   4.926  -9.647  1.00  0.00     0.021 C 
ATOM     16  C   UNL     1       7.461   4.812  -7.871  1.00  0.00     0.008 C 
ATOM     17  C   UNL     1       9.696   3.665  -7.451  1.00  0.00     0.012 C 
ATOM     18  C   UNL     1       9.411   6.400  -9.287  1.00  0.00    -0.067 C 
ATOM     19  C   UNL     1       7.715   6.300  -7.536  1.00  0.00     0.009 C 
ATOM     20  C   UNL     1       8.125   7.040  -8.822  1.00  0.00     0.021 C 
ATOM     21  C   UNL     1      10.587   6.973  -8.992  1.00  0.00    -0.027 C 
ATOM     22  C   UNL     1       8.231   8.622  -8.798  1.00  0.00    -0.023 C 
ATOM     23  C   UNL     1      10.671   8.055  -7.956  1.00  0.00     0.031 C 
ATOM     24  C   UNL     1       9.530   9.116  -8.027  1.00  0.00     0.002 C 
ATOM     25  C   UNL     1       8.182   9.096 -10.304  1.00  0.00     0.010 C 
ATOM     26  C   UNL     1       6.979   9.193  -8.080  1.00  0.00     0.012 C 
ATOM     27  C   UNL     1      10.103  10.522  -8.428  1.00  0.00     0.036 C 
ATOM     28  C   UNL     1       9.228  10.122 -10.736  1.00  0.00     0.032 C 
ATOM     29  C   UNL     1       9.496  11.169  -9.668  1.00  0.00     0.114 C 
BRANCH  29  30
ATOM     30  O   UNL     1       8.312  11.858  -9.345  1.00  0.00    -0.393 OA
ATOM     31  H   UNL     1       7.718  11.221  -8.874  1.00  0.00     0.210 HD
ENDBRANCH  29  30
ENDBRANCH   1  11
TORSDOF 6
ENDMDL
MODEL 7
REMARK VINA RESULT:    -4.354      2.034      4.075
REMARK INTER + INTRA:          -6.353
REMARK INTER:                  -5.148
REMARK INTRA:                  -1.204
REMARK UNBOUND:                -0.599
REMARK SMILES CC[C@H](C=C[C@H](C)[C@H]1CC[C@H]2C3=CC[C@H]4C[C@H](O)CC[C@@]4(C)[C@@H]3CC[C@@]12C)C(C)C
REMARK SMILES IDX 6 1 7 2 5 3 4 4 3 5 2 6 1 7 28 8 29 9 30 10 8 11 9 12 26 13
REMARK SMILES IDX 10 14 11 15 25 16 27 17 12 18 24 19 23 20 13 21 21 22 14 23
REMARK SMILES IDX 15 24 20 25 22 26 16 27 19 28 17 29 18 30
REMARK H PARENT 18 31
REMARK Flexibility Score: inf
ROOT
ATOM      1  C   UNL     1       9.875  10.311  -7.974  1.00  0.00     0.012 C 
ATOM      2  C   UNL     1      10.807  11.179  -8.836  1.00  0.00     0.012 C 
ENDROOT
BRANCH   1   3
ATOM      3  C   UNL     1       9.162  11.217  -6.991  1.00  0.00    -0.028 C 
ATOM      4  C   UNL     1       9.467  11.209  -5.681  1.00  0.00    -0.027 C 
BRANCH   4   5
ATOM      5  C   UNL     1       8.729  12.056  -4.661  1.00  0.00     0.014 C 
BRANCH   5   6
ATOM      6  C   UNL     1       7.500  12.751  -5.304  1.00  0.00     0.004 C 
ATOM      7  C   UNL     1       6.187  11.995  -5.066  1.00  0.00     0.004 C 
ENDBRANCH   5   6
BRANCH   5   8
ATOM      8  C   UNL     1       8.352  11.231  -3.387  1.00  0.00    -0.011 C 
ATOM      9  C   UNL     1       9.125  11.718  -2.141  1.00  0.00     0.008 C 
ATOM     10  C   UNL     1       8.619   9.727  -3.577  1.00  0.00     0.008 C 
ENDBRANCH   5   8
ENDBRANCH   4   5
ENDBRANCH   1   3
BRANCH   1  11
ATOM     11  C   UNL     1       8.820   9.453  -8.763  1.00  0.00     0.002 C 
ATOM     12  C   UNL     1       9.237   8.964 -10.159  1.00  0.00     0.005 C 
ATOM     13  C   UNL     1       8.257   8.194  -8.048  1.00  0.00    -0.023 C 
ATOM     14  C   UNL     1       8.274   7.829 -10.508  1.00  0.00     0.009 C 
ATOM     15  C   UNL     1       7.505   7.488  -9.221  1.00  0.00     0.021 C 
ATOM     16  C   UNL     1       9.398   7.302  -7.432  1.00  0.00     0.008 C 
ATOM     17  C   UNL     1       7.262   8.595  -6.934  1.00  0.00     0.012 C 
ATOM     18  C   UNL     1       7.339   5.999  -8.979  1.00  0.00    -0.067 C 
ATOM     19  C   UNL     1       9.018   5.819  -7.218  1.00  0.00     0.009 C 
ATOM     20  C   UNL     1       8.563   5.219  -8.561  1.00  0.00     0.021 C 
ATOM     21  C   UNL     1       6.117   5.505  -8.737  1.00  0.00    -0.027 C 
ATOM     22  C   UNL     1       8.326   3.654  -8.662  1.00  0.00    -0.023 C 
ATOM     23  C   UNL     1       5.932   4.355  -7.789  1.00  0.00     0.031 C 
ATOM     24  C   UNL     1       6.981   3.211  -7.939  1.00  0.00     0.002 C 
ATOM     25  C   UNL     1       8.352   3.298 -10.202  1.00  0.00     0.010 C 
ATOM     26  C   UNL     1       9.518   2.926  -7.987  1.00  0.00     0.012 C 
ATOM     27  C   UNL     1       6.298   1.894  -8.453  1.00  0.00     0.036 C 
ATOM     28  C   UNL     1       7.230   2.400 -10.718  1.00  0.00     0.032 C 
ATOM     29  C   UNL     1       6.864   1.298  -9.738  1.00  0.00     0.114 C 
BRANCH  29  30
ATOM     30  O   UNL     1       7.983   0.489  -9.465  1.00  0.00    -0.393 OA
ATOM     31  H   UNL     1       8.528   0.959  -8.784  1.00  0.00     0.210 HD
ENDBRANCH  29  30
ENDBRANCH   1  11
TORSDOF 6
ENDMDL
MODEL 8
REMARK VINA RESULT:    -4.320      2.937      8.984
REMARK INTER + INTRA:          -6.307
REMARK INTER:                  -4.904
REMARK INTRA:                  -1.403
REMARK UNBOUND:                -0.599
REMARK SMILES CC[C@H](C=C[C@H](C)[C@H]1CC[C@H]2C3=CC[C@H]4C[C@H](O)CC[C@@]4(C)[C@@H]3CC[C@@]12C)C(C)C
REMARK SMILES IDX 6 1 7 2 5 3 4 4 3 5 2 6 1 7 28 8 29 9 30 10 8 11 9 12 26 13
REMARK SMILES IDX 10 14 11 15 25 16 27 17 12 18 24 19 23 20 13 21 21 22 14 23
REMARK SMILES IDX 15 24 20 25 22 26 16 27 19 28 17 29 18 30
REMARK H PARENT 18 31
REMARK Flexibility Score: inf
ROOT
ATOM      1  C   UNL     1       7.238   9.086  -9.261  1.00  0.00     0.012 C 
ATOM      2  C   UNL     1       7.796  10.161 -10.210  1.00  0.00     0.012 C 
ENDROOT
BRANCH   1   3
ATOM      3  C   UNL     1       7.209   7.768 -10.007  1.00  0.00    -0.028 C 
ATOM      4  C   UNL     1       7.667   6.634  -9.447  1.00  0.00    -0.027 C 
BRANCH   4   5
ATOM      5  C   UNL     1       7.711   5.311 -10.189  1.00  0.00     0.014 C 
BRANCH   5   6
ATOM      6  C   UNL     1       9.169   4.940 -10.572  1.00  0.00     0.004 C 
ATOM      7  C   UNL     1      10.212   5.886  -9.964  1.00  0.00     0.004 C 
ENDBRANCH   5   6
BRANCH   5   8
ATOM      8  C   UNL     1       6.996   4.173  -9.391  1.00  0.00    -0.011 C 
ATOM      9  C   UNL     1       5.697   4.675  -8.720  1.00  0.00     0.008 C 
ATOM     10  C   UNL     1       7.909   3.570  -8.308  1.00  0.00     0.008 C 
ENDBRANCH   5   8
ENDBRANCH   4   5
ENDBRANCH   1   3
BRANCH   1  11
ATOM     11  C   UNL     1       8.012   8.908  -7.905  1.00  0.00     0.002 C 
ATOM     12  C   UNL     1       9.344   9.663  -7.768  1.00  0.00     0.005 C 
ATOM     13  C   UNL     1       7.233   9.230  -6.600  1.00  0.00    -0.023 C 
ATOM     14  C   UNL     1       9.654   9.696  -6.271  1.00  0.00     0.009 C 
ATOM     15  C   UNL     1       8.385   9.219  -5.546  1.00  0.00     0.021 C 
ATOM     16  C   UNL     1       6.493  10.618  -6.678  1.00  0.00     0.008 C 
ATOM     17  C   UNL     1       6.204   8.118  -6.286  1.00  0.00     0.012 C 
ATOM     18  C   UNL     1       8.039  10.032  -4.312  1.00  0.00    -0.067 C 
ATOM     19  C   UNL     1       6.187  11.267  -5.309  1.00  0.00     0.009 C 
ATOM     20  C   UNL     1       7.501  11.427  -4.524  1.00  0.00     0.021 C 
ATOM     21  C   UNL     1       7.822   9.402  -3.149  1.00  0.00    -0.027 C 
ATOM     22  C   UNL     1       7.495  12.266  -3.177  1.00  0.00    -0.023 C 
ATOM     23  C   UNL     1       6.801   9.920  -2.178  1.00  0.00     0.031 C 
ATOM     24  C   UNL     1       6.810  11.467  -1.986  1.00  0.00     0.002 C 
ATOM     25  C   UNL     1       8.999  12.652  -2.885  1.00  0.00     0.010 C 
ATOM     26  C   UNL     1       6.706  13.580  -3.415  1.00  0.00     0.012 C 
ATOM     27  C   UNL     1       7.256  11.844  -0.529  1.00  0.00     0.036 C 
ATOM     28  C   UNL     1       9.502  12.425  -1.461  1.00  0.00     0.032 C 
ATOM     29  C   UNL     1       8.461  12.772  -0.411  1.00  0.00     0.114 C 
BRANCH  29  30
ATOM     30  O   UNL     1       8.070  14.119  -0.529  1.00  0.00    -0.393 OA
ATOM     31  H   UNL     1       8.896  14.661  -0.588  1.00  0.00     0.210 HD
ENDBRANCH  29  30
ENDBRANCH   1  11
TORSDOF 6
ENDMDL
MODEL 9
REMARK VINA RESULT:    -4.318      3.802      9.375
REMARK INTER + INTRA:          -6.305
REMARK INTER:                  -5.034
REMARK INTRA:                  -1.271
REMARK UNBOUND:                -0.599
REMARK SMILES CC[C@H](C=C[C@H](C)[C@H]1CC[C@H]2C3=CC[C@H]4C[C@H](O)CC[C@@]4(C)[C@@H]3CC[C@@]12C)C(C)C
REMARK SMILES IDX 6 1 7 2 5 3 4 4 3 5 2 6 1 7 28 8 29 9 30 10 8 11 9 12 26 13
REMARK SMILES IDX 10 14 11 15 25 16 27 17 12 18 24 19 23 20 13 21 21 22 14 23
REMARK SMILES IDX 15 24 20 25 22 26 16 27 19 28 17 29 18 30
REMARK H PARENT 18 31
REMARK Flexibility Score: inf
ROOT
ATOM      1  C   UNL     1       9.041   3.473  -8.289  1.00  0.00     0.012 C 
ATOM      2  C   UNL     1       9.950   3.191  -7.081  1.00  0.00     0.012 C 
ENDROOT
BRANCH   1   3
ATOM      3  C   UNL     1       8.343   2.182  -8.666  1.00  0.00    -0.028 C 
ATOM      4  C   UNL     1       7.136   2.184  -9.259  1.00  0.00    -0.027 C 
BRANCH   4   5
ATOM      5  C   UNL     1       6.382   0.909  -9.591  1.00  0.00     0.014 C 
BRANCH   5   6
ATOM      6  C   UNL     1       7.214  -0.343  -9.204  1.00  0.00     0.004 C 
ATOM      7  C   UNL     1       7.638  -1.183 -10.414  1.00  0.00     0.004 C 
ENDBRANCH   5   6
BRANCH   5   8
ATOM      8  C   UNL     1       4.954   0.898  -8.954  1.00  0.00    -0.011 C 
ATOM      9  C   UNL     1       4.825   1.939  -7.819  1.00  0.00     0.008 C 
ATOM     10  C   UNL     1       4.584  -0.489  -8.397  1.00  0.00     0.008 C 
ENDBRANCH   5   8
ENDBRANCH   4   5
ENDBRANCH   1   3
BRANCH   1  11
ATOM     11  C   UNL     1       7.975   4.610  -8.087  1.00  0.00     0.002 C 
ATOM     12  C   UNL     1       7.482   4.844  -6.650  1.00  0.00     0.005 C 
ATOM     13  C   UNL     1       8.340   6.023  -8.621  1.00  0.00    -0.023 C 
ATOM     14  C   UNL     1       6.836   6.230  -6.651  1.00  0.00     0.009 C 
ATOM     15  C   UNL     1       7.205   6.890  -7.990  1.00  0.00     0.021 C 
ATOM     16  C   UNL     1       9.777   6.476  -8.166  1.00  0.00     0.008 C 
ATOM     17  C   UNL     1       8.254   6.065 -10.165  1.00  0.00     0.012 C 
ATOM     18  C   UNL     1       7.602   8.350  -7.867  1.00  0.00    -0.067 C 
ATOM     19  C   UNL     1      10.000   8.006  -8.151  1.00  0.00     0.009 C 
ATOM     20  C   UNL     1       8.942   8.659  -7.243  1.00  0.00     0.021 C 
ATOM     21  C   UNL     1       7.000   9.262  -8.644  1.00  0.00    -0.027 C 
ATOM     22  C   UNL     1       9.083  10.197  -6.883  1.00  0.00    -0.023 C 
ATOM     23  C   UNL     1       7.762  10.449  -9.158  1.00  0.00     0.031 C 
ATOM     24  C   UNL     1       8.694  11.130  -8.110  1.00  0.00     0.002 C 
ATOM     25  C   UNL     1       8.184  10.440  -5.606  1.00  0.00     0.010 C 
ATOM     26  C   UNL     1      10.555  10.481  -6.487  1.00  0.00     0.012 C 
ATOM     27  C   UNL     1       8.186  12.576  -7.769  1.00  0.00     0.036 C 
ATOM     28  C   UNL     1       7.257  11.653  -5.640  1.00  0.00     0.032 C 
ATOM     29  C   UNL     1       7.899  12.862  -6.299  1.00  0.00     0.114 C 
BRANCH  29  30
ATOM     30  O   UNL     1       9.076  13.227  -5.620  1.00  0.00    -0.393 OA
ATOM     31  H   UNL     1       9.787  12.600  -5.904  1.00  0.00     0.210 HD
ENDBRANCH  29  30
ENDBRANCH   1  11
TORSDOF 6
ENDMDL
