MODEL 1
REMARK VINA RESULT:    -4.582      0.000      0.000
REMARK INTER + INTRA:          -9.480
REMARK INTER:                  -8.332
REMARK INTRA:                  -1.148
REMARK UNBOUND:                -1.148
REMARK SMILES CCCCCCCCCCCCCCCC(=O)[O-]
REMARK SMILES IDX 9 1 10 2 11 3 12 4 13 5 14 6 15 7 16 8 17 9 18 10 8 11 7 12
REMARK SMILES IDX 6 13 5 14 4 15 3 16 2 17 1 18
REMARK H PARENT
REMARK Flexibility Score: inf
ROOT
ATOM      1  C   UNL     1     -19.353 -16.342  24.854  1.00  0.00     0.000 C 
ENDROOT
BRANCH   1   2
ATOM      2  C   UNL     1     -19.886 -17.781  24.944  1.00  0.00     0.000 C 
BRANCH   2   3
ATOM      3  C   UNL     1     -18.810 -18.780  25.405  1.00  0.00     0.000 C 
BRANCH   3   4
ATOM      4  C   UNL     1     -17.387 -18.200  25.328  1.00  0.00     0.000 C 
BRANCH   4   5
ATOM      5  C   UNL     1     -16.459 -18.888  24.306  1.00  0.00     0.000 C 
BRANCH   5   6
ATOM      6  C   UNL     1     -16.878 -18.728  22.830  1.00  0.00     0.006 C 
BRANCH   6   7
ATOM      7  C   UNL     1     -15.725 -18.873  21.824  1.00  0.00     0.053 C 
BRANCH   7   8
ATOM      8  C   UNL     1     -15.954 -20.005  20.869  1.00  0.00     0.041 C 
ATOM      9  O   UNL     1     -15.196 -21.010  20.887  1.00  0.00    -0.550 OA
ATOM     10  O   UNL     1     -16.982 -19.933  19.937  1.00  0.00    -0.550 OA
ENDBRANCH   7   8
ENDBRANCH   6   7
ENDBRANCH   5   6
ENDBRANCH   4   5
ENDBRANCH   3   4
ENDBRANCH   2   3
ENDBRANCH   1   2
BRANCH   1  11
ATOM     11  C   UNL     1     -19.905 -15.586  23.631  1.00  0.00     0.000 C 
BRANCH  11  12
ATOM     12  C   UNL     1     -19.131 -15.905  22.343  1.00  0.00    -0.000 C 
BRANCH  12  13
ATOM     13  C   UNL     1     -19.182 -14.757  21.323  1.00  0.00    -0.000 C 
BRANCH  13  14
ATOM     14  C   UNL     1     -17.785 -14.449  20.771  1.00  0.00    -0.000 C 
BRANCH  14  15
ATOM     15  C   UNL     1     -17.587 -12.937  20.592  1.00  0.00    -0.000 C 
BRANCH  15  16
ATOM     16  C   UNL     1     -18.865 -12.133  20.880  1.00  0.00    -0.000 C 
BRANCH  16  17
ATOM     17  C   UNL     1     -18.655 -10.618  20.741  1.00  0.00    -0.003 C 
ATOM     18  C   UNL     1     -18.270  -9.991  22.077  1.00  0.00     0.004 C 
ENDBRANCH  16  17
ENDBRANCH  15  16
ENDBRANCH  14  15
ENDBRANCH  13  14
ENDBRANCH  12  13
ENDBRANCH  11  12
ENDBRANCH   1  11
TORSDOF 14
ENDMDL
MODEL 2
REMARK VINA RESULT:    -4.452      3.805      5.390
REMARK INTER + INTRA:          -9.244
REMARK INTER:                  -7.772
REMARK INTRA:                  -1.472
REMARK UNBOUND:                -1.148
REMARK SMILES CCCCCCCCCCCCCCCC(=O)[O-]
REMARK SMILES IDX 9 1 10 2 11 3 12 4 13 5 14 6 15 7 16 8 17 9 18 10 8 11 7 12
REMARK SMILES IDX 6 13 5 14 4 15 3 16 2 17 1 18
REMARK H PARENT
REMARK Flexibility Score: inf
ROOT
ATOM      1  C   UNL     1     -24.517 -16.574  19.957  1.00  0.00     0.000 C 
ENDROOT
BRANCH   1   2
ATOM      2  C   UNL     1     -24.202 -17.598  21.060  1.00  0.00     0.000 C 
BRANCH   2   3
ATOM      3  C   UNL     1     -25.125 -17.449  22.282  1.00  0.00     0.000 C 
BRANCH   3   4
ATOM      4  C   UNL     1     -24.381 -16.945  23.531  1.00  0.00     0.000 C 
BRANCH   4   5
ATOM      5  C   UNL     1     -22.962 -16.402  23.267  1.00  0.00     0.000 C 
BRANCH   5   6
ATOM      6  C   UNL     1     -22.158 -16.027  24.529  1.00  0.00     0.006 C 
BRANCH   6   7
ATOM      7  C   UNL     1     -20.930 -15.142  24.260  1.00  0.00     0.053 C 
BRANCH   7   8
ATOM      8  C   UNL     1     -19.648 -15.901  24.419  1.00  0.00     0.041 C 
ATOM      9  O   UNL     1     -19.132 -16.038  25.559  1.00  0.00    -0.550 OA
ATOM     10  O   UNL     1     -19.005 -16.425  23.304  1.00  0.00    -0.550 OA
ENDBRANCH   7   8
ENDBRANCH   6   7
ENDBRANCH   5   6
ENDBRANCH   4   5
ENDBRANCH   3   4
ENDBRANCH   2   3
ENDBRANCH   1   2
BRANCH   1  11
ATOM     11  C   UNL     1     -23.386 -15.546  19.769  1.00  0.00     0.000 C 
BRANCH  11  12
ATOM     12  C   UNL     1     -22.047 -16.204  19.400  1.00  0.00    -0.000 C 
BRANCH  12  13
ATOM     13  C   UNL     1     -20.910 -15.806  20.354  1.00  0.00    -0.000 C 
BRANCH  13  14
ATOM     14  C   UNL     1     -20.617 -14.304  20.264  1.00  0.00    -0.000 C 
BRANCH  14  15
ATOM     15  C   UNL     1     -19.219 -13.982  20.810  1.00  0.00    -0.000 C 
BRANCH  15  16
ATOM     16  C   UNL     1     -19.194 -12.703  21.661  1.00  0.00    -0.000 C 
BRANCH  16  17
ATOM     17  C   UNL     1     -18.146 -11.691  21.178  1.00  0.00    -0.003 C 
ATOM     18  C   UNL     1     -18.784 -10.338  20.880  1.00  0.00     0.004 C 
ENDBRANCH  16  17
ENDBRANCH  15  16
ENDBRANCH  14  15
ENDBRANCH  13  14
ENDBRANCH  12  13
ENDBRANCH  11  12
ENDBRANCH   1  11
TORSDOF 14
ENDMDL
MODEL 3
REMARK VINA RESULT:    -4.384      3.173      3.783
REMARK INTER + INTRA:          -9.121
REMARK INTER:                  -8.256
REMARK INTRA:                  -0.864
REMARK UNBOUND:                -1.148
REMARK SMILES CCCCCCCCCCCCCCCC(=O)[O-]
REMARK SMILES IDX 9 1 10 2 11 3 12 4 13 5 14 6 15 7 16 8 17 9 18 10 8 11 7 12
REMARK SMILES IDX 6 13 5 14 4 15 3 16 2 17 1 18
REMARK H PARENT
REMARK Flexibility Score: inf
ROOT
ATOM      1  C   UNL     1     -19.203 -16.407  24.754  1.00  0.00     0.000 C 
ENDROOT
BRANCH   1   2
ATOM      2  C   UNL     1     -19.370 -17.931  24.854  1.00  0.00     0.000 C 
BRANCH   2   3
ATOM      3  C   UNL     1     -18.266 -18.591  25.699  1.00  0.00     0.000 C 
BRANCH   3   4
ATOM      4  C   UNL     1     -16.889 -18.554  25.012  1.00  0.00     0.000 C 
BRANCH   4   5
ATOM      5  C   UNL     1     -15.685 -18.479  25.973  1.00  0.00     0.000 C 
BRANCH   5   6
ATOM      6  C   UNL     1     -14.333 -18.901  25.363  1.00  0.00     0.006 C 
BRANCH   6   7
ATOM      7  C   UNL     1     -13.104 -18.422  26.152  1.00  0.00     0.053 C 
BRANCH   7   8
ATOM      8  C   UNL     1     -13.248 -18.676  27.621  1.00  0.00     0.041 C 
ATOM      9  O   UNL     1     -13.283 -17.711  28.430  1.00  0.00    -0.550 OA
ATOM     10  O   UNL     1     -13.307 -19.978  28.101  1.00  0.00    -0.550 OA
ENDBRANCH   7   8
ENDBRANCH   6   7
ENDBRANCH   5   6
ENDBRANCH   4   5
ENDBRANCH   3   4
ENDBRANCH   2   3
ENDBRANCH   1   2
BRANCH   1  11
ATOM     11  C   UNL     1     -19.571 -15.866  23.360  1.00  0.00     0.000 C 
BRANCH  11  12
ATOM     12  C   UNL     1     -18.598 -16.340  22.269  1.00  0.00    -0.000 C 
BRANCH  12  13
ATOM     13  C   UNL     1     -18.713 -15.517  20.976  1.00  0.00    -0.000 C 
BRANCH  13  14
ATOM     14  C   UNL     1     -17.326 -15.153  20.431  1.00  0.00    -0.000 C 
BRANCH  14  15
ATOM     15  C   UNL     1     -17.110 -13.633  20.449  1.00  0.00    -0.000 C 
BRANCH  15  16
ATOM     16  C   UNL     1     -18.359 -12.863  20.908  1.00  0.00    -0.000 C 
BRANCH  16  17
ATOM     17  C   UNL     1     -18.012 -11.576  21.671  1.00  0.00    -0.003 C 
ATOM     18  C   UNL     1     -18.304 -10.340  20.826  1.00  0.00     0.004 C 
ENDBRANCH  16  17
ENDBRANCH  15  16
ENDBRANCH  14  15
ENDBRANCH  13  14
ENDBRANCH  12  13
ENDBRANCH  11  12
ENDBRANCH   1  11
TORSDOF 14
ENDMDL
MODEL 4
REMARK VINA RESULT:    -4.351      2.911      4.392
REMARK INTER + INTRA:          -9.060
REMARK INTER:                  -7.547
REMARK INTRA:                  -1.513
REMARK UNBOUND:                -1.148
REMARK SMILES CCCCCCCCCCCCCCCC(=O)[O-]
REMARK SMILES IDX 9 1 10 2 11 3 12 4 13 5 14 6 15 7 16 8 17 9 18 10 8 11 7 12
REMARK SMILES IDX 6 13 5 14 4 15 3 16 2 17 1 18
REMARK H PARENT
REMARK Flexibility Score: inf
ROOT
ATOM      1  C   UNL     1     -15.743 -19.069  22.742  1.00  0.00     0.000 C 
ENDROOT
BRANCH   1   2
ATOM      2  C   UNL     1     -16.147 -20.325  23.531  1.00  0.00     0.000 C 
BRANCH   2   3
ATOM      3  C   UNL     1     -16.877 -19.988  24.842  1.00  0.00     0.000 C 
BRANCH   3   4
ATOM      4  C   UNL     1     -16.676 -18.525  25.276  1.00  0.00     0.000 C 
BRANCH   4   5
ATOM      5  C   UNL     1     -17.951 -17.814  25.774  1.00  0.00     0.000 C 
BRANCH   5   6
ATOM      6  C   UNL     1     -19.125 -17.798  24.774  1.00  0.00     0.006 C 
BRANCH   6   7
ATOM      7  C   UNL     1     -19.080 -16.645  23.760  1.00  0.00     0.053 C 
BRANCH   7   8
ATOM      8  C   UNL     1     -20.040 -15.551  24.114  1.00  0.00     0.041 C 
ATOM      9  O   UNL     1     -19.991 -15.008  25.249  1.00  0.00    -0.550 OA
ATOM     10  O   UNL     1     -21.012 -15.155  23.203  1.00  0.00    -0.550 OA
ENDBRANCH   7   8
ENDBRANCH   6   7
ENDBRANCH   5   6
ENDBRANCH   4   5
ENDBRANCH   3   4
ENDBRANCH   2   3
ENDBRANCH   1   2
BRANCH   1  11
ATOM     11  C   UNL     1     -16.393 -19.016  21.347  1.00  0.00     0.000 C 
BRANCH  11  12
ATOM     12  C   UNL     1     -16.522 -17.582  20.811  1.00  0.00    -0.000 C 
BRANCH  12  13
ATOM     13  C   UNL     1     -17.617 -17.446  19.741  1.00  0.00    -0.000 C 
BRANCH  13  14
ATOM     14  C   UNL     1     -17.960 -15.973  19.489  1.00  0.00    -0.000 C 
BRANCH  14  15
ATOM     15  C   UNL     1     -17.646 -15.117  20.724  1.00  0.00    -0.000 C 
BRANCH  15  16
ATOM     16  C   UNL     1     -16.875 -13.834  20.375  1.00  0.00    -0.000 C 
BRANCH  16  17
ATOM     17  C   UNL     1     -17.645 -12.560  20.752  1.00  0.00    -0.003 C 
ATOM     18  C   UNL     1     -19.003 -12.898  21.359  1.00  0.00     0.004 C 
ENDBRANCH  16  17
ENDBRANCH  15  16
ENDBRANCH  14  15
ENDBRANCH  13  14
ENDBRANCH  12  13
ENDBRANCH  11  12
ENDBRANCH   1  11
TORSDOF 14
ENDMDL
MODEL 5
REMARK VINA RESULT:    -4.349      1.959      2.258
REMARK INTER + INTRA:          -9.057
REMARK INTER:                  -8.463
REMARK INTRA:                  -0.594
REMARK UNBOUND:                -1.148
REMARK SMILES CCCCCCCCCCCCCCCC(=O)[O-]
REMARK SMILES IDX 9 1 10 2 11 3 12 4 13 5 14 6 15 7 16 8 17 9 18 10 8 11 7 12
REMARK SMILES IDX 6 13 5 14 4 15 3 16 2 17 1 18
REMARK H PARENT
REMARK Flexibility Score: inf
ROOT
ATOM      1  C   UNL     1     -18.938 -16.727  24.619  1.00  0.00     0.000 C 
ENDROOT
BRANCH   1   2
ATOM      2  C   UNL     1     -18.767 -18.254  24.576  1.00  0.00     0.000 C 
BRANCH   2   3
ATOM      3  C   UNL     1     -17.328 -18.676  24.234  1.00  0.00     0.000 C 
BRANCH   3   4
ATOM      4  C   UNL     1     -16.864 -19.910  25.029  1.00  0.00     0.000 C 
BRANCH   4   5
ATOM      5  C   UNL     1     -15.337 -20.118  25.072  1.00  0.00     0.000 C 
BRANCH   5   6
ATOM      6  C   UNL     1     -14.548 -19.423  23.944  1.00  0.00     0.006 C 
BRANCH   6   7
ATOM      7  C   UNL     1     -14.001 -20.376  22.871  1.00  0.00     0.053 C 
BRANCH   7   8
ATOM      8  C   UNL     1     -12.584 -20.053  22.504  1.00  0.00     0.041 C 
ATOM      9  O   UNL     1     -12.128 -18.896  22.701  1.00  0.00    -0.550 OA
ATOM     10  O   UNL     1     -11.780 -21.019  21.913  1.00  0.00    -0.550 OA
ENDBRANCH   7   8
ENDBRANCH   6   7
ENDBRANCH   5   6
ENDBRANCH   4   5
ENDBRANCH   3   4
ENDBRANCH   2   3
ENDBRANCH   1   2
BRANCH   1  11
ATOM     11  C   UNL     1     -19.547 -16.167  23.320  1.00  0.00     0.000 C 
BRANCH  11  12
ATOM     12  C   UNL     1     -18.573 -16.238  22.134  1.00  0.00    -0.000 C 
BRANCH  12  13
ATOM     13  C   UNL     1     -18.777 -15.092  21.131  1.00  0.00    -0.000 C 
BRANCH  13  14
ATOM     14  C   UNL     1     -17.461 -14.731  20.432  1.00  0.00    -0.000 C 
BRANCH  14  15
ATOM     15  C   UNL     1     -17.215 -13.216  20.471  1.00  0.00    -0.000 C 
BRANCH  15  16
ATOM     16  C   UNL     1     -18.435 -12.431  20.980  1.00  0.00    -0.000 C 
BRANCH  16  17
ATOM     17  C   UNL     1     -18.404 -10.954  20.562  1.00  0.00    -0.003 C 
ATOM     18  C   UNL     1     -18.771 -10.044  21.730  1.00  0.00     0.004 C 
ENDBRANCH  16  17
ENDBRANCH  15  16
ENDBRANCH  14  15
ENDBRANCH  13  14
ENDBRANCH  12  13
ENDBRANCH  11  12
ENDBRANCH   1  11
TORSDOF 14
ENDMDL
MODEL 6
REMARK VINA RESULT:    -4.349      2.786      4.179
REMARK INTER + INTRA:          -9.056
REMARK INTER:                  -8.174
REMARK INTRA:                  -0.882
REMARK UNBOUND:                -1.148
REMARK SMILES CCCCCCCCCCCCCCCC(=O)[O-]
REMARK SMILES IDX 9 1 10 2 11 3 12 4 13 5 14 6 15 7 16 8 17 9 18 10 8 11 7 12
REMARK SMILES IDX 6 13 5 14 4 15 3 16 2 17 1 18
REMARK H PARENT
REMARK Flexibility Score: inf
ROOT
ATOM      1  C   UNL     1     -15.740 -17.939  20.416  1.00  0.00     0.000 C 
ENDROOT
BRANCH   1   2
ATOM      2  C   UNL     1     -15.268 -19.095  21.313  1.00  0.00     0.000 C 
BRANCH   2   3
ATOM      3  C   UNL     1     -16.372 -19.593  22.262  1.00  0.00     0.000 C 
BRANCH   3   4
ATOM      4  C   UNL     1     -16.336 -18.898  23.634  1.00  0.00     0.000 C 
BRANCH   4   5
ATOM      5  C   UNL     1     -17.189 -19.574  24.727  1.00  0.00     0.000 C 
BRANCH   5   6
ATOM      6  C   UNL     1     -18.500 -18.843  25.081  1.00  0.00     0.006 C 
BRANCH   6   7
ATOM      7  C   UNL     1     -18.755 -17.566  24.266  1.00  0.00     0.053 C 
BRANCH   7   8
ATOM      8  C   UNL     1     -19.319 -16.465  25.111  1.00  0.00     0.041 C 
ATOM      9  O   UNL     1     -18.745 -16.131  26.181  1.00  0.00    -0.550 OA
ATOM     10  O   UNL     1     -20.497 -15.832  24.735  1.00  0.00    -0.550 OA
ENDBRANCH   7   8
ENDBRANCH   6   7
ENDBRANCH   5   6
ENDBRANCH   4   5
ENDBRANCH   3   4
ENDBRANCH   2   3
ENDBRANCH   1   2
BRANCH   1  11
ATOM     11  C   UNL     1     -17.248 -17.662  20.559  1.00  0.00     0.000 C 
BRANCH  11  12
ATOM     12  C   UNL     1     -17.769 -16.678  19.501  1.00  0.00    -0.000 C 
BRANCH  12  13
ATOM     13  C   UNL     1     -18.182 -15.326  20.103  1.00  0.00    -0.000 C 
BRANCH  13  14
ATOM     14  C   UNL     1     -16.958 -14.436  20.349  1.00  0.00    -0.000 C 
BRANCH  14  15
ATOM     15  C   UNL     1     -17.343 -12.950  20.315  1.00  0.00    -0.000 C 
BRANCH  15  16
ATOM     16  C   UNL     1     -18.514 -12.620  21.254  1.00  0.00    -0.000 C 
BRANCH  16  17
ATOM     17  C   UNL     1     -19.136 -11.247  20.965  1.00  0.00    -0.003 C 
ATOM     18  C   UNL     1     -18.072 -10.153  20.948  1.00  0.00     0.004 C 
ENDBRANCH  16  17
ENDBRANCH  15  16
ENDBRANCH  14  15
ENDBRANCH  13  14
ENDBRANCH  12  13
ENDBRANCH  11  12
ENDBRANCH   1  11
TORSDOF 14
ENDMDL
MODEL 7
REMARK VINA RESULT:    -4.258      3.222      6.819
REMARK INTER + INTRA:          -8.890
REMARK INTER:                  -7.342
REMARK INTRA:                  -1.548
REMARK UNBOUND:                -1.148
REMARK SMILES CCCCCCCCCCCCCCCC(=O)[O-]
REMARK SMILES IDX 9 1 10 2 11 3 12 4 13 5 14 6 15 7 16 8 17 9 18 10 8 11 7 12
REMARK SMILES IDX 6 13 5 14 4 15 3 16 2 17 1 18
REMARK H PARENT
REMARK Flexibility Score: inf
ROOT
ATOM      1  C   UNL     1     -15.423 -18.745  20.502  1.00  0.00     0.000 C 
ENDROOT
BRANCH   1   2
ATOM      2  C   UNL     1     -16.840 -18.164  20.374  1.00  0.00     0.000 C 
BRANCH   2   3
ATOM      3  C   UNL     1     -16.891 -16.658  20.684  1.00  0.00     0.000 C 
BRANCH   3   4
ATOM      4  C   UNL     1     -18.198 -16.237  21.378  1.00  0.00     0.000 C 
BRANCH   4   5
ATOM      5  C   UNL     1     -19.345 -15.850  20.422  1.00  0.00     0.000 C 
BRANCH   5   6
ATOM      6  C   UNL     1     -20.229 -14.680  20.899  1.00  0.00     0.006 C 
BRANCH   6   7
ATOM      7  C   UNL     1     -19.547 -13.304  20.842  1.00  0.00     0.053 C 
BRANCH   7   8
ATOM      8  C   UNL     1     -19.401 -12.694  22.202  1.00  0.00     0.041 C 
ATOM      9  O   UNL     1     -19.846 -13.294  23.216  1.00  0.00    -0.550 OA
ATOM     10  O   UNL     1     -18.805 -11.447  22.347  1.00  0.00    -0.550 OA
ENDBRANCH   7   8
ENDBRANCH   6   7
ENDBRANCH   5   6
ENDBRANCH   4   5
ENDBRANCH   3   4
ENDBRANCH   2   3
ENDBRANCH   1   2
BRANCH   1  11
ATOM     11  C   UNL     1     -15.097 -19.188  21.940  1.00  0.00     0.000 C 
BRANCH  11  12
ATOM     12  C   UNL     1     -15.975 -20.358  22.410  1.00  0.00    -0.000 C 
BRANCH  12  13
ATOM     13  C   UNL     1     -16.550 -20.137  23.818  1.00  0.00    -0.000 C 
BRANCH  13  14
ATOM     14  C   UNL     1     -17.044 -18.696  23.990  1.00  0.00    -0.000 C 
BRANCH  14  15
ATOM     15  C   UNL     1     -16.995 -18.271  25.465  1.00  0.00    -0.000 C 
BRANCH  15  16
ATOM     16  C   UNL     1     -18.264 -17.526  25.909  1.00  0.00    -0.000 C 
BRANCH  16  17
ATOM     17  C   UNL     1     -19.470 -17.821  25.006  1.00  0.00    -0.003 C 
ATOM     18  C   UNL     1     -20.170 -16.532  24.585  1.00  0.00     0.004 C 
ENDBRANCH  16  17
ENDBRANCH  15  16
ENDBRANCH  14  15
ENDBRANCH  13  14
ENDBRANCH  12  13
ENDBRANCH  11  12
ENDBRANCH   1  11
TORSDOF 14
ENDMDL
MODEL 8
REMARK VINA RESULT:    -4.253      3.415      4.554
REMARK INTER + INTRA:          -8.882
REMARK INTER:                  -7.991
REMARK INTRA:                  -0.891
REMARK UNBOUND:                -1.148
REMARK SMILES CCCCCCCCCCCCCCCC(=O)[O-]
REMARK SMILES IDX 9 1 10 2 11 3 12 4 13 5 14 6 15 7 16 8 17 9 18 10 8 11 7 12
REMARK SMILES IDX 6 13 5 14 4 15 3 16 2 17 1 18
REMARK H PARENT
REMARK Flexibility Score: inf
ROOT
ATOM      1  C   UNL     1     -15.797 -18.731  20.399  1.00  0.00     0.000 C 
ENDROOT
BRANCH   1   2
ATOM      2  C   UNL     1     -15.555 -18.785  21.916  1.00  0.00     0.000 C 
BRANCH   2   3
ATOM      3  C   UNL     1     -14.543 -19.873  22.313  1.00  0.00     0.000 C 
BRANCH   3   4
ATOM      4  C   UNL     1     -13.199 -19.291  22.787  1.00  0.00     0.000 C 
BRANCH   4   5
ATOM      5  C   UNL     1     -13.166 -18.852  24.265  1.00  0.00     0.000 C 
BRANCH   5   6
ATOM      6  C   UNL     1     -14.157 -19.588  25.190  1.00  0.00     0.006 C 
BRANCH   6   7
ATOM      7  C   UNL     1     -15.275 -18.700  25.757  1.00  0.00     0.053 C 
BRANCH   7   8
ATOM      8  C   UNL     1     -14.974 -18.241  27.151  1.00  0.00     0.041 C 
ATOM      9  O   UNL     1     -14.087 -17.369  27.352  1.00  0.00    -0.550 OA
ATOM     10  O   UNL     1     -15.646 -18.802  28.230  1.00  0.00    -0.550 OA
ENDBRANCH   7   8
ENDBRANCH   6   7
ENDBRANCH   5   6
ENDBRANCH   4   5
ENDBRANCH   3   4
ENDBRANCH   2   3
ENDBRANCH   1   2
BRANCH   1  11
ATOM     11  C   UNL     1     -16.892 -17.719  20.014  1.00  0.00     0.000 C 
BRANCH  11  12
ATOM     12  C   UNL     1     -17.478 -16.992  21.234  1.00  0.00    -0.000 C 
BRANCH  12  13
ATOM     13  C   UNL     1     -18.078 -15.624  20.875  1.00  0.00    -0.000 C 
BRANCH  13  14
ATOM     14  C   UNL     1     -17.030 -14.720  20.213  1.00  0.00    -0.000 C 
BRANCH  14  15
ATOM     15  C   UNL     1     -17.319 -13.240  20.502  1.00  0.00    -0.000 C 
BRANCH  15  16
ATOM     16  C   UNL     1     -18.699 -13.020  21.144  1.00  0.00    -0.000 C 
BRANCH  16  17
ATOM     17  C   UNL     1     -18.891 -11.586  21.655  1.00  0.00    -0.003 C 
ATOM     18  C   UNL     1     -18.273 -10.572  20.697  1.00  0.00     0.004 C 
ENDBRANCH  16  17
ENDBRANCH  15  16
ENDBRANCH  14  15
ENDBRANCH  13  14
ENDBRANCH  12  13
ENDBRANCH  11  12
ENDBRANCH   1  11
TORSDOF 14
ENDMDL
MODEL 9
REMARK VINA RESULT:    -4.189      3.622      6.612
REMARK INTER + INTRA:          -8.765
REMARK INTER:                  -6.409
REMARK INTRA:                  -2.356
REMARK UNBOUND:                -1.148
REMARK SMILES CCCCCCCCCCCCCCCC(=O)[O-]
REMARK SMILES IDX 9 1 10 2 11 3 12 4 13 5 14 6 15 7 16 8 17 9 18 10 8 11 7 12
REMARK SMILES IDX 6 13 5 14 4 15 3 16 2 17 1 18
REMARK H PARENT
REMARK Flexibility Score: inf
ROOT
ATOM      1  C   UNL     1     -16.482 -22.279  21.924  1.00  0.00     0.000 C 
ENDROOT
BRANCH   1   2
ATOM      2  C   UNL     1     -15.817 -21.391  22.988  1.00  0.00     0.000 C 
BRANCH   2   3
ATOM      3  C   UNL     1     -16.056 -19.892  22.738  1.00  0.00     0.000 C 
BRANCH   3   4
ATOM      4  C   UNL     1     -14.925 -19.237  21.926  1.00  0.00     0.000 C 
BRANCH   4   5
ATOM      5  C   UNL     1     -15.319 -18.795  20.502  1.00  0.00     0.000 C 
BRANCH   5   6
ATOM      6  C   UNL     1     -16.768 -18.290  20.350  1.00  0.00     0.006 C 
BRANCH   6   7
ATOM      7  C   UNL     1     -16.898 -16.765  20.215  1.00  0.00     0.053 C 
BRANCH   7   8
ATOM      8  C   UNL     1     -17.829 -16.189  21.238  1.00  0.00     0.041 C 
ATOM      9  O   UNL     1     -18.255 -15.010  21.114  1.00  0.00    -0.550 OA
ATOM     10  O   UNL     1     -18.198 -16.941  22.346  1.00  0.00    -0.550 OA
ENDBRANCH   7   8
ENDBRANCH   6   7
ENDBRANCH   5   6
ENDBRANCH   4   5
ENDBRANCH   3   4
ENDBRANCH   2   3
ENDBRANCH   1   2
BRANCH   1  11
ATOM     11  C   UNL     1     -15.512 -22.670  20.794  1.00  0.00     0.000 C 
BRANCH  11  12
ATOM     12  C   UNL     1     -16.050 -22.302  19.402  1.00  0.00    -0.000 C 
BRANCH  12  13
ATOM     13  C   UNL     1     -17.520 -21.857  19.435  1.00  0.00    -0.000 C 
BRANCH  13  14
ATOM     14  C   UNL     1     -17.953 -21.288  18.078  1.00  0.00    -0.000 C 
BRANCH  14  15
ATOM     15  C   UNL     1     -16.781 -20.586  17.378  1.00  0.00    -0.000 C 
BRANCH  15  16
ATOM     16  C   UNL     1     -17.185 -19.243  16.749  1.00  0.00    -0.000 C 
BRANCH  16  17
ATOM     17  C   UNL     1     -18.705 -19.031  16.732  1.00  0.00    -0.003 C 
ATOM     18  C   UNL     1     -19.082 -17.698  17.370  1.00  0.00     0.004 C 
ENDBRANCH  16  17
ENDBRANCH  15  16
ENDBRANCH  14  15
ENDBRANCH  13  14
ENDBRANCH  12  13
ENDBRANCH  11  12
ENDBRANCH   1  11
TORSDOF 14
ENDMDL
