MODEL 1
REMARK VINA RESULT:    24.380      0.000      0.000
REMARK INTER + INTRA:          28.392
REMARK INTER:                  28.656
REMARK INTRA:                  -0.264
REMARK UNBOUND:                -0.264
REMARK SMILES O=c1cc(-c2ccc(O)c(O)c2)oc2cc(O)cc(O)c12
REMARK SMILES IDX 4 1 3 2 2 3 1 4 21 5 19 6 18 7 16 8 15 9 14 10 13 11 5 12
REMARK SMILES IDX 6 13 7 14 8 15 12 16 10 17 9 18 11 20 20 22 17 24
REMARK H PARENT 9 19 11 21 20 23 17 25
REMARK Flexibility Score: inf
ROOT
ATOM      1  C   UNL     1      29.114  33.436  48.615  1.00  0.00     0.138 A 
ATOM      2  C   UNL     1      28.410  33.196  47.427  1.00  0.00     0.100 A 
ATOM      3  C   UNL     1      28.110  31.885  47.054  1.00  0.00     0.197 A 
ATOM      4  O   UNL     1      27.423  31.704  46.015  1.00  0.00    -0.289 OA
ATOM      5  C   UNL     1      28.546  30.807  47.861  1.00  0.00     0.107 A 
ATOM      6  C   UNL     1      28.334  29.429  47.559  1.00  0.00     0.134 A 
ATOM      7  C   UNL     1      28.709  28.453  48.492  1.00  0.00     0.093 A 
ATOM      8  C   UNL     1      29.342  28.803  49.686  1.00  0.00     0.123 A 
ATOM      9  C   UNL     1      29.602  30.143  49.966  1.00  0.00     0.094 A 
ATOM     10  C   UNL     1      29.209  31.142  49.072  1.00  0.00     0.146 A 
ATOM     11  O   UNL     1      29.464  32.408  49.382  1.00  0.00    -0.456 OA
ENDROOT
BRANCH   1  12
ATOM     12  C   UNL     1      29.459  34.810  49.057  1.00  0.00     0.021 A 
ATOM     13  C   UNL     1      30.781  35.266  48.926  1.00  0.00     0.016 A 
ATOM     14  C   UNL     1      31.129  36.557  49.328  1.00  0.00     0.051 A 
ATOM     15  C   UNL     1      30.168  37.423  49.859  1.00  0.00     0.157 A 
ATOM     16  C   UNL     1      28.489  35.686  49.578  1.00  0.00     0.062 A 
ATOM     17  C   UNL     1      28.830  36.984  49.981  1.00  0.00     0.158 A 
BRANCH  15  18
ATOM     18  O   UNL     1      30.583  38.698  50.247  1.00  0.00    -0.504 OA
ATOM     19  H   UNL     1      31.357  38.875  50.872  1.00  0.00     0.293 HD
ENDBRANCH  15  18
BRANCH  17  20
ATOM     20  O   UNL     1      27.813  37.797  50.487  1.00  0.00    -0.504 OA
ATOM     21  H   UNL     1      27.480  38.635  50.031  1.00  0.00     0.293 HD
ENDBRANCH  17  20
ENDBRANCH   1  12
BRANCH   6  22
ATOM     22  O   UNL     1      27.787  28.967  46.359  1.00  0.00    -0.507 OA
ATOM     23  H   UNL     1      26.983  29.367  45.899  1.00  0.00     0.293 HD
ENDBRANCH   6  22
BRANCH   8  24
ATOM     24  O   UNL     1      29.725  27.825  50.601  1.00  0.00    -0.508 OA
ATOM     25  H   UNL     1      30.077  28.068  51.521  1.00  0.00     0.293 HD
ENDBRANCH   8  24
TORSDOF 5
ENDMDL
MODEL 2
REMARK VINA RESULT:    25.083      1.100      2.641
REMARK INTER + INTRA:          29.219
REMARK INTER:                  29.491
REMARK INTRA:                  -0.272
REMARK UNBOUND:                -0.264
REMARK SMILES O=c1cc(-c2ccc(O)c(O)c2)oc2cc(O)cc(O)c12
REMARK SMILES IDX 4 1 3 2 2 3 1 4 21 5 19 6 18 7 16 8 15 9 14 10 13 11 5 12
REMARK SMILES IDX 6 13 7 14 8 15 12 16 10 17 9 18 11 20 20 22 17 24
REMARK H PARENT 9 19 11 21 20 23 17 25
REMARK Flexibility Score: inf
ROOT
ATOM      1  C   UNL     1      29.377  33.409  49.224  1.00  0.00     0.138 A 
ATOM      2  C   UNL     1      29.780  32.451  50.165  1.00  0.00     0.100 A 
ATOM      3  C   UNL     1      29.511  31.102  49.935  1.00  0.00     0.197 A 
ATOM      4  O   UNL     1      29.940  30.260  50.767  1.00  0.00    -0.289 OA
ATOM      5  C   UNL     1      28.805  30.714  48.771  1.00  0.00     0.107 A 
ATOM      6  C   UNL     1      28.439  29.372  48.453  1.00  0.00     0.134 A 
ATOM      7  C   UNL     1      27.844  29.094  47.216  1.00  0.00     0.093 A 
ATOM      8  C   UNL     1      27.549  30.117  46.313  1.00  0.00     0.123 A 
ATOM      9  C   UNL     1      27.853  31.437  46.637  1.00  0.00     0.094 A 
ATOM     10  C   UNL     1      28.478  31.742  47.848  1.00  0.00     0.146 A 
ATOM     11  O   UNL     1      28.765  33.013  48.114  1.00  0.00    -0.456 OA
ENDROOT
BRANCH   1  12
ATOM     12  C   UNL     1      29.638  34.858  49.420  1.00  0.00     0.021 A 
ATOM     13  C   UNL     1      30.935  35.359  49.222  1.00  0.00     0.016 A 
ATOM     14  C   UNL     1      31.204  36.718  49.393  1.00  0.00     0.051 A 
ATOM     15  C   UNL     1      30.186  37.607  49.753  1.00  0.00     0.157 A 
ATOM     16  C   UNL     1      28.611  35.754  49.768  1.00  0.00     0.062 A 
ATOM     17  C   UNL     1      28.872  37.120  49.938  1.00  0.00     0.158 A 
BRANCH  15  18
ATOM     18  O   UNL     1      30.524  38.952  49.914  1.00  0.00    -0.504 OA
ATOM     19  H   UNL     1      30.788  39.563  49.153  1.00  0.00     0.293 HD
ENDBRANCH  15  18
BRANCH  17  20
ATOM     20  O   UNL     1      27.803  37.950  50.283  1.00  0.00    -0.504 OA
ATOM     21  H   UNL     1      26.835  37.664  50.259  1.00  0.00     0.293 HD
ENDBRANCH  17  20
ENDBRANCH   1  12
BRANCH   6  22
ATOM     22  O   UNL     1      28.612  28.288  49.319  1.00  0.00    -0.507 OA
ATOM     23  H   UNL     1      27.886  27.642  49.587  1.00  0.00     0.293 HD
ENDBRANCH   6  22
BRANCH   8  24
ATOM     24  O   UNL     1      26.943  29.834  45.090  1.00  0.00    -0.508 OA
ATOM     25  H   UNL     1      26.473  28.952  44.924  1.00  0.00     0.293 HD
ENDBRANCH   8  24
TORSDOF 5
ENDMDL
MODEL 3
REMARK VINA RESULT:    25.401      1.411      7.270
REMARK INTER + INTRA:          29.592
REMARK INTER:                  29.858
REMARK INTRA:                  -0.266
REMARK UNBOUND:                -0.264
REMARK SMILES O=c1cc(-c2ccc(O)c(O)c2)oc2cc(O)cc(O)c12
REMARK SMILES IDX 4 1 3 2 2 3 1 4 21 5 19 6 18 7 16 8 15 9 14 10 13 11 5 12
REMARK SMILES IDX 6 13 7 14 8 15 12 16 10 17 9 18 11 20 20 22 17 24
REMARK H PARENT 9 19 11 21 20 23 17 25
REMARK Flexibility Score: inf
ROOT
ATOM      1  C   UNL     1      29.277  33.751  49.166  1.00  0.00     0.138 A 
ATOM      2  C   UNL     1      30.531  34.369  49.062  1.00  0.00     0.100 A 
ATOM      3  C   UNL     1      30.650  35.735  49.321  1.00  0.00     0.197 A 
ATOM      4  O   UNL     1      31.798  36.250  49.280  1.00  0.00    -0.289 OA
ATOM      5  C   UNL     1      29.501  36.491  49.655  1.00  0.00     0.107 A 
ATOM      6  C   UNL     1      29.496  37.897  49.899  1.00  0.00     0.134 A 
ATOM      7  C   UNL     1      28.319  38.516  50.337  1.00  0.00     0.093 A 
ATOM      8  C   UNL     1      27.133  37.792  50.480  1.00  0.00     0.123 A 
ATOM      9  C   UNL     1      27.115  36.430  50.191  1.00  0.00     0.094 A 
ATOM     10  C   UNL     1      28.281  35.776  49.787  1.00  0.00     0.146 A 
ATOM     11  O   UNL     1      28.224  34.472  49.534  1.00  0.00    -0.456 OA
ENDROOT
BRANCH   1  12
ATOM     12  C   UNL     1      29.094  32.301  48.900  1.00  0.00     0.021 A 
ATOM     13  C   UNL     1      29.374  31.373  49.915  1.00  0.00     0.016 A 
ATOM     14  C   UNL     1      29.203  30.005  49.693  1.00  0.00     0.051 A 
ATOM     15  C   UNL     1      28.741  29.535  48.459  1.00  0.00     0.157 A 
ATOM     16  C   UNL     1      28.615  31.830  47.664  1.00  0.00     0.062 A 
ATOM     17  C   UNL     1      28.438  30.459  47.433  1.00  0.00     0.158 A 
BRANCH  15  18
ATOM     18  O   UNL     1      28.597  28.155  48.300  1.00  0.00    -0.504 OA
ATOM     19  H   UNL     1      27.742  27.706  48.006  1.00  0.00     0.293 HD
ENDBRANCH  15  18
BRANCH  17  20
ATOM     20  O   UNL     1      27.957  30.065  46.182  1.00  0.00    -0.504 OA
ATOM     21  H   UNL     1      27.336  30.623  45.615  1.00  0.00     0.293 HD
ENDBRANCH  17  20
ENDBRANCH   1  12
BRANCH   6  22
ATOM     22  O   UNL     1      30.604  38.727  49.706  1.00  0.00    -0.507 OA
ATOM     23  H   UNL     1      30.627  39.522  49.086  1.00  0.00     0.293 HD
ENDBRANCH   6  22
BRANCH   8  24
ATOM     24  O   UNL     1      25.963  38.420  50.901  1.00  0.00    -0.508 OA
ATOM     25  H   UNL     1      25.242  37.915  51.404  1.00  0.00     0.293 HD
ENDBRANCH   8  24
TORSDOF 5
ENDMDL
MODEL 4
REMARK VINA RESULT:    25.803     10.242     10.968
REMARK INTER + INTRA:          30.064
REMARK INTER:                  30.352
REMARK INTRA:                  -0.287
REMARK UNBOUND:                -0.264
REMARK SMILES O=c1cc(-c2ccc(O)c(O)c2)oc2cc(O)cc(O)c12
REMARK SMILES IDX 4 1 3 2 2 3 1 4 21 5 19 6 18 7 16 8 15 9 14 10 13 11 5 12
REMARK SMILES IDX 6 13 7 14 8 15 12 16 10 17 9 18 11 20 20 22 17 24
REMARK H PARENT 9 19 11 21 20 23 17 25
REMARK Flexibility Score: inf
ROOT
ATOM      1  C   UNL     1      29.953  23.578  45.384  1.00  0.00     0.138 A 
ATOM      2  C   UNL     1      29.210  24.213  44.379  1.00  0.00     0.100 A 
ATOM      3  C   UNL     1      27.818  24.244  44.465  1.00  0.00     0.197 A 
ATOM      4  O   UNL     1      27.182  24.876  43.581  1.00  0.00    -0.289 OA
ATOM      5  C   UNL     1      27.165  23.607  45.547  1.00  0.00     0.107 A 
ATOM      6  C   UNL     1      25.750  23.540  45.716  1.00  0.00     0.134 A 
ATOM      7  C   UNL     1      25.221  22.984  46.887  1.00  0.00     0.093 A 
ATOM      8  C   UNL     1      26.055  22.440  47.867  1.00  0.00     0.123 A 
ATOM      9  C   UNL     1      27.436  22.452  47.687  1.00  0.00     0.094 A 
ATOM     10  C   UNL     1      27.995  23.031  46.545  1.00  0.00     0.146 A 
ATOM     11  O   UNL     1      29.318  23.035  46.417  1.00  0.00    -0.456 OA
ENDROOT
BRANCH   1  12
ATOM     12  C   UNL     1      31.436  23.515  45.341  1.00  0.00     0.021 A 
ATOM     13  C   UNL     1      32.097  22.420  45.919  1.00  0.00     0.016 A 
ATOM     14  C   UNL     1      33.490  22.334  45.886  1.00  0.00     0.051 A 
ATOM     15  C   UNL     1      34.252  23.331  45.268  1.00  0.00     0.157 A 
ATOM     16  C   UNL     1      32.201  24.511  44.707  1.00  0.00     0.062 A 
ATOM     17  C   UNL     1      33.599  24.431  44.667  1.00  0.00     0.158 A 
BRANCH  15  18
ATOM     18  O   UNL     1      35.641  23.188  45.275  1.00  0.00    -0.504 OA
ATOM     19  H   UNL     1      36.159  22.736  46.015  1.00  0.00     0.293 HD
ENDBRANCH  15  18
BRANCH  17  20
ATOM     20  O   UNL     1      34.292  25.457  44.018  1.00  0.00    -0.504 OA
ATOM     21  H   UNL     1      34.009  26.425  44.031  1.00  0.00     0.293 HD
ENDBRANCH  17  20
ENDBRANCH   1  12
BRANCH   6  22
ATOM     22  O   UNL     1      24.827  23.978  44.761  1.00  0.00    -0.507 OA
ATOM     23  H   UNL     1      23.887  24.281  44.965  1.00  0.00     0.293 HD
ENDBRANCH   6  22
BRANCH   8  24
ATOM     24  O   UNL     1      25.519  21.875  49.023  1.00  0.00    -0.508 OA
ATOM     25  H   UNL     1      25.880  21.008  49.405  1.00  0.00     0.293 HD
ENDBRANCH   8  24
TORSDOF 5
ENDMDL
MODEL 5
REMARK VINA RESULT:    26.399      1.976      3.553
REMARK INTER + INTRA:          30.765
REMARK INTER:                  31.050
REMARK INTRA:                  -0.285
REMARK UNBOUND:                -0.264
REMARK SMILES O=c1cc(-c2ccc(O)c(O)c2)oc2cc(O)cc(O)c12
REMARK SMILES IDX 4 1 3 2 2 3 1 4 21 5 19 6 18 7 16 8 15 9 14 10 13 11 5 12
REMARK SMILES IDX 6 13 7 14 8 15 12 16 10 17 9 18 11 20 20 22 17 24
REMARK H PARENT 9 19 11 21 20 23 17 25
REMARK Flexibility Score: inf
ROOT
ATOM      1  C   UNL     1      28.113  34.818  49.090  1.00  0.00     0.138 A 
ATOM      2  C   UNL     1      29.062  34.394  50.031  1.00  0.00     0.100 A 
ATOM      3  C   UNL     1      29.588  33.105  49.948  1.00  0.00     0.197 A 
ATOM      4  O   UNL     1      30.483  32.774  50.768  1.00  0.00    -0.289 OA
ATOM      5  C   UNL     1      29.138  32.225  48.935  1.00  0.00     0.107 A 
ATOM      6  C   UNL     1      29.574  30.876  48.778  1.00  0.00     0.134 A 
ATOM      7  C   UNL     1      29.145  30.137  47.668  1.00  0.00     0.093 A 
ATOM      8  C   UNL     1      28.251  30.680  46.743  1.00  0.00     0.123 A 
ATOM      9  C   UNL     1      27.777  31.978  46.916  1.00  0.00     0.094 A 
ATOM     10  C   UNL     1      28.213  32.752  47.994  1.00  0.00     0.146 A 
ATOM     11  O   UNL     1      27.748  33.991  48.117  1.00  0.00    -0.456 OA
ENDROOT
BRANCH   1  12
ATOM     12  C   UNL     1      27.520  36.179  49.134  1.00  0.00     0.021 A 
ATOM     13  C   UNL     1      27.192  36.828  47.933  1.00  0.00     0.016 A 
ATOM     14  C   UNL     1      26.628  38.105  47.947  1.00  0.00     0.051 A 
ATOM     15  C   UNL     1      26.368  38.757  49.157  1.00  0.00     0.157 A 
ATOM     16  C   UNL     1      27.246  36.829  50.351  1.00  0.00     0.062 A 
ATOM     17  C   UNL     1      26.677  38.109  50.375  1.00  0.00     0.158 A 
BRANCH  15  18
ATOM     18  O   UNL     1      25.808  40.034  49.101  1.00  0.00    -0.504 OA
ATOM     19  H   UNL     1      24.868  40.226  48.784  1.00  0.00     0.293 HD
ENDBRANCH  15  18
BRANCH  17  20
ATOM     20  O   UNL     1      26.431  38.690  51.621  1.00  0.00    -0.504 OA
ATOM     21  H   UNL     1      26.317  39.682  51.768  1.00  0.00     0.293 HD
ENDBRANCH  17  20
ENDBRANCH   1  12
BRANCH   6  22
ATOM     22  O   UNL     1      30.400  30.210  49.689  1.00  0.00    -0.507 OA
ATOM     23  H   UNL     1      30.259  30.191  50.688  1.00  0.00     0.293 HD
ENDBRANCH   6  22
BRANCH   8  24
ATOM     24  O   UNL     1      27.818  29.933  45.649  1.00  0.00    -0.508 OA
ATOM     25  H   UNL     1      27.998  30.233  44.698  1.00  0.00     0.293 HD
ENDBRANCH   8  24
TORSDOF 5
ENDMDL
