MODEL 1
REMARK VINA RESULT:    -4.072      0.000      0.000
REMARK INTER + INTRA:          -7.366
REMARK INTER:                  -6.452
REMARK INTRA:                  -0.915
REMARK UNBOUND:                -0.915
REMARK SMILES CCCCCCCCCCCC(=O)[O-]
REMARK SMILES IDX 7 1 8 2 9 3 10 4 11 5 12 6 13 7 14 8 6 9 5 10 4 11 3 12 2 13
REMARK SMILES IDX 1 14
REMARK H PARENT
REMARK Flexibility Score: inf
ROOT
ATOM      1  C   UNL     1       7.974 -17.462  33.416  1.00  0.00     0.000 C 
ENDROOT
BRANCH   1   2
ATOM      2  C   UNL     1       9.329 -17.861  32.811  1.00  0.00     0.000 C 
BRANCH   2   3
ATOM      3  C   UNL     1       9.197 -18.930  31.712  1.00  0.00     0.000 C 
BRANCH   3   4
ATOM      4  C   UNL     1      10.556 -19.459  31.218  1.00  0.00     0.006 C 
BRANCH   4   5
ATOM      5  C   UNL     1      10.466 -20.794  30.458  1.00  0.00     0.053 C 
BRANCH   5   6
ATOM      6  C   UNL     1       9.585 -20.709  29.248  1.00  0.00     0.041 C 
ATOM      7  O   UNL     1       9.821 -19.857  28.351  1.00  0.00    -0.550 OA
ATOM      8  O   UNL     1       8.524 -21.593  29.093  1.00  0.00    -0.550 OA
ENDBRANCH   5   6
ENDBRANCH   4   5
ENDBRANCH   3   4
ENDBRANCH   2   3
ENDBRANCH   1   2
BRANCH   1   9
ATOM      9  C   UNL     1       8.101 -16.963  34.867  1.00  0.00     0.000 C 
BRANCH   9  10
ATOM     10  C   UNL     1       9.549 -17.010  35.381  1.00  0.00    -0.000 C 
BRANCH  10  11
ATOM     11  C   UNL     1       9.984 -15.685  36.033  1.00  0.00    -0.000 C 
BRANCH  11  12
ATOM     12  C   UNL     1      10.179 -14.551  35.011  1.00  0.00    -0.000 C 
BRANCH  12  13
ATOM     13  C   UNL     1      11.296 -14.790  33.980  1.00  0.00    -0.003 C 
ATOM     14  C   UNL     1      10.836 -14.577  32.538  1.00  0.00     0.004 C 
ENDBRANCH  12  13
ENDBRANCH  11  12
ENDBRANCH  10  11
ENDBRANCH   9  10
ENDBRANCH   1   9
TORSDOF 10
ENDMDL
MODEL 2
REMARK VINA RESULT:    -4.031      3.714      6.405
REMARK INTER + INTRA:          -7.302
REMARK INTER:                  -6.103
REMARK INTRA:                  -1.199
REMARK UNBOUND:                -0.915
REMARK SMILES CCCCCCCCCCCC(=O)[O-]
REMARK SMILES IDX 7 1 8 2 9 3 10 4 11 5 12 6 13 7 14 8 6 9 5 10 4 11 3 12 2 13
REMARK SMILES IDX 1 14
REMARK H PARENT
REMARK Flexibility Score: inf
ROOT
ATOM      1  C   UNL     1       8.372 -16.539  32.801  1.00  0.00     0.000 C 
ENDROOT
BRANCH   1   2
ATOM      2  C   UNL     1       8.904 -17.522  33.857  1.00  0.00     0.000 C 
BRANCH   2   3
ATOM      3  C   UNL     1       8.770 -16.981  35.291  1.00  0.00     0.000 C 
BRANCH   3   4
ATOM      4  C   UNL     1      10.023 -16.223  35.769  1.00  0.00     0.006 C 
BRANCH   4   5
ATOM      5  C   UNL     1       9.820 -14.704  35.901  1.00  0.00     0.053 C 
BRANCH   5   6
ATOM      6  C   UNL     1      10.941 -13.919  35.290  1.00  0.00     0.041 C 
ATOM      7  O   UNL     1      11.224 -12.773  35.728  1.00  0.00    -0.550 OA
ATOM      8  O   UNL     1      11.695 -14.465  34.259  1.00  0.00    -0.550 OA
ENDBRANCH   5   6
ENDBRANCH   4   5
ENDBRANCH   3   4
ENDBRANCH   2   3
ENDBRANCH   1   2
BRANCH   1   9
ATOM      9  C   UNL     1       9.428 -16.188  31.738  1.00  0.00     0.000 C 
BRANCH   9  10
ATOM     10  C   UNL     1      10.741 -16.965  31.933  1.00  0.00    -0.000 C 
BRANCH  10  11
ATOM     11  C   UNL     1      10.990 -17.988  30.811  1.00  0.00    -0.000 C 
BRANCH  11  12
ATOM     12  C   UNL     1      10.699 -19.436  31.246  1.00  0.00    -0.000 C 
BRANCH  12  13
ATOM     13  C   UNL     1       9.578 -20.137  30.458  1.00  0.00    -0.003 C 
ATOM     14  C   UNL     1       8.178 -19.749  30.935  1.00  0.00     0.004 C 
ENDBRANCH  12  13
ENDBRANCH  11  12
ENDBRANCH  10  11
ENDBRANCH   9  10
ENDBRANCH   1   9
TORSDOF 10
ENDMDL
MODEL 3
REMARK VINA RESULT:    -4.024      3.683      6.621
REMARK INTER + INTRA:          -7.291
REMARK INTER:                  -6.509
REMARK INTRA:                  -0.782
REMARK UNBOUND:                -0.915
REMARK SMILES CCCCCCCCCCCC(=O)[O-]
REMARK SMILES IDX 7 1 8 2 9 3 10 4 11 5 12 6 13 7 14 8 6 9 5 10 4 11 3 12 2 13
REMARK SMILES IDX 1 14
REMARK H PARENT
REMARK Flexibility Score: inf
ROOT
ATOM      1  C   UNL     1       8.481 -17.044  33.746  1.00  0.00     0.000 C 
ENDROOT
BRANCH   1   2
ATOM      2  C   UNL     1       8.608 -16.977  35.276  1.00  0.00     0.000 C 
BRANCH   2   3
ATOM      3  C   UNL     1       9.947 -16.373  35.735  1.00  0.00     0.000 C 
BRANCH   3   4
ATOM      4  C   UNL     1       9.810 -14.931  36.259  1.00  0.00     0.006 C 
BRANCH   4   5
ATOM      5  C   UNL     1      10.234 -13.856  35.244  1.00  0.00     0.053 C 
BRANCH   5   6
ATOM      6  C   UNL     1      11.714 -13.830  35.017  1.00  0.00     0.041 C 
ATOM      7  O   UNL     1      12.191 -14.167  33.901  1.00  0.00    -0.550 OA
ATOM      8  O   UNL     1      12.569 -13.401  36.025  1.00  0.00    -0.550 OA
ENDBRANCH   5   6
ENDBRANCH   4   5
ENDBRANCH   3   4
ENDBRANCH   2   3
ENDBRANCH   1   2
BRANCH   1   9
ATOM      9  C   UNL     1       9.608 -17.866  33.097  1.00  0.00     0.000 C 
BRANCH   9  10
ATOM     10  C   UNL     1      10.319 -17.102  31.968  1.00  0.00    -0.000 C 
BRANCH  10  11
ATOM     11  C   UNL     1      10.768 -18.027  30.823  1.00  0.00    -0.000 C 
BRANCH  11  12
ATOM     12  C   UNL     1      10.797 -19.511  31.229  1.00  0.00    -0.000 C 
BRANCH  12  13
ATOM     13  C   UNL     1       9.960 -20.445  30.337  1.00  0.00    -0.003 C 
ATOM     14  C   UNL     1       8.456 -20.194  30.450  1.00  0.00     0.004 C 
ENDBRANCH  12  13
ENDBRANCH  11  12
ENDBRANCH  10  11
ENDBRANCH   9  10
ENDBRANCH   1   9
TORSDOF 10
ENDMDL
MODEL 4
REMARK VINA RESULT:    -3.968      1.355      2.432
REMARK INTER + INTRA:          -7.201
REMARK INTER:                  -6.127
REMARK INTRA:                  -1.075
REMARK UNBOUND:                -0.915
REMARK SMILES CCCCCCCCCCCC(=O)[O-]
REMARK SMILES IDX 7 1 8 2 9 3 10 4 11 5 12 6 13 7 14 8 6 9 5 10 4 11 3 12 2 13
REMARK SMILES IDX 1 14
REMARK H PARENT
REMARK Flexibility Score: inf
ROOT
ATOM      1  C   UNL     1      10.130 -17.358  31.593  1.00  0.00     0.000 C 
ENDROOT
BRANCH   1   2
ATOM      2  C   UNL     1      11.025 -18.341  30.822  1.00  0.00     0.000 C 
BRANCH   2   3
ATOM      3  C   UNL     1      10.784 -19.806  31.227  1.00  0.00     0.000 C 
BRANCH   3   4
ATOM      4  C   UNL     1       9.962 -20.591  30.187  1.00  0.00     0.006 C 
BRANCH   4   5
ATOM      5  C   UNL     1       8.441 -20.414  30.333  1.00  0.00     0.053 C 
BRANCH   5   6
ATOM      6  C   UNL     1       7.856 -19.549  29.259  1.00  0.00     0.041 C 
ATOM      7  O   UNL     1       7.383 -18.417  29.544  1.00  0.00    -0.550 OA
ATOM      8  O   UNL     1       7.864 -19.976  27.936  1.00  0.00    -0.550 OA
ENDBRANCH   5   6
ENDBRANCH   4   5
ENDBRANCH   3   4
ENDBRANCH   2   3
ENDBRANCH   1   2
BRANCH   1   9
ATOM      9  C   UNL     1       9.514 -17.987  32.855  1.00  0.00     0.000 C 
BRANCH   9  10
ATOM     10  C   UNL     1       8.119 -17.423  33.173  1.00  0.00    -0.000 C 
BRANCH  10  11
ATOM     11  C   UNL     1       8.005 -16.919  34.623  1.00  0.00    -0.000 C 
BRANCH  11  12
ATOM     12  C   UNL     1       9.332 -17.019  35.397  1.00  0.00    -0.000 C 
BRANCH  12  13
ATOM     13  C   UNL     1       9.948 -15.669  35.806  1.00  0.00    -0.003 C 
ATOM     14  C   UNL     1      10.643 -14.952  34.648  1.00  0.00     0.004 C 
ENDBRANCH  12  13
ENDBRANCH  11  12
ENDBRANCH  10  11
ENDBRANCH   9  10
ENDBRANCH   1   9
TORSDOF 10
ENDMDL
MODEL 5
REMARK VINA RESULT:    -3.965      3.705      6.582
REMARK INTER + INTRA:          -7.197
REMARK INTER:                  -6.014
REMARK INTRA:                  -1.183
REMARK UNBOUND:                -0.915
REMARK SMILES CCCCCCCCCCCC(=O)[O-]
REMARK SMILES IDX 7 1 8 2 9 3 10 4 11 5 12 6 13 7 14 8 6 9 5 10 4 11 3 12 2 13
REMARK SMILES IDX 1 14
REMARK H PARENT
REMARK Flexibility Score: inf
ROOT
ATOM      1  C   UNL     1      10.566 -18.022  30.769  1.00  0.00     0.000 C 
ENDROOT
BRANCH   1   2
ATOM      2  C   UNL     1      10.145 -17.108  31.931  1.00  0.00     0.000 C 
BRANCH   2   3
ATOM      3  C   UNL     1       9.463 -17.878  33.075  1.00  0.00     0.000 C 
BRANCH   3   4
ATOM      4  C   UNL     1       8.822 -16.953  34.126  1.00  0.00     0.006 C 
BRANCH   4   5
ATOM      5  C   UNL     1       9.663 -16.783  35.403  1.00  0.00     0.053 C 
BRANCH   5   6
ATOM      6  C   UNL     1       9.944 -15.346  35.721  1.00  0.00     0.041 C 
ATOM      7  O   UNL     1      10.925 -14.761  35.192  1.00  0.00    -0.550 OA
ATOM      8  O   UNL     1       9.104 -14.642  36.574  1.00  0.00    -0.550 OA
ENDBRANCH   5   6
ENDBRANCH   4   5
ENDBRANCH   3   4
ENDBRANCH   2   3
ENDBRANCH   1   2
BRANCH   1   9
ATOM      9  C   UNL     1      11.044 -19.404  31.250  1.00  0.00     0.000 C 
BRANCH   9  10
ATOM     10  C   UNL     1      10.340 -20.558  30.519  1.00  0.00    -0.000 C 
BRANCH  10  11
ATOM     11  C   UNL     1       9.272 -20.062  29.528  1.00  0.00    -0.000 C 
BRANCH  11  12
ATOM     12  C   UNL     1       7.854 -20.545  29.886  1.00  0.00    -0.000 C 
BRANCH  12  13
ATOM     13  C   UNL     1       7.157 -19.743  30.999  1.00  0.00    -0.003 C 
ATOM     14  C   UNL     1       6.776 -18.326  30.568  1.00  0.00     0.004 C 
ENDBRANCH  12  13
ENDBRANCH  11  12
ENDBRANCH  10  11
ENDBRANCH   9  10
ENDBRANCH   1   9
TORSDOF 10
ENDMDL
MODEL 6
REMARK VINA RESULT:    -3.900      1.133      2.636
REMARK INTER + INTRA:          -7.095
REMARK INTER:                  -6.154
REMARK INTRA:                  -0.941
REMARK UNBOUND:                -0.915
REMARK SMILES CCCCCCCCCCCC(=O)[O-]
REMARK SMILES IDX 7 1 8 2 9 3 10 4 11 5 12 6 13 7 14 8 6 9 5 10 4 11 3 12 2 13
REMARK SMILES IDX 1 14
REMARK H PARENT
REMARK Flexibility Score: inf
ROOT
ATOM      1  C   UNL     1       9.775 -16.089  31.565  1.00  0.00     0.000 C 
ENDROOT
BRANCH   1   2
ATOM      2  C   UNL     1      10.773 -17.259  31.584  1.00  0.00     0.000 C 
BRANCH   2   3
ATOM      3  C   UNL     1      10.106 -18.602  31.930  1.00  0.00     0.000 C 
BRANCH   3   4
ATOM      4  C   UNL     1      10.712 -19.791  31.162  1.00  0.00     0.006 C 
BRANCH   4   5
ATOM      5  C   UNL     1       9.712 -20.513  30.241  1.00  0.00     0.053 C 
BRANCH   5   6
ATOM      6  C   UNL     1       9.832 -20.083  28.811  1.00  0.00     0.041 C 
ATOM      7  O   UNL     1      10.066 -20.932  27.912  1.00  0.00    -0.550 OA
ATOM      8  O   UNL     1       9.651 -18.749  28.465  1.00  0.00    -0.550 OA
ENDBRANCH   5   6
ENDBRANCH   4   5
ENDBRANCH   3   4
ENDBRANCH   2   3
ENDBRANCH   1   2
BRANCH   1   9
ATOM      9  C   UNL     1      10.275 -14.875  32.368  1.00  0.00     0.000 C 
BRANCH   9  10
ATOM     10  C   UNL     1      11.027 -15.283  33.645  1.00  0.00    -0.000 C 
BRANCH  10  11
ATOM     11  C   UNL     1      10.115 -15.304  34.884  1.00  0.00    -0.000 C 
BRANCH  11  12
ATOM     12  C   UNL     1       9.752 -16.729  35.336  1.00  0.00    -0.000 C 
BRANCH  12  13
ATOM     13  C   UNL     1       8.245 -17.042  35.349  1.00  0.00    -0.003 C 
ATOM     14  C   UNL     1       7.400 -15.896  35.905  1.00  0.00     0.004 C 
ENDBRANCH  12  13
ENDBRANCH  11  12
ENDBRANCH  10  11
ENDBRANCH   9  10
ENDBRANCH   1   9
TORSDOF 10
ENDMDL
MODEL 7
REMARK VINA RESULT:    -3.880      3.498      6.679
REMARK INTER + INTRA:          -7.062
REMARK INTER:                  -6.256
REMARK INTRA:                  -0.807
REMARK UNBOUND:                -0.915
REMARK SMILES CCCCCCCCCCCC(=O)[O-]
REMARK SMILES IDX 7 1 8 2 9 3 10 4 11 5 12 6 13 7 14 8 6 9 5 10 4 11 3 12 2 13
REMARK SMILES IDX 1 14
REMARK H PARENT
REMARK Flexibility Score: inf
ROOT
ATOM      1  C   UNL     1       9.325 -18.994  31.701  1.00  0.00     0.000 C 
ENDROOT
BRANCH   1   2
ATOM      2  C   UNL     1       9.556 -17.837  32.686  1.00  0.00     0.000 C 
BRANCH   2   3
ATOM      3  C   UNL     1       8.244 -17.183  33.152  1.00  0.00     0.000 C 
BRANCH   3   4
ATOM      4  C   UNL     1       8.104 -17.136  34.685  1.00  0.00     0.006 C 
BRANCH   4   5
ATOM      5  C   UNL     1       9.445 -17.008  35.429  1.00  0.00     0.053 C 
BRANCH   5   6
ATOM      6  C   UNL     1       9.916 -15.588  35.526  1.00  0.00     0.041 C 
ATOM      7  O   UNL     1       9.534 -14.858  36.478  1.00  0.00    -0.550 OA
ATOM      8  O   UNL     1      10.803 -15.080  34.585  1.00  0.00    -0.550 OA
ENDBRANCH   5   6
ENDBRANCH   4   5
ENDBRANCH   3   4
ENDBRANCH   2   3
ENDBRANCH   1   2
BRANCH   1   9
ATOM      9  C   UNL     1      10.642 -19.591  31.173  1.00  0.00     0.000 C 
BRANCH   9  10
ATOM     10  C   UNL     1      10.421 -20.875  30.357  1.00  0.00    -0.000 C 
BRANCH  10  11
ATOM     11  C   UNL     1       9.034 -20.917  29.691  1.00  0.00    -0.000 C 
BRANCH  11  12
ATOM     12  C   UNL     1       9.055 -20.423  28.233  1.00  0.00    -0.000 C 
BRANCH  12  13
ATOM     13  C   UNL     1       8.527 -18.993  28.024  1.00  0.00    -0.003 C 
ATOM     14  C   UNL     1       9.643 -17.953  27.915  1.00  0.00     0.004 C 
ENDBRANCH  12  13
ENDBRANCH  11  12
ENDBRANCH  10  11
ENDBRANCH   9  10
ENDBRANCH   1   9
TORSDOF 10
ENDMDL
MODEL 8
REMARK VINA RESULT:    -3.815      4.511      7.291
REMARK INTER + INTRA:          -6.961
REMARK INTER:                  -6.339
REMARK INTRA:                  -0.621
REMARK UNBOUND:                -0.915
REMARK SMILES CCCCCCCCCCCC(=O)[O-]
REMARK SMILES IDX 7 1 8 2 9 3 10 4 11 5 12 6 13 7 14 8 6 9 5 10 4 11 3 12 2 13
REMARK SMILES IDX 1 14
REMARK H PARENT
REMARK Flexibility Score: inf
ROOT
ATOM      1  C   UNL     1       8.635 -17.084  33.780  1.00  0.00     0.000 C 
ENDROOT
BRANCH   1   2
ATOM      2  C   UNL     1       9.342 -17.218  35.139  1.00  0.00     0.000 C 
BRANCH   2   3
ATOM      3  C   UNL     1       9.763 -15.860  35.725  1.00  0.00     0.000 C 
BRANCH   3   4
ATOM      4  C   UNL     1       8.775 -14.726  35.393  1.00  0.00     0.006 C 
BRANCH   4   5
ATOM      5  C   UNL     1       8.645 -13.668  36.502  1.00  0.00     0.053 C 
BRANCH   5   6
ATOM      6  C   UNL     1       9.149 -12.323  36.075  1.00  0.00     0.041 C 
ATOM      7  O   UNL     1      10.385 -12.088  36.050  1.00  0.00    -0.550 OA
ATOM      8  O   UNL     1       8.255 -11.338  35.671  1.00  0.00    -0.550 OA
ENDBRANCH   5   6
ENDBRANCH   4   5
ENDBRANCH   3   4
ENDBRANCH   2   3
ENDBRANCH   1   2
BRANCH   1   9
ATOM      9  C   UNL     1       9.236 -18.012  32.709  1.00  0.00     0.000 C 
BRANCH   9  10
ATOM     10  C   UNL     1      10.274 -17.299  31.828  1.00  0.00    -0.000 C 
BRANCH  10  11
ATOM     11  C   UNL     1      11.058 -18.276  30.934  1.00  0.00    -0.000 C 
BRANCH  11  12
ATOM     12  C   UNL     1      10.715 -19.750  31.215  1.00  0.00    -0.000 C 
BRANCH  12  13
ATOM     13  C   UNL     1      10.080 -20.506  30.034  1.00  0.00    -0.003 C 
ATOM     14  C   UNL     1       8.556 -20.582  30.122  1.00  0.00     0.004 C 
ENDBRANCH  12  13
ENDBRANCH  11  12
ENDBRANCH  10  11
ENDBRANCH   9  10
ENDBRANCH   1   9
TORSDOF 10
ENDMDL
MODEL 9
REMARK VINA RESULT:    -3.815      1.082      2.238
REMARK INTER + INTRA:          -6.960
REMARK INTER:                  -6.226
REMARK INTRA:                  -0.734
REMARK UNBOUND:                -0.915
REMARK SMILES CCCCCCCCCCCC(=O)[O-]
REMARK SMILES IDX 7 1 8 2 9 3 10 4 11 5 12 6 13 7 14 8 6 9 5 10 4 11 3 12 2 13
REMARK SMILES IDX 1 14
REMARK H PARENT
REMARK Flexibility Score: inf
ROOT
ATOM      1  C   UNL     1       8.893 -17.878  32.704  1.00  0.00     0.000 C 
ENDROOT
BRANCH   1   2
ATOM      2  C   UNL     1       8.930 -18.976  31.629  1.00  0.00     0.000 C 
BRANCH   2   3
ATOM      3  C   UNL     1      10.363 -19.365  31.226  1.00  0.00     0.000 C 
BRANCH   3   4
ATOM      4  C   UNL     1      10.435 -20.706  30.472  1.00  0.00     0.006 C 
BRANCH   4   5
ATOM      5  C   UNL     1       9.332 -20.886  29.414  1.00  0.00     0.053 C 
BRANCH   5   6
ATOM      6  C   UNL     1       9.725 -20.337  28.076  1.00  0.00     0.041 C 
ATOM      7  O   UNL     1       9.583 -19.111  27.827  1.00  0.00    -0.550 OA
ATOM      8  O   UNL     1      10.279 -21.172  27.113  1.00  0.00    -0.550 OA
ENDBRANCH   5   6
ENDBRANCH   4   5
ENDBRANCH   3   4
ENDBRANCH   2   3
ENDBRANCH   1   2
BRANCH   1   9
ATOM      9  C   UNL     1       9.327 -16.506  32.160  1.00  0.00     0.000 C 
BRANCH   9  10
ATOM     10  C   UNL     1      10.633 -16.005  32.798  1.00  0.00    -0.000 C 
BRANCH  10  11
ATOM     11  C   UNL     1      10.445 -14.685  33.565  1.00  0.00    -0.000 C 
BRANCH  11  12
ATOM     12  C   UNL     1      10.689 -14.831  35.077  1.00  0.00    -0.000 C 
BRANCH  12  13
ATOM     13  C   UNL     1       9.944 -16.001  35.745  1.00  0.00    -0.003 C 
ATOM     14  C   UNL     1       8.431 -15.788  35.810  1.00  0.00     0.004 C 
ENDBRANCH  12  13
ENDBRANCH  11  12
ENDBRANCH  10  11
ENDBRANCH   9  10
ENDBRANCH   1   9
TORSDOF 10
ENDMDL
