MODEL 1
REMARK VINA RESULT:     1.160      0.000      0.000
REMARK INTER + INTRA:           1.945
REMARK INTER:                   2.923
REMARK INTRA:                  -0.978
REMARK UNBOUND:                -0.978
REMARK SMILES CCCCCCCCCCCCCCCCCCCCCCCCCCCC(=O)[O-]
REMARK SMILES IDX 15 1 16 2 17 3 18 4 19 5 20 6 21 7 22 8 23 9 24 10 25 11
REMARK SMILES IDX 26 12 27 13 28 14 29 15 30 16 14 17 13 18 12 19 11 20 10 21
REMARK SMILES IDX 9 22 8 23 7 24 6 25 5 26 4 27 3 28 2 29 1 30
REMARK H PARENT
REMARK Flexibility Score: inf
ROOT
ATOM      1  C   UNL     1       9.943  78.381   3.308  1.00  0.00     0.000 C 
ENDROOT
BRANCH   1   2
ATOM      2  C   UNL     1      11.373  78.540   2.769  1.00  0.00     0.000 C 
BRANCH   2   3
ATOM      3  C   UNL     1      11.883  79.973   2.989  1.00  0.00     0.000 C 
BRANCH   3   4
ATOM      4  C   UNL     1      13.383  80.125   2.688  1.00  0.00     0.000 C 
BRANCH   4   5
ATOM      5  C   UNL     1      13.845  79.238   1.517  1.00  0.00     0.000 C 
BRANCH   5   6
ATOM      6  C   UNL     1      13.730  79.948   0.153  1.00  0.00     0.000 C 
BRANCH   6   7
ATOM      7  C   UNL     1      14.964  79.800  -0.756  1.00  0.00     0.000 C 
BRANCH   7   8
ATOM      8  C   UNL     1      15.125  78.375  -1.315  1.00  0.00     0.000 C 
BRANCH   8   9
ATOM      9  C   UNL     1      14.077  78.033  -2.390  1.00  0.00     0.000 C 
BRANCH   9  10
ATOM     10  C   UNL     1      13.842  79.129  -3.449  1.00  0.00     0.000 C 
BRANCH  10  11
ATOM     11  C   UNL     1      15.120  79.730  -4.066  1.00  0.00     0.000 C 
BRANCH  11  12
ATOM     12  C   UNL     1      15.015  80.084  -5.563  1.00  0.00     0.006 C 
BRANCH  12  13
ATOM     13  C   UNL     1      13.811  79.455  -6.281  1.00  0.00     0.053 C 
BRANCH  13  14
ATOM     14  C   UNL     1      14.015  77.995  -6.547  1.00  0.00     0.041 C 
ATOM     15  O   UNL     1      13.781  77.148  -5.646  1.00  0.00    -0.550 OA
ATOM     16  O   UNL     1      14.429  77.568  -7.802  1.00  0.00    -0.550 OA
ENDBRANCH  13  14
ENDBRANCH  12  13
ENDBRANCH  11  12
ENDBRANCH  10  11
ENDBRANCH   9  10
ENDBRANCH   8   9
ENDBRANCH   7   8
ENDBRANCH   6   7
ENDBRANCH   5   6
ENDBRANCH   4   5
ENDBRANCH   3   4
ENDBRANCH   2   3
ENDBRANCH   1   2
BRANCH   1  17
ATOM     17  C   UNL     1       9.085  79.639   3.095  1.00  0.00     0.000 C 
BRANCH  17  18
ATOM     18  C   UNL     1       8.338  80.071   4.367  1.00  0.00     0.000 C 
BRANCH  18  19
ATOM     19  C   UNL     1       7.494  78.914   4.921  1.00  0.00     0.000 C 
BRANCH  19  20
ATOM     20  C   UNL     1       7.039  79.152   6.370  1.00  0.00     0.000 C 
BRANCH  20  21
ATOM     21  C   UNL     1       6.271  77.958   6.954  1.00  0.00     0.000 C 
BRANCH  21  22
ATOM     22  C   UNL     1       5.134  78.434   7.868  1.00  0.00    -0.000 C 
BRANCH  22  23
ATOM     23  C   UNL     1       3.825  77.646   7.667  1.00  0.00    -0.000 C 
BRANCH  23  24
ATOM     24  C   UNL     1       2.737  77.900   8.727  1.00  0.00    -0.000 C 
BRANCH  24  25
ATOM     25  C   UNL     1       2.437  79.395   8.939  1.00  0.00    -0.000 C 
BRANCH  25  26
ATOM     26  C   UNL     1       2.583  79.821  10.415  1.00  0.00    -0.000 C 
BRANCH  26  27
ATOM     27  C   UNL     1       4.032  79.783  10.931  1.00  0.00    -0.000 C 
BRANCH  27  28
ATOM     28  C   UNL     1       4.220  78.830  12.120  1.00  0.00    -0.000 C 
BRANCH  28  29
ATOM     29  C   UNL     1       5.343  77.822  11.851  1.00  0.00    -0.003 C 
ATOM     30  C   UNL     1       6.714  78.453  12.072  1.00  0.00     0.004 C 
ENDBRANCH  28  29
ENDBRANCH  27  28
ENDBRANCH  26  27
ENDBRANCH  25  26
ENDBRANCH  24  25
ENDBRANCH  23  24
ENDBRANCH  22  23
ENDBRANCH  21  22
ENDBRANCH  20  21
ENDBRANCH  19  20
ENDBRANCH  18  19
ENDBRANCH  17  18
ENDBRANCH   1  17
TORSDOF 26
ENDMDL
MODEL 2
REMARK VINA RESULT:     1.995      2.092      3.421
REMARK INTER + INTRA:           4.050
REMARK INTER:                   2.454
REMARK INTRA:                   1.596
REMARK UNBOUND:                -0.978
REMARK SMILES CCCCCCCCCCCCCCCCCCCCCCCCCCCC(=O)[O-]
REMARK SMILES IDX 15 1 16 2 17 3 18 4 19 5 20 6 21 7 22 8 23 9 24 10 25 11
REMARK SMILES IDX 26 12 27 13 28 14 29 15 30 16 14 17 13 18 12 19 11 20 10 21
REMARK SMILES IDX 9 22 8 23 7 24 6 25 5 26 4 27 3 28 2 29 1 30
REMARK H PARENT
REMARK Flexibility Score: inf
ROOT
ATOM      1  C   UNL     1      12.318  79.183   2.227  1.00  0.00     0.000 C 
ENDROOT
BRANCH   1   2
ATOM      2  C   UNL     1      13.703  79.413   2.852  1.00  0.00     0.000 C 
BRANCH   2   3
ATOM      3  C   UNL     1      14.678  79.999   1.818  1.00  0.00     0.000 C 
BRANCH   3   4
ATOM      4  C   UNL     1      14.073  80.080   0.407  1.00  0.00     0.000 C 
BRANCH   4   5
ATOM      5  C   UNL     1      15.102  79.769  -0.696  1.00  0.00     0.000 C 
BRANCH   5   6
ATOM      6  C   UNL     1      14.586  80.122  -2.105  1.00  0.00     0.000 C 
BRANCH   6   7
ATOM      7  C   UNL     1      15.125  79.222  -3.233  1.00  0.00     0.000 C 
BRANCH   7   8
ATOM      8  C   UNL     1      14.873  79.807  -4.634  1.00  0.00     0.000 C 
BRANCH   8   9
ATOM      9  C   UNL     1      14.039  78.875  -5.530  1.00  0.00     0.000 C 
BRANCH   9  10
ATOM     10  C   UNL     1      12.968  78.044  -4.796  1.00  0.00     0.000 C 
BRANCH  10  11
ATOM     11  C   UNL     1      13.513  76.904  -3.913  1.00  0.00     0.000 C 
BRANCH  11  12
ATOM     12  C   UNL     1      13.949  77.329  -2.496  1.00  0.00     0.006 C 
BRANCH  12  13
ATOM     13  C   UNL     1      12.912  77.037  -1.400  1.00  0.00     0.053 C 
BRANCH  13  14
ATOM     14  C   UNL     1      13.525  76.359  -0.214  1.00  0.00     0.041 C 
ATOM     15  O   UNL     1      14.567  76.828   0.316  1.00  0.00    -0.550 OA
ATOM     16  O   UNL     1      12.925  75.232   0.330  1.00  0.00    -0.550 OA
ENDBRANCH  13  14
ENDBRANCH  12  13
ENDBRANCH  11  12
ENDBRANCH  10  11
ENDBRANCH   9  10
ENDBRANCH   8   9
ENDBRANCH   7   8
ENDBRANCH   6   7
ENDBRANCH   5   6
ENDBRANCH   4   5
ENDBRANCH   3   4
ENDBRANCH   2   3
ENDBRANCH   1   2
BRANCH   1  17
ATOM     17  C   UNL     1      11.233  80.082   2.842  1.00  0.00     0.000 C 
BRANCH  17  18
ATOM     18  C   UNL     1      10.642  79.500   4.135  1.00  0.00     0.000 C 
BRANCH  18  19
ATOM     19  C   UNL     1       9.375  78.685   3.836  1.00  0.00     0.000 C 
BRANCH  19  20
ATOM     20  C   UNL     1       8.104  79.334   4.405  1.00  0.00     0.000 C 
BRANCH  20  21
ATOM     21  C   UNL     1       7.733  78.794   5.793  1.00  0.00     0.000 C 
BRANCH  21  22
ATOM     22  C   UNL     1       6.395  78.045   5.749  1.00  0.00    -0.000 C 
BRANCH  22  23
ATOM     23  C   UNL     1       5.824  77.742   7.148  1.00  0.00    -0.000 C 
BRANCH  23  24
ATOM     24  C   UNL     1       4.374  78.207   7.380  1.00  0.00    -0.000 C 
BRANCH  24  25
ATOM     25  C   UNL     1       3.552  77.221   8.230  1.00  0.00    -0.000 C 
BRANCH  25  26
ATOM     26  C   UNL     1       3.076  77.846   9.558  1.00  0.00    -0.000 C 
BRANCH  26  27
ATOM     27  C   UNL     1       3.012  79.383   9.534  1.00  0.00    -0.000 C 
BRANCH  27  28
ATOM     28  C   UNL     1       3.459  80.023  10.856  1.00  0.00    -0.000 C 
BRANCH  28  29
ATOM     29  C   UNL     1       4.508  79.158  11.564  1.00  0.00    -0.003 C 
ATOM     30  C   UNL     1       5.713  79.992  11.989  1.00  0.00     0.004 C 
ENDBRANCH  28  29
ENDBRANCH  27  28
ENDBRANCH  26  27
ENDBRANCH  25  26
ENDBRANCH  24  25
ENDBRANCH  23  24
ENDBRANCH  22  23
ENDBRANCH  21  22
ENDBRANCH  20  21
ENDBRANCH  19  20
ENDBRANCH  18  19
ENDBRANCH  17  18
ENDBRANCH   1  17
TORSDOF 26
ENDMDL
