MODEL 1
REMARK VINA RESULT:    -4.711      0.000      0.000
REMARK INTER + INTRA:          -4.849
REMARK INTER:                  -4.849
REMARK INTRA:                   0.000
REMARK UNBOUND:                 0.000
REMARK SMILES CC1(C)[C@H]2CC[C@](C)(C2)[C@@H]1O
REMARK SMILES IDX 1 1 2 2 4 3 5 4 6 5 7 6 9 7 10 8 8 9 3 10 11 11
REMARK H PARENT 11 12
REMARK Flexibility Score: inf
ROOT
ATOM      1  C   UNL     1     178.970 181.400 183.101  1.00  0.00     0.014 C 
ATOM      2  C   UNL     1     180.182 180.582 183.621  1.00  0.00    -0.006 C 
ATOM      3  C   UNL     1     179.675 179.355 184.455  1.00  0.00    -0.002 C 
ATOM      4  C   UNL     1     180.822 178.364 184.753  1.00  0.00     0.005 C 
ATOM      5  C   UNL     1     181.704 179.149 185.738  1.00  0.00     0.010 C 
ATOM      6  C   UNL     1     180.903 180.455 185.952  1.00  0.00    -0.006 C 
ATOM      7  C   UNL     1     179.478 179.951 185.839  1.00  0.00     0.013 C 
ATOM      8  C   UNL     1     181.055 181.343 184.679  1.00  0.00     0.126 C 
ATOM      9  C   UNL     1     181.231 181.151 187.279  1.00  0.00     0.014 C 
ATOM     10  C   UNL     1     181.025 180.181 182.386  1.00  0.00     0.014 C 
ENDROOT
BRANCH   8  11
ATOM     11  O   UNL     1     180.657 182.682 184.876  1.00  0.00    -0.392 OA
ATOM     12  H   UNL     1     181.180 183.266 184.270  1.00  0.00     0.211 HD
ENDBRANCH   8  11
TORSDOF 1
ENDMDL
MODEL 2
REMARK VINA RESULT:    -4.530      1.615      3.501
REMARK INTER + INTRA:          -4.663
REMARK INTER:                  -4.663
REMARK INTRA:                   0.000
REMARK UNBOUND:                 0.000
REMARK SMILES CC1(C)[C@H]2CC[C@](C)(C2)[C@@H]1O
REMARK SMILES IDX 1 1 2 2 4 3 5 4 6 5 7 6 9 7 10 8 8 9 3 10 11 11
REMARK H PARENT 11 12
REMARK Flexibility Score: inf
ROOT
ATOM      1  C   UNL     1     181.381 179.100 185.656  1.00  0.00     0.014 C 
ATOM      2  C   UNL     1     180.924 178.927 184.183  1.00  0.00    -0.006 C 
ATOM      3  C   UNL     1     181.872 179.739 183.234  1.00  0.00    -0.002 C 
ATOM      4  C   UNL     1     181.632 179.376 181.752  1.00  0.00     0.005 C 
ATOM      5  C   UNL     1     180.237 179.961 181.478  1.00  0.00     0.010 C 
ATOM      6  C   UNL     1     179.893 180.667 182.812  1.00  0.00    -0.006 C 
ATOM      7  C   UNL     1     181.263 181.131 183.264  1.00  0.00     0.013 C 
ATOM      8  C   UNL     1     179.532 179.579 183.869  1.00  0.00     0.126 C 
ATOM      9  C   UNL     1     178.860 181.789 182.648  1.00  0.00     0.014 C 
ATOM     10  C   UNL     1     180.909 177.408 183.885  1.00  0.00     0.014 C 
ENDROOT
BRANCH   8  11
ATOM     11  O   UNL     1     178.884 180.097 185.011  1.00  0.00    -0.392 OA
ATOM     12  H   UNL     1     179.087 181.064 185.085  1.00  0.00     0.211 HD
ENDBRANCH   8  11
TORSDOF 1
ENDMDL
MODEL 3
REMARK VINA RESULT:    -4.420      1.692      3.012
REMARK INTER + INTRA:          -4.549
REMARK INTER:                  -4.549
REMARK INTRA:                   0.000
REMARK UNBOUND:                 0.000
REMARK SMILES CC1(C)[C@H]2CC[C@](C)(C2)[C@@H]1O
REMARK SMILES IDX 1 1 2 2 4 3 5 4 6 5 7 6 9 7 10 8 8 9 3 10 11 11
REMARK H PARENT 11 12
REMARK Flexibility Score: inf
ROOT
ATOM      1  C   UNL     1     180.934 177.139 183.347  1.00  0.00     0.014 C 
ATOM      2  C   UNL     1     181.406 178.489 183.949  1.00  0.00    -0.006 C 
ATOM      3  C   UNL     1     180.639 178.772 185.287  1.00  0.00    -0.002 C 
ATOM      4  C   UNL     1     181.269 179.951 186.059  1.00  0.00     0.005 C 
ATOM      5  C   UNL     1     180.933 181.160 185.172  1.00  0.00     0.010 C 
ATOM      6  C   UNL     1     180.073 180.533 184.049  1.00  0.00    -0.006 C 
ATOM      7  C   UNL     1     179.358 179.431 184.803  1.00  0.00     0.013 C 
ATOM      8  C   UNL     1     181.012 179.741 183.090  1.00  0.00     0.126 C 
ATOM      9  C   UNL     1     179.144 181.547 183.367  1.00  0.00     0.014 C 
ATOM     10  C   UNL     1     182.942 178.396 184.128  1.00  0.00     0.014 C 
ENDROOT
BRANCH   8  11
ATOM     11  O   UNL     1     180.408 179.408 181.858  1.00  0.00    -0.392 OA
ATOM     12  H   UNL     1     179.450 179.661 181.891  1.00  0.00     0.211 HD
ENDBRANCH   8  11
TORSDOF 1
ENDMDL
MODEL 4
REMARK VINA RESULT:    -4.400      1.382      2.076
REMARK INTER + INTRA:          -4.529
REMARK INTER:                  -4.529
REMARK INTRA:                   0.000
REMARK UNBOUND:                 0.000
REMARK SMILES CC1(C)[C@H]2CC[C@](C)(C2)[C@@H]1O
REMARK SMILES IDX 1 1 2 2 4 3 5 4 6 5 7 6 9 7 10 8 8 9 3 10 11 11
REMARK H PARENT 11 12
REMARK Flexibility Score: inf
ROOT
ATOM      1  C   UNL     1     179.725 181.655 185.528  1.00  0.00     0.014 C 
ATOM      2  C   UNL     1     180.264 180.493 184.652  1.00  0.00    -0.006 C 
ATOM      3  C   UNL     1     180.393 179.192 185.517  1.00  0.00    -0.002 C 
ATOM      4  C   UNL     1     180.654 177.952 184.634  1.00  0.00     0.005 C 
ATOM      5  C   UNL     1     182.078 178.197 184.111  1.00  0.00     0.010 C 
ATOM      6  C   UNL     1     182.489 179.501 184.835  1.00  0.00    -0.006 C 
ATOM      7  C   UNL     1     181.762 179.350 186.156  1.00  0.00     0.013 C 
ATOM      8  C   UNL     1     181.742 180.695 184.166  1.00  0.00     0.126 C 
ATOM      9  C   UNL     1     184.010 179.667 184.958  1.00  0.00     0.014 C 
ATOM     10  C   UNL     1     179.298 180.341 183.451  1.00  0.00     0.014 C 
ENDROOT
BRANCH   8  11
ATOM     11  O   UNL     1     182.277 181.956 184.506  1.00  0.00    -0.392 OA
ATOM     12  H   UNL     1     181.535 182.607 184.597  1.00  0.00     0.211 HD
ENDBRANCH   8  11
TORSDOF 1
ENDMDL
MODEL 5
REMARK VINA RESULT:    -4.397      1.578      3.053
REMARK INTER + INTRA:          -4.525
REMARK INTER:                  -4.525
REMARK INTRA:                   0.000
REMARK UNBOUND:                 0.000
REMARK SMILES CC1(C)[C@H]2CC[C@](C)(C2)[C@@H]1O
REMARK SMILES IDX 1 1 2 2 4 3 5 4 6 5 7 6 9 7 10 8 8 9 3 10 11 11
REMARK H PARENT 11 12
REMARK Flexibility Score: inf
ROOT
ATOM      1  C   UNL     1     180.176 181.331 186.177  1.00  0.00     0.014 C 
ATOM      2  C   UNL     1     180.795 180.931 184.811  1.00  0.00    -0.006 C 
ATOM      3  C   UNL     1     179.655 180.612 183.784  1.00  0.00    -0.002 C 
ATOM      4  C   UNL     1     180.209 180.484 182.348  1.00  0.00     0.005 C 
ATOM      5  C   UNL     1     181.030 179.186 182.412  1.00  0.00     0.010 C 
ATOM      6  C   UNL     1     180.766 178.684 183.852  1.00  0.00    -0.006 C 
ATOM      7  C   UNL     1     179.343 179.153 184.074  1.00  0.00     0.013 C 
ATOM      8  C   UNL     1     181.580 179.573 184.842  1.00  0.00     0.126 C 
ATOM      9  C   UNL     1     180.973 177.172 184.008  1.00  0.00     0.014 C 
ATOM     10  C   UNL     1     181.714 182.096 184.368  1.00  0.00     0.014 C 
ENDROOT
BRANCH   8  11
ATOM     11  O   UNL     1     181.691 179.018 186.135  1.00  0.00    -0.392 OA
ATOM     12  H   UNL     1     180.953 179.365 186.699  1.00  0.00     0.211 HD
ENDBRANCH   8  11
TORSDOF 1
ENDMDL
MODEL 6
REMARK VINA RESULT:    -4.355      1.928      3.566
REMARK INTER + INTRA:          -4.482
REMARK INTER:                  -4.482
REMARK INTRA:                   0.000
REMARK UNBOUND:                 0.000
REMARK SMILES CC1(C)[C@H]2CC[C@](C)(C2)[C@@H]1O
REMARK SMILES IDX 1 1 2 2 4 3 5 4 6 5 7 6 9 7 10 8 8 9 3 10 11 11
REMARK H PARENT 11 12
REMARK Flexibility Score: inf
ROOT
ATOM      1  C   UNL     1     182.242 179.740 186.900  1.00  0.00     0.014 C 
ATOM      2  C   UNL     1     181.592 180.042 185.523  1.00  0.00    -0.006 C 
ATOM      3  C   UNL     1     180.267 179.217 185.369  1.00  0.00    -0.002 C 
ATOM      4  C   UNL     1     179.447 179.690 184.150  1.00  0.00     0.005 C 
ATOM      5  C   UNL     1     180.310 179.239 182.961  1.00  0.00     0.010 C 
ATOM      6  C   UNL     1     181.471 178.481 183.648  1.00  0.00    -0.006 C 
ATOM      7  C   UNL     1     180.765 177.880 184.846  1.00  0.00     0.013 C 
ATOM      8  C   UNL     1     182.427 179.526 184.299  1.00  0.00     0.126 C 
ATOM      9  C   UNL     1     182.149 177.458 182.727  1.00  0.00     0.014 C 
ATOM     10  C   UNL     1     181.376 181.573 185.446  1.00  0.00     0.014 C 
ENDROOT
BRANCH   8  11
ATOM     11  O   UNL     1     183.682 178.992 184.661  1.00  0.00    -0.392 OA
ATOM     12  H   UNL     1     183.914 178.261 184.033  1.00  0.00     0.211 HD
ENDBRANCH   8  11
TORSDOF 1
ENDMDL
MODEL 7
REMARK VINA RESULT:    -4.345      1.748      3.058
REMARK INTER + INTRA:          -4.472
REMARK INTER:                  -4.472
REMARK INTRA:                   0.000
REMARK UNBOUND:                 0.000
REMARK SMILES CC1(C)[C@H]2CC[C@](C)(C2)[C@@H]1O
REMARK SMILES IDX 1 1 2 2 4 3 5 4 6 5 7 6 9 7 10 8 8 9 3 10 11 11
REMARK H PARENT 11 12
REMARK Flexibility Score: inf
ROOT
ATOM      1  C   UNL     1     183.045 178.378 184.101  1.00  0.00     0.014 C 
ATOM      2  C   UNL     1     181.525 178.612 183.893  1.00  0.00    -0.006 C 
ATOM      3  C   UNL     1     181.301 179.838 182.942  1.00  0.00    -0.002 C 
ATOM      4  C   UNL     1     179.829 179.935 182.484  1.00  0.00     0.005 C 
ATOM      5  C   UNL     1     179.094 180.324 183.777  1.00  0.00     0.010 C 
ATOM      6  C   UNL     1     180.249 180.492 184.792  1.00  0.00    -0.006 C 
ATOM      7  C   UNL     1     181.355 181.017 183.899  1.00  0.00     0.013 C 
ATOM      8  C   UNL     1     180.770 179.076 185.187  1.00  0.00     0.126 C 
ATOM      9  C   UNL     1     179.888 181.408 185.967  1.00  0.00     0.014 C 
ATOM     10  C   UNL     1     180.931 177.291 183.344  1.00  0.00     0.014 C 
ENDROOT
BRANCH   8  11
ATOM     11  O   UNL     1     181.583 179.077 186.341  1.00  0.00    -0.392 OA
ATOM     12  H   UNL     1     181.068 178.696 187.098  1.00  0.00     0.211 HD
ENDBRANCH   8  11
TORSDOF 1
ENDMDL
MODEL 8
REMARK VINA RESULT:    -4.305      1.078      3.115
REMARK INTER + INTRA:          -4.431
REMARK INTER:                  -4.431
REMARK INTRA:                   0.000
REMARK UNBOUND:                 0.000
REMARK SMILES CC1(C)[C@H]2CC[C@](C)(C2)[C@@H]1O
REMARK SMILES IDX 1 1 2 2 4 3 5 4 6 5 7 6 9 7 10 8 8 9 3 10 11 11
REMARK H PARENT 11 12
REMARK Flexibility Score: inf
ROOT
ATOM      1  C   UNL     1     182.840 182.213 185.842  1.00  0.00     0.014 C 
ATOM      2  C   UNL     1     181.575 181.333 186.024  1.00  0.00    -0.006 C 
ATOM      3  C   UNL     1     181.747 179.988 185.235  1.00  0.00    -0.002 C 
ATOM      4  C   UNL     1     180.647 178.971 185.611  1.00  0.00     0.005 C 
ATOM      5  C   UNL     1     179.380 179.600 185.009  1.00  0.00     0.010 C 
ATOM      6  C   UNL     1     179.929 180.852 184.284  1.00  0.00    -0.006 C 
ATOM      7  C   UNL     1     181.290 180.362 183.835  1.00  0.00     0.013 C 
ATOM      8  C   UNL     1     180.286 181.927 185.356  1.00  0.00     0.126 C 
ATOM      9  C   UNL     1     179.018 181.337 183.149  1.00  0.00     0.014 C 
ATOM     10  C   UNL     1     181.374 181.133 187.546  1.00  0.00     0.014 C 
ENDROOT
BRANCH   8  11
ATOM     11  O   UNL     1     180.477 183.217 184.817  1.00  0.00    -0.392 OA
ATOM     12  H   UNL     1     180.307 183.890 185.525  1.00  0.00     0.211 HD
ENDBRANCH   8  11
TORSDOF 1
ENDMDL
MODEL 9
REMARK VINA RESULT:    -4.193      1.701      3.039
REMARK INTER + INTRA:          -4.315
REMARK INTER:                  -4.315
REMARK INTRA:                   0.000
REMARK UNBOUND:                 0.000
REMARK SMILES CC1(C)[C@H]2CC[C@](C)(C2)[C@@H]1O
REMARK SMILES IDX 1 1 2 2 4 3 5 4 6 5 7 6 9 7 10 8 8 9 3 10 11 11
REMARK H PARENT 11 12
REMARK Flexibility Score: inf
ROOT
ATOM      1  C   UNL     1     180.581 182.998 182.537  1.00  0.00     0.014 C 
ATOM      2  C   UNL     1     179.914 182.270 183.734  1.00  0.00    -0.006 C 
ATOM      3  C   UNL     1     181.005 181.864 184.784  1.00  0.00    -0.002 C 
ATOM      4  C   UNL     1     180.365 181.393 186.108  1.00  0.00     0.005 C 
ATOM      5  C   UNL     1     179.708 180.060 185.716  1.00  0.00     0.010 C 
ATOM      6  C   UNL     1     180.133 179.890 184.238  1.00  0.00    -0.006 C 
ATOM      7  C   UNL     1     181.505 180.533 184.248  1.00  0.00     0.013 C 
ATOM      8  C   UNL     1     179.297 180.876 183.366  1.00  0.00     0.126 C 
ATOM      9  C   UNL     1     180.116 178.428 183.773  1.00  0.00     0.014 C 
ATOM     10  C   UNL     1     178.836 183.224 184.305  1.00  0.00     0.014 C 
ENDROOT
BRANCH   8  11
ATOM     11  O   UNL     1     179.347 180.587 181.985  1.00  0.00    -0.392 OA
ATOM     12  H   UNL     1     180.129 181.048 181.588  1.00  0.00     0.211 HD
ENDBRANCH   8  11
TORSDOF 1
ENDMDL
