MODEL 1
REMARK VINA RESULT:    -3.837      0.000      0.000
REMARK INTER + INTRA:          -4.639
REMARK INTER:                  -4.509
REMARK INTRA:                  -0.130
REMARK UNBOUND:                -0.130
REMARK SMILES O=C([O-])C=Cc1ccc(O)c(O)c1
REMARK SMILES IDX 6 1 13 2 7 3 11 4 8 5 9 6 5 7 4 8 2 9 1 10 3 11 12 12 10 14
REMARK H PARENT 12 13 10 15
REMARK Flexibility Score: inf
ROOT
ATOM      1  C   UNL     1       9.554  12.546  60.486  1.00  0.00    -0.022 A 
ATOM      2  C   UNL     1       8.879  11.466  61.079  1.00  0.00     0.058 A 
ATOM      3  C   UNL     1      10.317  12.316  59.325  1.00  0.00     0.012 A 
ATOM      4  C   UNL     1       8.980  10.176  60.546  1.00  0.00     0.157 A 
ATOM      5  C   UNL     1      10.420  11.029  58.790  1.00  0.00     0.051 A 
ATOM      6  C   UNL     1       9.756   9.955  59.396  1.00  0.00     0.157 A 
ENDROOT
BRANCH   1   7
ATOM      7  C   UNL     1       9.402  13.895  61.088  1.00  0.00     0.010 C 
ATOM      8  C   UNL     1       8.231  14.399  61.499  1.00  0.00     0.025 C 
BRANCH   8   9
ATOM      9  C   UNL     1       8.126  15.747  62.080  1.00  0.00     0.064 C 
ATOM     10  O   UNL     1       7.076  16.419  61.903  1.00  0.00    -0.545 OA
ATOM     11  O   UNL     1       9.167  16.291  62.823  1.00  0.00    -0.545 OA
ENDBRANCH   8   9
ENDBRANCH   1   7
BRANCH   4  12
ATOM     12  O   UNL     1       8.302   9.129  61.169  1.00  0.00    -0.504 OA
ATOM     13  H   UNL     1       7.306   9.163  61.347  1.00  0.00     0.293 HD
ENDBRANCH   4  12
BRANCH   6  14
ATOM     14  O   UNL     1       9.863   8.672  58.860  1.00  0.00    -0.504 OA
ATOM     15  H   UNL     1      10.362   7.935  59.343  1.00  0.00     0.293 HD
ENDBRANCH   6  14
TORSDOF 4
ENDMDL
MODEL 2
REMARK VINA RESULT:    -3.809      2.445      3.464
REMARK INTER + INTRA:          -4.607
REMARK INTER:                  -4.474
REMARK INTRA:                  -0.133
REMARK UNBOUND:                -0.130
REMARK SMILES O=C([O-])C=Cc1ccc(O)c(O)c1
REMARK SMILES IDX 6 1 13 2 7 3 11 4 8 5 9 6 5 7 4 8 2 9 1 10 3 11 12 12 10 14
REMARK H PARENT 12 13 10 15
REMARK Flexibility Score: inf
ROOT
ATOM      1  C   UNL     1      10.684  10.333  58.216  1.00  0.00    -0.022 A 
ATOM      2  C   UNL     1      10.712   9.216  59.068  1.00  0.00     0.058 A 
ATOM      3  C   UNL     1      10.839  10.134  56.830  1.00  0.00     0.012 A 
ATOM      4  C   UNL     1      10.917   7.929  58.559  1.00  0.00     0.157 A 
ATOM      5  C   UNL     1      11.044   8.849  56.319  1.00  0.00     0.051 A 
ATOM      6  C   UNL     1      11.085   7.744  57.177  1.00  0.00     0.157 A 
ENDROOT
BRANCH   1   7
ATOM      7  C   UNL     1      10.454  11.674  58.809  1.00  0.00     0.010 C 
ATOM      8  C   UNL     1      10.175  11.876  60.104  1.00  0.00     0.025 C 
BRANCH   8   9
ATOM      9  C   UNL     1       9.942  13.224  60.647  1.00  0.00     0.064 C 
ATOM     10  O   UNL     1       8.764  13.662  60.736  1.00  0.00    -0.545 OA
ATOM     11  O   UNL     1      10.999  14.023  61.065  1.00  0.00    -0.545 OA
ENDBRANCH   8   9
ENDBRANCH   1   7
BRANCH   4  12
ATOM     12  O   UNL     1      10.947   6.848  59.440  1.00  0.00    -0.504 OA
ATOM     13  H   UNL     1      11.495   6.863  60.291  1.00  0.00     0.293 HD
ENDBRANCH   4  12
BRANCH   6  14
ATOM     14  O   UNL     1      11.291   6.464  56.663  1.00  0.00    -0.504 OA
ATOM     15  H   UNL     1      12.198   6.168  56.323  1.00  0.00     0.293 HD
ENDBRANCH   6  14
TORSDOF 4
ENDMDL
MODEL 3
REMARK VINA RESULT:    -3.786     12.544     13.699
REMARK INTER + INTRA:          -4.579
REMARK INTER:                  -4.449
REMARK INTRA:                  -0.130
REMARK UNBOUND:                -0.130
REMARK SMILES O=C([O-])C=Cc1ccc(O)c(O)c1
REMARK SMILES IDX 6 1 13 2 7 3 11 4 8 5 9 6 5 7 4 8 2 9 1 10 3 11 12 12 10 14
REMARK H PARENT 12 13 10 15
REMARK Flexibility Score: inf
ROOT
ATOM      1  C   UNL     1      -3.382   9.712  59.013  1.00  0.00    -0.022 A 
ATOM      2  C   UNL     1      -2.566   8.696  59.540  1.00  0.00     0.058 A 
ATOM      3  C   UNL     1      -2.868  11.020  58.925  1.00  0.00     0.012 A 
ATOM      4  C   UNL     1      -1.273   8.979  59.995  1.00  0.00     0.157 A 
ATOM      5  C   UNL     1      -1.577  11.304  59.379  1.00  0.00     0.051 A 
ATOM      6  C   UNL     1      -0.776  10.289  59.917  1.00  0.00     0.157 A 
ENDROOT
BRANCH   1   7
ATOM      7  C   UNL     1      -4.741   9.354  58.535  1.00  0.00     0.010 C 
ATOM      8  C   UNL     1      -5.016   8.243  57.837  1.00  0.00     0.025 C 
BRANCH   8   9
ATOM      9  C   UNL     1      -6.378   7.935  57.373  1.00  0.00     0.064 C 
ATOM     10  O   UNL     1      -6.987   8.760  56.642  1.00  0.00    -0.545 OA
ATOM     11  O   UNL     1      -7.005   6.746  57.726  1.00  0.00    -0.545 OA
ENDBRANCH   8   9
ENDBRANCH   1   7
BRANCH   4  12
ATOM     12  O   UNL     1      -0.499   7.944  60.520  1.00  0.00    -0.504 OA
ATOM     13  H   UNL     1      -0.795   7.405  61.324  1.00  0.00     0.293 HD
ENDBRANCH   4  12
BRANCH   6  14
ATOM     14  O   UNL     1       0.511  10.578  60.370  1.00  0.00    -0.504 OA
ATOM     15  H   UNL     1       1.326  10.125  59.975  1.00  0.00     0.293 HD
ENDBRANCH   6  14
TORSDOF 4
ENDMDL
MODEL 4
REMARK VINA RESULT:    -3.655     13.659     15.487
REMARK INTER + INTRA:          -4.425
REMARK INTER:                  -4.296
REMARK INTRA:                  -0.129
REMARK UNBOUND:                -0.130
REMARK SMILES O=C([O-])C=Cc1ccc(O)c(O)c1
REMARK SMILES IDX 6 1 13 2 7 3 11 4 8 5 9 6 5 7 4 8 2 9 1 10 3 11 12 12 10 14
REMARK H PARENT 12 13 10 15
REMARK Flexibility Score: inf
ROOT
ATOM      1  C   UNL     1       3.341  13.046  73.966  1.00  0.00    -0.022 A 
ATOM      2  C   UNL     1       2.435  12.056  74.384  1.00  0.00     0.058 A 
ATOM      3  C   UNL     1       2.896  14.378  73.869  1.00  0.00     0.012 A 
ATOM      4  C   UNL     1       1.105  12.378  74.676  1.00  0.00     0.157 A 
ATOM      5  C   UNL     1       1.568  14.702  74.160  1.00  0.00     0.051 A 
ATOM      6  C   UNL     1       0.668  13.708  74.562  1.00  0.00     0.157 A 
ENDROOT
BRANCH   1   7
ATOM      7  C   UNL     1       4.743  12.649  73.679  1.00  0.00     0.010 C 
ATOM      8  C   UNL     1       5.768  12.890  74.507  1.00  0.00     0.025 C 
BRANCH   8   9
ATOM      9  C   UNL     1       7.145  12.489  74.176  1.00  0.00     0.064 C 
ATOM     10  O   UNL     1       7.750  13.065  73.233  1.00  0.00    -0.545 OA
ATOM     11  O   UNL     1       7.791  11.486  74.887  1.00  0.00    -0.545 OA
ENDBRANCH   8   9
ENDBRANCH   1   7
BRANCH   4  12
ATOM     12  O   UNL     1       0.235  11.366  75.079  1.00  0.00    -0.504 OA
ATOM     13  H   UNL     1       0.351  10.405  74.780  1.00  0.00     0.293 HD
ENDBRANCH   4  12
BRANCH   6  14
ATOM     14  O   UNL     1      -0.656  14.036  74.851  1.00  0.00    -0.504 OA
ATOM     15  H   UNL     1      -0.999  14.071  75.804  1.00  0.00     0.293 HD
ENDBRANCH   6  14
TORSDOF 4
ENDMDL
MODEL 5
REMARK VINA RESULT:    -3.617      1.000      2.179
REMARK INTER + INTRA:          -4.382
REMARK INTER:                  -4.246
REMARK INTRA:                  -0.135
REMARK UNBOUND:                -0.130
REMARK SMILES O=C([O-])C=Cc1ccc(O)c(O)c1
REMARK SMILES IDX 6 1 13 2 7 3 11 4 8 5 9 6 5 7 4 8 2 9 1 10 3 11 12 12 10 14
REMARK H PARENT 12 13 10 15
REMARK Flexibility Score: inf
ROOT
ATOM      1  C   UNL     1       9.643  12.273  60.300  1.00  0.00    -0.022 A 
ATOM      2  C   UNL     1      10.484  12.118  59.185  1.00  0.00     0.058 A 
ATOM      3  C   UNL     1       8.969  11.144  60.805  1.00  0.00     0.012 A 
ATOM      4  C   UNL     1      10.633  10.871  58.567  1.00  0.00     0.157 A 
ATOM      5  C   UNL     1       9.117   9.898  60.190  1.00  0.00     0.051 A 
ATOM      6  C   UNL     1       9.945   9.756  59.070  1.00  0.00     0.157 A 
ENDROOT
BRANCH   1   7
ATOM      7  C   UNL     1       9.529  13.616  60.922  1.00  0.00     0.010 C 
ATOM      8  C   UNL     1       8.377  14.135  61.369  1.00  0.00     0.025 C 
BRANCH   8   9
ATOM      9  C   UNL     1       8.310  15.477  61.968  1.00  0.00     0.064 C 
ATOM     10  O   UNL     1       9.375  16.069  62.286  1.00  0.00    -0.545 OA
ATOM     11  O   UNL     1       7.090  16.104  62.189  1.00  0.00    -0.545 OA
ENDBRANCH   8   9
ENDBRANCH   1   7
BRANCH   4  12
ATOM     12  O   UNL     1      11.471  10.761  57.457  1.00  0.00    -0.504 OA
ATOM     13  H   UNL     1      11.664   9.871  57.015  1.00  0.00     0.293 HD
ENDBRANCH   4  12
BRANCH   6  14
ATOM     14  O   UNL     1      10.089   8.511  58.458  1.00  0.00    -0.504 OA
ATOM     15  H   UNL     1      10.576   8.406  57.576  1.00  0.00     0.293 HD
ENDBRANCH   6  14
TORSDOF 4
ENDMDL
MODEL 6
REMARK VINA RESULT:    -3.537      8.229      9.631
REMARK INTER + INTRA:          -4.286
REMARK INTER:                  -4.161
REMARK INTRA:                  -0.125
REMARK UNBOUND:                -0.130
REMARK SMILES O=C([O-])C=Cc1ccc(O)c(O)c1
REMARK SMILES IDX 6 1 13 2 7 3 11 4 8 5 9 6 5 7 4 8 2 9 1 10 3 11 12 12 10 14
REMARK H PARENT 12 13 10 15
REMARK Flexibility Score: inf
ROOT
ATOM      1  C   UNL     1       2.247  18.401  59.327  1.00  0.00    -0.022 A 
ATOM      2  C   UNL     1       2.997  17.665  60.260  1.00  0.00     0.058 A 
ATOM      3  C   UNL     1       0.849  18.230  59.293  1.00  0.00     0.012 A 
ATOM      4  C   UNL     1       2.375  16.758  61.125  1.00  0.00     0.157 A 
ATOM      5  C   UNL     1       0.226  17.325  60.156  1.00  0.00     0.051 A 
ATOM      6  C   UNL     1       0.983  16.585  61.072  1.00  0.00     0.157 A 
ENDROOT
BRANCH   1   7
ATOM      7  C   UNL     1       2.957  19.356  58.441  1.00  0.00     0.010 C 
ATOM      8  C   UNL     1       3.781  18.984  57.453  1.00  0.00     0.025 C 
BRANCH   8   9
ATOM      9  C   UNL     1       4.474  19.968  56.606  1.00  0.00     0.064 C 
ATOM     10  O   UNL     1       5.718  19.873  56.434  1.00  0.00    -0.545 OA
ATOM     11  O   UNL     1       3.779  21.001  55.990  1.00  0.00    -0.545 OA
ENDBRANCH   8   9
ENDBRANCH   1   7
BRANCH   4  12
ATOM     12  O   UNL     1       3.156  16.040  62.031  1.00  0.00    -0.504 OA
ATOM     13  H   UNL     1       3.318  15.045  61.932  1.00  0.00     0.293 HD
ENDBRANCH   4  12
BRANCH   6  14
ATOM     14  O   UNL     1       0.357  15.682  61.931  1.00  0.00    -0.504 OA
ATOM     15  H   UNL     1      -0.360  15.046  61.602  1.00  0.00     0.293 HD
ENDBRANCH   6  14
TORSDOF 4
ENDMDL
MODEL 7
REMARK VINA RESULT:    -3.455      8.380      9.530
REMARK INTER + INTRA:          -4.191
REMARK INTER:                  -4.059
REMARK INTRA:                  -0.132
REMARK UNBOUND:                -0.130
REMARK SMILES O=C([O-])C=Cc1ccc(O)c(O)c1
REMARK SMILES IDX 6 1 13 2 7 3 11 4 8 5 9 6 5 7 4 8 2 9 1 10 3 11 12 12 10 14
REMARK H PARENT 12 13 10 15
REMARK Flexibility Score: inf
ROOT
ATOM      1  C   UNL     1       4.145  18.758  58.963  1.00  0.00    -0.022 A 
ATOM      2  C   UNL     1       5.211  19.584  59.359  1.00  0.00     0.058 A 
ATOM      3  C   UNL     1       3.805  18.696  57.598  1.00  0.00     0.012 A 
ATOM      4  C   UNL     1       5.909  20.354  58.422  1.00  0.00     0.157 A 
ATOM      5  C   UNL     1       4.500  19.464  56.660  1.00  0.00     0.051 A 
ATOM      6  C   UNL     1       5.551  20.296  57.066  1.00  0.00     0.157 A 
ENDROOT
BRANCH   1   7
ATOM      7  C   UNL     1       3.447  17.954  59.998  1.00  0.00     0.010 C 
ATOM      8  C   UNL     1       2.119  17.785  60.038  1.00  0.00     0.025 C 
BRANCH   8   9
ATOM      9  C   UNL     1       1.468  16.989  61.091  1.00  0.00     0.064 C 
ATOM     10  O   UNL     1       1.859  15.812  61.310  1.00  0.00    -0.545 OA
ATOM     11  O   UNL     1       0.430  17.515  61.849  1.00  0.00    -0.545 OA
ENDBRANCH   8   9
ENDBRANCH   1   7
BRANCH   4  12
ATOM     12  O   UNL     1       6.954  21.168  58.857  1.00  0.00    -0.504 OA
ATOM     13  H   UNL     1       6.909  21.683  59.728  1.00  0.00     0.293 HD
ENDBRANCH   4  12
BRANCH   6  14
ATOM     14  O   UNL     1       6.241  21.062  56.127  1.00  0.00    -0.504 OA
ATOM     15  H   UNL     1       7.177  20.817  55.827  1.00  0.00     0.293 HD
ENDBRANCH   6  14
TORSDOF 4
ENDMDL
