MODEL 1
REMARK VINA RESULT:    -1.200      0.000      0.000
REMARK INTER + INTRA:          -3.364
REMARK INTER:                  -1.902
REMARK INTRA:                  -1.462
REMARK UNBOUND:                -1.462
REMARK SMILES CCCCCCCCCCCC(=O)[O-]
REMARK SMILES IDX 7 1 8 2 9 3 10 4 11 5 12 6 13 7 14 8 6 9 5 10 4 11 3 12 2 13
REMARK SMILES IDX 1 14
REMARK H PARENT
REMARK Flexibility Score: inf
ROOT
ATOM      1  C   UNL     1     -13.479 -22.481  84.986  1.00  0.00     0.000 C 
ENDROOT
BRANCH   1   2
ATOM      2  C   UNL     1     -13.139 -21.333  84.015  1.00  0.00     0.000 C 
BRANCH   2   3
ATOM      3  C   UNL     1     -13.161 -21.714  82.521  1.00  0.00     0.000 C 
BRANCH   3   4
ATOM      4  C   UNL     1     -13.993 -20.778  81.621  1.00  0.00     0.006 C 
BRANCH   4   5
ATOM      5  C   UNL     1     -15.424 -21.267  81.345  1.00  0.00     0.053 C 
BRANCH   5   6
ATOM      6  C   UNL     1     -16.238 -20.237  80.625  1.00  0.00     0.041 C 
ATOM      7  O   UNL     1     -15.700 -19.175  80.216  1.00  0.00    -0.550 OA
ATOM      8  O   UNL     1     -17.586 -20.464  80.376  1.00  0.00    -0.550 OA
ENDBRANCH   5   6
ENDBRANCH   4   5
ENDBRANCH   3   4
ENDBRANCH   2   3
ENDBRANCH   1   2
BRANCH   1   9
ATOM      9  C   UNL     1     -14.903 -22.434  85.578  1.00  0.00     0.000 C 
BRANCH   9  10
ATOM     10  C   UNL     1     -16.012 -22.936  84.636  1.00  0.00    -0.000 C 
BRANCH  10  11
ATOM     11  C   UNL     1     -15.861 -24.424  84.279  1.00  0.00    -0.000 C 
BRANCH  11  12
ATOM     12  C   UNL     1     -15.658 -24.658  82.771  1.00  0.00    -0.000 C 
BRANCH  12  13
ATOM     13  C   UNL     1     -14.287 -25.245  82.390  1.00  0.00    -0.003 C 
ATOM     14  C   UNL     1     -13.546 -25.857  83.578  1.00  0.00     0.004 C 
ENDBRANCH  12  13
ENDBRANCH  11  12
ENDBRANCH  10  11
ENDBRANCH   9  10
ENDBRANCH   1   9
TORSDOF 10
ENDMDL
MODEL 2
REMARK VINA RESULT:    -1.182      2.133      3.460
REMARK INTER + INTRA:          -3.335
REMARK INTER:                  -1.743
REMARK INTRA:                  -1.593
REMARK UNBOUND:                -1.462
REMARK SMILES CCCCCCCCCCCC(=O)[O-]
REMARK SMILES IDX 7 1 8 2 9 3 10 4 11 5 12 6 13 7 14 8 6 9 5 10 4 11 3 12 2 13
REMARK SMILES IDX 1 14
REMARK H PARENT
REMARK Flexibility Score: inf
ROOT
ATOM      1  C   UNL     1     -13.591 -21.711  82.755  1.00  0.00     0.000 C 
ENDROOT
BRANCH   1   2
ATOM      2  C   UNL     1     -13.992 -23.114  82.254  1.00  0.00     0.000 C 
BRANCH   2   3
ATOM      3  C   UNL     1     -15.465 -23.254  81.822  1.00  0.00     0.000 C 
BRANCH   3   4
ATOM      4  C   UNL     1     -16.257 -21.932  81.764  1.00  0.00     0.006 C 
BRANCH   4   5
ATOM      5  C   UNL     1     -17.717 -22.044  82.228  1.00  0.00     0.053 C 
BRANCH   5   6
ATOM      6  C   UNL     1     -18.395 -23.253  81.660  1.00  0.00     0.041 C 
ATOM      7  O   UNL     1     -18.781 -24.179  82.421  1.00  0.00    -0.550 OA
ATOM      8  O   UNL     1     -18.630 -23.342  80.294  1.00  0.00    -0.550 OA
ENDBRANCH   5   6
ENDBRANCH   4   5
ENDBRANCH   3   4
ENDBRANCH   2   3
ENDBRANCH   1   2
BRANCH   1   9
ATOM      9  C   UNL     1     -13.270 -21.623  84.261  1.00  0.00     0.000 C 
BRANCH   9  10
ATOM     10  C   UNL     1     -13.008 -22.975  84.947  1.00  0.00    -0.000 C 
BRANCH  10  11
ATOM     11  C   UNL     1     -14.074 -23.326  85.999  1.00  0.00    -0.000 C 
BRANCH  11  12
ATOM     12  C   UNL     1     -15.287 -22.379  85.957  1.00  0.00    -0.000 C 
BRANCH  12  13
ATOM     13  C   UNL     1     -16.620 -23.055  85.593  1.00  0.00    -0.003 C 
ATOM     14  C   UNL     1     -16.449 -24.497  85.114  1.00  0.00     0.004 C 
ENDBRANCH  12  13
ENDBRANCH  11  12
ENDBRANCH  10  11
ENDBRANCH   9  10
ENDBRANCH   1   9
TORSDOF 10
ENDMDL
MODEL 3
REMARK VINA RESULT:    -1.144      2.972      5.187
REMARK INTER + INTRA:          -3.275
REMARK INTER:                  -1.759
REMARK INTRA:                  -1.516
REMARK UNBOUND:                -1.462
REMARK SMILES CCCCCCCCCCCC(=O)[O-]
REMARK SMILES IDX 7 1 8 2 9 3 10 4 11 5 12 6 13 7 14 8 6 9 5 10 4 11 3 12 2 13
REMARK SMILES IDX 1 14
REMARK H PARENT
REMARK Flexibility Score: inf
ROOT
ATOM      1  C   UNL     1     -16.308 -22.338  82.198  1.00  0.00     0.000 C 
ENDROOT
BRANCH   1   2
ATOM      2  C   UNL     1     -15.165 -23.287  81.787  1.00  0.00     0.000 C 
BRANCH   2   3
ATOM      3  C   UNL     1     -13.744 -22.728  82.002  1.00  0.00     0.000 C 
BRANCH   3   4
ATOM      4  C   UNL     1     -13.672 -21.430  82.832  1.00  0.00     0.006 C 
BRANCH   4   5
ATOM      5  C   UNL     1     -12.923 -21.570  84.166  1.00  0.00     0.053 C 
BRANCH   5   6
ATOM      6  C   UNL     1     -13.651 -22.458  85.127  1.00  0.00     0.041 C 
ATOM      7  O   UNL     1     -14.837 -22.197  85.458  1.00  0.00    -0.550 OA
ATOM      8  O   UNL     1     -13.030 -23.594  85.633  1.00  0.00    -0.550 OA
ENDBRANCH   5   6
ENDBRANCH   4   5
ENDBRANCH   3   4
ENDBRANCH   2   3
ENDBRANCH   1   2
BRANCH   1   9
ATOM      9  C   UNL     1     -17.093 -21.717  81.025  1.00  0.00     0.000 C 
BRANCH   9  10
ATOM     10  C   UNL     1     -17.058 -20.179  80.965  1.00  0.00    -0.000 C 
BRANCH  10  11
ATOM     11  C   UNL     1     -15.831 -19.641  80.209  1.00  0.00    -0.000 C 
BRANCH  11  12
ATOM     12  C   UNL     1     -15.632 -20.315  78.839  1.00  0.00    -0.000 C 
BRANCH  12  13
ATOM     13  C   UNL     1     -14.326 -21.117  78.699  1.00  0.00    -0.003 C 
ATOM     14  C   UNL     1     -13.095 -20.345  79.174  1.00  0.00     0.004 C 
ENDBRANCH  12  13
ENDBRANCH  11  12
ENDBRANCH  10  11
ENDBRANCH   9  10
ENDBRANCH   1   9
TORSDOF 10
ENDMDL
MODEL 4
REMARK VINA RESULT:    -1.080      1.391      2.786
REMARK INTER + INTRA:          -3.174
REMARK INTER:                  -1.642
REMARK INTRA:                  -1.532
REMARK UNBOUND:                -1.462
REMARK SMILES CCCCCCCCCCCC(=O)[O-]
REMARK SMILES IDX 7 1 8 2 9 3 10 4 11 5 12 6 13 7 14 8 6 9 5 10 4 11 3 12 2 13
REMARK SMILES IDX 1 14
REMARK H PARENT
REMARK Flexibility Score: inf
ROOT
ATOM      1  C   UNL     1     -15.908 -24.369  81.544  1.00  0.00     0.000 C 
ENDROOT
BRANCH   1   2
ATOM      2  C   UNL     1     -14.376 -24.286  81.701  1.00  0.00     0.000 C 
BRANCH   2   3
ATOM      3  C   UNL     1     -13.698 -23.165  80.888  1.00  0.00     0.000 C 
BRANCH   3   4
ATOM      4  C   UNL     1     -12.875 -22.162  81.722  1.00  0.00     0.006 C 
BRANCH   4   5
ATOM      5  C   UNL     1     -13.632 -20.880  82.102  1.00  0.00     0.053 C 
BRANCH   5   6
ATOM      6  C   UNL     1     -14.404 -20.322  80.946  1.00  0.00     0.041 C 
ATOM      7  O   UNL     1     -13.799 -19.821  79.962  1.00  0.00    -0.550 OA
ATOM      8  O   UNL     1     -15.792 -20.386  80.940  1.00  0.00    -0.550 OA
ENDBRANCH   5   6
ENDBRANCH   4   5
ENDBRANCH   3   4
ENDBRANCH   2   3
ENDBRANCH   1   2
BRANCH   1   9
ATOM      9  C   UNL     1     -16.709 -24.143  82.843  1.00  0.00     0.000 C 
BRANCH   9  10
ATOM     10  C   UNL     1     -16.385 -22.834  83.584  1.00  0.00    -0.000 C 
BRANCH  10  11
ATOM     11  C   UNL     1     -15.855 -23.072  85.009  1.00  0.00    -0.000 C 
BRANCH  11  12
ATOM     12  C   UNL     1     -14.486 -22.412  85.254  1.00  0.00    -0.000 C 
BRANCH  12  13
ATOM     13  C   UNL     1     -13.355 -23.391  85.616  1.00  0.00    -0.003 C 
ATOM     14  C   UNL     1     -13.682 -24.841  85.260  1.00  0.00     0.004 C 
ENDBRANCH  12  13
ENDBRANCH  11  12
ENDBRANCH  10  11
ENDBRANCH   9  10
ENDBRANCH   1   9
TORSDOF 10
ENDMDL
MODEL 5
REMARK VINA RESULT:    -1.068      1.308      2.375
REMARK INTER + INTRA:          -3.154
REMARK INTER:                  -1.790
REMARK INTRA:                  -1.364
REMARK UNBOUND:                -1.462
REMARK SMILES CCCCCCCCCCCC(=O)[O-]
REMARK SMILES IDX 7 1 8 2 9 3 10 4 11 5 12 6 13 7 14 8 6 9 5 10 4 11 3 12 2 13
REMARK SMILES IDX 1 14
REMARK H PARENT
REMARK Flexibility Score: inf
ROOT
ATOM      1  C   UNL     1     -13.381 -21.301  82.621  1.00  0.00     0.000 C 
ENDROOT
BRANCH   1   2
ATOM      2  C   UNL     1     -13.157 -22.674  81.956  1.00  0.00     0.000 C 
BRANCH   2   3
ATOM      3  C   UNL     1     -14.435 -23.359  81.432  1.00  0.00     0.000 C 
BRANCH   3   4
ATOM      4  C   UNL     1     -15.283 -22.508  80.465  1.00  0.00     0.006 C 
BRANCH   4   5
ATOM      5  C   UNL     1     -16.654 -22.092  81.020  1.00  0.00     0.053 C 
BRANCH   5   6
ATOM      6  C   UNL     1     -16.831 -20.605  81.019  1.00  0.00     0.041 C 
ATOM      7  O   UNL     1     -15.918 -19.858  80.580  1.00  0.00    -0.550 OA
ATOM      8  O   UNL     1     -18.019 -20.044  81.473  1.00  0.00    -0.550 OA
ENDBRANCH   5   6
ENDBRANCH   4   5
ENDBRANCH   3   4
ENDBRANCH   2   3
ENDBRANCH   1   2
BRANCH   1   9
ATOM      9  C   UNL     1     -13.122 -21.263  84.142  1.00  0.00     0.000 C 
BRANCH   9  10
ATOM     10  C   UNL     1     -13.493 -22.553  84.894  1.00  0.00    -0.000 C 
BRANCH  10  11
ATOM     11  C   UNL     1     -14.851 -22.454  85.610  1.00  0.00    -0.000 C 
BRANCH  11  12
ATOM     12  C   UNL     1     -16.023 -22.938  84.736  1.00  0.00    -0.000 C 
BRANCH  12  13
ATOM     13  C   UNL     1     -16.097 -24.464  84.548  1.00  0.00    -0.003 C 
ATOM     14  C   UNL     1     -17.148 -24.890  83.522  1.00  0.00     0.004 C 
ENDBRANCH  12  13
ENDBRANCH  11  12
ENDBRANCH  10  11
ENDBRANCH   9  10
ENDBRANCH   1   9
TORSDOF 10
ENDMDL
MODEL 6
REMARK VINA RESULT:    -1.038      3.416      5.347
REMARK INTER + INTRA:          -3.106
REMARK INTER:                  -1.710
REMARK INTRA:                  -1.397
REMARK UNBOUND:                -1.462
REMARK SMILES CCCCCCCCCCCC(=O)[O-]
REMARK SMILES IDX 7 1 8 2 9 3 10 4 11 5 12 6 13 7 14 8 6 9 5 10 4 11 3 12 2 13
REMARK SMILES IDX 1 14
REMARK H PARENT
REMARK Flexibility Score: inf
ROOT
ATOM      1  C   UNL     1     -14.505 -21.822  82.103  1.00  0.00     0.000 C 
ENDROOT
BRANCH   1   2
ATOM      2  C   UNL     1     -14.256 -23.159  81.378  1.00  0.00     0.000 C 
BRANCH   2   3
ATOM      3  C   UNL     1     -14.989 -24.374  81.981  1.00  0.00     0.000 C 
BRANCH   3   4
ATOM      4  C   UNL     1     -14.085 -25.573  82.333  1.00  0.00     0.006 C 
BRANCH   4   5
ATOM      5  C   UNL     1     -14.834 -26.793  82.890  1.00  0.00     0.053 C 
BRANCH   5   6
ATOM      6  C   UNL     1     -14.763 -26.861  84.384  1.00  0.00     0.041 C 
ATOM      7  O   UNL     1     -15.664 -26.330  85.086  1.00  0.00    -0.550 OA
ATOM      8  O   UNL     1     -13.720 -27.539  85.002  1.00  0.00    -0.550 OA
ENDBRANCH   5   6
ENDBRANCH   4   5
ENDBRANCH   3   4
ENDBRANCH   2   3
ENDBRANCH   1   2
BRANCH   1   9
ATOM      9  C   UNL     1     -13.248 -21.166  82.712  1.00  0.00     0.000 C 
BRANCH   9  10
ATOM     10  C   UNL     1     -13.133 -21.286  84.242  1.00  0.00    -0.000 C 
BRANCH  10  11
ATOM     11  C   UNL     1     -12.876 -22.729  84.709  1.00  0.00    -0.000 C 
BRANCH  11  12
ATOM     12  C   UNL     1     -14.032 -23.298  85.550  1.00  0.00    -0.000 C 
BRANCH  12  13
ATOM     13  C   UNL     1     -15.192 -22.318  85.797  1.00  0.00    -0.003 C 
ATOM     14  C   UNL     1     -16.546 -22.865  85.345  1.00  0.00     0.004 C 
ENDBRANCH  12  13
ENDBRANCH  11  12
ENDBRANCH  10  11
ENDBRANCH   9  10
ENDBRANCH   1   9
TORSDOF 10
ENDMDL
MODEL 7
REMARK VINA RESULT:    -1.019      2.054      4.264
REMARK INTER + INTRA:          -3.077
REMARK INTER:                  -1.618
REMARK INTRA:                  -1.460
REMARK UNBOUND:                -1.462
REMARK SMILES CCCCCCCCCCCC(=O)[O-]
REMARK SMILES IDX 7 1 8 2 9 3 10 4 11 5 12 6 13 7 14 8 6 9 5 10 4 11 3 12 2 13
REMARK SMILES IDX 1 14
REMARK H PARENT
REMARK Flexibility Score: inf
ROOT
ATOM      1  C   UNL     1     -15.942 -22.135  81.336  1.00  0.00     0.000 C 
ENDROOT
BRANCH   1   2
ATOM      2  C   UNL     1     -15.803 -23.544  81.947  1.00  0.00     0.000 C 
BRANCH   2   3
ATOM      3  C   UNL     1     -17.089 -24.107  82.584  1.00  0.00     0.000 C 
BRANCH   3   4
ATOM      4  C   UNL     1     -17.185 -23.945  84.115  1.00  0.00     0.006 C 
BRANCH   4   5
ATOM      5  C   UNL     1     -17.628 -22.549  84.580  1.00  0.00     0.053 C 
BRANCH   5   6
ATOM      6  C   UNL     1     -18.896 -22.113  83.913  1.00  0.00     0.041 C 
ATOM      7  O   UNL     1     -19.984 -22.686  84.184  1.00  0.00    -0.550 OA
ATOM      8  O   UNL     1     -18.882 -21.051  83.016  1.00  0.00    -0.550 OA
ENDBRANCH   5   6
ENDBRANCH   4   5
ENDBRANCH   3   4
ENDBRANCH   2   3
ENDBRANCH   1   2
BRANCH   1   9
ATOM      9  C   UNL     1     -14.768 -21.178  81.631  1.00  0.00     0.000 C 
BRANCH   9  10
ATOM     10  C   UNL     1     -13.525 -21.848  82.244  1.00  0.00    -0.000 C 
BRANCH  10  11
ATOM     11  C   UNL     1     -13.214 -21.340  83.662  1.00  0.00    -0.000 C 
BRANCH  11  12
ATOM     12  C   UNL     1     -13.962 -22.125  84.754  1.00  0.00    -0.000 C 
BRANCH  12  13
ATOM     13  C   UNL     1     -13.168 -23.292  85.367  1.00  0.00    -0.003 C 
ATOM     14  C   UNL     1     -13.608 -24.658  84.840  1.00  0.00     0.004 C 
ENDBRANCH  12  13
ENDBRANCH  11  12
ENDBRANCH  10  11
ENDBRANCH   9  10
ENDBRANCH   1   9
TORSDOF 10
ENDMDL
MODEL 8
REMARK VINA RESULT:    -1.008      3.042      4.924
REMARK INTER + INTRA:          -3.060
REMARK INTER:                  -1.600
REMARK INTRA:                  -1.460
REMARK UNBOUND:                -1.462
REMARK SMILES CCCCCCCCCCCC(=O)[O-]
REMARK SMILES IDX 7 1 8 2 9 3 10 4 11 5 12 6 13 7 14 8 6 9 5 10 4 11 3 12 2 13
REMARK SMILES IDX 1 14
REMARK H PARENT
REMARK Flexibility Score: inf
ROOT
ATOM      1  C   UNL     1     -14.572 -21.747  82.068  1.00  0.00     0.000 C 
ENDROOT
BRANCH   1   2
ATOM      2  C   UNL     1     -14.727 -23.196  81.563  1.00  0.00     0.000 C 
BRANCH   2   3
ATOM      3  C   UNL     1     -15.888 -23.986  82.198  1.00  0.00     0.000 C 
BRANCH   3   4
ATOM      4  C   UNL     1     -15.524 -25.405  82.682  1.00  0.00     0.006 C 
BRANCH   4   5
ATOM      5  C   UNL     1     -14.151 -25.905  82.208  1.00  0.00     0.053 C 
BRANCH   5   6
ATOM      6  C   UNL     1     -14.254 -26.730  80.962  1.00  0.00     0.041 C 
ATOM      7  O   UNL     1     -14.271 -26.173  79.833  1.00  0.00    -0.550 OA
ATOM      8  O   UNL     1     -14.298 -28.116  81.045  1.00  0.00    -0.550 OA
ENDBRANCH   5   6
ENDBRANCH   4   5
ENDBRANCH   3   4
ENDBRANCH   2   3
ENDBRANCH   1   2
BRANCH   1   9
ATOM      9  C   UNL     1     -13.223 -21.434  82.748  1.00  0.00     0.000 C 
BRANCH   9  10
ATOM     10  C   UNL     1     -13.263 -21.414  84.286  1.00  0.00    -0.000 C 
BRANCH  10  11
ATOM     11  C   UNL     1     -12.898 -22.773  84.908  1.00  0.00    -0.000 C 
BRANCH  11  12
ATOM     12  C   UNL     1     -14.067 -23.406  85.685  1.00  0.00    -0.000 C 
BRANCH  12  13
ATOM     13  C   UNL     1     -15.265 -22.469  85.921  1.00  0.00    -0.003 C 
ATOM     14  C   UNL     1     -16.611 -23.134  85.631  1.00  0.00     0.004 C 
ENDBRANCH  12  13
ENDBRANCH  11  12
ENDBRANCH  10  11
ENDBRANCH   9  10
ENDBRANCH   1   9
TORSDOF 10
ENDMDL
MODEL 9
REMARK VINA RESULT:    -1.003      2.166      3.883
REMARK INTER + INTRA:          -3.052
REMARK INTER:                  -1.559
REMARK INTRA:                  -1.493
REMARK UNBOUND:                -1.462
REMARK SMILES CCCCCCCCCCCC(=O)[O-]
REMARK SMILES IDX 7 1 8 2 9 3 10 4 11 5 12 6 13 7 14 8 6 9 5 10 4 11 3 12 2 13
REMARK SMILES IDX 1 14
REMARK H PARENT
REMARK Flexibility Score: inf
ROOT
ATOM      1  C   UNL     1     -14.876 -25.075  84.065  1.00  0.00     0.000 C 
ENDROOT
BRANCH   1   2
ATOM      2  C   UNL     1     -16.351 -25.214  83.639  1.00  0.00     0.000 C 
BRANCH   2   3
ATOM      3  C   UNL     1     -17.258 -24.032  84.036  1.00  0.00     0.000 C 
BRANCH   3   4
ATOM      4  C   UNL     1     -17.107 -22.771  83.160  1.00  0.00     0.006 C 
BRANCH   4   5
ATOM      5  C   UNL     1     -17.183 -23.034  81.648  1.00  0.00     0.053 C 
BRANCH   5   6
ATOM      6  C   UNL     1     -18.569 -23.395  81.211  1.00  0.00     0.041 C 
ATOM      7  O   UNL     1     -19.502 -22.556  81.307  1.00  0.00    -0.550 OA
ATOM      8  O   UNL     1     -18.824 -24.648  80.666  1.00  0.00    -0.550 OA
ENDBRANCH   5   6
ENDBRANCH   4   5
ENDBRANCH   3   4
ENDBRANCH   2   3
ENDBRANCH   1   2
BRANCH   1   9
ATOM      9  C   UNL     1     -14.658 -24.623  85.523  1.00  0.00     0.000 C 
BRANCH   9  10
ATOM     10  C   UNL     1     -13.646 -23.477  85.701  1.00  0.00    -0.000 C 
BRANCH  10  11
ATOM     11  C   UNL     1     -14.125 -22.157  85.073  1.00  0.00    -0.000 C 
BRANCH  11  12
ATOM     12  C   UNL     1     -13.121 -21.579  84.059  1.00  0.00    -0.000 C 
BRANCH  12  13
ATOM     13  C   UNL     1     -13.670 -21.415  82.631  1.00  0.00    -0.003 C 
ATOM     14  C   UNL     1     -13.365 -22.613  81.731  1.00  0.00     0.004 C 
ENDBRANCH  12  13
ENDBRANCH  11  12
ENDBRANCH  10  11
ENDBRANCH   9  10
ENDBRANCH   1   9
TORSDOF 10
ENDMDL
