MODEL 1
REMARK VINA RESULT:    -3.808      0.000      0.000
REMARK INTER + INTRA:          -9.987
REMARK INTER:                  -7.370
REMARK INTRA:                  -2.617
REMARK UNBOUND:                -2.617
REMARK SMILES CCCCCCCCCCCCCCCCCC(=O)[O-]
REMARK SMILES IDX 10 1 11 2 12 3 13 4 14 5 15 6 16 7 17 8 18 9 19 10 20 11
REMARK SMILES IDX 9 12 8 13 7 14 6 15 5 16 4 17 3 18 2 19 1 20
REMARK H PARENT
REMARK Flexibility Score: inf
ROOT
ATOM      1  C   UNL     1     -21.848   7.879  21.004  1.00  0.00     0.000 C 
ENDROOT
BRANCH   1   2
ATOM      2  C   UNL     1     -23.365   8.047  20.820  1.00  0.00     0.000 C 
BRANCH   2   3
ATOM      3  C   UNL     1     -24.112   6.703  20.781  1.00  0.00     0.000 C 
BRANCH   3   4
ATOM      4  C   UNL     1     -23.628   5.722  21.862  1.00  0.00     0.000 C 
BRANCH   4   5
ATOM      5  C   UNL     1     -23.233   4.354  21.277  1.00  0.00     0.000 C 
BRANCH   5   6
ATOM      6  C   UNL     1     -22.540   4.480  19.909  1.00  0.00     0.000 C 
BRANCH   6   7
ATOM      7  C   UNL     1     -21.032   4.192  19.981  1.00  0.00     0.006 C 
BRANCH   7   8
ATOM      8  C   UNL     1     -20.679   3.136  21.036  1.00  0.00     0.053 C 
BRANCH   8   9
ATOM      9  C   UNL     1     -20.098   1.920  20.384  1.00  0.00     0.041 C 
ATOM     10  O   UNL     1     -20.713   0.821  20.431  1.00  0.00    -0.550 OA
ATOM     11  O   UNL     1     -18.906   2.014  19.678  1.00  0.00    -0.550 OA
ENDBRANCH   8   9
ENDBRANCH   7   8
ENDBRANCH   6   7
ENDBRANCH   5   6
ENDBRANCH   4   5
ENDBRANCH   3   4
ENDBRANCH   2   3
ENDBRANCH   1   2
BRANCH   1  12
ATOM     12  C   UNL     1     -21.078   7.918  19.671  1.00  0.00     0.000 C 
BRANCH  12  13
ATOM     13  C   UNL     1     -21.893   8.415  18.460  1.00  0.00    -0.000 C 
BRANCH  13  14
ATOM     14  C   UNL     1     -22.360   7.315  17.485  1.00  0.00    -0.000 C 
BRANCH  14  15
ATOM     15  C   UNL     1     -21.256   6.354  17.006  1.00  0.00    -0.000 C 
BRANCH  15  16
ATOM     16  C   UNL     1     -20.321   6.993  15.965  1.00  0.00    -0.000 C 
BRANCH  16  17
ATOM     17  C   UNL     1     -18.834   6.808  16.312  1.00  0.00    -0.000 C 
BRANCH  17  18
ATOM     18  C   UNL     1     -18.614   5.866  17.506  1.00  0.00    -0.000 C 
BRANCH  18  19
ATOM     19  C   UNL     1     -17.347   6.252  18.280  1.00  0.00    -0.003 C 
ATOM     20  C   UNL     1     -17.500   7.616  18.946  1.00  0.00     0.004 C 
ENDBRANCH  18  19
ENDBRANCH  17  18
ENDBRANCH  16  17
ENDBRANCH  15  16
ENDBRANCH  14  15
ENDBRANCH  13  14
ENDBRANCH  12  13
ENDBRANCH   1  12
TORSDOF 16
ENDMDL
MODEL 2
REMARK VINA RESULT:    -3.753      1.258      3.075
REMARK INTER + INTRA:          -9.880
REMARK INTER:                  -7.018
REMARK INTRA:                  -2.862
REMARK UNBOUND:                -2.617
REMARK SMILES CCCCCCCCCCCCCCCCCC(=O)[O-]
REMARK SMILES IDX 10 1 11 2 12 3 13 4 14 5 15 6 16 7 17 8 18 9 19 10 20 11
REMARK SMILES IDX 9 12 8 13 7 14 6 15 5 16 4 17 3 18 2 19 1 20
REMARK H PARENT
REMARK Flexibility Score: inf
ROOT
ATOM      1  C   UNL     1     -22.420   6.783  17.356  1.00  0.00     0.000 C 
ENDROOT
BRANCH   1   2
ATOM      2  C   UNL     1     -21.985   8.011  18.173  1.00  0.00     0.000 C 
BRANCH   2   3
ATOM      3  C   UNL     1     -23.076   8.496  19.142  1.00  0.00     0.000 C 
BRANCH   3   4
ATOM      4  C   UNL     1     -22.830   8.045  20.591  1.00  0.00     0.000 C 
BRANCH   4   5
ATOM      5  C   UNL     1     -23.805   6.940  21.034  1.00  0.00     0.000 C 
BRANCH   5   6
ATOM      6  C   UNL     1     -23.089   5.612  21.333  1.00  0.00     0.000 C 
BRANCH   6   7
ATOM      7  C   UNL     1     -22.847   4.772  20.068  1.00  0.00     0.006 C 
BRANCH   7   8
ATOM      8  C   UNL     1     -21.413   4.236  19.976  1.00  0.00     0.053 C 
BRANCH   8   9
ATOM      9  C   UNL     1     -21.345   2.834  20.496  1.00  0.00     0.041 C 
ATOM     10  O   UNL     1     -20.228   2.288  20.701  1.00  0.00    -0.550 OA
ATOM     11  O   UNL     1     -22.513   2.152  20.807  1.00  0.00    -0.550 OA
ENDBRANCH   8   9
ENDBRANCH   7   8
ENDBRANCH   6   7
ENDBRANCH   5   6
ENDBRANCH   4   5
ENDBRANCH   3   4
ENDBRANCH   2   3
ENDBRANCH   1   2
BRANCH   1  12
ATOM     12  C   UNL     1     -21.247   6.115  16.613  1.00  0.00     0.000 C 
BRANCH  12  13
ATOM     13  C   UNL     1     -20.191   7.088  16.051  1.00  0.00    -0.000 C 
BRANCH  13  14
ATOM     14  C   UNL     1     -18.743   6.823  16.508  1.00  0.00    -0.000 C 
BRANCH  14  15
ATOM     15  C   UNL     1     -18.600   5.869  17.708  1.00  0.00    -0.000 C 
BRANCH  15  16
ATOM     16  C   UNL     1     -17.922   6.531  18.919  1.00  0.00    -0.000 C 
BRANCH  16  17
ATOM     17  C   UNL     1     -18.307   8.011  19.078  1.00  0.00    -0.000 C 
BRANCH  17  18
ATOM     18  C   UNL     1     -19.104   8.284  20.363  1.00  0.00    -0.000 C 
BRANCH  18  19
ATOM     19  C   UNL     1     -19.485   6.972  21.060  1.00  0.00    -0.003 C 
ATOM     20  C   UNL     1     -19.715   7.186  22.553  1.00  0.00     0.004 C 
ENDBRANCH  18  19
ENDBRANCH  17  18
ENDBRANCH  16  17
ENDBRANCH  15  16
ENDBRANCH  14  15
ENDBRANCH  13  14
ENDBRANCH  12  13
ENDBRANCH   1  12
TORSDOF 16
ENDMDL
MODEL 3
REMARK VINA RESULT:    -3.744      2.234      2.851
REMARK INTER + INTRA:          -9.863
REMARK INTER:                  -7.348
REMARK INTRA:                  -2.515
REMARK UNBOUND:                -2.617
REMARK SMILES CCCCCCCCCCCCCCCCCC(=O)[O-]
REMARK SMILES IDX 10 1 11 2 12 3 13 4 14 5 15 6 16 7 17 8 18 9 19 10 20 11
REMARK SMILES IDX 9 12 8 13 7 14 6 15 5 16 4 17 3 18 2 19 1 20
REMARK H PARENT
REMARK Flexibility Score: inf
ROOT
ATOM      1  C   UNL     1     -22.001   8.165  20.172  1.00  0.00     0.000 C 
ENDROOT
BRANCH   1   2
ATOM      2  C   UNL     1     -23.502   8.017  20.468  1.00  0.00     0.000 C 
BRANCH   2   3
ATOM      3  C   UNL     1     -23.852   6.656  21.094  1.00  0.00     0.000 C 
BRANCH   3   4
ATOM      4  C   UNL     1     -22.646   5.704  21.163  1.00  0.00     0.000 C 
BRANCH   4   5
ATOM      5  C   UNL     1     -22.690   4.623  20.069  1.00  0.00     0.000 C 
BRANCH   5   6
ATOM      6  C   UNL     1     -21.894   3.365  20.457  1.00  0.00     0.000 C 
BRANCH   6   7
ATOM      7  C   UNL     1     -22.422   2.702  21.739  1.00  0.00     0.006 C 
BRANCH   7   8
ATOM      8  C   UNL     1     -23.826   2.109  21.567  1.00  0.00     0.053 C 
BRANCH   8   9
ATOM      9  C   UNL     1     -24.686   2.452  22.743  1.00  0.00     0.041 C 
ATOM     10  O   UNL     1     -24.647   3.609  23.240  1.00  0.00    -0.550 OA
ATOM     11  O   UNL     1     -25.571   1.512  23.253  1.00  0.00    -0.550 OA
ENDBRANCH   8   9
ENDBRANCH   7   8
ENDBRANCH   6   7
ENDBRANCH   5   6
ENDBRANCH   4   5
ENDBRANCH   3   4
ENDBRANCH   2   3
ENDBRANCH   1   2
BRANCH   1  12
ATOM     12  C   UNL     1     -21.706   8.359  18.672  1.00  0.00     0.000 C 
BRANCH  12  13
ATOM     13  C   UNL     1     -22.421   7.369  17.732  1.00  0.00    -0.000 C 
BRANCH  13  14
ATOM     14  C   UNL     1     -21.494   6.430  16.935  1.00  0.00    -0.000 C 
BRANCH  14  15
ATOM     15  C   UNL     1     -20.432   7.138  16.072  1.00  0.00    -0.000 C 
BRANCH  15  16
ATOM     16  C   UNL     1     -19.040   6.496  16.196  1.00  0.00    -0.000 C 
BRANCH  16  17
ATOM     17  C   UNL     1     -18.373   6.783  17.552  1.00  0.00    -0.000 C 
BRANCH  17  18
ATOM     18  C   UNL     1     -18.235   5.527  18.425  1.00  0.00    -0.000 C 
BRANCH  18  19
ATOM     19  C   UNL     1     -19.089   5.645  19.694  1.00  0.00    -0.003 C 
ATOM     20  C   UNL     1     -18.629   6.811  20.563  1.00  0.00     0.004 C 
ENDBRANCH  18  19
ENDBRANCH  17  18
ENDBRANCH  16  17
ENDBRANCH  15  16
ENDBRANCH  14  15
ENDBRANCH  13  14
ENDBRANCH  12  13
ENDBRANCH   1  12
TORSDOF 16
ENDMDL
MODEL 4
REMARK VINA RESULT:    -3.727      1.735      2.663
REMARK INTER + INTRA:          -9.831
REMARK INTER:                  -7.467
REMARK INTRA:                  -2.364
REMARK UNBOUND:                -2.617
REMARK SMILES CCCCCCCCCCCCCCCCCC(=O)[O-]
REMARK SMILES IDX 10 1 11 2 12 3 13 4 14 5 15 6 16 7 17 8 18 9 19 10 20 11
REMARK SMILES IDX 9 12 8 13 7 14 6 15 5 16 4 17 3 18 2 19 1 20
REMARK H PARENT
REMARK Flexibility Score: inf
ROOT
ATOM      1  C   UNL     1     -21.254   8.462  19.397  1.00  0.00     0.000 C 
ENDROOT
BRANCH   1   2
ATOM      2  C   UNL     1     -21.871   7.792  20.635  1.00  0.00     0.000 C 
BRANCH   2   3
ATOM      3  C   UNL     1     -23.379   8.064  20.767  1.00  0.00     0.000 C 
BRANCH   3   4
ATOM      4  C   UNL     1     -24.183   6.800  21.117  1.00  0.00     0.000 C 
BRANCH   4   5
ATOM      5  C   UNL     1     -23.324   5.525  21.062  1.00  0.00     0.000 C 
BRANCH   5   6
ATOM      6  C   UNL     1     -23.528   4.627  22.294  1.00  0.00     0.000 C 
BRANCH   6   7
ATOM      7  C   UNL     1     -24.138   3.262  21.937  1.00  0.00     0.006 C 
BRANCH   7   8
ATOM      8  C   UNL     1     -23.079   2.167  21.758  1.00  0.00     0.053 C 
BRANCH   8   9
ATOM      9  C   UNL     1     -23.728   0.820  21.676  1.00  0.00     0.041 C 
ATOM     10  O   UNL     1     -24.564   0.466  22.549  1.00  0.00    -0.550 OA
ATOM     11  O   UNL     1     -23.451  -0.019  20.605  1.00  0.00    -0.550 OA
ENDBRANCH   8   9
ENDBRANCH   7   8
ENDBRANCH   6   7
ENDBRANCH   5   6
ENDBRANCH   4   5
ENDBRANCH   3   4
ENDBRANCH   2   3
ENDBRANCH   1   2
BRANCH   1  12
ATOM     12  C   UNL     1     -22.027   8.148  18.101  1.00  0.00     0.000 C 
BRANCH  12  13
ATOM     13  C   UNL     1     -22.220   6.648  17.803  1.00  0.00    -0.000 C 
BRANCH  13  14
ATOM     14  C   UNL     1     -21.429   6.110  16.594  1.00  0.00    -0.000 C 
BRANCH  14  15
ATOM     15  C   UNL     1     -20.363   7.069  16.030  1.00  0.00    -0.000 C 
BRANCH  15  16
ATOM     16  C   UNL     1     -18.930   6.543  16.216  1.00  0.00    -0.000 C 
BRANCH  16  17
ATOM     17  C   UNL     1     -18.391   6.779  17.637  1.00  0.00    -0.000 C 
BRANCH  17  18
ATOM     18  C   UNL     1     -18.221   5.477  18.434  1.00  0.00    -0.000 C 
BRANCH  18  19
ATOM     19  C   UNL     1     -19.049   5.513  19.725  1.00  0.00    -0.003 C 
ATOM     20  C   UNL     1     -20.062   4.373  19.763  1.00  0.00     0.004 C 
ENDBRANCH  18  19
ENDBRANCH  17  18
ENDBRANCH  16  17
ENDBRANCH  15  16
ENDBRANCH  14  15
ENDBRANCH  13  14
ENDBRANCH  12  13
ENDBRANCH   1  12
TORSDOF 16
ENDMDL
MODEL 5
REMARK VINA RESULT:    -3.712      1.733      5.358
REMARK INTER + INTRA:          -9.801
REMARK INTER:                  -7.679
REMARK INTRA:                  -2.122
REMARK UNBOUND:                -2.617
REMARK SMILES CCCCCCCCCCCCCCCCCC(=O)[O-]
REMARK SMILES IDX 10 1 11 2 12 3 13 4 14 5 15 6 16 7 17 8 18 9 19 10 20 11
REMARK SMILES IDX 9 12 8 13 7 14 6 15 5 16 4 17 3 18 2 19 1 20
REMARK H PARENT
REMARK Flexibility Score: inf
ROOT
ATOM      1  C   UNL     1     -22.701   8.160  20.630  1.00  0.00     0.000 C 
ENDROOT
BRANCH   1   2
ATOM      2  C   UNL     1     -22.582   8.848  19.260  1.00  0.00     0.000 C 
BRANCH   2   3
ATOM      3  C   UNL     1     -21.635   8.105  18.303  1.00  0.00     0.000 C 
BRANCH   3   4
ATOM      4  C   UNL     1     -22.366   7.082  17.418  1.00  0.00     0.000 C 
BRANCH   4   5
ATOM      5  C   UNL     1     -21.396   6.112  16.720  1.00  0.00     0.000 C 
BRANCH   5   6
ATOM      6  C   UNL     1     -20.277   6.847  15.961  1.00  0.00     0.000 C 
BRANCH   6   7
ATOM      7  C   UNL     1     -18.879   6.305  16.297  1.00  0.00     0.006 C 
BRANCH   7   8
ATOM      8  C   UNL     1     -18.315   6.884  17.600  1.00  0.00     0.053 C 
BRANCH   8   9
ATOM      9  C   UNL     1     -18.480   5.907  18.722  1.00  0.00     0.041 C 
ATOM     10  O   UNL     1     -18.988   6.275  19.815  1.00  0.00    -0.550 OA
ATOM     11  O   UNL     1     -18.123   4.577  18.542  1.00  0.00    -0.550 OA
ENDBRANCH   8   9
ENDBRANCH   7   8
ENDBRANCH   6   7
ENDBRANCH   5   6
ENDBRANCH   4   5
ENDBRANCH   3   4
ENDBRANCH   2   3
ENDBRANCH   1   2
BRANCH   1  12
ATOM     12  C   UNL     1     -23.994   7.334  20.771  1.00  0.00     0.000 C 
BRANCH  12  13
ATOM     13  C   UNL     1     -23.830   5.984  21.498  1.00  0.00    -0.000 C 
BRANCH  13  14
ATOM     14  C   UNL     1     -22.443   5.325  21.357  1.00  0.00    -0.000 C 
BRANCH  14  15
ATOM     15  C   UNL     1     -22.222   4.538  20.052  1.00  0.00    -0.000 C 
BRANCH  15  16
ATOM     16  C   UNL     1     -21.444   3.229  20.270  1.00  0.00    -0.000 C 
BRANCH  16  17
ATOM     17  C   UNL     1     -21.512   2.735  21.724  1.00  0.00    -0.000 C 
BRANCH  17  18
ATOM     18  C   UNL     1     -22.106   1.323  21.845  1.00  0.00    -0.000 C 
BRANCH  18  19
ATOM     19  C   UNL     1     -23.487   1.251  21.182  1.00  0.00    -0.003 C 
ATOM     20  C   UNL     1     -24.534   1.996  22.004  1.00  0.00     0.004 C 
ENDBRANCH  18  19
ENDBRANCH  17  18
ENDBRANCH  16  17
ENDBRANCH  15  16
ENDBRANCH  14  15
ENDBRANCH  13  14
ENDBRANCH  12  13
ENDBRANCH   1  12
TORSDOF 16
ENDMDL
MODEL 6
REMARK VINA RESULT:    -3.668      2.269      5.120
REMARK INTER + INTRA:          -9.716
REMARK INTER:                  -7.403
REMARK INTRA:                  -2.314
REMARK UNBOUND:                -2.617
REMARK SMILES CCCCCCCCCCCCCCCCCC(=O)[O-]
REMARK SMILES IDX 10 1 11 2 12 3 13 4 14 5 15 6 16 7 17 8 18 9 19 10 20 11
REMARK SMILES IDX 9 12 8 13 7 14 6 15 5 16 4 17 3 18 2 19 1 20
REMARK H PARENT
REMARK Flexibility Score: inf
ROOT
ATOM      1  C   UNL     1     -23.696   8.028  20.471  1.00  0.00     0.000 C 
ENDROOT
BRANCH   1   2
ATOM      2  C   UNL     1     -22.180   7.958  20.231  1.00  0.00     0.000 C 
BRANCH   2   3
ATOM      3  C   UNL     1     -21.792   8.298  18.782  1.00  0.00     0.000 C 
BRANCH   3   4
ATOM      4  C   UNL     1     -22.346   7.285  17.764  1.00  0.00     0.000 C 
BRANCH   4   5
ATOM      5  C   UNL     1     -21.260   6.332  17.237  1.00  0.00     0.000 C 
BRANCH   5   6
ATOM      6  C   UNL     1     -20.519   6.904  16.016  1.00  0.00     0.000 C 
BRANCH   6   7
ATOM      7  C   UNL     1     -19.017   6.577  16.029  1.00  0.00     0.006 C 
BRANCH   7   8
ATOM      8  C   UNL     1     -18.544   6.006  17.371  1.00  0.00     0.053 C 
BRANCH   8   9
ATOM      9  C   UNL     1     -17.637   6.976  18.062  1.00  0.00     0.041 C 
ATOM     10  O   UNL     1     -18.095   7.763  18.932  1.00  0.00    -0.550 OA
ATOM     11  O   UNL     1     -16.277   6.972  17.784  1.00  0.00    -0.550 OA
ENDBRANCH   8   9
ENDBRANCH   7   8
ENDBRANCH   6   7
ENDBRANCH   5   6
ENDBRANCH   4   5
ENDBRANCH   3   4
ENDBRANCH   2   3
ENDBRANCH   1   2
BRANCH   1  12
ATOM     12  C   UNL     1     -24.257   6.750  21.123  1.00  0.00     0.000 C 
BRANCH  12  13
ATOM     13  C   UNL     1     -23.197   5.707  21.533  1.00  0.00    -0.000 C 
BRANCH  13  14
ATOM     14  C   UNL     1     -23.684   4.628  22.522  1.00  0.00    -0.000 C 
BRANCH  14  15
ATOM     15  C   UNL     1     -23.591   3.180  22.006  1.00  0.00    -0.000 C 
BRANCH  15  16
ATOM     16  C   UNL     1     -22.795   3.064  20.695  1.00  0.00    -0.000 C 
BRANCH  16  17
ATOM     17  C   UNL     1     -21.665   2.025  20.778  1.00  0.00    -0.000 C 
BRANCH  17  18
ATOM     18  C   UNL     1     -20.273   2.642  20.577  1.00  0.00    -0.000 C 
BRANCH  18  19
ATOM     19  C   UNL     1     -20.377   4.027  19.925  1.00  0.00    -0.003 C 
ATOM     20  C   UNL     1     -19.707   5.094  20.785  1.00  0.00     0.004 C 
ENDBRANCH  18  19
ENDBRANCH  17  18
ENDBRANCH  16  17
ENDBRANCH  15  16
ENDBRANCH  14  15
ENDBRANCH  13  14
ENDBRANCH  12  13
ENDBRANCH   1  12
TORSDOF 16
ENDMDL
MODEL 7
REMARK VINA RESULT:    -3.656      2.492      4.231
REMARK INTER + INTRA:          -9.692
REMARK INTER:                  -7.248
REMARK INTRA:                  -2.445
REMARK UNBOUND:                -2.617
REMARK SMILES CCCCCCCCCCCCCCCCCC(=O)[O-]
REMARK SMILES IDX 10 1 11 2 12 3 13 4 14 5 15 6 16 7 17 8 18 9 19 10 20 11
REMARK SMILES IDX 9 12 8 13 7 14 6 15 5 16 4 17 3 18 2 19 1 20
REMARK H PARENT
REMARK Flexibility Score: inf
ROOT
ATOM      1  C   UNL     1     -22.081   8.050  18.094  1.00  0.00     0.000 C 
ENDROOT
BRANCH   1   2
ATOM      2  C   UNL     1     -21.251   8.406  19.339  1.00  0.00     0.000 C 
BRANCH   2   3
ATOM      3  C   UNL     1     -22.024   8.185  20.650  1.00  0.00     0.000 C 
BRANCH   3   4
ATOM      4  C   UNL     1     -23.547   8.130  20.443  1.00  0.00     0.000 C 
BRANCH   4   5
ATOM      5  C   UNL     1     -24.179   6.878  21.075  1.00  0.00     0.000 C 
BRANCH   5   6
ATOM      6  C   UNL     1     -23.183   5.711  21.186  1.00  0.00     0.000 C 
BRANCH   6   7
ATOM      7  C   UNL     1     -23.678   4.598  22.123  1.00  0.00     0.006 C 
BRANCH   7   8
ATOM      8  C   UNL     1     -24.848   5.043  23.009  1.00  0.00     0.053 C 
BRANCH   8   9
ATOM      9  C   UNL     1     -24.859   4.269  24.290  1.00  0.00     0.041 C 
ATOM     10  O   UNL     1     -23.832   4.237  25.020  1.00  0.00    -0.550 OA
ATOM     11  O   UNL     1     -26.019   3.628  24.704  1.00  0.00    -0.550 OA
ENDBRANCH   8   9
ENDBRANCH   7   8
ENDBRANCH   6   7
ENDBRANCH   5   6
ENDBRANCH   4   5
ENDBRANCH   3   4
ENDBRANCH   2   3
ENDBRANCH   1   2
BRANCH   1  12
ATOM     12  C   UNL     1     -21.515   6.840  17.327  1.00  0.00     0.000 C 
BRANCH  12  13
ATOM     13  C   UNL     1     -20.541   7.189  16.183  1.00  0.00    -0.000 C 
BRANCH  13  14
ATOM     14  C   UNL     1     -19.222   6.390  16.174  1.00  0.00    -0.000 C 
BRANCH  14  15
ATOM     15  C   UNL     1     -18.257   6.709  17.331  1.00  0.00    -0.000 C 
BRANCH  15  16
ATOM     16  C   UNL     1     -18.146   5.562  18.349  1.00  0.00    -0.000 C 
BRANCH  16  17
ATOM     17  C   UNL     1     -18.280   6.044  19.803  1.00  0.00    -0.000 C 
BRANCH  17  18
ATOM     18  C   UNL     1     -19.489   5.429  20.524  1.00  0.00    -0.000 C 
BRANCH  18  19
ATOM     19  C   UNL     1     -20.193   4.398  19.633  1.00  0.00    -0.003 C 
ATOM     20  C   UNL     1     -20.259   3.034  20.314  1.00  0.00     0.004 C 
ENDBRANCH  18  19
ENDBRANCH  17  18
ENDBRANCH  16  17
ENDBRANCH  15  16
ENDBRANCH  14  15
ENDBRANCH  13  14
ENDBRANCH  12  13
ENDBRANCH   1  12
TORSDOF 16
ENDMDL
MODEL 8
REMARK VINA RESULT:    -3.617      1.979      4.536
REMARK INTER + INTRA:          -9.617
REMARK INTER:                  -6.829
REMARK INTRA:                  -2.788
REMARK UNBOUND:                -2.617
REMARK SMILES CCCCCCCCCCCCCCCCCC(=O)[O-]
REMARK SMILES IDX 10 1 11 2 12 3 13 4 14 5 15 6 16 7 17 8 18 9 19 10 20 11
REMARK SMILES IDX 9 12 8 13 7 14 6 15 5 16 4 17 3 18 2 19 1 20
REMARK H PARENT
REMARK Flexibility Score: inf
ROOT
ATOM      1  C   UNL     1     -21.250   6.049  16.338  1.00  0.00     0.000 C 
ENDROOT
BRANCH   1   2
ATOM      2  C   UNL     1     -21.932   6.487  17.644  1.00  0.00     0.000 C 
BRANCH   2   3
ATOM      3  C   UNL     1     -21.991   8.016  17.800  1.00  0.00     0.000 C 
BRANCH   3   4
ATOM      4  C   UNL     1     -21.370   8.504  19.119  1.00  0.00     0.000 C 
BRANCH   4   5
ATOM      5  C   UNL     1     -21.866   7.700  20.333  1.00  0.00     0.000 C 
BRANCH   5   6
ATOM      6  C   UNL     1     -23.286   8.106  20.764  1.00  0.00     0.000 C 
BRANCH   6   7
ATOM      7  C   UNL     1     -24.159   6.897  21.138  1.00  0.00     0.006 C 
BRANCH   7   8
ATOM      8  C   UNL     1     -23.374   5.580  21.154  1.00  0.00     0.053 C 
BRANCH   8   9
ATOM      9  C   UNL     1     -23.888   4.678  22.232  1.00  0.00     0.041 C 
ATOM     10  O   UNL     1     -24.720   5.108  23.076  1.00  0.00    -0.550 OA
ATOM     11  O   UNL     1     -23.492   3.348  22.272  1.00  0.00    -0.550 OA
ENDBRANCH   8   9
ENDBRANCH   7   8
ENDBRANCH   6   7
ENDBRANCH   5   6
ENDBRANCH   4   5
ENDBRANCH   3   4
ENDBRANCH   2   3
ENDBRANCH   1   2
BRANCH   1  12
ATOM     12  C   UNL     1     -19.962   6.841  16.043  1.00  0.00     0.000 C 
BRANCH  12  13
ATOM     13  C   UNL     1     -18.674   6.239  16.641  1.00  0.00    -0.000 C 
BRANCH  13  14
ATOM     14  C   UNL     1     -18.126   6.962  17.888  1.00  0.00    -0.000 C 
BRANCH  14  15
ATOM     15  C   UNL     1     -18.443   6.279  19.231  1.00  0.00    -0.000 C 
BRANCH  15  16
ATOM     16  C   UNL     1     -18.781   4.787  19.076  1.00  0.00    -0.000 C 
BRANCH  16  17
ATOM     17  C   UNL     1     -20.113   4.409  19.745  1.00  0.00    -0.000 C 
BRANCH  17  18
ATOM     18  C   UNL     1     -20.127   2.964  20.269  1.00  0.00    -0.000 C 
BRANCH  18  19
ATOM     19  C   UNL     1     -20.109   2.938  21.802  1.00  0.00    -0.003 C 
ATOM     20  C   UNL     1     -20.072   4.351  22.379  1.00  0.00     0.004 C 
ENDBRANCH  18  19
ENDBRANCH  17  18
ENDBRANCH  16  17
ENDBRANCH  15  16
ENDBRANCH  14  15
ENDBRANCH  13  14
ENDBRANCH  12  13
ENDBRANCH   1  12
TORSDOF 16
ENDMDL
MODEL 9
REMARK VINA RESULT:    -3.604      2.619      4.617
REMARK INTER + INTRA:          -9.592
REMARK INTER:                  -7.168
REMARK INTRA:                  -2.424
REMARK UNBOUND:                -2.617
REMARK SMILES CCCCCCCCCCCCCCCCCC(=O)[O-]
REMARK SMILES IDX 10 1 11 2 12 3 13 4 14 5 15 6 16 7 17 8 18 9 19 10 20 11
REMARK SMILES IDX 9 12 8 13 7 14 6 15 5 16 4 17 3 18 2 19 1 20
REMARK H PARENT
REMARK Flexibility Score: inf
ROOT
ATOM      1  C   UNL     1     -18.544   6.081  19.551  1.00  0.00     0.000 C 
ENDROOT
BRANCH   1   2
ATOM      2  C   UNL     1     -19.920   5.807  20.180  1.00  0.00     0.000 C 
BRANCH   2   3
ATOM      3  C   UNL     1     -20.402   4.365  19.948  1.00  0.00     0.000 C 
BRANCH   3   4
ATOM      4  C   UNL     1     -21.934   4.234  20.001  1.00  0.00     0.000 C 
BRANCH   4   5
ATOM      5  C   UNL     1     -22.387   2.954  20.724  1.00  0.00     0.000 C 
BRANCH   5   6
ATOM      6  C   UNL     1     -23.651   3.176  21.572  1.00  0.00     0.000 C 
BRANCH   6   7
ATOM      7  C   UNL     1     -23.588   4.468  22.401  1.00  0.00     0.006 C 
BRANCH   7   8
ATOM      8  C   UNL     1     -23.768   4.219  23.904  1.00  0.00     0.053 C 
BRANCH   8   9
ATOM      9  C   UNL     1     -25.171   3.788  24.198  1.00  0.00     0.041 C 
ATOM     10  O   UNL     1     -26.125   4.602  24.069  1.00  0.00    -0.550 OA
ATOM     11  O   UNL     1     -25.432   2.472  24.559  1.00  0.00    -0.550 OA
ENDBRANCH   8   9
ENDBRANCH   7   8
ENDBRANCH   6   7
ENDBRANCH   5   6
ENDBRANCH   4   5
ENDBRANCH   3   4
ENDBRANCH   2   3
ENDBRANCH   1   2
BRANCH   1  12
ATOM     12  C   UNL     1     -18.589   7.183  18.476  1.00  0.00     0.000 C 
BRANCH  12  13
ATOM     13  C   UNL     1     -18.213   6.724  17.053  1.00  0.00    -0.000 C 
BRANCH  13  14
ATOM     14  C   UNL     1     -19.405   6.459  16.110  1.00  0.00    -0.000 C 
BRANCH  14  15
ATOM     15  C   UNL     1     -20.693   7.232  16.452  1.00  0.00    -0.000 C 
BRANCH  15  16
ATOM     16  C   UNL     1     -21.841   6.309  16.895  1.00  0.00    -0.000 C 
BRANCH  16  17
ATOM     17  C   UNL     1     -22.742   6.955  17.961  1.00  0.00    -0.000 C 
BRANCH  17  18
ATOM     18  C   UNL     1     -22.141   8.241  18.548  1.00  0.00    -0.000 C 
BRANCH  18  19
ATOM     19  C   UNL     1     -22.599   8.446  19.998  1.00  0.00    -0.003 C 
ATOM     20  C   UNL     1     -23.804   7.570  20.326  1.00  0.00     0.004 C 
ENDBRANCH  18  19
ENDBRANCH  17  18
ENDBRANCH  16  17
ENDBRANCH  15  16
ENDBRANCH  14  15
ENDBRANCH  13  14
ENDBRANCH  12  13
ENDBRANCH   1  12
TORSDOF 16
ENDMDL
