MODEL 1
REMARK VINA RESULT:    -4.251      0.000      0.000
REMARK INTER + INTRA:          -6.202
REMARK INTER:                  -5.742
REMARK INTRA:                  -0.460
REMARK UNBOUND:                -0.460
REMARK SMILES C=C[C@@](C)(CCC=C(C)C)OC(C)=O
REMARK SMILES IDX 3 1 4 2 5 3 6 4 7 5 9 6 8 7 10 8 2 9 1 10 11 11 12 12 14 13
REMARK SMILES IDX 13 14
REMARK H PARENT
REMARK Flexibility Score: inf
ROOT
ATOM      1  C   UNL     1      19.115  -4.063 -20.008  1.00  0.00     0.127 C 
ATOM      2  C   UNL     1      20.125  -5.128 -20.498  1.00  0.00     0.061 C 
ENDROOT
BRANCH   1   3
ATOM      3  C   UNL     1      17.939  -4.706 -19.214  1.00  0.00     0.057 C 
BRANCH   3   4
ATOM      4  C   UNL     1      17.934  -6.242 -19.155  1.00  0.00     0.032 C 
BRANCH   4   5
ATOM      5  C   UNL     1      16.996  -6.723 -18.075  1.00  0.00    -0.028 C 
ATOM      6  C   UNL     1      16.098  -8.251 -16.372  1.00  0.00     0.039 C 
ATOM      7  C   UNL     1      17.142  -7.882 -17.393  1.00  0.00    -0.080 C 
ATOM      8  C   UNL     1      18.322  -8.799 -17.615  1.00  0.00     0.039 C 
ENDBRANCH   4   5
ENDBRANCH   3   4
ENDBRANCH   1   3
BRANCH   1   9
ATOM      9  C   UNL     1      19.862  -3.142 -19.055  1.00  0.00     0.013 C 
ATOM     10  C   UNL     1      19.313  -2.025 -18.560  1.00  0.00     0.008 C 
ENDBRANCH   1   9
BRANCH   1  11
ATOM     11  O   UNL     1      18.635  -3.238 -21.087  1.00  0.00    -0.455 OA
BRANCH  11  12
ATOM     12  C   UNL     1      19.325  -2.825 -22.239  1.00  0.00     0.303 C 
ATOM     13  O   UNL     1      19.320  -3.509 -23.297  1.00  0.00    -0.253 OA
ATOM     14  C   UNL     1      20.124  -1.568 -22.190  1.00  0.00     0.139 C 
ENDBRANCH  11  12
ENDBRANCH   1  11
TORSDOF 6
ENDMDL
MODEL 2
REMARK VINA RESULT:    -4.243      2.783      6.008
REMARK INTER + INTRA:          -6.192
REMARK INTER:                  -5.572
REMARK INTRA:                  -0.619
REMARK UNBOUND:                -0.460
REMARK SMILES C=C[C@@](C)(CCC=C(C)C)OC(C)=O
REMARK SMILES IDX 3 1 4 2 5 3 6 4 7 5 9 6 8 7 10 8 2 9 1 10 11 11 12 12 14 13
REMARK SMILES IDX 13 14
REMARK H PARENT
REMARK Flexibility Score: inf
ROOT
ATOM      1  C   UNL     1      16.675  -8.218 -18.214  1.00  0.00     0.127 C 
ATOM      2  C   UNL     1      15.666  -8.394 -19.375  1.00  0.00     0.061 C 
ENDROOT
BRANCH   1   3
ATOM      3  C   UNL     1      17.113  -6.732 -18.054  1.00  0.00     0.057 C 
BRANCH   3   4
ATOM      4  C   UNL     1      17.360  -5.962 -19.361  1.00  0.00     0.032 C 
BRANCH   4   5
ATOM      5  C   UNL     1      17.757  -4.536 -19.066  1.00  0.00    -0.028 C 
ATOM      6  C   UNL     1      19.226  -2.568 -18.973  1.00  0.00     0.039 C 
ATOM      7  C   UNL     1      18.958  -3.996 -19.371  1.00  0.00    -0.080 C 
ATOM      8  C   UNL     1      20.022  -4.774 -20.109  1.00  0.00     0.039 C 
ENDBRANCH   4   5
ENDBRANCH   3   4
ENDBRANCH   1   3
BRANCH   1   9
ATOM      9  C   UNL     1      15.962  -8.627 -16.934  1.00  0.00     0.013 C 
ATOM     10  C   UNL     1      16.088  -7.937 -15.793  1.00  0.00     0.008 C 
ENDBRANCH   1   9
BRANCH   1  11
ATOM     11  O   UNL     1      17.812  -9.092 -18.351  1.00  0.00    -0.455 OA
BRANCH  11  12
ATOM     12  C   UNL     1      19.129  -8.882 -17.910  1.00  0.00     0.303 C 
ATOM     13  O   UNL     1      20.048  -8.543 -18.702  1.00  0.00    -0.253 OA
ATOM     14  C   UNL     1      19.456  -9.114 -16.475  1.00  0.00     0.139 C 
ENDBRANCH  11  12
ENDBRANCH   1  11
TORSDOF 6
ENDMDL
MODEL 3
REMARK VINA RESULT:    -4.081      3.354      6.729
REMARK INTER + INTRA:          -5.972
REMARK INTER:                  -5.539
REMARK INTRA:                  -0.434
REMARK UNBOUND:                -0.460
REMARK SMILES C=C[C@@](C)(CCC=C(C)C)OC(C)=O
REMARK SMILES IDX 3 1 4 2 5 3 6 4 7 5 9 6 8 7 10 8 2 9 1 10 11 11 12 12 14 13
REMARK SMILES IDX 13 14
REMARK H PARENT
REMARK Flexibility Score: inf
ROOT
ATOM      1  C   UNL     1      16.864  -8.400 -17.951  1.00  0.00     0.127 C 
ATOM      2  C   UNL     1      18.316  -8.938 -17.935  1.00  0.00     0.061 C 
ENDROOT
BRANCH   1   3
ATOM      3  C   UNL     1      16.820  -6.876 -18.270  1.00  0.00     0.057 C 
BRANCH   3   4
ATOM      4  C   UNL     1      17.986  -6.334 -19.111  1.00  0.00     0.032 C 
BRANCH   4   5
ATOM      5  C   UNL     1      17.974  -4.825 -19.119  1.00  0.00    -0.028 C 
ATOM      6  C   UNL     1      18.811  -2.556 -19.555  1.00  0.00     0.039 C 
ATOM      7  C   UNL     1      18.940  -4.053 -19.665  1.00  0.00    -0.080 C 
ATOM      8  C   UNL     1      20.125  -4.646 -20.390  1.00  0.00     0.039 C 
ENDBRANCH   4   5
ENDBRANCH   3   4
ENDBRANCH   1   3
BRANCH   1   9
ATOM      9  C   UNL     1      16.130  -9.125 -19.069  1.00  0.00     0.013 C 
ATOM     10  C   UNL     1      14.796  -9.093 -19.187  1.00  0.00     0.008 C 
ENDBRANCH   1   9
BRANCH   1  11
ATOM     11  O   UNL     1      16.163  -8.705 -16.730  1.00  0.00    -0.455 OA
BRANCH  11  12
ATOM     12  C   UNL     1      16.297  -8.091 -15.474  1.00  0.00     0.303 C 
ATOM     13  O   UNL     1      15.631  -7.070 -15.160  1.00  0.00    -0.253 OA
ATOM     14  C   UNL     1      17.290  -8.637 -14.506  1.00  0.00     0.139 C 
ENDBRANCH  11  12
ENDBRANCH   1  11
TORSDOF 6
ENDMDL
MODEL 4
REMARK VINA RESULT:    -3.971     21.155     22.588
REMARK INTER + INTRA:          -5.823
REMARK INTER:                  -4.979
REMARK INTRA:                  -0.844
REMARK UNBOUND:                -0.460
REMARK SMILES C=C[C@@](C)(CCC=C(C)C)OC(C)=O
REMARK SMILES IDX 3 1 4 2 5 3 6 4 7 5 9 6 8 7 10 8 2 9 1 10 11 11 12 12 14 13
REMARK SMILES IDX 13 14
REMARK H PARENT
REMARK Flexibility Score: inf
ROOT
ATOM      1  C   UNL     1       1.867   5.835 -11.143  1.00  0.00     0.127 C 
ATOM      2  C   UNL     1       2.905   4.997 -11.928  1.00  0.00     0.061 C 
ENDROOT
BRANCH   1   3
ATOM      3  C   UNL     1       1.791   7.298 -11.670  1.00  0.00     0.057 C 
BRANCH   3   4
ATOM      4  C   UNL     1       0.421   7.748 -12.200  1.00  0.00     0.032 C 
BRANCH   4   5
ATOM      5  C   UNL     1       0.575   8.448 -13.529  1.00  0.00    -0.028 C 
ATOM      6  C   UNL     1       0.689   8.665 -15.974  1.00  0.00     0.039 C 
ATOM      7  C   UNL     1       0.465   7.842 -14.732  1.00  0.00    -0.080 C 
ATOM      8  C   UNL     1       0.109   6.380 -14.863  1.00  0.00     0.039 C 
ENDBRANCH   4   5
ENDBRANCH   3   4
ENDBRANCH   1   3
BRANCH   1   9
ATOM      9  C   UNL     1       0.507   5.193 -11.373  1.00  0.00     0.013 C 
ATOM     10  C   UNL     1       0.369   4.001 -11.968  1.00  0.00     0.008 C 
ENDBRANCH   1   9
BRANCH   1  11
ATOM     11  O   UNL     1       2.106   5.796  -9.723  1.00  0.00    -0.455 OA
BRANCH  11  12
ATOM     12  C   UNL     1       3.175   6.358  -9.005  1.00  0.00     0.303 C 
ATOM     13  O   UNL     1       4.295   5.788  -8.927  1.00  0.00    -0.253 OA
ATOM     14  C   UNL     1       2.959   7.640  -8.276  1.00  0.00     0.139 C 
ENDBRANCH  11  12
ENDBRANCH   1  11
TORSDOF 6
ENDMDL
MODEL 5
REMARK VINA RESULT:    -3.820     21.173     22.532
REMARK INTER + INTRA:          -5.619
REMARK INTER:                  -4.920
REMARK INTRA:                  -0.698
REMARK UNBOUND:                -0.460
REMARK SMILES C=C[C@@](C)(CCC=C(C)C)OC(C)=O
REMARK SMILES IDX 3 1 4 2 5 3 6 4 7 5 9 6 8 7 10 8 2 9 1 10 11 11 12 12 14 13
REMARK SMILES IDX 13 14
REMARK H PARENT
REMARK Flexibility Score: inf
ROOT
ATOM      1  C   UNL     1       1.464   6.471 -10.149  1.00  0.00     0.127 C 
ATOM      2  C   UNL     1       0.484   5.315  -9.835  1.00  0.00     0.061 C 
ENDROOT
BRANCH   1   3
ATOM      3  C   UNL     1       0.739   7.672 -10.825  1.00  0.00     0.057 C 
BRANCH   3   4
ATOM      4  C   UNL     1      -0.001   7.356 -12.134  1.00  0.00     0.032 C 
BRANCH   4   5
ATOM      5  C   UNL     1       0.467   8.273 -13.238  1.00  0.00    -0.028 C 
ATOM      6  C   UNL     1       1.091   8.931 -15.522  1.00  0.00     0.039 C 
ATOM      7  C   UNL     1       0.563   7.919 -14.539  1.00  0.00    -0.080 C 
ATOM      8  C   UNL     1       0.144   6.553 -15.031  1.00  0.00     0.039 C 
ENDBRANCH   4   5
ENDBRANCH   3   4
ENDBRANCH   1   3
BRANCH   1   9
ATOM      9  C   UNL     1       2.021   6.959  -8.820  1.00  0.00     0.013 C 
ATOM     10  C   UNL     1       3.334   6.977  -8.557  1.00  0.00     0.008 C 
ENDBRANCH   1   9
BRANCH   1  11
ATOM     11  O   UNL     1       2.590   6.026 -10.929  1.00  0.00    -0.455 OA
BRANCH  11  12
ATOM     12  C   UNL     1       2.834   4.745 -11.453  1.00  0.00     0.303 C 
ATOM     13  O   UNL     1       3.643   3.949 -10.910  1.00  0.00    -0.253 OA
ATOM     14  C   UNL     1       2.150   4.340 -12.714  1.00  0.00     0.139 C 
ENDBRANCH  11  12
ENDBRANCH   1  11
TORSDOF 6
ENDMDL
MODEL 6
REMARK VINA RESULT:    -3.174     11.224     12.147
REMARK INTER + INTRA:          -4.747
REMARK INTER:                  -4.806
REMARK INTRA:                   0.058
REMARK UNBOUND:                -0.460
REMARK SMILES C=C[C@@](C)(CCC=C(C)C)OC(C)=O
REMARK SMILES IDX 3 1 4 2 5 3 6 4 7 5 9 6 8 7 10 8 2 9 1 10 11 11 12 12 14 13
REMARK SMILES IDX 13 14
REMARK H PARENT
REMARK Flexibility Score: inf
ROOT
ATOM      1  C   UNL     1       8.652   1.801 -17.418  1.00  0.00     0.127 C 
ATOM      2  C   UNL     1       9.674   2.486 -18.357  1.00  0.00     0.061 C 
ENDROOT
BRANCH   1   3
ATOM      3  C   UNL     1       9.314   0.674 -16.572  1.00  0.00     0.057 C 
BRANCH   3   4
ATOM      4  C   UNL     1       8.473   0.131 -15.406  1.00  0.00     0.032 C 
BRANCH   4   5
ATOM      5  C   UNL     1       8.930  -1.257 -15.028  1.00  0.00    -0.028 C 
ATOM      6  C   UNL     1       8.874  -3.422 -13.865  1.00  0.00     0.039 C 
ATOM      7  C   UNL     1       8.269  -2.079 -14.181  1.00  0.00    -0.080 C 
ATOM      8  C   UNL     1       6.945  -1.694 -13.563  1.00  0.00     0.039 C 
ENDBRANCH   4   5
ENDBRANCH   3   4
ENDBRANCH   1   3
BRANCH   1   9
ATOM      9  C   UNL     1       8.147   2.863 -16.453  1.00  0.00     0.013 C 
ATOM     10  C   UNL     1       8.878   3.936 -16.123  1.00  0.00     0.008 C 
ENDBRANCH   1   9
BRANCH   1  11
ATOM     11  O   UNL     1       7.501   1.316 -18.137  1.00  0.00    -0.455 OA
BRANCH  11  12
ATOM     12  C   UNL     1       7.401   0.174 -18.949  1.00  0.00     0.303 C 
ATOM     13  O   UNL     1       6.318  -0.155 -19.500  1.00  0.00    -0.253 OA
ATOM     14  C   UNL     1       8.598  -0.697 -19.121  1.00  0.00     0.139 C 
ENDBRANCH  11  12
ENDBRANCH   1  11
TORSDOF 6
ENDMDL
MODEL 7
REMARK VINA RESULT:    -3.119     21.613     22.896
REMARK INTER + INTRA:          -4.673
REMARK INTER:                  -4.083
REMARK INTRA:                  -0.590
REMARK UNBOUND:                -0.460
REMARK SMILES C=C[C@@](C)(CCC=C(C)C)OC(C)=O
REMARK SMILES IDX 3 1 4 2 5 3 6 4 7 5 9 6 8 7 10 8 2 9 1 10 11 11 12 12 14 13
REMARK SMILES IDX 13 14
REMARK H PARENT
REMARK Flexibility Score: inf
ROOT
ATOM      1  C   UNL     1       1.100   6.867 -11.420  1.00  0.00     0.127 C 
ATOM      2  C   UNL     1       0.698   5.391 -11.189  1.00  0.00     0.061 C 
ENDROOT
BRANCH   1   3
ATOM      3  C   UNL     1       1.503   7.129 -12.901  1.00  0.00     0.057 C 
BRANCH   3   4
ATOM      4  C   UNL     1       0.340   7.346 -13.882  1.00  0.00     0.032 C 
BRANCH   4   5
ATOM      5  C   UNL     1       0.199   6.158 -14.802  1.00  0.00    -0.028 C 
ATOM      6  C   UNL     1      -0.123   4.965 -16.926  1.00  0.00     0.039 C 
ATOM      7  C   UNL     1       0.052   6.240 -16.143  1.00  0.00    -0.080 C 
ATOM      8  C   UNL     1       0.077   7.563 -16.872  1.00  0.00     0.039 C 
ENDBRANCH   4   5
ENDBRANCH   3   4
ENDBRANCH   1   3
BRANCH   1   9
ATOM      9  C   UNL     1      -0.125   7.718 -11.120  1.00  0.00     0.013 C 
ATOM     10  C   UNL     1      -0.074   8.788 -10.317  1.00  0.00     0.008 C 
ENDBRANCH   1   9
BRANCH   1  11
ATOM     11  O   UNL     1       2.132   7.293 -10.508  1.00  0.00    -0.455 OA
BRANCH  11  12
ATOM     12  C   UNL     1       2.669   6.594  -9.415  1.00  0.00     0.303 C 
ATOM     13  O   UNL     1       3.564   5.720  -9.561  1.00  0.00    -0.253 OA
ATOM     14  C   UNL     1       2.129   6.860  -8.051  1.00  0.00     0.139 C 
ENDBRANCH  11  12
ENDBRANCH   1  11
TORSDOF 6
ENDMDL
