MODEL 1
REMARK VINA RESULT:    -6.113      0.000      0.000
REMARK INTER + INTRA:          -9.693
REMARK INTER:                  -8.793
REMARK INTRA:                  -0.900
REMARK UNBOUND:                -0.900
REMARK SMILES O=c1cc(-c2ccc(O)c(O)c2)oc2cc(O[C@H]3O[C@@H](CO)[C@@H](O)[C@H](O)[C@H]3O)cc(O)c12
REMARK SMILES IDX 17 1 16 2 4 3 3 4 13 5 2 6 14 7 1 8 32 9 15 10 30 11 29 12
REMARK SMILES IDX 5 13 6 14 7 15 8 16 12 17 10 18 9 19 11 21 31 23 18 25 27 26
REMARK SMILES IDX 19 27 25 28 20 29 23 30 28 31 26 33 21 35 22 36 24 38
REMARK H PARENT 9 20 11 22 31 24 28 32 26 34 22 37 24 39
REMARK Flexibility Score: inf
ROOT
ATOM      1  O   UNL     1     -10.241  84.206  -9.309  1.00  0.00    -0.462 OA
ENDROOT
BRANCH   1   2
ATOM      2  C   UNL     1      -8.858  84.437  -9.222  1.00  0.00     0.130 A 
ATOM      3  C   UNL     1      -5.432  87.725  -8.759  1.00  0.00     0.138 A 
ATOM      4  C   UNL     1      -4.413  86.761  -8.805  1.00  0.00     0.100 A 
ATOM      5  O   UNL     1      -6.703  87.339  -8.858  1.00  0.00    -0.456 OA
ATOM      6  C   UNL     1      -4.748  85.413  -8.939  1.00  0.00     0.197 A 
ATOM      7  C   UNL     1      -7.072  86.068  -8.987  1.00  0.00     0.146 A 
ATOM      8  O   UNL     1      -3.825  84.554  -8.981  1.00  0.00    -0.289 OA
ATOM      9  C   UNL     1      -6.104  85.039  -9.030  1.00  0.00     0.107 A 
ATOM     10  C   UNL     1      -8.431  85.760  -9.080  1.00  0.00     0.094 A 
ATOM     11  C   UNL     1      -6.530  83.697  -9.164  1.00  0.00     0.134 A 
ATOM     12  C   UNL     1      -7.900  83.407  -9.255  1.00  0.00     0.093 A 
BRANCH   3  13
ATOM     13  C   UNL     1      -5.136  89.173  -8.619  1.00  0.00     0.021 A 
ATOM     14  C   UNL     1      -4.251  89.656  -7.635  1.00  0.00     0.016 A 
ATOM     15  C   UNL     1      -3.999  91.025  -7.520  1.00  0.00     0.051 A 
ATOM     16  C   UNL     1      -4.630  91.936  -8.377  1.00  0.00     0.157 A 
ATOM     17  C   UNL     1      -5.776  90.095  -9.466  1.00  0.00     0.062 A 
ATOM     18  C   UNL     1      -5.524  91.467  -9.353  1.00  0.00     0.158 A 
BRANCH  16  19
ATOM     19  O   UNL     1      -4.375  93.301  -8.259  1.00  0.00    -0.504 OA
ATOM     20  H   UNL     1      -5.119  93.969  -8.094  1.00  0.00     0.293 HD
ENDBRANCH  16  19
BRANCH  18  21
ATOM     21  O   UNL     1      -6.171  92.349 -10.218  1.00  0.00    -0.504 OA
ATOM     22  H   UNL     1      -5.693  93.132 -10.647  1.00  0.00     0.293 HD
ENDBRANCH  18  21
ENDBRANCH   3  13
BRANCH  11  23
ATOM     23  O   UNL     1      -5.606  82.653  -9.205  1.00  0.00    -0.507 OA
ATOM     24  H   UNL     1      -5.882  81.702  -9.420  1.00  0.00     0.293 HD
ENDBRANCH  11  23
ENDBRANCH   1   2
BRANCH   1  25
ATOM     25  C   UNL     1     -11.050  83.455  -8.395  1.00  0.00     0.339 C 
ATOM     26  C   UNL     1     -11.503  82.106  -8.997  1.00  0.00     0.214 C 
ATOM     27  O   UNL     1     -12.160  84.235  -7.965  1.00  0.00    -0.332 OA
ATOM     28  C   UNL     1     -12.468  82.350 -10.163  1.00  0.00     0.180 C 
ATOM     29  C   UNL     1     -13.111  84.516  -8.990  1.00  0.00     0.179 C 
ATOM     30  C   UNL     1     -13.632  83.235  -9.688  1.00  0.00     0.177 C 
BRANCH  26  31
ATOM     31  O   UNL     1     -10.402  81.363  -9.450  1.00  0.00    -0.384 OA
ATOM     32  H   UNL     1     -10.603  80.409  -9.265  1.00  0.00     0.211 HD
ENDBRANCH  26  31
BRANCH  28  33
ATOM     33  O   UNL     1     -12.941  81.131 -10.682  1.00  0.00    -0.387 OA
ATOM     34  H   UNL     1     -13.883  81.021 -10.390  1.00  0.00     0.211 HD
ENDBRANCH  28  33
BRANCH  29  35
ATOM     35  C   UNL     1     -12.619  85.621  -9.956  1.00  0.00     0.191 C 
BRANCH  35  36
ATOM     36  O   UNL     1     -13.705  86.277 -10.558  1.00  0.00    -0.394 OA
ATOM     37  H   UNL     1     -14.470  85.644 -10.536  1.00  0.00     0.210 HD
ENDBRANCH  35  36
ENDBRANCH  29  35
BRANCH  30  38
ATOM     38  O   UNL     1     -14.461  83.573 -10.772  1.00  0.00    -0.387 OA
ATOM     39  H   UNL     1     -15.290  83.965 -10.392  1.00  0.00     0.211 HD
ENDBRANCH  30  38
ENDBRANCH   1  25
TORSDOF 11
ENDMDL
MODEL 2
REMARK VINA RESULT:    -6.035      5.281     10.129
REMARK INTER + INTRA:          -9.580
REMARK INTER:                  -8.420
REMARK INTRA:                  -1.160
REMARK UNBOUND:                -0.900
REMARK SMILES O=c1cc(-c2ccc(O)c(O)c2)oc2cc(O[C@H]3O[C@@H](CO)[C@@H](O)[C@H](O)[C@H]3O)cc(O)c12
REMARK SMILES IDX 17 1 16 2 4 3 3 4 13 5 2 6 14 7 1 8 32 9 15 10 30 11 29 12
REMARK SMILES IDX 5 13 6 14 7 15 8 16 12 17 10 18 9 19 11 21 31 23 18 25 27 26
REMARK SMILES IDX 19 27 25 28 20 29 23 30 28 31 26 33 21 35 22 36 24 38
REMARK H PARENT 9 20 11 22 31 24 28 32 26 34 22 37 24 39
REMARK Flexibility Score: inf
ROOT
ATOM      1  O   UNL     1      -5.044  92.363 -14.510  1.00  0.00    -0.462 OA
ENDROOT
BRANCH   1   2
ATOM      2  C   UNL     1      -4.956  92.592 -13.127  1.00  0.00     0.130 A 
ATOM      3  C   UNL     1      -4.577  90.587  -8.815  1.00  0.00     0.138 A 
ATOM      4  C   UNL     1      -4.588  91.832  -8.165  1.00  0.00     0.100 A 
ATOM      5  O   UNL     1      -4.671  90.541 -10.142  1.00  0.00    -0.456 OA
ATOM      6  C   UNL     1      -4.682  93.001  -8.922  1.00  0.00     0.197 A 
ATOM      7  C   UNL     1      -4.762  91.626 -10.906  1.00  0.00     0.146 A 
ATOM      8  O   UNL     1      -4.692  94.113  -8.329  1.00  0.00    -0.289 OA
ATOM      9  C   UNL     1      -4.768  92.915 -10.326  1.00  0.00     0.107 A 
ATOM     10  C   UNL     1      -4.854  91.478 -12.292  1.00  0.00     0.094 A 
ATOM     11  C   UNL     1      -4.862  94.048 -11.167  1.00  0.00     0.134 A 
ATOM     12  C   UNL     1      -4.952  93.879 -12.557  1.00  0.00     0.093 A 
BRANCH   3  13
ATOM     13  C   UNL     1      -4.481  89.311  -8.063  1.00  0.00     0.021 A 
ATOM     14  C   UNL     1      -3.724  89.204  -6.880  1.00  0.00     0.016 A 
ATOM     15  C   UNL     1      -3.643  87.987  -6.198  1.00  0.00     0.051 A 
ATOM     16  C   UNL     1      -4.307  86.855  -6.687  1.00  0.00     0.157 A 
ATOM     17  C   UNL     1      -5.134  88.166  -8.554  1.00  0.00     0.062 A 
ATOM     18  C   UNL     1      -5.055  86.947  -7.873  1.00  0.00     0.158 A 
BRANCH  16  19
ATOM     19  O   UNL     1      -4.224  85.644  -6.003  1.00  0.00    -0.504 OA
ATOM     20  H   UNL     1      -4.731  84.823  -6.314  1.00  0.00     0.293 HD
ENDBRANCH  16  19
BRANCH  18  21
ATOM     21  O   UNL     1      -5.725  85.837  -8.388  1.00  0.00    -0.504 OA
ATOM     22  H   UNL     1      -6.171  85.153  -7.791  1.00  0.00     0.293 HD
ENDBRANCH  18  21
ENDBRANCH   3  13
BRANCH  11  23
ATOM     23  O   UNL     1      -4.866  95.337 -10.633  1.00  0.00    -0.507 OA
ATOM     24  H   UNL     1      -4.653  96.151 -11.198  1.00  0.00     0.293 HD
ENDBRANCH  11  23
ENDBRANCH   1   2
BRANCH   1  25
ATOM     25  C   UNL     1      -4.039  92.634 -15.496  1.00  0.00     0.339 C 
ATOM     26  C   UNL     1      -4.556  93.574 -16.607  1.00  0.00     0.214 C 
ATOM     27  O   UNL     1      -3.536  91.417 -16.033  1.00  0.00    -0.332 OA
ATOM     28  C   UNL     1      -5.639  92.867 -17.430  1.00  0.00     0.180 C 
ATOM     29  C   UNL     1      -4.480  90.685 -16.813  1.00  0.00     0.179 C 
ATOM     30  C   UNL     1      -5.090  91.532 -17.959  1.00  0.00     0.177 C 
BRANCH  26  31
ATOM     31  O   UNL     1      -5.083  94.755 -16.061  1.00  0.00    -0.384 OA
ATOM     32  H   UNL     1      -4.580  95.509 -16.467  1.00  0.00     0.211 HD
ENDBRANCH  26  31
BRANCH  28  33
ATOM     33  O   UNL     1      -6.076  93.686 -18.487  1.00  0.00    -0.387 OA
ATOM     34  H   UNL     1      -5.336  93.754 -19.146  1.00  0.00     0.211 HD
ENDBRANCH  28  33
BRANCH  29  35
ATOM     35  C   UNL     1      -5.520  89.949 -15.933  1.00  0.00     0.191 C 
BRANCH  35  36
ATOM     36  O   UNL     1      -4.888  89.256 -14.889  1.00  0.00    -0.394 OA
ATOM     37  H   UNL     1      -5.601  88.778 -14.390  1.00  0.00     0.210 HD
ENDBRANCH  35  36
ENDBRANCH  29  35
BRANCH  30  38
ATOM     38  O   UNL     1      -6.105  90.811 -18.611  1.00  0.00    -0.387 OA
ATOM     39  H   UNL     1      -5.943  89.849 -18.425  1.00  0.00     0.211 HD
ENDBRANCH  30  38
ENDBRANCH   1  25
TORSDOF 11
ENDMDL
MODEL 3
REMARK VINA RESULT:    -6.017      5.144     10.085
REMARK INTER + INTRA:          -9.555
REMARK INTER:                  -8.580
REMARK INTRA:                  -0.975
REMARK UNBOUND:                -0.900
REMARK SMILES O=c1cc(-c2ccc(O)c(O)c2)oc2cc(O[C@H]3O[C@@H](CO)[C@@H](O)[C@H](O)[C@H]3O)cc(O)c12
REMARK SMILES IDX 17 1 16 2 4 3 3 4 13 5 2 6 14 7 1 8 32 9 15 10 30 11 29 12
REMARK SMILES IDX 5 13 6 14 7 15 8 16 12 17 10 18 9 19 11 21 31 23 18 25 27 26
REMARK SMILES IDX 19 27 25 28 20 29 23 30 28 31 26 33 21 35 22 36 24 38
REMARK H PARENT 9 20 11 22 31 24 28 32 26 34 22 37 24 39
REMARK Flexibility Score: inf
ROOT
ATOM      1  O   UNL     1      -6.011  91.085 -15.313  1.00  0.00    -0.462 OA
ENDROOT
BRANCH   1   2
ATOM      2  C   UNL     1      -6.696  90.591 -14.190  1.00  0.00     0.130 A 
ATOM      3  C   UNL     1      -6.582  87.521 -10.540  1.00  0.00     0.138 A 
ATOM      4  C   UNL     1      -7.846  87.924 -10.080  1.00  0.00     0.100 A 
ATOM      5  O   UNL     1      -6.071  88.091 -11.629  1.00  0.00    -0.456 OA
ATOM      6  C   UNL     1      -8.539  88.925 -10.762  1.00  0.00     0.197 A 
ATOM      7  C   UNL     1      -6.692  89.048 -12.313  1.00  0.00     0.146 A 
ATOM      8  O   UNL     1      -9.674  89.279 -10.342  1.00  0.00    -0.289 OA
ATOM      9  C   UNL     1      -7.962  89.515 -11.905  1.00  0.00     0.107 A 
ATOM     10  C   UNL     1      -6.073  89.588 -13.443  1.00  0.00     0.094 A 
ATOM     11  C   UNL     1      -8.593  90.536 -12.652  1.00  0.00     0.134 A 
ATOM     12  C   UNL     1      -7.955  91.068 -13.783  1.00  0.00     0.093 A 
BRANCH   3  13
ATOM     13  C   UNL     1      -5.800  86.461  -9.857  1.00  0.00     0.021 A 
ATOM     14  C   UNL     1      -5.111  86.708  -8.653  1.00  0.00     0.016 A 
ATOM     15  C   UNL     1      -4.375  85.694  -8.037  1.00  0.00     0.051 A 
ATOM     16  C   UNL     1      -4.305  84.419  -8.613  1.00  0.00     0.157 A 
ATOM     17  C   UNL     1      -5.714  85.182 -10.436  1.00  0.00     0.062 A 
ATOM     18  C   UNL     1      -4.977  84.164  -9.819  1.00  0.00     0.158 A 
BRANCH  16  19
ATOM     19  O   UNL     1      -3.570  83.410  -7.995  1.00  0.00    -0.504 OA
ATOM     20  H   UNL     1      -3.368  82.535  -8.465  1.00  0.00     0.293 HD
ENDBRANCH  16  19
BRANCH  18  21
ATOM     21  O   UNL     1      -4.924  82.907 -10.421  1.00  0.00    -0.504 OA
ATOM     22  H   UNL     1      -4.596  82.777 -11.370  1.00  0.00     0.293 HD
ENDBRANCH  18  21
ENDBRANCH   3  13
BRANCH  11  23
ATOM     23  O   UNL     1      -9.844  91.027 -12.278  1.00  0.00    -0.507 OA
ATOM     24  H   UNL     1     -10.527  91.329 -12.964  1.00  0.00     0.293 HD
ENDBRANCH  11  23
ENDBRANCH   1   2
BRANCH   1  25
ATOM     25  C   UNL     1      -4.620  91.422 -15.398  1.00  0.00     0.339 C 
ATOM     26  C   UNL     1      -4.387  92.946 -15.306  1.00  0.00     0.214 C 
ATOM     27  O   UNL     1      -4.054  90.876 -16.584  1.00  0.00    -0.332 OA
ATOM     28  C   UNL     1      -4.967  93.641 -16.543  1.00  0.00     0.180 C 
ATOM     29  C   UNL     1      -4.541  91.462 -17.790  1.00  0.00     0.179 C 
ATOM     30  C   UNL     1      -4.379  93.003 -17.812  1.00  0.00     0.177 C 
BRANCH  26  31
ATOM     31  O   UNL     1      -4.982  93.477 -14.151  1.00  0.00    -0.384 OA
ATOM     32  H   UNL     1      -4.698  92.904 -13.392  1.00  0.00     0.211 HD
ENDBRANCH  26  31
BRANCH  28  33
ATOM     33  O   UNL     1      -4.707  95.023 -16.507  1.00  0.00    -0.387 OA
ATOM     34  H   UNL     1      -5.439  95.458 -15.998  1.00  0.00     0.211 HD
ENDBRANCH  28  33
BRANCH  29  35
ATOM     35  C   UNL     1      -5.960  90.959 -18.152  1.00  0.00     0.191 C 
BRANCH  35  36
ATOM     36  O   UNL     1      -6.212  91.123 -19.524  1.00  0.00    -0.394 OA
ATOM     37  H   UNL     1      -5.365  91.440 -19.934  1.00  0.00     0.210 HD
ENDBRANCH  35  36
ENDBRANCH  29  35
BRANCH  30  38
ATOM     38  O   UNL     1      -4.991  93.540 -18.958  1.00  0.00    -0.387 OA
ATOM     39  H   UNL     1      -5.968  93.397 -18.859  1.00  0.00     0.211 HD
ENDBRANCH  30  38
ENDBRANCH   1  25
TORSDOF 11
ENDMDL
MODEL 4
REMARK VINA RESULT:    -5.960      5.176      7.648
REMARK INTER + INTRA:          -9.474
REMARK INTER:                  -8.483
REMARK INTRA:                  -0.991
REMARK UNBOUND:                -0.900
REMARK SMILES O=c1cc(-c2ccc(O)c(O)c2)oc2cc(O[C@H]3O[C@@H](CO)[C@@H](O)[C@H](O)[C@H]3O)cc(O)c12
REMARK SMILES IDX 17 1 16 2 4 3 3 4 13 5 2 6 14 7 1 8 32 9 15 10 30 11 29 12
REMARK SMILES IDX 5 13 6 14 7 15 8 16 12 17 10 18 9 19 11 21 31 23 18 25 27 26
REMARK SMILES IDX 19 27 25 28 20 29 23 30 28 31 26 33 21 35 22 36 24 38
REMARK H PARENT 9 20 11 22 31 24 28 32 26 34 22 37 24 39
REMARK Flexibility Score: inf
ROOT
ATOM      1  O   UNL     1      -6.546  87.948 -10.713  1.00  0.00    -0.462 OA
ENDROOT
BRANCH   1   2
ATOM      2  C   UNL     1      -5.951  89.128 -11.190  1.00  0.00     0.130 A 
ATOM      3  C   UNL     1      -4.519  91.540 -15.049  1.00  0.00     0.138 A 
ATOM      4  C   UNL     1      -4.058  92.621 -14.280  1.00  0.00     0.100 A 
ATOM      5  O   UNL     1      -5.059  90.487 -14.439  1.00  0.00    -0.456 OA
ATOM      6  C   UNL     1      -4.187  92.580 -12.892  1.00  0.00     0.197 A 
ATOM      7  C   UNL     1      -5.204  90.402 -13.120  1.00  0.00     0.146 A 
ATOM      8  O   UNL     1      -3.769  93.555 -12.210  1.00  0.00    -0.289 OA
ATOM      9  C   UNL     1      -4.775  91.455 -12.280  1.00  0.00     0.107 A 
ATOM     10  C   UNL     1      -5.787  89.257 -12.571  1.00  0.00     0.094 A 
ATOM     11  C   UNL     1      -4.947  91.334 -10.882  1.00  0.00     0.134 A 
ATOM     12  C   UNL     1      -5.535  90.178 -10.349  1.00  0.00     0.093 A 
BRANCH   3  13
ATOM     13  C   UNL     1      -4.407  91.526 -16.529  1.00  0.00     0.021 A 
ATOM     14  C   UNL     1      -3.172  91.719 -17.180  1.00  0.00     0.016 A 
ATOM     15  C   UNL     1      -3.098  91.710 -18.575  1.00  0.00     0.051 A 
ATOM     16  C   UNL     1      -4.252  91.519 -19.345  1.00  0.00     0.157 A 
ATOM     17  C   UNL     1      -5.563  91.348 -17.310  1.00  0.00     0.062 A 
ATOM     18  C   UNL     1      -5.490  91.338 -18.707  1.00  0.00     0.158 A 
BRANCH  16  19
ATOM     19  O   UNL     1      -4.173  91.510 -20.736  1.00  0.00    -0.504 OA
ATOM     20  H   UNL     1      -4.389  92.334 -21.286  1.00  0.00     0.293 HD
ENDBRANCH  16  19
BRANCH  18  21
ATOM     21  O   UNL     1      -6.659  91.149 -19.445  1.00  0.00    -0.504 OA
ATOM     22  H   UNL     1      -7.186  90.285 -19.407  1.00  0.00     0.293 HD
ENDBRANCH  18  21
ENDBRANCH   3  13
BRANCH  11  23
ATOM     23  O   UNL     1      -4.541  92.354 -10.020  1.00  0.00    -0.507 OA
ATOM     24  H   UNL     1      -5.198  92.845  -9.426  1.00  0.00     0.293 HD
ENDBRANCH  11  23
ENDBRANCH   1   2
BRANCH   1  25
ATOM     25  C   UNL     1      -6.316  87.316  -9.447  1.00  0.00     0.339 C 
ATOM     26  C   UNL     1      -6.146  85.787  -9.586  1.00  0.00     0.214 C 
ATOM     27  O   UNL     1      -7.358  87.645  -8.536  1.00  0.00    -0.332 OA
ATOM     28  C   UNL     1      -7.466  85.151 -10.035  1.00  0.00     0.180 C 
ATOM     29  C   UNL     1      -8.630  87.098  -8.878  1.00  0.00     0.179 C 
ATOM     30  C   UNL     1      -8.587  85.560  -9.065  1.00  0.00     0.177 C 
BRANCH  26  31
ATOM     31  O   UNL     1      -5.140  85.476 -10.515  1.00  0.00    -0.384 OA
ATOM     32  H   UNL     1      -5.132  86.207 -11.186  1.00  0.00     0.211 HD
ENDBRANCH  26  31
BRANCH  28  33
ATOM     33  O   UNL     1      -7.347  83.751 -10.104  1.00  0.00    -0.387 OA
ATOM     34  H   UNL     1      -7.892  83.437 -10.873  1.00  0.00     0.211 HD
ENDBRANCH  28  33
BRANCH  29  35
ATOM     35  C   UNL     1      -9.306  87.868 -10.039  1.00  0.00     0.191 C 
BRANCH  35  36
ATOM     36  O   UNL     1     -10.681  87.589 -10.089  1.00  0.00    -0.394 OA
ATOM     37  H   UNL     1     -10.809  86.703  -9.660  1.00  0.00     0.210 HD
ENDBRANCH  35  36
ENDBRANCH  29  35
BRANCH  30  38
ATOM     38  O   UNL     1      -9.829  85.091  -9.527  1.00  0.00    -0.387 OA
ATOM     39  H   UNL     1      -9.929  84.161  -9.196  1.00  0.00     0.211 HD
ENDBRANCH  30  38
ENDBRANCH   1  25
TORSDOF 11
ENDMDL
MODEL 5
REMARK VINA RESULT:    -5.914      3.830      6.514
REMARK INTER + INTRA:          -9.407
REMARK INTER:                  -8.415
REMARK INTRA:                  -0.992
REMARK UNBOUND:                -0.900
REMARK SMILES O=c1cc(-c2ccc(O)c(O)c2)oc2cc(O[C@H]3O[C@@H](CO)[C@@H](O)[C@H](O)[C@H]3O)cc(O)c12
REMARK SMILES IDX 17 1 16 2 4 3 3 4 13 5 2 6 14 7 1 8 32 9 15 10 30 11 29 12
REMARK SMILES IDX 5 13 6 14 7 15 8 16 12 17 10 18 9 19 11 21 31 23 18 25 27 26
REMARK SMILES IDX 19 27 25 28 20 29 23 30 28 31 26 33 21 35 22 36 24 38
REMARK H PARENT 9 20 11 22 31 24 28 32 26 34 22 37 24 39
REMARK Flexibility Score: inf
ROOT
ATOM      1  O   UNL     1      -6.845  86.730  -9.193  1.00  0.00    -0.462 OA
ENDROOT
BRANCH   1   2
ATOM      2  C   UNL     1      -6.361  88.009  -9.518  1.00  0.00     0.130 A 
ATOM      3  C   UNL     1      -5.193  91.004 -13.043  1.00  0.00     0.138 A 
ATOM      4  C   UNL     1      -4.818  92.015 -12.144  1.00  0.00     0.100 A 
ATOM      5  O   UNL     1      -5.632  89.839 -12.570  1.00  0.00    -0.456 OA
ATOM      6  C   UNL     1      -4.925  91.789 -10.771  1.00  0.00     0.197 A 
ATOM      7  C   UNL     1      -5.752  89.576 -11.272  1.00  0.00     0.146 A 
ATOM      8  O   UNL     1      -4.584  92.703  -9.972  1.00  0.00    -0.289 OA
ATOM      9  C   UNL     1      -5.405  90.548 -10.306  1.00  0.00     0.107 A 
ATOM     10  C   UNL     1      -6.226  88.325 -10.872  1.00  0.00     0.094 A 
ATOM     11  C   UNL     1      -5.548  90.238  -8.934  1.00  0.00     0.134 A 
ATOM     12  C   UNL     1      -6.027  88.976  -8.552  1.00  0.00     0.093 A 
BRANCH   3  13
ATOM     13  C   UNL     1      -5.099  91.186 -14.513  1.00  0.00     0.021 A 
ATOM     14  C   UNL     1      -5.502  90.179 -15.411  1.00  0.00     0.016 A 
ATOM     15  C   UNL     1      -5.393  90.375 -16.790  1.00  0.00     0.051 A 
ATOM     16  C   UNL     1      -4.874  91.572 -17.297  1.00  0.00     0.157 A 
ATOM     17  C   UNL     1      -4.566  92.380 -15.030  1.00  0.00     0.062 A 
ATOM     18  C   UNL     1      -4.457  92.579 -16.411  1.00  0.00     0.158 A 
BRANCH  16  19
ATOM     19  O   UNL     1      -4.768  91.763 -18.673  1.00  0.00    -0.504 OA
ATOM     20  H   UNL     1      -4.813  90.986 -19.323  1.00  0.00     0.293 HD
ENDBRANCH  16  19
BRANCH  18  21
ATOM     21  O   UNL     1      -3.931  93.781 -16.884  1.00  0.00    -0.504 OA
ATOM     22  H   UNL     1      -4.387  94.670 -16.720  1.00  0.00     0.293 HD
ENDBRANCH  18  21
ENDBRANCH   3  13
BRANCH  11  23
ATOM     23  O   UNL     1      -5.220  91.172  -7.951  1.00  0.00    -0.507 OA
ATOM     24  H   UNL     1      -4.464  91.015  -7.295  1.00  0.00     0.293 HD
ENDBRANCH  11  23
ENDBRANCH   1   2
BRANCH   1  25
ATOM     25  C   UNL     1      -6.299  85.819  -8.231  1.00  0.00     0.339 C 
ATOM     26  C   UNL     1      -5.425  84.732  -8.895  1.00  0.00     0.214 C 
ATOM     27  O   UNL     1      -7.341  85.246  -7.449  1.00  0.00    -0.332 OA
ATOM     28  C   UNL     1      -6.297  83.813  -9.758  1.00  0.00     0.180 C 
ATOM     29  C   UNL     1      -8.209  84.377  -8.174  1.00  0.00     0.179 C 
ATOM     30  C   UNL     1      -7.443  83.246  -8.906  1.00  0.00     0.177 C 
BRANCH  26  31
ATOM     31  O   UNL     1      -4.424  85.309  -9.693  1.00  0.00    -0.384 OA
ATOM     32  H   UNL     1      -4.163  84.627 -10.364  1.00  0.00     0.211 HD
ENDBRANCH  26  31
BRANCH  28  33
ATOM     33  O   UNL     1      -5.526  82.778 -10.319  1.00  0.00    -0.387 OA
ATOM     34  H   UNL     1      -5.099  82.278  -9.576  1.00  0.00     0.211 HD
ENDBRANCH  28  33
BRANCH  29  35
ATOM     35  C   UNL     1      -9.208  85.156  -9.063  1.00  0.00     0.191 C 
BRANCH  35  36
ATOM     36  O   UNL     1     -10.329  84.366  -9.363  1.00  0.00    -0.394 OA
ATOM     37  H   UNL     1     -10.208  84.039 -10.293  1.00  0.00     0.210 HD
ENDBRANCH  35  36
ENDBRANCH  29  35
BRANCH  30  38
ATOM     38  O   UNL     1      -8.325  82.500  -9.708  1.00  0.00    -0.387 OA
ATOM     39  H   UNL     1      -9.237  82.639  -9.343  1.00  0.00     0.211 HD
ENDBRANCH  30  38
ENDBRANCH   1  25
TORSDOF 11
ENDMDL
MODEL 6
REMARK VINA RESULT:    -5.907      4.994     10.080
REMARK INTER + INTRA:          -9.397
REMARK INTER:                  -8.376
REMARK INTRA:                  -1.022
REMARK UNBOUND:                -0.900
REMARK SMILES O=c1cc(-c2ccc(O)c(O)c2)oc2cc(O[C@H]3O[C@@H](CO)[C@@H](O)[C@H](O)[C@H]3O)cc(O)c12
REMARK SMILES IDX 17 1 16 2 4 3 3 4 13 5 2 6 14 7 1 8 32 9 15 10 30 11 29 12
REMARK SMILES IDX 5 13 6 14 7 15 8 16 12 17 10 18 9 19 11 21 31 23 18 25 27 26
REMARK SMILES IDX 19 27 25 28 20 29 23 30 28 31 26 33 21 35 22 36 24 38
REMARK H PARENT 9 20 11 22 31 24 28 32 26 34 22 37 24 39
REMARK Flexibility Score: inf
ROOT
ATOM      1  O   UNL     1      -6.248  92.148 -14.998  1.00  0.00    -0.462 OA
ENDROOT
BRANCH   1   2
ATOM      2  C   UNL     1      -5.974  91.790 -13.666  1.00  0.00     0.130 A 
ATOM      3  C   UNL     1      -6.144  88.315 -10.402  1.00  0.00     0.138 A 
ATOM      4  C   UNL     1      -5.593  89.138  -9.406  1.00  0.00     0.100 A 
ATOM      5  O   UNL     1      -6.344  88.810 -11.622  1.00  0.00    -0.456 OA
ATOM      6  C   UNL     1      -5.252  90.455  -9.714  1.00  0.00     0.197 A 
ATOM      7  C   UNL     1      -6.035  90.058 -11.963  1.00  0.00     0.146 A 
ATOM      8  O   UNL     1      -4.760  91.186  -8.812  1.00  0.00    -0.289 OA
ATOM      9  C   UNL     1      -5.467  90.943 -11.019  1.00  0.00     0.107 A 
ATOM     10  C   UNL     1      -6.280  90.486 -13.270  1.00  0.00     0.094 A 
ATOM     11  C   UNL     1      -5.147  92.261 -11.416  1.00  0.00     0.134 A 
ATOM     12  C   UNL     1      -5.398  92.673 -12.734  1.00  0.00     0.093 A 
BRANCH   3  13
ATOM     13  C   UNL     1      -6.528  86.907 -10.133  1.00  0.00     0.021 A 
ATOM     14  C   UNL     1      -7.801  86.570  -9.632  1.00  0.00     0.016 A 
ATOM     15  C   UNL     1      -8.131  85.237  -9.379  1.00  0.00     0.051 A 
ATOM     16  C   UNL     1      -7.198  84.218  -9.610  1.00  0.00     0.157 A 
ATOM     17  C   UNL     1      -5.592  85.881 -10.350  1.00  0.00     0.062 A 
ATOM     18  C   UNL     1      -5.921  84.544 -10.097  1.00  0.00     0.158 A 
BRANCH  16  19
ATOM     19  O   UNL     1      -7.532  82.890  -9.357  1.00  0.00    -0.504 OA
ATOM     20  H   UNL     1      -8.490  82.607  -9.180  1.00  0.00     0.293 HD
ENDBRANCH  16  19
BRANCH  18  21
ATOM     21  O   UNL     1      -4.968  83.554 -10.334  1.00  0.00    -0.504 OA
ATOM     22  H   UNL     1      -4.726  82.861  -9.637  1.00  0.00     0.293 HD
ENDBRANCH  18  21
ENDBRANCH   3  13
BRANCH  11  23
ATOM     23  O   UNL     1      -4.580  93.163 -10.514  1.00  0.00    -0.507 OA
ATOM     24  H   UNL     1      -4.351  92.895  -9.564  1.00  0.00     0.293 HD
ENDBRANCH  11  23
ENDBRANCH   1   2
BRANCH   1  25
ATOM     25  C   UNL     1      -5.593  93.159 -15.773  1.00  0.00     0.339 C 
ATOM     26  C   UNL     1      -6.560  93.851 -16.758  1.00  0.00     0.214 C 
ATOM     27  O   UNL     1      -4.465  92.611 -16.445  1.00  0.00    -0.332 OA
ATOM     28  C   UNL     1      -7.013  92.857 -17.833  1.00  0.00     0.180 C 
ATOM     29  C   UNL     1      -4.792  91.668 -17.464  1.00  0.00     0.179 C 
ATOM     30  C   UNL     1      -5.779  92.241 -18.512  1.00  0.00     0.177 C 
BRANCH  26  31
ATOM     31  O   UNL     1      -7.686  94.356 -16.086  1.00  0.00    -0.384 OA
ATOM     32  H   UNL     1      -7.674  93.967 -15.174  1.00  0.00     0.211 HD
ENDBRANCH  26  31
BRANCH  28  33
ATOM     33  O   UNL     1      -7.845  93.488 -18.777  1.00  0.00    -0.387 OA
ATOM     34  H   UNL     1      -8.691  93.735 -18.320  1.00  0.00     0.211 HD
ENDBRANCH  28  33
BRANCH  29  35
ATOM     35  C   UNL     1      -5.201  90.293 -16.880  1.00  0.00     0.191 C 
BRANCH  35  36
ATOM     36  O   UNL     1      -4.281  89.872 -15.906  1.00  0.00    -0.394 OA
ATOM     37  H   UNL     1      -4.631  89.023 -15.530  1.00  0.00     0.210 HD
ENDBRANCH  35  36
ENDBRANCH  29  35
BRANCH  30  38
ATOM     38  O   UNL     1      -6.170  91.236 -19.415  1.00  0.00    -0.387 OA
ATOM     39  H   UNL     1      -7.158  91.168 -19.364  1.00  0.00     0.211 HD
ENDBRANCH  30  38
ENDBRANCH   1  25
TORSDOF 11
ENDMDL
MODEL 7
REMARK VINA RESULT:    -5.887      2.922      8.236
REMARK INTER + INTRA:          -9.368
REMARK INTER:                  -8.285
REMARK INTRA:                  -1.082
REMARK UNBOUND:                -0.900
REMARK SMILES O=c1cc(-c2ccc(O)c(O)c2)oc2cc(O[C@H]3O[C@@H](CO)[C@@H](O)[C@H](O)[C@H]3O)cc(O)c12
REMARK SMILES IDX 17 1 16 2 4 3 3 4 13 5 2 6 14 7 1 8 32 9 15 10 30 11 29 12
REMARK SMILES IDX 5 13 6 14 7 15 8 16 12 17 10 18 9 19 11 21 31 23 18 25 27 26
REMARK SMILES IDX 19 27 25 28 20 29 23 30 28 31 26 33 21 35 22 36 24 38
REMARK H PARENT 9 20 11 22 31 24 28 32 26 34 22 37 24 39
REMARK Flexibility Score: inf
ROOT
ATOM      1  O   UNL     1      -7.034  84.137  -8.717  1.00  0.00    -0.462 OA
ENDROOT
BRANCH   1   2
ATOM      2  C   UNL     1      -8.400  83.810  -8.739  1.00  0.00     0.130 A 
ATOM      3  C   UNL     1     -12.830  85.430  -9.455  1.00  0.00     0.138 A 
ATOM      4  C   UNL     1     -13.400  84.175  -9.188  1.00  0.00     0.100 A 
ATOM      5  O   UNL     1     -11.508  85.575  -9.389  1.00  0.00    -0.456 OA
ATOM      6  C   UNL     1     -12.572  83.097  -8.873  1.00  0.00     0.197 A 
ATOM      7  C   UNL     1     -10.678  84.579  -9.093  1.00  0.00     0.146 A 
ATOM      8  O   UNL     1     -13.093  81.974  -8.633  1.00  0.00    -0.289 OA
ATOM      9  C   UNL     1     -11.176  83.284  -8.823  1.00  0.00     0.107 A 
ATOM     10  C   UNL     1      -9.304  84.828  -9.051  1.00  0.00     0.094 A 
ATOM     11  C   UNL     1     -10.265  82.247  -8.515  1.00  0.00     0.134 A 
ATOM     12  C   UNL     1      -8.889  82.516  -8.480  1.00  0.00     0.093 A 
BRANCH   3  13
ATOM     13  C   UNL     1     -13.661  86.612  -9.794  1.00  0.00     0.021 A 
ATOM     14  C   UNL     1     -13.083  87.829 -10.206  1.00  0.00     0.016 A 
ATOM     15  C   UNL     1     -13.890  88.929 -10.509  1.00  0.00     0.051 A 
ATOM     16  C   UNL     1     -15.283  88.838 -10.400  1.00  0.00     0.157 A 
ATOM     17  C   UNL     1     -15.060  86.533  -9.674  1.00  0.00     0.062 A 
ATOM     18  C   UNL     1     -15.869  87.633  -9.978  1.00  0.00     0.158 A 
BRANCH  16  19
ATOM     19  O   UNL     1     -16.083  89.937 -10.704  1.00  0.00    -0.504 OA
ATOM     20  H   UNL     1     -17.024  89.826 -11.066  1.00  0.00     0.293 HD
ENDBRANCH  16  19
BRANCH  18  21
ATOM     21  O   UNL     1     -17.254  87.511  -9.855  1.00  0.00    -0.504 OA
ATOM     22  H   UNL     1     -17.894  88.102 -10.371  1.00  0.00     0.293 HD
ENDBRANCH  18  21
ENDBRANCH   3  13
BRANCH  11  23
ATOM     23  O   UNL     1     -10.717  80.954  -8.248  1.00  0.00    -0.507 OA
ATOM     24  H   UNL     1     -10.290  80.376  -7.533  1.00  0.00     0.293 HD
ENDBRANCH  11  23
ENDBRANCH   1   2
BRANCH   1  25
ATOM     25  C   UNL     1      -6.261  84.689  -9.790  1.00  0.00     0.339 C 
ATOM     26  C   UNL     1      -5.027  83.821 -10.121  1.00  0.00     0.214 C 
ATOM     27  O   UNL     1      -5.892  86.030  -9.491  1.00  0.00    -0.332 OA
ATOM     28  C   UNL     1      -4.035  83.853  -8.953  1.00  0.00     0.180 C 
ATOM     29  C   UNL     1      -4.971  86.158  -8.409  1.00  0.00     0.179 C 
ATOM     30  C   UNL     1      -3.689  85.313  -8.615  1.00  0.00     0.177 C 
BRANCH  26  31
ATOM     31  O   UNL     1      -5.401  82.492 -10.377  1.00  0.00    -0.384 OA
ATOM     32  H   UNL     1      -6.382  82.493 -10.524  1.00  0.00     0.211 HD
ENDBRANCH  26  31
BRANCH  28  33
ATOM     33  O   UNL     1      -2.875  83.120  -9.263  1.00  0.00    -0.387 OA
ATOM     34  H   UNL     1      -2.680  82.519  -8.497  1.00  0.00     0.211 HD
ENDBRANCH  28  33
BRANCH  29  35
ATOM     35  C   UNL     1      -5.655  85.965  -7.033  1.00  0.00     0.191 C 
BRANCH  35  36
ATOM     36  O   UNL     1      -4.992  86.702  -6.039  1.00  0.00    -0.394 OA
ATOM     37  H   UNL     1      -4.309  86.099  -5.644  1.00  0.00     0.210 HD
ENDBRANCH  35  36
ENDBRANCH  29  35
BRANCH  30  38
ATOM     38  O   UNL     1      -2.879  85.369  -7.468  1.00  0.00    -0.387 OA
ATOM     39  H   UNL     1      -2.749  86.329  -7.251  1.00  0.00     0.211 HD
ENDBRANCH  30  38
ENDBRANCH   1  25
TORSDOF 11
ENDMDL
MODEL 8
REMARK VINA RESULT:    -5.822      3.273      8.381
REMARK INTER + INTRA:          -9.274
REMARK INTER:                  -8.273
REMARK INTRA:                  -1.001
REMARK UNBOUND:                -0.900
REMARK SMILES O=c1cc(-c2ccc(O)c(O)c2)oc2cc(O[C@H]3O[C@@H](CO)[C@@H](O)[C@H](O)[C@H]3O)cc(O)c12
REMARK SMILES IDX 17 1 16 2 4 3 3 4 13 5 2 6 14 7 1 8 32 9 15 10 30 11 29 12
REMARK SMILES IDX 5 13 6 14 7 15 8 16 12 17 10 18 9 19 11 21 31 23 18 25 27 26
REMARK SMILES IDX 19 27 25 28 20 29 23 30 28 31 26 33 21 35 22 36 24 38
REMARK H PARENT 9 20 11 22 31 24 28 32 26 34 22 37 24 39
REMARK Flexibility Score: inf
ROOT
ATOM      1  O   UNL     1      -7.310  84.406  -8.214  1.00  0.00    -0.462 OA
ENDROOT
BRANCH   1   2
ATOM      2  C   UNL     1      -8.641  84.040  -8.476  1.00  0.00     0.130 A 
ATOM      3  C   UNL     1     -13.016  85.599  -9.568  1.00  0.00     0.138 A 
ATOM      4  C   UNL     1     -13.547  84.299  -9.568  1.00  0.00     0.100 A 
ATOM      5  O   UNL     1     -11.725  85.778  -9.296  1.00  0.00    -0.456 OA
ATOM      6  C   UNL     1     -12.711  83.215  -9.298  1.00  0.00     0.197 A 
ATOM      7  C   UNL     1     -10.889  84.777  -9.033  1.00  0.00     0.146 A 
ATOM      8  O   UNL     1     -13.198  82.052  -9.300  1.00  0.00    -0.289 OA
ATOM      9  C   UNL     1     -11.347  83.440  -9.026  1.00  0.00     0.107 A 
ATOM     10  C   UNL     1      -9.549  85.063  -8.762  1.00  0.00     0.094 A 
ATOM     11  C   UNL     1     -10.431  82.400  -8.746  1.00  0.00     0.134 A 
ATOM     12  C   UNL     1      -9.089  82.706  -8.478  1.00  0.00     0.093 A 
BRANCH   3  13
ATOM     13  C   UNL     1     -13.857  86.790  -9.846  1.00  0.00     0.021 A 
ATOM     14  C   UNL     1     -13.291  88.023 -10.228  1.00  0.00     0.016 A 
ATOM     15  C   UNL     1     -14.107  89.130 -10.473  1.00  0.00     0.051 A 
ATOM     16  C   UNL     1     -15.497  89.031 -10.335  1.00  0.00     0.157 A 
ATOM     17  C   UNL     1     -15.252  86.703  -9.696  1.00  0.00     0.062 A 
ATOM     18  C   UNL     1     -16.071  87.811  -9.942  1.00  0.00     0.158 A 
BRANCH  16  19
ATOM     19  O   UNL     1     -16.306  90.138 -10.582  1.00  0.00    -0.504 OA
ATOM     20  H   UNL     1     -17.265  90.036 -10.895  1.00  0.00     0.293 HD
ENDBRANCH  16  19
BRANCH  18  21
ATOM     21  O   UNL     1     -17.451  87.681  -9.792  1.00  0.00    -0.504 OA
ATOM     22  H   UNL     1     -17.893  87.649  -8.881  1.00  0.00     0.293 HD
ENDBRANCH  18  21
ENDBRANCH   3  13
BRANCH  11  23
ATOM     23  O   UNL     1     -10.844  81.067  -8.735  1.00  0.00    -0.507 OA
ATOM     24  H   UNL     1     -10.441  80.377  -9.360  1.00  0.00     0.293 HD
ENDBRANCH  11  23
ENDBRANCH   1   2
BRANCH   1  25
ATOM     25  C   UNL     1      -6.546  84.105  -7.040  1.00  0.00     0.339 C 
ATOM     26  C   UNL     1      -5.587  85.255  -6.662  1.00  0.00     0.214 C 
ATOM     27  O   UNL     1      -5.849  82.876  -7.209  1.00  0.00    -0.332 OA
ATOM     28  C   UNL     1      -4.498  85.403  -7.731  1.00  0.00     0.180 C 
ATOM     29  C   UNL     1      -4.816  82.919  -8.192  1.00  0.00     0.179 C 
ATOM     30  C   UNL     1      -3.792  84.052  -7.932  1.00  0.00     0.177 C 
BRANCH  26  31
ATOM     31  O   UNL     1      -6.282  86.468  -6.535  1.00  0.00    -0.384 OA
ATOM     32  H   UNL     1      -7.202  86.309  -6.873  1.00  0.00     0.211 HD
ENDBRANCH  26  31
BRANCH  28  33
ATOM     33  O   UNL     1      -3.578  86.404  -7.370  1.00  0.00    -0.387 OA
ATOM     34  H   UNL     1      -2.915  86.487  -8.105  1.00  0.00     0.211 HD
ENDBRANCH  28  33
BRANCH  29  35
ATOM     35  C   UNL     1      -5.379  82.878  -9.633  1.00  0.00     0.191 C 
BRANCH  35  36
ATOM     36  O   UNL     1      -4.381  82.505 -10.548  1.00  0.00    -0.394 OA
ATOM     37  H   UNL     1      -3.601  83.095 -10.377  1.00  0.00     0.210 HD
ENDBRANCH  35  36
ENDBRANCH  29  35
BRANCH  30  38
ATOM     38  O   UNL     1      -2.875  84.134  -8.995  1.00  0.00    -0.387 OA
ATOM     39  H   UNL     1      -3.401  84.300  -9.819  1.00  0.00     0.211 HD
ENDBRANCH  30  38
ENDBRANCH   1  25
TORSDOF 11
ENDMDL
MODEL 9
REMARK VINA RESULT:    -5.730      3.938      9.345
REMARK INTER + INTRA:          -9.142
REMARK INTER:                  -7.991
REMARK INTRA:                  -1.151
REMARK UNBOUND:                -0.900
REMARK SMILES O=c1cc(-c2ccc(O)c(O)c2)oc2cc(O[C@H]3O[C@@H](CO)[C@@H](O)[C@H](O)[C@H]3O)cc(O)c12
REMARK SMILES IDX 17 1 16 2 4 3 3 4 13 5 2 6 14 7 1 8 32 9 15 10 30 11 29 12
REMARK SMILES IDX 5 13 6 14 7 15 8 16 12 17 10 18 9 19 11 21 31 23 18 25 27 26
REMARK SMILES IDX 19 27 25 28 20 29 23 30 28 31 26 33 21 35 22 36 24 38
REMARK H PARENT 9 20 11 22 31 24 28 32 26 34 22 37 24 39
REMARK Flexibility Score: inf
ROOT
ATOM      1  O   UNL     1      -6.185  90.592 -13.103  1.00  0.00    -0.462 OA
ENDROOT
BRANCH   1   2
ATOM      2  C   UNL     1      -6.889  89.792 -12.187  1.00  0.00     0.130 A 
ATOM      3  C   UNL     1      -6.766  85.876  -9.465  1.00  0.00     0.138 A 
ATOM      4  C   UNL     1      -8.067  86.092  -8.985  1.00  0.00     0.100 A 
ATOM      5  O   UNL     1      -6.240  86.733 -10.338  1.00  0.00    -0.456 OA
ATOM      6  C   UNL     1      -8.783  87.208  -9.419  1.00  0.00     0.197 A 
ATOM      7  C   UNL     1      -6.882  87.810 -10.780  1.00  0.00     0.146 A 
ATOM      8  O   UNL     1      -9.952  87.393  -8.983  1.00  0.00    -0.289 OA
ATOM      9  C   UNL     1      -8.191  88.101 -10.335  1.00  0.00     0.107 A 
ATOM     10  C   UNL     1      -6.246  88.654 -11.695  1.00  0.00     0.094 A 
ATOM     11  C   UNL     1      -8.844  89.257 -10.822  1.00  0.00     0.134 A 
ATOM     12  C   UNL     1      -8.189  90.093 -11.739  1.00  0.00     0.093 A 
BRANCH   3  13
ATOM     13  C   UNL     1      -5.957  84.705  -9.040  1.00  0.00     0.021 A 
ATOM     14  C   UNL     1      -5.814  84.358  -7.683  1.00  0.00     0.016 A 
ATOM     15  C   UNL     1      -5.039  83.257  -7.312  1.00  0.00     0.051 A 
ATOM     16  C   UNL     1      -4.387  82.489  -8.285  1.00  0.00     0.157 A 
ATOM     17  C   UNL     1      -5.289  83.937 -10.010  1.00  0.00     0.062 A 
ATOM     18  C   UNL     1      -4.513  82.833  -9.640  1.00  0.00     0.158 A 
BRANCH  16  19
ATOM     19  O   UNL     1      -3.616  81.391  -7.910  1.00  0.00    -0.504 OA
ATOM     20  H   UNL     1      -4.039  80.503  -7.662  1.00  0.00     0.293 HD
ENDBRANCH  16  19
BRANCH  18  21
ATOM     21  O   UNL     1      -3.873  82.091 -10.633  1.00  0.00    -0.504 OA
ATOM     22  H   UNL     1      -3.955  81.083 -10.689  1.00  0.00     0.293 HD
ENDBRANCH  18  21
ENDBRANCH   3  13
BRANCH  11  23
ATOM     23  O   UNL     1     -10.134  89.580 -10.402  1.00  0.00    -0.507 OA
ATOM     24  H   UNL     1     -10.758  88.886 -10.008  1.00  0.00     0.293 HD
ENDBRANCH  11  23
ENDBRANCH   1   2
BRANCH   1  25
ATOM     25  C   UNL     1      -4.869  91.135 -12.942  1.00  0.00     0.339 C 
ATOM     26  C   UNL     1      -4.853  92.672 -13.098  1.00  0.00     0.214 C 
ATOM     27  O   UNL     1      -3.964  90.509 -13.843  1.00  0.00    -0.332 OA
ATOM     28  C   UNL     1      -5.190  93.055 -14.544  1.00  0.00     0.180 C 
ATOM     29  C   UNL     1      -4.206  90.805 -15.218  1.00  0.00     0.179 C 
ATOM     30  C   UNL     1      -4.233  92.328 -15.503  1.00  0.00     0.177 C 
BRANCH  26  31
ATOM     31  O   UNL     1      -5.777  93.275 -12.229  1.00  0.00    -0.384 OA
ATOM     32  H   UNL     1      -6.561  93.534 -12.779  1.00  0.00     0.211 HD
ENDBRANCH  26  31
BRANCH  28  33
ATOM     33  O   UNL     1      -5.118  94.449 -14.720  1.00  0.00    -0.387 OA
ATOM     34  H   UNL     1      -4.850  94.852 -13.853  1.00  0.00     0.211 HD
ENDBRANCH  28  33
BRANCH  29  35
ATOM     35  C   UNL     1      -5.418  90.024 -15.780  1.00  0.00     0.191 C 
BRANCH  35  36
ATOM     36  O   UNL     1      -5.462  88.724 -15.252  1.00  0.00    -0.394 OA
ATOM     37  H   UNL     1      -4.525  88.395 -15.225  1.00  0.00     0.210 HD
ENDBRANCH  35  36
ENDBRANCH  29  35
BRANCH  30  38
ATOM     38  O   UNL     1      -4.604  92.568 -16.837  1.00  0.00    -0.387 OA
ATOM     39  H   UNL     1      -5.525  92.937 -16.821  1.00  0.00     0.211 HD
ENDBRANCH  30  38
ENDBRANCH   1  25
TORSDOF 11
ENDMDL
