MODEL 1
REMARK VINA RESULT:    -4.982      0.000      0.000
REMARK INTER + INTRA:          -9.381
REMARK INTER:                  -7.895
REMARK INTRA:                  -1.486
REMARK UNBOUND:                -1.486
REMARK SMILES CCCCCCCCCCCC(=O)[O-]
REMARK SMILES IDX 7 1 8 2 9 3 10 4 11 5 12 6 13 7 14 8 6 9 5 10 4 11 3 12 2 13
REMARK SMILES IDX 1 14
REMARK H PARENT
REMARK Flexibility Score: inf
ROOT
ATOM      1  C   UNL     1      -9.912 -17.765  32.171  1.00  0.00     0.000 C 
ENDROOT
BRANCH   1   2
ATOM      2  C   UNL     1     -10.961 -16.711  32.549  1.00  0.00     0.000 C 
BRANCH   2   3
ATOM      3  C   UNL     1     -10.657 -15.366  31.872  1.00  0.00     0.000 C 
BRANCH   3   4
ATOM      4  C   UNL     1      -9.354 -15.394  31.058  1.00  0.00     0.006 C 
BRANCH   4   5
ATOM      5  C   UNL     1      -8.224 -14.599  31.726  1.00  0.00     0.053 C 
BRANCH   5   6
ATOM      6  C   UNL     1      -6.909 -15.281  31.511  1.00  0.00     0.041 C 
ATOM      7  O   UNL     1      -6.191 -14.977  30.523  1.00  0.00    -0.550 OA
ATOM      8  O   UNL     1      -6.501 -16.290  32.375  1.00  0.00    -0.550 OA
ENDBRANCH   5   6
ENDBRANCH   4   5
ENDBRANCH   3   4
ENDBRANCH   2   3
ENDBRANCH   1   2
BRANCH   1   9
ATOM      9  C   UNL     1     -10.555 -18.932  31.406  1.00  0.00     0.000 C 
BRANCH   9  10
ATOM     10  C   UNL     1     -10.201 -18.924  29.911  1.00  0.00    -0.000 C 
BRANCH  10  11
ATOM     11  C   UNL     1     -11.426 -18.674  29.014  1.00  0.00    -0.000 C 
BRANCH  11  12
ATOM     12  C   UNL     1     -11.496 -17.229  28.491  1.00  0.00    -0.000 C 
BRANCH  12  13
ATOM     13  C   UNL     1     -12.682 -16.406  29.026  1.00  0.00    -0.003 C 
ATOM     14  C   UNL     1     -13.577 -17.198  29.979  1.00  0.00     0.004 C 
ENDBRANCH  12  13
ENDBRANCH  11  12
ENDBRANCH  10  11
ENDBRANCH   9  10
ENDBRANCH   1   9
TORSDOF 10
ENDMDL
MODEL 2
REMARK VINA RESULT:    -4.735      2.577      4.796
REMARK INTER + INTRA:          -8.989
REMARK INTER:                  -8.029
REMARK INTRA:                  -0.960
REMARK UNBOUND:                -1.486
REMARK SMILES CCCCCCCCCCCC(=O)[O-]
REMARK SMILES IDX 7 1 8 2 9 3 10 4 11 5 12 6 13 7 14 8 6 9 5 10 4 11 3 12 2 13
REMARK SMILES IDX 1 14
REMARK H PARENT
REMARK Flexibility Score: inf
ROOT
ATOM      1  C   UNL     1     -10.894 -18.506  29.494  1.00  0.00     0.000 C 
ENDROOT
BRANCH   1   2
ATOM      2  C   UNL     1     -11.956 -17.469  29.880  1.00  0.00     0.000 C 
BRANCH   2   3
ATOM      3  C   UNL     1     -11.851 -16.219  28.995  1.00  0.00     0.000 C 
BRANCH   3   4
ATOM      4  C   UNL     1     -10.644 -16.266  28.045  1.00  0.00     0.006 C 
BRANCH   4   5
ATOM      5  C   UNL     1     -10.918 -15.563  26.708  1.00  0.00     0.053 C 
BRANCH   5   6
ATOM      6  C   UNL     1      -9.675 -14.900  26.203  1.00  0.00     0.041 C 
ATOM      7  O   UNL     1      -8.547 -15.249  26.642  1.00  0.00    -0.550 OA
ATOM      8  O   UNL     1      -9.765 -13.861  25.285  1.00  0.00    -0.550 OA
ENDBRANCH   5   6
ENDBRANCH   4   5
ENDBRANCH   3   4
ENDBRANCH   2   3
ENDBRANCH   1   2
BRANCH   1   9
ATOM      9  C   UNL     1     -10.123 -18.992  30.730  1.00  0.00     0.000 C 
BRANCH   9  10
ATOM     10  C   UNL     1     -10.090 -17.944  31.854  1.00  0.00    -0.000 C 
BRANCH  10  11
ATOM     11  C   UNL     1      -8.779 -17.139  31.875  1.00  0.00    -0.000 C 
BRANCH  11  12
ATOM     12  C   UNL     1      -8.989 -15.651  31.544  1.00  0.00    -0.000 C 
BRANCH  12  13
ATOM     13  C   UNL     1      -7.710 -14.891  31.148  1.00  0.00    -0.003 C 
ATOM     14  C   UNL     1      -7.532 -13.582  31.914  1.00  0.00     0.004 C 
ENDBRANCH  12  13
ENDBRANCH  11  12
ENDBRANCH  10  11
ENDBRANCH   9  10
ENDBRANCH   1   9
TORSDOF 10
ENDMDL
MODEL 3
REMARK VINA RESULT:    -4.713      1.794      3.265
REMARK INTER + INTRA:          -8.954
REMARK INTER:                  -8.051
REMARK INTRA:                  -0.903
REMARK UNBOUND:                -1.486
REMARK SMILES CCCCCCCCCCCC(=O)[O-]
REMARK SMILES IDX 7 1 8 2 9 3 10 4 11 5 12 6 13 7 14 8 6 9 5 10 4 11 3 12 2 13
REMARK SMILES IDX 1 14
REMARK H PARENT
REMARK Flexibility Score: inf
ROOT
ATOM      1  C   UNL     1     -11.988 -18.684  29.204  1.00  0.00     0.000 C 
ENDROOT
BRANCH   1   2
ATOM      2  C   UNL     1     -10.637 -18.585  29.924  1.00  0.00     0.000 C 
BRANCH   2   3
ATOM      3  C   UNL     1     -10.817 -18.677  31.446  1.00  0.00     0.000 C 
BRANCH   3   4
ATOM      4  C   UNL     1     -10.214 -17.474  32.188  1.00  0.00     0.006 C 
BRANCH   4   5
ATOM      5  C   UNL     1      -9.661 -16.408  31.233  1.00  0.00     0.053 C 
BRANCH   5   6
ATOM      6  C   UNL     1      -8.211 -16.163  31.507  1.00  0.00     0.041 C 
ATOM      7  O   UNL     1      -7.624 -15.180  30.984  1.00  0.00    -0.550 OA
ATOM      8  O   UNL     1      -7.494 -17.051  32.300  1.00  0.00    -0.550 OA
ENDBRANCH   5   6
ENDBRANCH   4   5
ENDBRANCH   3   4
ENDBRANCH   2   3
ENDBRANCH   1   2
BRANCH   1   9
ATOM      9  C   UNL     1     -12.945 -17.579  29.676  1.00  0.00     0.000 C 
BRANCH   9  10
ATOM     10  C   UNL     1     -12.639 -16.218  29.032  1.00  0.00    -0.000 C 
BRANCH  10  11
ATOM     11  C   UNL     1     -12.100 -16.349  27.597  1.00  0.00    -0.000 C 
BRANCH  11  12
ATOM     12  C   UNL     1     -10.644 -15.868  27.461  1.00  0.00    -0.000 C 
BRANCH  12  13
ATOM     13  C   UNL     1     -10.314 -15.184  26.122  1.00  0.00    -0.003 C 
ATOM     14  C   UNL     1      -8.924 -14.549  26.103  1.00  0.00     0.004 C 
ENDBRANCH  12  13
ENDBRANCH  11  12
ENDBRANCH  10  11
ENDBRANCH   9  10
ENDBRANCH   1   9
TORSDOF 10
ENDMDL
MODEL 4
REMARK VINA RESULT:    -4.685      2.952      4.539
REMARK INTER + INTRA:          -8.909
REMARK INTER:                  -8.405
REMARK INTRA:                  -0.504
REMARK UNBOUND:                -1.486
REMARK SMILES CCCCCCCCCCCC(=O)[O-]
REMARK SMILES IDX 7 1 8 2 9 3 10 4 11 5 12 6 13 7 14 8 6 9 5 10 4 11 3 12 2 13
REMARK SMILES IDX 1 14
REMARK H PARENT
REMARK Flexibility Score: inf
ROOT
ATOM      1  C   UNL     1     -13.063 -16.464  28.915  1.00  0.00     0.000 C 
ENDROOT
BRANCH   1   2
ATOM      2  C   UNL     1     -13.105 -16.894  30.387  1.00  0.00     0.000 C 
BRANCH   2   3
ATOM      3  C   UNL     1     -11.854 -16.410  31.136  1.00  0.00     0.000 C 
BRANCH   3   4
ATOM      4  C   UNL     1     -11.740 -17.009  32.547  1.00  0.00     0.006 C 
BRANCH   4   5
ATOM      5  C   UNL     1     -11.025 -18.366  32.557  1.00  0.00     0.053 C 
BRANCH   5   6
ATOM      6  C   UNL     1      -9.853 -18.345  31.626  1.00  0.00     0.041 C 
ATOM      7  O   UNL     1      -8.829 -17.670  31.912  1.00  0.00    -0.550 OA
ATOM      8  O   UNL     1      -9.911 -19.030  30.420  1.00  0.00    -0.550 OA
ENDBRANCH   5   6
ENDBRANCH   4   5
ENDBRANCH   3   4
ENDBRANCH   2   3
ENDBRANCH   1   2
BRANCH   1   9
ATOM      9  C   UNL     1     -11.685 -16.744  28.299  1.00  0.00     0.000 C 
BRANCH   9  10
ATOM     10  C   UNL     1     -11.436 -15.934  27.016  1.00  0.00    -0.000 C 
BRANCH  10  11
ATOM     11  C   UNL     1      -9.955 -15.565  26.827  1.00  0.00    -0.000 C 
BRANCH  11  12
ATOM     12  C   UNL     1      -9.748 -14.445  25.791  1.00  0.00    -0.000 C 
BRANCH  12  13
ATOM     13  C   UNL     1      -8.363 -13.775  25.834  1.00  0.00    -0.003 C 
ATOM     14  C   UNL     1      -7.289 -14.662  26.463  1.00  0.00     0.004 C 
ENDBRANCH  12  13
ENDBRANCH  11  12
ENDBRANCH  10  11
ENDBRANCH   9  10
ENDBRANCH   1   9
TORSDOF 10
ENDMDL
MODEL 5
REMARK VINA RESULT:    -4.680      2.728      4.725
REMARK INTER + INTRA:          -8.902
REMARK INTER:                  -7.716
REMARK INTRA:                  -1.186
REMARK UNBOUND:                -1.486
REMARK SMILES CCCCCCCCCCCC(=O)[O-]
REMARK SMILES IDX 7 1 8 2 9 3 10 4 11 5 12 6 13 7 14 8 6 9 5 10 4 11 3 12 2 13
REMARK SMILES IDX 1 14
REMARK H PARENT
REMARK Flexibility Score: inf
ROOT
ATOM      1  C   UNL     1     -13.494 -17.124  29.618  1.00  0.00     0.000 C 
ENDROOT
BRANCH   1   2
ATOM      2  C   UNL     1     -12.819 -16.214  28.584  1.00  0.00     0.000 C 
BRANCH   2   3
ATOM      3  C   UNL     1     -11.645 -16.933  27.902  1.00  0.00     0.000 C 
BRANCH   3   4
ATOM      4  C   UNL     1     -10.469 -15.991  27.600  1.00  0.00     0.006 C 
BRANCH   4   5
ATOM      5  C   UNL     1     -10.634 -15.248  26.269  1.00  0.00     0.053 C 
BRANCH   5   6
ATOM      6  C   UNL     1      -9.364 -14.548  25.900  1.00  0.00     0.041 C 
ATOM      7  O   UNL     1      -8.274 -14.891  26.430  1.00  0.00    -0.550 OA
ATOM      8  O   UNL     1      -9.390 -13.483  25.008  1.00  0.00    -0.550 OA
ENDBRANCH   5   6
ENDBRANCH   4   5
ENDBRANCH   3   4
ENDBRANCH   2   3
ENDBRANCH   1   2
BRANCH   1   9
ATOM      9  C   UNL     1     -12.623 -18.354  29.920  1.00  0.00     0.000 C 
BRANCH   9  10
ATOM     10  C   UNL     1     -12.479 -18.618  31.427  1.00  0.00    -0.000 C 
BRANCH  10  11
ATOM     11  C   UNL     1     -11.150 -18.091  31.996  1.00  0.00    -0.000 C 
BRANCH  11  12
ATOM     12  C   UNL     1     -11.288 -16.701  32.642  1.00  0.00    -0.000 C 
BRANCH  12  13
ATOM     13  C   UNL     1     -10.631 -15.554  31.854  1.00  0.00    -0.003 C 
ATOM     14  C   UNL     1      -9.342 -15.976  31.150  1.00  0.00     0.004 C 
ENDBRANCH  12  13
ENDBRANCH  11  12
ENDBRANCH  10  11
ENDBRANCH   9  10
ENDBRANCH   1   9
TORSDOF 10
ENDMDL
MODEL 6
REMARK VINA RESULT:    -4.662      1.697      2.565
REMARK INTER + INTRA:          -8.873
REMARK INTER:                  -7.911
REMARK INTRA:                  -0.963
REMARK UNBOUND:                -1.486
REMARK SMILES CCCCCCCCCCCC(=O)[O-]
REMARK SMILES IDX 7 1 8 2 9 3 10 4 11 5 12 6 13 7 14 8 6 9 5 10 4 11 3 12 2 13
REMARK SMILES IDX 1 14
REMARK H PARENT
REMARK Flexibility Score: inf
ROOT
ATOM      1  C   UNL     1     -10.861 -15.764  31.682  1.00  0.00     0.000 C 
ENDROOT
BRANCH   1   2
ATOM      2  C   UNL     1      -9.715 -16.440  30.919  1.00  0.00     0.000 C 
BRANCH   2   3
ATOM      3  C   UNL     1      -8.671 -17.011  31.889  1.00  0.00     0.000 C 
BRANCH   3   4
ATOM      4  C   UNL     1      -7.416 -16.131  31.995  1.00  0.00     0.006 C 
BRANCH   4   5
ATOM      5  C   UNL     1      -7.355 -15.056  30.901  1.00  0.00     0.053 C 
BRANCH   5   6
ATOM      6  C   UNL     1      -7.314 -13.691  31.512  1.00  0.00     0.041 C 
ATOM      7  O   UNL     1      -8.125 -13.381  32.425  1.00  0.00    -0.550 OA
ATOM      8  O   UNL     1      -6.415 -12.744  31.039  1.00  0.00    -0.550 OA
ENDBRANCH   5   6
ENDBRANCH   4   5
ENDBRANCH   3   4
ENDBRANCH   2   3
ENDBRANCH   1   2
BRANCH   1   9
ATOM      9  C   UNL     1     -11.944 -16.784  32.064  1.00  0.00     0.000 C 
BRANCH   9  10
ATOM     10  C   UNL     1     -12.325 -17.706  30.896  1.00  0.00    -0.000 C 
BRANCH  10  11
ATOM     11  C   UNL     1     -13.518 -17.172  30.084  1.00  0.00    -0.000 C 
BRANCH  11  12
ATOM     12  C   UNL     1     -13.083 -16.332  28.870  1.00  0.00    -0.000 C 
BRANCH  12  13
ATOM     13  C   UNL     1     -11.941 -16.944  28.037  1.00  0.00    -0.003 C 
ATOM     14  C   UNL     1     -11.395 -15.986  26.979  1.00  0.00     0.004 C 
ENDBRANCH  12  13
ENDBRANCH  11  12
ENDBRANCH  10  11
ENDBRANCH   9  10
ENDBRANCH   1   9
TORSDOF 10
ENDMDL
MODEL 7
REMARK VINA RESULT:    -4.613      2.729      3.927
REMARK INTER + INTRA:          -8.795
REMARK INTER:                  -7.911
REMARK INTRA:                  -0.884
REMARK UNBOUND:                -1.486
REMARK SMILES CCCCCCCCCCCC(=O)[O-]
REMARK SMILES IDX 7 1 8 2 9 3 10 4 11 5 12 6 13 7 14 8 6 9 5 10 4 11 3 12 2 13
REMARK SMILES IDX 1 14
REMARK H PARENT
REMARK Flexibility Score: inf
ROOT
ATOM      1  C   UNL     1     -12.429 -16.470  30.509  1.00  0.00     0.000 C 
ENDROOT
BRANCH   1   2
ATOM      2  C   UNL     1     -11.621 -15.234  30.924  1.00  0.00     0.000 C 
BRANCH   2   3
ATOM      3  C   UNL     1     -10.497 -15.614  31.898  1.00  0.00     0.000 C 
BRANCH   3   4
ATOM      4  C   UNL     1      -9.355 -16.381  31.214  1.00  0.00     0.006 C 
BRANCH   4   5
ATOM      5  C   UNL     1      -9.063 -17.729  31.886  1.00  0.00     0.053 C 
BRANCH   5   6
ATOM      6  C   UNL     1      -9.990 -18.783  31.366  1.00  0.00     0.041 C 
ATOM      7  O   UNL     1      -9.960 -19.110  30.150  1.00  0.00    -0.550 OA
ATOM      8  O   UNL     1     -10.922 -19.368  32.214  1.00  0.00    -0.550 OA
ENDBRANCH   5   6
ENDBRANCH   4   5
ENDBRANCH   3   4
ENDBRANCH   2   3
ENDBRANCH   1   2
BRANCH   1   9
ATOM      9  C   UNL     1     -12.851 -16.382  29.034  1.00  0.00     0.000 C 
BRANCH   9  10
ATOM     10  C   UNL     1     -11.906 -17.157  28.103  1.00  0.00    -0.000 C 
BRANCH  10  11
ATOM     11  C   UNL     1     -10.676 -16.331  27.687  1.00  0.00    -0.000 C 
BRANCH  11  12
ATOM     12  C   UNL     1     -10.926 -15.483  26.427  1.00  0.00    -0.000 C 
BRANCH  12  13
ATOM     13  C   UNL     1      -9.734 -14.615  25.987  1.00  0.00    -0.003 C 
ATOM     14  C   UNL     1      -8.405 -15.079  26.583  1.00  0.00     0.004 C 
ENDBRANCH  12  13
ENDBRANCH  11  12
ENDBRANCH  10  11
ENDBRANCH   9  10
ENDBRANCH   1   9
TORSDOF 10
ENDMDL
MODEL 8
REMARK VINA RESULT:    -4.570      3.044      4.722
REMARK INTER + INTRA:          -8.727
REMARK INTER:                  -7.946
REMARK INTRA:                  -0.781
REMARK UNBOUND:                -1.486
REMARK SMILES CCCCCCCCCCCC(=O)[O-]
REMARK SMILES IDX 7 1 8 2 9 3 10 4 11 5 12 6 13 7 14 8 6 9 5 10 4 11 3 12 2 13
REMARK SMILES IDX 1 14
REMARK H PARENT
REMARK Flexibility Score: inf
ROOT
ATOM      1  C   UNL     1     -12.603 -16.029  28.604  1.00  0.00     0.000 C 
ENDROOT
BRANCH   1   2
ATOM      2  C   UNL     1     -12.613 -17.180  29.617  1.00  0.00     0.000 C 
BRANCH   2   3
ATOM      3  C   UNL     1     -11.861 -18.402  29.068  1.00  0.00     0.000 C 
BRANCH   3   4
ATOM      4  C   UNL     1     -10.606 -18.742  29.888  1.00  0.00     0.006 C 
BRANCH   4   5
ATOM      5  C   UNL     1      -9.798 -17.497  30.275  1.00  0.00     0.053 C 
BRANCH   5   6
ATOM      6  C   UNL     1      -9.349 -17.588  31.700  1.00  0.00     0.041 C 
ATOM      7  O   UNL     1     -10.083 -18.140  32.561  1.00  0.00    -0.550 OA
ATOM      8  O   UNL     1      -8.143 -17.018  32.086  1.00  0.00    -0.550 OA
ENDBRANCH   5   6
ENDBRANCH   4   5
ENDBRANCH   3   4
ENDBRANCH   2   3
ENDBRANCH   1   2
BRANCH   1   9
ATOM      9  C   UNL     1     -12.275 -16.540  27.193  1.00  0.00     0.000 C 
BRANCH   9  10
ATOM     10  C   UNL     1     -11.493 -15.512  26.360  1.00  0.00    -0.000 C 
BRANCH  10  11
ATOM     11  C   UNL     1     -10.075 -15.265  26.902  1.00  0.00    -0.000 C 
BRANCH  11  12
ATOM     12  C   UNL     1      -9.065 -14.920  25.793  1.00  0.00    -0.000 C 
BRANCH  12  13
ATOM     13  C   UNL     1      -8.958 -13.420  25.462  1.00  0.00    -0.003 C 
ATOM     14  C   UNL     1      -9.854 -13.001  24.298  1.00  0.00     0.004 C 
ENDBRANCH  12  13
ENDBRANCH  11  12
ENDBRANCH  10  11
ENDBRANCH   9  10
ENDBRANCH   1   9
TORSDOF 10
ENDMDL
MODEL 9
REMARK VINA RESULT:    -4.413      2.039      3.002
REMARK INTER + INTRA:          -8.479
REMARK INTER:                  -7.691
REMARK INTRA:                  -0.788
REMARK UNBOUND:                -1.486
REMARK SMILES CCCCCCCCCCCC(=O)[O-]
REMARK SMILES IDX 7 1 8 2 9 3 10 4 11 5 12 6 13 7 14 8 6 9 5 10 4 11 3 12 2 13
REMARK SMILES IDX 1 14
REMARK H PARENT
REMARK Flexibility Score: inf
ROOT
ATOM      1  C   UNL     1      -8.985 -17.133  31.682  1.00  0.00     0.000 C 
ENDROOT
BRANCH   1   2
ATOM      2  C   UNL     1      -8.783 -15.627  31.466  1.00  0.00     0.000 C 
BRANCH   2   3
ATOM      3  C   UNL     1      -7.315 -15.310  31.147  1.00  0.00     0.000 C 
BRANCH   3   4
ATOM      4  C   UNL     1      -7.081 -13.819  30.859  1.00  0.00     0.006 C 
BRANCH   4   5
ATOM      5  C   UNL     1      -6.905 -12.990  32.138  1.00  0.00     0.053 C 
BRANCH   5   6
ATOM      6  C   UNL     1      -5.857 -11.940  31.940  1.00  0.00     0.041 C 
ATOM      7  O   UNL     1      -4.883 -11.858  32.734  1.00  0.00    -0.550 OA
ATOM      8  O   UNL     1      -5.984 -11.019  30.908  1.00  0.00    -0.550 OA
ENDBRANCH   5   6
ENDBRANCH   4   5
ENDBRANCH   3   4
ENDBRANCH   2   3
ENDBRANCH   1   2
BRANCH   1   9
ATOM      9  C   UNL     1     -10.368 -17.422  32.285  1.00  0.00     0.000 C 
BRANCH   9  10
ATOM     10  C   UNL     1     -11.400 -16.336  31.944  1.00  0.00    -0.000 C 
BRANCH  10  11
ATOM     11  C   UNL     1     -12.397 -16.786  30.863  1.00  0.00    -0.000 C 
BRANCH  11  12
ATOM     12  C   UNL     1     -12.136 -16.124  29.498  1.00  0.00    -0.000 C 
BRANCH  12  13
ATOM     13  C   UNL     1     -11.741 -17.099  28.374  1.00  0.00    -0.003 C 
ATOM     14  C   UNL     1     -11.578 -18.538  28.861  1.00  0.00     0.004 C 
ENDBRANCH  12  13
ENDBRANCH  11  12
ENDBRANCH  10  11
ENDBRANCH   9  10
ENDBRANCH   1   9
TORSDOF 10
ENDMDL
