MODEL 1
REMARK VINA RESULT:    -5.355      0.000      0.000
REMARK INTER + INTRA:          -8.047
REMARK INTER:                  -7.859
REMARK INTRA:                  -0.188
REMARK UNBOUND:                -0.188
REMARK SMILES O=c1c(O[C@@H]2O[C@@H](CO)[C@@H](O)[C@@H](O)[C@H]2O)c(-c2ccc(O)c(O)c2)oc2cc(O)cc(O)c12
REMARK SMILES IDX 4 1 3 2 16 3 25 4 2 5 26 6 1 7 33 8 27 9 31 10 28 11 30 12
REMARK SMILES IDX 17 13 18 14 19 15 20 16 24 17 22 18 21 19 23 21 32 23 29 25
REMARK SMILES IDX 5 27 14 28 6 29 12 30 7 31 10 32 15 33 13 35 8 37 9 38 11 40
REMARK H PARENT 21 20 23 22 32 24 29 26 15 34 13 36 9 39 11 41
REMARK Flexibility Score: inf
ROOT
ATOM      1  O   UNL     1     -11.857   8.140   5.461  1.00  0.00    -0.454 OA
ENDROOT
BRANCH   1   2
ATOM      2  C   UNL     1     -10.521   8.366   5.826  1.00  0.00     0.214 A 
ATOM      3  C   UNL     1      -9.730   7.378   6.450  1.00  0.00     0.180 A 
ATOM      4  O   UNL     1      -8.443   7.614   6.681  1.00  0.00    -0.452 OA
ATOM      5  C   UNL     1      -9.950   9.620   5.572  1.00  0.00     0.239 A 
ATOM      6  C   UNL     1      -7.845   8.761   6.384  1.00  0.00     0.146 A 
ATOM      7  O   UNL     1     -10.699  10.551   5.178  1.00  0.00    -0.285 OA
ATOM      8  C   UNL     1      -8.568   9.826   5.789  1.00  0.00     0.111 A 
ATOM      9  C   UNL     1      -6.490   8.907   6.691  1.00  0.00     0.094 A 
ATOM     10  C   UNL     1      -7.871  11.030   5.472  1.00  0.00     0.134 A 
ATOM     11  C   UNL     1      -5.832  10.106   6.432  1.00  0.00     0.123 A 
ATOM     12  C   UNL     1      -6.524  11.162   5.830  1.00  0.00     0.093 A 
BRANCH   3  13
ATOM     13  C   UNL     1     -10.284   6.089   6.916  1.00  0.00     0.025 A 
ATOM     14  C   UNL     1     -10.209   5.717   8.267  1.00  0.00     0.016 A 
ATOM     15  C   UNL     1     -10.727   4.492   8.689  1.00  0.00     0.051 A 
ATOM     16  C   UNL     1     -11.315   3.612   7.774  1.00  0.00     0.157 A 
ATOM     17  C   UNL     1     -10.850   5.200   5.991  1.00  0.00     0.062 A 
ATOM     18  C   UNL     1     -11.374   3.969   6.406  1.00  0.00     0.158 A 
BRANCH  16  19
ATOM     19  O   UNL     1     -11.822   2.406   8.263  1.00  0.00    -0.504 OA
ATOM     20  H   UNL     1     -11.632   1.505   7.847  1.00  0.00     0.293 HD
ENDBRANCH  16  19
BRANCH  18  21
ATOM     21  O   UNL     1     -11.938   3.141   5.435  1.00  0.00    -0.504 OA
ATOM     22  H   UNL     1     -12.865   2.744   5.499  1.00  0.00     0.293 HD
ENDBRANCH  18  21
ENDBRANCH   3  13
BRANCH  10  23
ATOM     23  O   UNL     1      -8.442  12.103   4.782  1.00  0.00    -0.507 OA
ATOM     24  H   UNL     1      -9.431  12.221   4.623  1.00  0.00     0.293 HD
ENDBRANCH  10  23
BRANCH  11  25
ATOM     25  O   UNL     1      -4.487  10.240   6.769  1.00  0.00    -0.508 OA
ATOM     26  H   UNL     1      -4.104   9.812   7.604  1.00  0.00     0.293 HD
ENDBRANCH  11  25
ENDBRANCH   1   2
BRANCH   1  27
ATOM     27  C   UNL     1     -12.940   8.127   6.404  1.00  0.00     0.339 C 
ATOM     28  C   UNL     1     -12.507   8.790   7.736  1.00  0.00     0.214 C 
ATOM     29  O   UNL     1     -14.107   8.727   5.861  1.00  0.00    -0.332 OA
ATOM     30  C   UNL     1     -12.429  10.327   7.597  1.00  0.00     0.180 C 
ATOM     31  C   UNL     1     -13.905  10.101   5.563  1.00  0.00     0.179 C 
ATOM     32  C   UNL     1     -13.642  10.921   6.850  1.00  0.00     0.177 C 
BRANCH  28  33
ATOM     33  O   UNL     1     -13.332   8.406   8.813  1.00  0.00    -0.384 OA
ATOM     34  H   UNL     1     -12.763   8.187   9.594  1.00  0.00     0.211 HD
ENDBRANCH  28  33
BRANCH  30  35
ATOM     35  O   UNL     1     -12.211  10.957   8.836  1.00  0.00    -0.387 OA
ATOM     36  H   UNL     1     -13.052  11.405   9.108  1.00  0.00     0.211 HD
ENDBRANCH  30  35
BRANCH  31  37
ATOM     37  C   UNL     1     -15.125  10.632   4.798  1.00  0.00     0.191 C 
BRANCH  37  38
ATOM     38  O   UNL     1     -15.108  12.035   4.768  1.00  0.00    -0.394 OA
ATOM     39  H   UNL     1     -14.155  12.310   4.818  1.00  0.00     0.210 HD
ENDBRANCH  37  38
ENDBRANCH  31  37
BRANCH  32  40
ATOM     40  O   UNL     1     -14.777  11.017   7.680  1.00  0.00    -0.387 OA
ATOM     41  H   UNL     1     -15.347  11.758   7.353  1.00  0.00     0.211 HD
ENDBRANCH  32  40
ENDBRANCH   1  27
TORSDOF 12
ENDMDL
MODEL 2
REMARK VINA RESULT:    -4.457      1.734      5.966
REMARK INTER + INTRA:          -6.728
REMARK INTER:                  -6.629
REMARK INTRA:                  -0.100
REMARK UNBOUND:                -0.188
REMARK SMILES O=c1c(O[C@@H]2O[C@@H](CO)[C@@H](O)[C@@H](O)[C@H]2O)c(-c2ccc(O)c(O)c2)oc2cc(O)cc(O)c12
REMARK SMILES IDX 4 1 3 2 16 3 25 4 2 5 26 6 1 7 33 8 27 9 31 10 28 11 30 12
REMARK SMILES IDX 17 13 18 14 19 15 20 16 24 17 22 18 21 19 23 21 32 23 29 25
REMARK SMILES IDX 5 27 14 28 6 29 12 30 7 31 10 32 15 33 13 35 8 37 9 38 11 40
REMARK H PARENT 21 20 23 22 32 24 29 26 15 34 13 36 9 39 11 41
REMARK Flexibility Score: inf
ROOT
ATOM      1  O   UNL     1     -11.155   9.517   7.305  1.00  0.00    -0.454 OA
ENDROOT
BRANCH   1   2
ATOM      2  C   UNL     1     -10.948   8.246   6.747  1.00  0.00     0.214 A 
ATOM      3  C   UNL     1      -9.698   7.838   6.235  1.00  0.00     0.180 A 
ATOM      4  O   UNL     1      -9.536   6.590   5.812  1.00  0.00    -0.452 OA
ATOM      5  C   UNL     1     -12.023   7.349   6.685  1.00  0.00     0.239 A 
ATOM      6  C   UNL     1     -10.507   5.686   5.809  1.00  0.00     0.146 A 
ATOM      7  O   UNL     1     -13.172   7.769   6.979  1.00  0.00    -0.285 OA
ATOM      8  C   UNL     1     -11.808   6.014   6.270  1.00  0.00     0.111 A 
ATOM      9  C   UNL     1     -10.229   4.407   5.320  1.00  0.00     0.094 A 
ATOM     10  C   UNL     1     -12.810   4.998   6.264  1.00  0.00     0.134 A 
ATOM     11  C   UNL     1     -11.229   3.439   5.264  1.00  0.00     0.123 A 
ATOM     12  C   UNL     1     -12.513   3.739   5.728  1.00  0.00     0.093 A 
BRANCH   3  13
ATOM     13  C   UNL     1      -8.554   8.763   6.096  1.00  0.00     0.025 A 
ATOM     14  C   UNL     1      -7.995   9.036   4.838  1.00  0.00     0.016 A 
ATOM     15  C   UNL     1      -6.907   9.903   4.724  1.00  0.00     0.051 A 
ATOM     16  C   UNL     1      -6.349  10.502   5.859  1.00  0.00     0.157 A 
ATOM     17  C   UNL     1      -7.982   9.341   7.238  1.00  0.00     0.062 A 
ATOM     18  C   UNL     1      -6.892  10.214   7.134  1.00  0.00     0.158 A 
BRANCH  16  19
ATOM     19  O   UNL     1      -5.268  11.365   5.675  1.00  0.00    -0.504 OA
ATOM     20  H   UNL     1      -4.898  11.621   4.770  1.00  0.00     0.293 HD
ENDBRANCH  16  19
BRANCH  18  21
ATOM     21  O   UNL     1      -6.385  10.767   8.310  1.00  0.00    -0.504 OA
ATOM     22  H   UNL     1      -5.460  11.167   8.395  1.00  0.00     0.293 HD
ENDBRANCH  18  21
ENDBRANCH   3  13
BRANCH  10  23
ATOM     23  O   UNL     1     -14.091   5.164   6.797  1.00  0.00    -0.507 OA
ATOM     24  H   UNL     1     -14.868   5.579   6.306  1.00  0.00     0.293 HD
ENDBRANCH  10  23
BRANCH  11  25
ATOM     25  O   UNL     1     -10.937   2.178   4.749  1.00  0.00    -0.508 OA
ATOM     26  H   UNL     1     -11.310   1.334   5.168  1.00  0.00     0.293 HD
ENDBRANCH  11  25
ENDBRANCH   1   2
BRANCH   1  27
ATOM     27  C   UNL     1     -11.332  10.703   6.518  1.00  0.00     0.339 C 
ATOM     28  C   UNL     1     -11.866  10.344   5.108  1.00  0.00     0.214 C 
ATOM     29  O   UNL     1     -12.161  11.647   7.181  1.00  0.00    -0.332 OA
ATOM     30  C   UNL     1     -13.361   9.956   5.159  1.00  0.00     0.180 C 
ATOM     31  C   UNL     1     -13.474  11.148   7.380  1.00  0.00     0.179 C 
ATOM     32  C   UNL     1     -14.197  10.918   6.030  1.00  0.00     0.177 C 
BRANCH  28  33
ATOM     33  O   UNL     1     -11.626  11.371   4.171  1.00  0.00    -0.384 OA
ATOM     34  H   UNL     1     -12.025  12.213   4.506  1.00  0.00     0.211 HD
ENDBRANCH  28  33
BRANCH  30  35
ATOM     35  O   UNL     1     -13.908   9.799   3.872  1.00  0.00    -0.387 OA
ATOM     36  H   UNL     1     -13.666   8.897   3.540  1.00  0.00     0.211 HD
ENDBRANCH  30  35
BRANCH  31  37
ATOM     37  C   UNL     1     -14.252  12.125   8.274  1.00  0.00     0.191 C 
BRANCH  37  38
ATOM     38  O   UNL     1     -15.124  11.422   9.118  1.00  0.00    -0.394 OA
ATOM     39  H   UNL     1     -16.011  11.861   9.042  1.00  0.00     0.210 HD
ENDBRANCH  37  38
ENDBRANCH  31  37
BRANCH  32  40
ATOM     40  O   UNL     1     -14.494  12.119   5.356  1.00  0.00    -0.387 OA
ATOM     41  H   UNL     1     -14.511  12.857   6.015  1.00  0.00     0.211 HD
ENDBRANCH  32  40
ENDBRANCH   1  27
TORSDOF 12
ENDMDL
MODEL 3
REMARK VINA RESULT:    -3.224      1.690      5.620
REMARK INTER + INTRA:          -4.919
REMARK INTER:                  -4.852
REMARK INTRA:                  -0.067
REMARK UNBOUND:                -0.188
REMARK SMILES O=c1c(O[C@@H]2O[C@@H](CO)[C@@H](O)[C@@H](O)[C@H]2O)c(-c2ccc(O)c(O)c2)oc2cc(O)cc(O)c12
REMARK SMILES IDX 4 1 3 2 16 3 25 4 2 5 26 6 1 7 33 8 27 9 31 10 28 11 30 12
REMARK SMILES IDX 17 13 18 14 19 15 20 16 24 17 22 18 21 19 23 21 32 23 29 25
REMARK SMILES IDX 5 27 14 28 6 29 12 30 7 31 10 32 15 33 13 35 8 37 9 38 11 40
REMARK H PARENT 21 20 23 22 32 24 29 26 15 34 13 36 9 39 11 41
REMARK Flexibility Score: inf
ROOT
ATOM      1  O   UNL     1     -11.645   8.385   7.347  1.00  0.00    -0.454 OA
ENDROOT
BRANCH   1   2
ATOM      2  C   UNL     1     -11.145   7.386   6.496  1.00  0.00     0.214 A 
ATOM      3  C   UNL     1      -9.867   7.466   5.904  1.00  0.00     0.180 A 
ATOM      4  O   UNL     1      -9.408   6.445   5.189  1.00  0.00    -0.452 OA
ATOM      5  C   UNL     1     -11.946   6.271   6.214  1.00  0.00     0.239 A 
ATOM      6  C   UNL     1     -10.104   5.338   4.964  1.00  0.00     0.146 A 
ATOM      7  O   UNL     1     -13.144   6.282   6.599  1.00  0.00    -0.285 OA
ATOM      8  C   UNL     1     -11.413   5.182   5.487  1.00  0.00     0.111 A 
ATOM      9  C   UNL     1      -9.529   4.335   4.179  1.00  0.00     0.094 A 
ATOM     10  C   UNL     1     -12.109   3.963   5.231  1.00  0.00     0.134 A 
ATOM     11  C   UNL     1     -10.239   3.174   3.886  1.00  0.00     0.123 A 
ATOM     12  C   UNL     1     -11.525   2.995   4.406  1.00  0.00     0.093 A 
BRANCH   3  13
ATOM     13  C   UNL     1      -9.019   8.673   5.997  1.00  0.00     0.025 A 
ATOM     14  C   UNL     1      -9.530   9.941   5.677  1.00  0.00     0.016 A 
ATOM     15  C   UNL     1      -8.714  11.070   5.759  1.00  0.00     0.051 A 
ATOM     16  C   UNL     1      -7.374  10.956   6.148  1.00  0.00     0.157 A 
ATOM     17  C   UNL     1      -7.671   8.551   6.363  1.00  0.00     0.062 A 
ATOM     18  C   UNL     1      -6.845   9.679   6.451  1.00  0.00     0.158 A 
BRANCH  16  19
ATOM     19  O   UNL     1      -6.614  12.125   6.218  1.00  0.00    -0.504 OA
ATOM     20  H   UNL     1      -6.741  12.838   6.922  1.00  0.00     0.293 HD
ENDBRANCH  16  19
BRANCH  18  21
ATOM     21  O   UNL     1      -5.518   9.485   6.838  1.00  0.00    -0.504 OA
ATOM     22  H   UNL     1      -5.064  10.002   7.578  1.00  0.00     0.293 HD
ENDBRANCH  18  21
ENDBRANCH   3  13
BRANCH  10  23
ATOM     23  O   UNL     1     -13.352   3.644   5.786  1.00  0.00    -0.507 OA
ATOM     24  H   UNL     1     -13.830   4.198   6.480  1.00  0.00     0.293 HD
ENDBRANCH  10  23
BRANCH  11  25
ATOM     25  O   UNL     1      -9.658   2.197   3.080  1.00  0.00    -0.508 OA
ATOM     26  H   UNL     1      -8.901   1.613   3.416  1.00  0.00     0.293 HD
ENDBRANCH  11  25
ENDBRANCH   1   2
BRANCH   1  27
ATOM     27  C   UNL     1     -13.037   8.722   7.433  1.00  0.00     0.339 C 
ATOM     28  C   UNL     1     -13.278   9.741   8.575  1.00  0.00     0.214 C 
ATOM     29  O   UNL     1     -13.537   9.184   6.187  1.00  0.00    -0.332 OA
ATOM     30  C   UNL     1     -12.792  11.153   8.176  1.00  0.00     0.180 C 
ATOM     31  C   UNL     1     -12.902  10.385   5.775  1.00  0.00     0.179 C 
ATOM     32  C   UNL     1     -13.219  11.549   6.745  1.00  0.00     0.177 C 
BRANCH  28  33
ATOM     33  O   UNL     1     -14.622   9.754   9.001  1.00  0.00    -0.384 OA
ATOM     34  H   UNL     1     -15.000  10.658   8.849  1.00  0.00     0.211 HD
ENDBRANCH  28  33
BRANCH  30  35
ATOM     35  O   UNL     1     -13.162  12.125   9.125  1.00  0.00    -0.387 OA
ATOM     36  H   UNL     1     -13.111  13.015   8.692  1.00  0.00     0.211 HD
ENDBRANCH  30  35
BRANCH  31  37
ATOM     37  C   UNL     1     -13.337  10.715   4.341  1.00  0.00     0.191 C 
BRANCH  37  38
ATOM     38  O   UNL     1     -13.344  12.104   4.142  1.00  0.00    -0.394 OA
ATOM     39  H   UNL     1     -12.537  12.462   4.595  1.00  0.00     0.210 HD
ENDBRANCH  37  38
ENDBRANCH  31  37
BRANCH  32  40
ATOM     40  O   UNL     1     -14.566  11.957   6.690  1.00  0.00    -0.387 OA
ATOM     41  H   UNL     1     -14.898  12.080   7.615  1.00  0.00     0.211 HD
ENDBRANCH  32  40
ENDBRANCH   1  27
TORSDOF 12
ENDMDL
MODEL 4
REMARK VINA RESULT:    -2.881      1.843      6.930
REMARK INTER + INTRA:          -4.416
REMARK INTER:                  -7.287
REMARK INTRA:                   2.871
REMARK UNBOUND:                -0.188
REMARK SMILES O=c1c(O[C@@H]2O[C@@H](CO)[C@@H](O)[C@@H](O)[C@H]2O)c(-c2ccc(O)c(O)c2)oc2cc(O)cc(O)c12
REMARK SMILES IDX 4 1 3 2 16 3 25 4 2 5 26 6 1 7 33 8 27 9 31 10 28 11 30 12
REMARK SMILES IDX 17 13 18 14 19 15 20 16 24 17 22 18 21 19 23 21 32 23 29 25
REMARK SMILES IDX 5 27 14 28 6 29 12 30 7 31 10 32 15 33 13 35 8 37 9 38 11 40
REMARK H PARENT 21 20 23 22 32 24 29 26 15 34 13 36 9 39 11 41
REMARK Flexibility Score: inf
ROOT
ATOM      1  O   UNL     1     -10.119   7.218   5.734  1.00  0.00    -0.454 OA
ENDROOT
BRANCH   1   2
ATOM      2  C   UNL     1     -10.857   8.208   6.402  1.00  0.00     0.214 A 
ATOM      3  C   UNL     1     -10.315   9.471   6.719  1.00  0.00     0.180 A 
ATOM      4  O   UNL     1     -11.091  10.403   7.261  1.00  0.00    -0.452 OA
ATOM      5  C   UNL     1     -12.178   7.931   6.779  1.00  0.00     0.239 A 
ATOM      6  C   UNL     1     -12.369  10.207   7.562  1.00  0.00     0.146 A 
ATOM      7  O   UNL     1     -12.603   6.753   6.653  1.00  0.00    -0.285 OA
ATOM      8  C   UNL     1     -12.991   8.957   7.314  1.00  0.00     0.111 A 
ATOM      9  C   UNL     1     -13.085  11.252   8.150  1.00  0.00     0.094 A 
ATOM     10  C   UNL     1     -14.373   8.807   7.638  1.00  0.00     0.134 A 
ATOM     11  C   UNL     1     -14.417  11.078   8.516  1.00  0.00     0.123 A 
ATOM     12  C   UNL     1     -15.053   9.858   8.265  1.00  0.00     0.093 A 
BRANCH   3  13
ATOM     13  C   UNL     1      -8.888   9.799   6.522  1.00  0.00     0.025 A 
ATOM     14  C   UNL     1      -8.248   9.535   5.301  1.00  0.00     0.016 A 
ATOM     15  C   UNL     1      -6.897   9.839   5.134  1.00  0.00     0.051 A 
ATOM     16  C   UNL     1      -6.155  10.397   6.181  1.00  0.00     0.157 A 
ATOM     17  C   UNL     1      -8.143  10.335   7.582  1.00  0.00     0.062 A 
ATOM     18  C   UNL     1      -6.786  10.646   7.424  1.00  0.00     0.158 A 
BRANCH  16  19
ATOM     19  O   UNL     1      -4.810  10.686   5.946  1.00  0.00    -0.504 OA
ATOM     20  H   UNL     1      -4.167  10.996   6.661  1.00  0.00     0.293 HD
ENDBRANCH  16  19
BRANCH  18  21
ATOM     21  O   UNL     1      -6.112  11.193   8.515  1.00  0.00    -0.504 OA
ATOM     22  H   UNL     1      -6.570  11.560   9.338  1.00  0.00     0.293 HD
ENDBRANCH  18  21
ENDBRANCH   3  13
BRANCH  10  23
ATOM     23  O   UNL     1     -15.125   7.668   7.336  1.00  0.00    -0.507 OA
ATOM     24  H   UNL     1     -14.840   6.722   7.540  1.00  0.00     0.293 HD
ENDBRANCH  10  23
BRANCH  11  25
ATOM     25  O   UNL     1     -15.106  12.125   9.125  1.00  0.00    -0.508 OA
ATOM     26  H   UNL     1     -14.769  12.558   9.976  1.00  0.00     0.293 HD
ENDBRANCH  11  25
ENDBRANCH   1   2
BRANCH   1  27
ATOM     27  C   UNL     1      -9.513   6.102   6.402  1.00  0.00     0.339 C 
ATOM     28  C   UNL     1     -10.288   5.760   7.699  1.00  0.00     0.214 C 
ATOM     29  O   UNL     1      -9.393   4.982   5.537  1.00  0.00    -0.332 OA
ATOM     30  C   UNL     1     -11.625   5.053   7.381  1.00  0.00     0.180 C 
ATOM     31  C   UNL     1     -10.661   4.503   5.115  1.00  0.00     0.179 C 
ATOM     32  C   UNL     1     -11.478   3.952   6.309  1.00  0.00     0.177 C 
BRANCH  28  33
ATOM     33  O   UNL     1      -9.507   5.012   8.604  1.00  0.00    -0.384 OA
ATOM     34  H   UNL     1      -9.966   4.985   9.482  1.00  0.00     0.211 HD
ENDBRANCH  28  33
BRANCH  30  35
ATOM     35  O   UNL     1     -12.259   4.577   8.544  1.00  0.00    -0.387 OA
ATOM     36  H   UNL     1     -11.936   5.112   9.313  1.00  0.00     0.211 HD
ENDBRANCH  30  35
BRANCH  31  37
ATOM     37  C   UNL     1     -10.457   3.434   4.032  1.00  0.00     0.191 C 
BRANCH  37  38
ATOM     38  O   UNL     1      -9.277   3.685   3.316  1.00  0.00    -0.394 OA
ATOM     39  H   UNL     1      -8.800   2.818   3.239  1.00  0.00     0.210 HD
ENDBRANCH  37  38
ENDBRANCH  31  37
BRANCH  32  40
ATOM     40  O   UNL     1     -10.936   2.765   6.843  1.00  0.00    -0.387 OA
ATOM     41  H   UNL     1     -10.130   2.522   6.322  1.00  0.00     0.211 HD
ENDBRANCH  32  40
ENDBRANCH   1  27
TORSDOF 12
ENDMDL
MODEL 5
REMARK VINA RESULT:    -2.849      1.915      2.918
REMARK INTER + INTRA:          -4.369
REMARK INTER:                  -5.730
REMARK INTRA:                   1.361
REMARK UNBOUND:                -0.188
REMARK SMILES O=c1c(O[C@@H]2O[C@@H](CO)[C@@H](O)[C@@H](O)[C@H]2O)c(-c2ccc(O)c(O)c2)oc2cc(O)cc(O)c12
REMARK SMILES IDX 4 1 3 2 16 3 25 4 2 5 26 6 1 7 33 8 27 9 31 10 28 11 30 12
REMARK SMILES IDX 17 13 18 14 19 15 20 16 24 17 22 18 21 19 23 21 32 23 29 25
REMARK SMILES IDX 5 27 14 28 6 29 12 30 7 31 10 32 15 33 13 35 8 37 9 38 11 40
REMARK H PARENT 21 20 23 22 32 24 29 26 15 34 13 36 9 39 11 41
REMARK Flexibility Score: inf
ROOT
ATOM      1  O   UNL     1     -12.925   7.405   7.393  1.00  0.00    -0.454 OA
ENDROOT
BRANCH   1   2
ATOM      2  C   UNL     1     -11.662   7.883   7.009  1.00  0.00     0.214 A 
ATOM      3  C   UNL     1     -10.709   7.067   6.364  1.00  0.00     0.180 A 
ATOM      4  O   UNL     1      -9.571   7.599   5.934  1.00  0.00    -0.452 OA
ATOM      5  C   UNL     1     -11.329   9.216   7.281  1.00  0.00     0.239 A 
ATOM      6  C   UNL     1      -9.250   8.876   6.102  1.00  0.00     0.146 A 
ATOM      7  O   UNL     1     -12.105   9.892   8.006  1.00  0.00    -0.285 OA
ATOM      8  C   UNL     1     -10.130   9.765   6.772  1.00  0.00     0.111 A 
ATOM      9  C   UNL     1      -8.015   9.324   5.627  1.00  0.00     0.094 A 
ATOM     10  C   UNL     1      -9.744  11.132   6.908  1.00  0.00     0.134 A 
ATOM     11  C   UNL     1      -7.622  10.646   5.816  1.00  0.00     0.123 A 
ATOM     12  C   UNL     1      -8.483  11.541   6.459  1.00  0.00     0.093 A 
BRANCH   3  13
ATOM     13  C   UNL     1     -10.894   5.611   6.188  1.00  0.00     0.025 A 
ATOM     14  C   UNL     1     -11.211   4.787   7.279  1.00  0.00     0.016 A 
ATOM     15  C   UNL     1     -11.372   3.412   7.099  1.00  0.00     0.051 A 
ATOM     16  C   UNL     1     -11.206   2.833   5.835  1.00  0.00     0.157 A 
ATOM     17  C   UNL     1     -10.703   5.032   4.926  1.00  0.00     0.062 A 
ATOM     18  C   UNL     1     -10.864   3.654   4.734  1.00  0.00     0.158 A 
BRANCH  16  19
ATOM     19  O   UNL     1     -11.389   1.454   5.722  1.00  0.00    -0.504 OA
ATOM     20  H   UNL     1     -10.675   0.771   5.932  1.00  0.00     0.293 HD
ENDBRANCH  16  19
BRANCH  18  21
ATOM     21  O   UNL     1     -10.676   3.149   3.448  1.00  0.00    -0.504 OA
ATOM     22  H   UNL     1     -10.168   3.631   2.719  1.00  0.00     0.293 HD
ENDBRANCH  18  21
ENDBRANCH   3  13
BRANCH  10  23
ATOM     23  O   UNL     1     -10.570  12.125   7.442  1.00  0.00    -0.507 OA
ATOM     24  H   UNL     1     -10.902  12.930   6.933  1.00  0.00     0.293 HD
ENDBRANCH  10  23
BRANCH  11  25
ATOM     25  O   UNL     1      -6.376  11.066   5.356  1.00  0.00    -0.508 OA
ATOM     26  H   UNL     1      -5.831  10.505   4.712  1.00  0.00     0.293 HD
ENDBRANCH  11  25
ENDBRANCH   1   2
BRANCH   1  27
ATOM     27  C   UNL     1     -14.155   7.905   6.851  1.00  0.00     0.339 C 
ATOM     28  C   UNL     1     -13.927   9.276   6.165  1.00  0.00     0.214 C 
ATOM     29  O   UNL     1     -14.759   6.962   5.978  1.00  0.00    -0.332 OA
ATOM     30  C   UNL     1     -13.206   9.109   4.808  1.00  0.00     0.180 C 
ATOM     31  C   UNL     1     -13.947   6.698   4.843  1.00  0.00     0.179 C 
ATOM     32  C   UNL     1     -13.790   7.959   3.960  1.00  0.00     0.177 C 
BRANCH  28  33
ATOM     33  O   UNL     1     -15.125  10.009   6.031  1.00  0.00    -0.384 OA
ATOM     34  H   UNL     1     -15.863   9.501   6.453  1.00  0.00     0.211 HD
ENDBRANCH  28  33
BRANCH  30  35
ATOM     35  O   UNL     1     -13.149  10.319   4.091  1.00  0.00    -0.387 OA
ATOM     36  H   UNL     1     -12.459  10.894   4.509  1.00  0.00     0.211 HD
ENDBRANCH  30  35
BRANCH  31  37
ATOM     37  C   UNL     1     -14.555   5.531   4.053  1.00  0.00     0.191 C 
BRANCH  37  38
ATOM     38  O   UNL     1     -14.445   5.767   2.674  1.00  0.00    -0.394 OA
ATOM     39  H   UNL     1     -13.834   6.541   2.565  1.00  0.00     0.210 HD
ENDBRANCH  37  38
ENDBRANCH  31  37
BRANCH  32  40
ATOM     40  O   UNL     1     -14.988   8.332   3.318  1.00  0.00    -0.387 OA
ATOM     41  H   UNL     1     -14.768   8.710   2.430  1.00  0.00     0.211 HD
ENDBRANCH  32  40
ENDBRANCH   1  27
TORSDOF 12
ENDMDL
MODEL 6
REMARK VINA RESULT:    -2.638      1.433      5.859
REMARK INTER + INTRA:          -4.059
REMARK INTER:                  -7.302
REMARK INTRA:                   3.243
REMARK UNBOUND:                -0.188
REMARK SMILES O=c1c(O[C@@H]2O[C@@H](CO)[C@@H](O)[C@@H](O)[C@H]2O)c(-c2ccc(O)c(O)c2)oc2cc(O)cc(O)c12
REMARK SMILES IDX 4 1 3 2 16 3 25 4 2 5 26 6 1 7 33 8 27 9 31 10 28 11 30 12
REMARK SMILES IDX 17 13 18 14 19 15 20 16 24 17 22 18 21 19 23 21 32 23 29 25
REMARK SMILES IDX 5 27 14 28 6 29 12 30 7 31 10 32 15 33 13 35 8 37 9 38 11 40
REMARK H PARENT 21 20 23 22 32 24 29 26 15 34 13 36 9 39 11 41
REMARK Flexibility Score: inf
ROOT
ATOM      1  O   UNL     1     -11.775   9.092   5.193  1.00  0.00    -0.454 OA
ENDROOT
BRANCH   1   2
ATOM      2  C   UNL     1     -11.413   7.926   5.886  1.00  0.00     0.214 A 
ATOM      3  C   UNL     1     -10.131   7.747   6.447  1.00  0.00     0.180 A 
ATOM      4  O   UNL     1      -9.878   6.667   7.177  1.00  0.00    -0.452 OA
ATOM      5  C   UNL     1     -12.353   6.895   6.018  1.00  0.00     0.239 A 
ATOM      6  C   UNL     1     -10.766   5.704   7.393  1.00  0.00     0.146 A 
ATOM      7  O   UNL     1     -13.431   6.980   5.373  1.00  0.00    -0.285 OA
ATOM      8  C   UNL     1     -12.069   5.779   6.837  1.00  0.00     0.111 A 
ATOM      9  C   UNL     1     -10.383   4.601   8.160  1.00  0.00     0.094 A 
ATOM     10  C   UNL     1     -12.990   4.726   7.117  1.00  0.00     0.134 A 
ATOM     11  C   UNL     1     -11.270   3.551   8.378  1.00  0.00     0.123 A 
ATOM     12  C   UNL     1     -12.564   3.613   7.853  1.00  0.00     0.093 A 
BRANCH   3  13
ATOM     13  C   UNL     1      -9.020   8.694   6.216  1.00  0.00     0.025 A 
ATOM     14  C   UNL     1      -7.713   8.387   6.625  1.00  0.00     0.016 A 
ATOM     15  C   UNL     1      -6.676   9.295   6.409  1.00  0.00     0.051 A 
ATOM     16  C   UNL     1      -6.924  10.529   5.796  1.00  0.00     0.157 A 
ATOM     17  C   UNL     1      -9.277   9.938   5.624  1.00  0.00     0.062 A 
ATOM     18  C   UNL     1      -8.243  10.857   5.402  1.00  0.00     0.158 A 
BRANCH  16  19
ATOM     19  O   UNL     1      -5.842  11.390   5.603  1.00  0.00    -0.504 OA
ATOM     20  H   UNL     1      -5.584  12.124   6.246  1.00  0.00     0.293 HD
ENDBRANCH  16  19
BRANCH  18  21
ATOM     21  O   UNL     1      -8.569  12.069   4.793  1.00  0.00    -0.504 OA
ATOM     22  H   UNL     1      -9.418  12.584   4.976  1.00  0.00     0.293 HD
ENDBRANCH  18  21
ENDBRANCH   3  13
BRANCH  10  23
ATOM     23  O   UNL     1     -14.332   4.740   6.726  1.00  0.00    -0.507 OA
ATOM     24  H   UNL     1     -14.984   3.987   6.885  1.00  0.00     0.293 HD
ENDBRANCH  10  23
BRANCH  11  25
ATOM     25  O   UNL     1     -10.860   2.448   9.125  1.00  0.00    -0.508 OA
ATOM     26  H   UNL     1     -10.368   1.671   8.699  1.00  0.00     0.293 HD
ENDBRANCH  11  25
ENDBRANCH   1   2
BRANCH   1  27
ATOM     27  C   UNL     1     -12.842   9.956   5.610  1.00  0.00     0.339 C 
ATOM     28  C   UNL     1     -13.835   9.192   6.521  1.00  0.00     0.214 C 
ATOM     29  O   UNL     1     -12.345  11.134   6.228  1.00  0.00    -0.332 OA
ATOM     30  C   UNL     1     -13.242   8.971   7.932  1.00  0.00     0.180 C 
ATOM     31  C   UNL     1     -11.631  10.843   7.420  1.00  0.00     0.179 C 
ATOM     32  C   UNL     1     -12.562  10.236   8.497  1.00  0.00     0.177 C 
BRANCH  28  33
ATOM     33  O   UNL     1     -15.096   9.820   6.579  1.00  0.00    -0.384 OA
ATOM     34  H   UNL     1     -15.110  10.445   7.348  1.00  0.00     0.211 HD
ENDBRANCH  28  33
BRANCH  30  35
ATOM     35  O   UNL     1     -14.192   8.438   8.824  1.00  0.00    -0.387 OA
ATOM     36  H   UNL     1     -14.203   9.003   9.638  1.00  0.00     0.211 HD
ENDBRANCH  30  35
BRANCH  31  37
ATOM     37  C   UNL     1     -10.951  12.125   7.923  1.00  0.00     0.191 C 
BRANCH  37  38
ATOM     38  O   UNL     1      -9.611  11.870   8.249  1.00  0.00    -0.394 OA
ATOM     39  H   UNL     1      -9.613  11.399   9.123  1.00  0.00     0.210 HD
ENDBRANCH  37  38
ENDBRANCH  31  37
BRANCH  32  40
ATOM     40  O   UNL     1     -13.499  11.161   8.997  1.00  0.00    -0.387 OA
ATOM     41  H   UNL     1     -14.406  10.874   8.721  1.00  0.00     0.211 HD
ENDBRANCH  32  40
ENDBRANCH   1  27
TORSDOF 12
ENDMDL
