MODEL 1
REMARK VINA RESULT:    -4.634      0.000      0.000
REMARK INTER + INTRA:         -10.323
REMARK INTER:                  -8.426
REMARK INTRA:                  -1.897
REMARK UNBOUND:                -1.897
REMARK SMILES CCCCCCCCCCCCCCCC(=O)[O-]
REMARK SMILES IDX 9 1 10 2 11 3 12 4 13 5 14 6 15 7 16 8 17 9 18 10 8 11 7 12
REMARK SMILES IDX 6 13 5 14 4 15 3 16 2 17 1 18
REMARK H PARENT
REMARK Flexibility Score: inf
ROOT
ATOM      1  C   UNL     1      19.271  19.825  33.817  1.00  0.00     0.000 C 
ENDROOT
BRANCH   1   2
ATOM      2  C   UNL     1      18.011  19.903  34.693  1.00  0.00     0.000 C 
BRANCH   2   3
ATOM      3  C   UNL     1      18.247  19.381  36.119  1.00  0.00     0.000 C 
BRANCH   3   4
ATOM      4  C   UNL     1      17.411  18.129  36.438  1.00  0.00     0.000 C 
BRANCH   4   5
ATOM      5  C   UNL     1      17.979  16.864  35.761  1.00  0.00     0.000 C 
BRANCH   5   6
ATOM      6  C   UNL     1      16.974  15.702  35.686  1.00  0.00     0.006 C 
BRANCH   6   7
ATOM      7  C   UNL     1      16.380  15.337  37.050  1.00  0.00     0.053 C 
BRANCH   7   8
ATOM      8  C   UNL     1      14.895  15.515  37.040  1.00  0.00     0.041 C 
ATOM      9  O   UNL     1      14.369  16.480  37.656  1.00  0.00    -0.550 OA
ATOM     10  O   UNL     1      14.095  14.647  36.309  1.00  0.00    -0.550 OA
ENDBRANCH   7   8
ENDBRANCH   6   7
ENDBRANCH   5   6
ENDBRANCH   4   5
ENDBRANCH   3   4
ENDBRANCH   2   3
ENDBRANCH   1   2
BRANCH   1  11
ATOM     11  C   UNL     1      19.223  18.593  32.901  1.00  0.00     0.000 C 
BRANCH  11  12
ATOM     12  C   UNL     1      18.007  18.603  31.961  1.00  0.00    -0.000 C 
BRANCH  12  13
ATOM     13  C   UNL     1      17.156  17.326  32.081  1.00  0.00    -0.000 C 
BRANCH  13  14
ATOM     14  C   UNL     1      15.785  17.592  32.724  1.00  0.00    -0.000 C 
BRANCH  14  15
ATOM     15  C   UNL     1      15.174  18.931  32.276  1.00  0.00    -0.000 C 
BRANCH  15  16
ATOM     16  C   UNL     1      13.985  18.746  31.318  1.00  0.00    -0.000 C 
BRANCH  16  17
ATOM     17  C   UNL     1      13.420  17.318  31.349  1.00  0.00    -0.003 C 
ATOM     18  C   UNL     1      13.167  16.798  29.937  1.00  0.00     0.004 C 
ENDBRANCH  16  17
ENDBRANCH  15  16
ENDBRANCH  14  15
ENDBRANCH  13  14
ENDBRANCH  12  13
ENDBRANCH  11  12
ENDBRANCH   1  11
TORSDOF 14
ENDMDL
MODEL 2
REMARK VINA RESULT:    -4.632      1.362      1.953
REMARK INTER + INTRA:         -10.320
REMARK INTER:                  -8.426
REMARK INTRA:                  -1.894
REMARK UNBOUND:                -1.897
REMARK SMILES CCCCCCCCCCCCCCCC(=O)[O-]
REMARK SMILES IDX 9 1 10 2 11 3 12 4 13 5 14 6 15 7 16 8 17 9 18 10 8 11 7 12
REMARK SMILES IDX 6 13 5 14 4 15 3 16 2 17 1 18
REMARK H PARENT
REMARK Flexibility Score: inf
ROOT
ATOM      1  C   UNL     1      20.304  19.159  34.731  1.00  0.00     0.000 C 
ENDROOT
BRANCH   1   2
ATOM      2  C   UNL     1      20.471  18.482  36.100  1.00  0.00     0.000 C 
BRANCH   2   3
ATOM      3  C   UNL     1      20.318  16.955  36.028  1.00  0.00     0.000 C 
BRANCH   3   4
ATOM      4  C   UNL     1      19.739  16.479  34.684  1.00  0.00     0.000 C 
BRANCH   4   5
ATOM      5  C   UNL     1      18.259  16.057  34.805  1.00  0.00     0.000 C 
BRANCH   5   6
ATOM      6  C   UNL     1      17.734  16.064  36.251  1.00  0.00     0.006 C 
BRANCH   6   7
ATOM      7  C   UNL     1      16.421  16.840  36.405  1.00  0.00     0.053 C 
BRANCH   7   8
ATOM      8  C   UNL     1      15.448  16.062  37.235  1.00  0.00     0.041 C 
ATOM      9  O   UNL     1      14.404  16.616  37.671  1.00  0.00    -0.550 OA
ATOM     10  O   UNL     1      15.670  14.714  37.486  1.00  0.00    -0.550 OA
ENDBRANCH   7   8
ENDBRANCH   6   7
ENDBRANCH   5   6
ENDBRANCH   4   5
ENDBRANCH   3   4
ENDBRANCH   2   3
ENDBRANCH   1   2
BRANCH   1  11
ATOM     11  C   UNL     1      19.143  20.165  34.757  1.00  0.00     0.000 C 
BRANCH  11  12
ATOM     12  C   UNL     1      17.952  19.713  33.896  1.00  0.00    -0.000 C 
BRANCH  12  13
ATOM     13  C   UNL     1      18.391  19.084  32.563  1.00  0.00    -0.000 C 
BRANCH  13  14
ATOM     14  C   UNL     1      17.221  18.438  31.803  1.00  0.00    -0.000 C 
BRANCH  14  15
ATOM     15  C   UNL     1      15.972  18.261  32.684  1.00  0.00    -0.000 C 
BRANCH  15  16
ATOM     16  C   UNL     1      14.777  19.090  32.186  1.00  0.00    -0.000 C 
BRANCH  16  17
ATOM     17  C   UNL     1      13.692  18.224  31.530  1.00  0.00    -0.003 C 
ATOM     18  C   UNL     1      14.094  17.821  30.114  1.00  0.00     0.004 C 
ENDBRANCH  16  17
ENDBRANCH  15  16
ENDBRANCH  14  15
ENDBRANCH  13  14
ENDBRANCH  12  13
ENDBRANCH  11  12
ENDBRANCH   1  11
TORSDOF 14
ENDMDL
MODEL 3
REMARK VINA RESULT:    -4.493      2.293      4.530
REMARK INTER + INTRA:         -10.068
REMARK INTER:                  -7.900
REMARK INTRA:                  -2.167
REMARK UNBOUND:                -1.897
REMARK SMILES CCCCCCCCCCCCCCCC(=O)[O-]
REMARK SMILES IDX 9 1 10 2 11 3 12 4 13 5 14 6 15 7 16 8 17 9 18 10 8 11 7 12
REMARK SMILES IDX 6 13 5 14 4 15 3 16 2 17 1 18
REMARK H PARENT
REMARK Flexibility Score: inf
ROOT
ATOM      1  C   UNL     1      19.191  16.180  31.853  1.00  0.00     0.000 C 
ENDROOT
BRANCH   1   2
ATOM      2  C   UNL     1      18.884  15.413  33.148  1.00  0.00     0.000 C 
BRANCH   2   3
ATOM      3  C   UNL     1      20.153  15.035  33.928  1.00  0.00     0.000 C 
BRANCH   3   4
ATOM      4  C   UNL     1      19.924  14.992  35.449  1.00  0.00     0.000 C 
BRANCH   4   5
ATOM      5  C   UNL     1      18.990  16.123  35.928  1.00  0.00     0.000 C 
BRANCH   5   6
ATOM      6  C   UNL     1      17.590  15.635  36.335  1.00  0.00     0.006 C 
BRANCH   6   7
ATOM      7  C   UNL     1      16.563  16.769  36.422  1.00  0.00     0.053 C 
BRANCH   7   8
ATOM      8  C   UNL     1      15.362  16.329  37.198  1.00  0.00     0.041 C 
ATOM      9  O   UNL     1      14.994  16.976  38.214  1.00  0.00    -0.550 OA
ATOM     10  O   UNL     1      14.620  15.236  36.772  1.00  0.00    -0.550 OA
ENDBRANCH   7   8
ENDBRANCH   6   7
ENDBRANCH   5   6
ENDBRANCH   4   5
ENDBRANCH   3   4
ENDBRANCH   2   3
ENDBRANCH   1   2
BRANCH   1  11
ATOM     11  C   UNL     1      18.396  17.493  31.793  1.00  0.00     0.000 C 
BRANCH  11  12
ATOM     12  C   UNL     1      17.537  17.720  33.047  1.00  0.00    -0.000 C 
BRANCH  12  13
ATOM     13  C   UNL     1      17.709  19.131  33.635  1.00  0.00    -0.000 C 
BRANCH  13  14
ATOM     14  C   UNL     1      19.120  19.696  33.405  1.00  0.00    -0.000 C 
BRANCH  14  15
ATOM     15  C   UNL     1      20.092  19.334  34.541  1.00  0.00    -0.000 C 
BRANCH  15  16
ATOM     16  C   UNL     1      19.981  20.290  35.740  1.00  0.00    -0.000 C 
BRANCH  16  17
ATOM     17  C   UNL     1      19.517  19.579  37.019  1.00  0.00    -0.003 C 
ATOM     18  C   UNL     1      18.050  19.878  37.312  1.00  0.00     0.004 C 
ENDBRANCH  16  17
ENDBRANCH  15  16
ENDBRANCH  14  15
ENDBRANCH  13  14
ENDBRANCH  12  13
ENDBRANCH  11  12
ENDBRANCH   1  11
TORSDOF 14
ENDMDL
MODEL 4
REMARK VINA RESULT:    -4.492      1.752      2.966
REMARK INTER + INTRA:         -10.065
REMARK INTER:                  -7.748
REMARK INTRA:                  -2.317
REMARK UNBOUND:                -1.897
REMARK SMILES CCCCCCCCCCCCCCCC(=O)[O-]
REMARK SMILES IDX 9 1 10 2 11 3 12 4 13 5 14 6 15 7 16 8 17 9 18 10 8 11 7 12
REMARK SMILES IDX 6 13 5 14 4 15 3 16 2 17 1 18
REMARK H PARENT
REMARK Flexibility Score: inf
ROOT
ATOM      1  C   UNL     1      18.504  20.255  34.123  1.00  0.00     0.000 C 
ENDROOT
BRANCH   1   2
ATOM      2  C   UNL     1      19.480  20.186  35.307  1.00  0.00     0.000 C 
BRANCH   2   3
ATOM      3  C   UNL     1      20.469  19.016  35.191  1.00  0.00     0.000 C 
BRANCH   3   4
ATOM      4  C   UNL     1      20.187  17.897  36.209  1.00  0.00     0.000 C 
BRANCH   4   5
ATOM      5  C   UNL     1      19.113  16.910  35.704  1.00  0.00     0.000 C 
BRANCH   5   6
ATOM      6  C   UNL     1      17.745  17.089  36.384  1.00  0.00     0.006 C 
BRANCH   6   7
ATOM      7  C   UNL     1      16.995  15.766  36.573  1.00  0.00     0.053 C 
BRANCH   7   8
ATOM      8  C   UNL     1      15.629  16.014  37.131  1.00  0.00     0.041 C 
ATOM      9  O   UNL     1      15.455  16.904  38.005  1.00  0.00    -0.550 OA
ATOM     10  O   UNL     1      14.541  15.297  36.650  1.00  0.00    -0.550 OA
ENDBRANCH   7   8
ENDBRANCH   6   7
ENDBRANCH   5   6
ENDBRANCH   4   5
ENDBRANCH   3   4
ENDBRANCH   2   3
ENDBRANCH   1   2
BRANCH   1  11
ATOM     11  C   UNL     1      19.068  19.510  32.904  1.00  0.00     0.000 C 
BRANCH  11  12
ATOM     12  C   UNL     1      18.097  18.452  32.357  1.00  0.00    -0.000 C 
BRANCH  12  13
ATOM     13  C   UNL     1      16.688  18.573  32.964  1.00  0.00    -0.000 C 
BRANCH  13  14
ATOM     14  C   UNL     1      16.028  17.205  33.197  1.00  0.00    -0.000 C 
BRANCH  14  15
ATOM     15  C   UNL     1      16.564  16.122  32.245  1.00  0.00    -0.000 C 
BRANCH  15  16
ATOM     16  C   UNL     1      17.232  14.956  32.993  1.00  0.00    -0.000 C 
BRANCH  16  17
ATOM     17  C   UNL     1      18.423  14.367  32.222  1.00  0.00    -0.003 C 
ATOM     18  C   UNL     1      19.736  14.638  32.951  1.00  0.00     0.004 C 
ENDBRANCH  16  17
ENDBRANCH  15  16
ENDBRANCH  14  15
ENDBRANCH  13  14
ENDBRANCH  12  13
ENDBRANCH  11  12
ENDBRANCH   1  11
TORSDOF 14
ENDMDL
MODEL 5
REMARK VINA RESULT:    -4.440      2.408      4.721
REMARK INTER + INTRA:          -9.970
REMARK INTER:                  -7.759
REMARK INTRA:                  -2.211
REMARK UNBOUND:                -1.897
REMARK SMILES CCCCCCCCCCCCCCCC(=O)[O-]
REMARK SMILES IDX 9 1 10 2 11 3 12 4 13 5 14 6 15 7 16 8 17 9 18 10 8 11 7 12
REMARK SMILES IDX 6 13 5 14 4 15 3 16 2 17 1 18
REMARK H PARENT
REMARK Flexibility Score: inf
ROOT
ATOM      1  C   UNL     1      17.376  17.866  36.711  1.00  0.00     0.000 C 
ENDROOT
BRANCH   1   2
ATOM      2  C   UNL     1      17.023  17.312  35.323  1.00  0.00     0.000 C 
BRANCH   2   3
ATOM      3  C   UNL     1      17.835  16.058  34.961  1.00  0.00     0.000 C 
BRANCH   3   4
ATOM      4  C   UNL     1      17.229  15.277  33.783  1.00  0.00     0.000 C 
BRANCH   4   5
ATOM      5  C   UNL     1      15.703  15.094  33.931  1.00  0.00     0.000 C 
BRANCH   5   6
ATOM      6  C   UNL     1      15.310  13.940  34.869  1.00  0.00     0.006 C 
BRANCH   6   7
ATOM      7  C   UNL     1      14.412  14.391  36.026  1.00  0.00     0.053 C 
BRANCH   7   8
ATOM      8  C   UNL     1      15.222  14.596  37.268  1.00  0.00     0.041 C 
ATOM      9  O   UNL     1      16.231  13.875  37.491  1.00  0.00    -0.550 OA
ATOM     10  O   UNL     1      14.892  15.613  38.154  1.00  0.00    -0.550 OA
ENDBRANCH   7   8
ENDBRANCH   6   7
ENDBRANCH   5   6
ENDBRANCH   4   5
ENDBRANCH   3   4
ENDBRANCH   2   3
ENDBRANCH   1   2
BRANCH   1  11
ATOM     11  C   UNL     1      17.599  19.385  36.653  1.00  0.00     0.000 C 
BRANCH  11  12
ATOM     12  C   UNL     1      18.495  19.893  37.794  1.00  0.00    -0.000 C 
BRANCH  12  13
ATOM     13  C   UNL     1      19.993  19.813  37.451  1.00  0.00    -0.000 C 
BRANCH  13  14
ATOM     14  C   UNL     1      20.293  20.272  36.014  1.00  0.00    -0.000 C 
BRANCH  14  15
ATOM     15  C   UNL     1      21.100  19.231  35.220  1.00  0.00    -0.000 C 
BRANCH  15  16
ATOM     16  C   UNL     1      20.325  18.681  34.011  1.00  0.00    -0.000 C 
BRANCH  16  17
ATOM     17  C   UNL     1      19.263  19.663  33.495  1.00  0.00    -0.003 C 
ATOM     18  C   UNL     1      18.471  19.058  32.340  1.00  0.00     0.004 C 
ENDBRANCH  16  17
ENDBRANCH  15  16
ENDBRANCH  14  15
ENDBRANCH  13  14
ENDBRANCH  12  13
ENDBRANCH  11  12
ENDBRANCH   1  11
TORSDOF 14
ENDMDL
MODEL 6
REMARK VINA RESULT:    -4.431      2.108      5.579
REMARK INTER + INTRA:          -9.954
REMARK INTER:                  -7.722
REMARK INTRA:                  -2.232
REMARK UNBOUND:                -1.897
REMARK SMILES CCCCCCCCCCCCCCCC(=O)[O-]
REMARK SMILES IDX 9 1 10 2 11 3 12 4 13 5 14 6 15 7 16 8 17 9 18 10 8 11 7 12
REMARK SMILES IDX 6 13 5 14 4 15 3 16 2 17 1 18
REMARK H PARENT
REMARK Flexibility Score: inf
ROOT
ATOM      1  C   UNL     1      18.998  16.470  32.159  1.00  0.00     0.000 C 
ENDROOT
BRANCH   1   2
ATOM      2  C   UNL     1      17.468  16.596  32.096  1.00  0.00     0.000 C 
BRANCH   2   3
ATOM      3  C   UNL     1      17.004  18.026  31.777  1.00  0.00     0.000 C 
BRANCH   3   4
ATOM      4  C   UNL     1      15.718  18.414  32.527  1.00  0.00     0.000 C 
BRANCH   4   5
ATOM      5  C   UNL     1      14.617  18.920  31.570  1.00  0.00     0.000 C 
BRANCH   5   6
ATOM      6  C   UNL     1      13.317  18.102  31.641  1.00  0.00     0.006 C 
BRANCH   6   7
ATOM      7  C   UNL     1      13.169  17.114  30.479  1.00  0.00     0.053 C 
BRANCH   7   8
ATOM      8  C   UNL     1      13.593  15.742  30.901  1.00  0.00     0.041 C 
ATOM      9  O   UNL     1      13.873  14.872  30.035  1.00  0.00    -0.550 OA
ATOM     10  O   UNL     1      13.727  15.440  32.250  1.00  0.00    -0.550 OA
ENDBRANCH   7   8
ENDBRANCH   6   7
ENDBRANCH   5   6
ENDBRANCH   4   5
ENDBRANCH   3   4
ENDBRANCH   2   3
ENDBRANCH   1   2
BRANCH   1  11
ATOM     11  C   UNL     1      19.476  16.337  33.613  1.00  0.00     0.000 C 
BRANCH  11  12
ATOM     12  C   UNL     1      18.344  15.934  34.572  1.00  0.00    -0.000 C 
BRANCH  12  13
ATOM     13  C   UNL     1      18.417  16.675  35.918  1.00  0.00    -0.000 C 
BRANCH  13  14
ATOM     14  C   UNL     1      17.411  17.835  36.006  1.00  0.00    -0.000 C 
BRANCH  14  15
ATOM     15  C   UNL     1      18.100  19.208  36.080  1.00  0.00    -0.000 C 
BRANCH  15  16
ATOM     16  C   UNL     1      18.126  19.929  34.722  1.00  0.00    -0.000 C 
BRANCH  16  17
ATOM     17  C   UNL     1      19.522  19.931  34.083  1.00  0.00    -0.003 C 
ATOM     18  C   UNL     1      20.602  19.644  35.123  1.00  0.00     0.004 C 
ENDBRANCH  16  17
ENDBRANCH  15  16
ENDBRANCH  14  15
ENDBRANCH  13  14
ENDBRANCH  12  13
ENDBRANCH  11  12
ENDBRANCH   1  11
TORSDOF 14
ENDMDL
MODEL 7
REMARK VINA RESULT:    -4.393      2.108      5.166
REMARK INTER + INTRA:          -9.886
REMARK INTER:                  -7.979
REMARK INTRA:                  -1.907
REMARK UNBOUND:                -1.897
REMARK SMILES CCCCCCCCCCCCCCCC(=O)[O-]
REMARK SMILES IDX 9 1 10 2 11 3 12 4 13 5 14 6 15 7 16 8 17 9 18 10 8 11 7 12
REMARK SMILES IDX 6 13 5 14 4 15 3 16 2 17 1 18
REMARK H PARENT
REMARK Flexibility Score: inf
ROOT
ATOM      1  C   UNL     1      18.780  20.257  34.463  1.00  0.00     0.000 C 
ENDROOT
BRANCH   1   2
ATOM      2  C   UNL     1      17.604  19.492  33.837  1.00  0.00     0.000 C 
BRANCH   2   3
ATOM      3  C   UNL     1      18.046  18.539  32.715  1.00  0.00     0.000 C 
BRANCH   3   4
ATOM      4  C   UNL     1      16.886  17.691  32.165  1.00  0.00     0.000 C 
BRANCH   4   5
ATOM      5  C   UNL     1      15.512  18.338  32.440  1.00  0.00     0.000 C 
BRANCH   5   6
ATOM      6  C   UNL     1      14.562  18.302  31.232  1.00  0.00     0.006 C 
BRANCH   6   7
ATOM      7  C   UNL     1      13.333  17.416  31.465  1.00  0.00     0.053 C 
BRANCH   7   8
ATOM      8  C   UNL     1      13.730  15.974  31.519  1.00  0.00     0.041 C 
ATOM      9  O   UNL     1      13.413  15.268  32.513  1.00  0.00    -0.550 OA
ATOM     10  O   UNL     1      14.406  15.398  30.452  1.00  0.00    -0.550 OA
ENDBRANCH   7   8
ENDBRANCH   6   7
ENDBRANCH   5   6
ENDBRANCH   4   5
ENDBRANCH   3   4
ENDBRANCH   2   3
ENDBRANCH   1   2
BRANCH   1  11
ATOM     11  C   UNL     1      20.118  19.592  34.104  1.00  0.00     0.000 C 
BRANCH  11  12
ATOM     12  C   UNL     1      21.012  19.362  35.333  1.00  0.00    -0.000 C 
BRANCH  12  13
ATOM     13  C   UNL     1      20.498  18.226  36.234  1.00  0.00    -0.000 C 
BRANCH  13  14
ATOM     14  C   UNL     1      20.713  16.837  35.610  1.00  0.00    -0.000 C 
BRANCH  14  15
ATOM     15  C   UNL     1      19.389  16.138  35.259  1.00  0.00    -0.000 C 
BRANCH  15  16
ATOM     16  C   UNL     1      18.195  16.706  36.044  1.00  0.00    -0.000 C 
BRANCH  16  17
ATOM     17  C   UNL     1      16.886  15.962  35.746  1.00  0.00    -0.003 C 
ATOM     18  C   UNL     1      15.900  16.099  36.903  1.00  0.00     0.004 C 
ENDBRANCH  16  17
ENDBRANCH  15  16
ENDBRANCH  14  15
ENDBRANCH  13  14
ENDBRANCH  12  13
ENDBRANCH  11  12
ENDBRANCH   1  11
TORSDOF 14
ENDMDL
MODEL 8
REMARK VINA RESULT:    -4.352      1.311      1.997
REMARK INTER + INTRA:          -9.810
REMARK INTER:                  -7.457
REMARK INTRA:                  -2.354
REMARK UNBOUND:                -1.897
REMARK SMILES CCCCCCCCCCCCCCCC(=O)[O-]
REMARK SMILES IDX 9 1 10 2 11 3 12 4 13 5 14 6 15 7 16 8 17 9 18 10 8 11 7 12
REMARK SMILES IDX 6 13 5 14 4 15 3 16 2 17 1 18
REMARK H PARENT
REMARK Flexibility Score: inf
ROOT
ATOM      1  C   UNL     1      18.897  19.119  32.523  1.00  0.00     0.000 C 
ENDROOT
BRANCH   1   2
ATOM      2  C   UNL     1      19.021  19.930  33.823  1.00  0.00     0.000 C 
BRANCH   2   3
ATOM      3  C   UNL     1      17.735  19.900  34.664  1.00  0.00     0.000 C 
BRANCH   3   4
ATOM      4  C   UNL     1      18.000  19.558  36.141  1.00  0.00     0.000 C 
BRANCH   4   5
ATOM      5  C   UNL     1      18.154  18.039  36.367  1.00  0.00     0.000 C 
BRANCH   5   6
ATOM      6  C   UNL     1      16.955  17.217  35.866  1.00  0.00     0.006 C 
BRANCH   6   7
ATOM      7  C   UNL     1      16.879  15.824  36.500  1.00  0.00     0.053 C 
BRANCH   7   8
ATOM      8  C   UNL     1      15.707  15.734  37.426  1.00  0.00     0.041 C 
ATOM      9  O   UNL     1      15.181  14.617  37.675  1.00  0.00    -0.550 OA
ATOM     10  O   UNL     1      15.226  16.877  38.052  1.00  0.00    -0.550 OA
ENDBRANCH   7   8
ENDBRANCH   6   7
ENDBRANCH   5   6
ENDBRANCH   4   5
ENDBRANCH   3   4
ENDBRANCH   2   3
ENDBRANCH   1   2
BRANCH   1  11
ATOM     11  C   UNL     1      19.151  17.627  32.784  1.00  0.00     0.000 C 
BRANCH  11  12
ATOM     12  C   UNL     1      19.206  16.802  31.488  1.00  0.00    -0.000 C 
BRANCH  12  13
ATOM     13  C   UNL     1      18.256  15.592  31.517  1.00  0.00    -0.000 C 
BRANCH  13  14
ATOM     14  C   UNL     1      17.141  15.744  32.564  1.00  0.00    -0.000 C 
BRANCH  14  15
ATOM     15  C   UNL     1      15.833  16.282  31.958  1.00  0.00    -0.000 C 
BRANCH  15  16
ATOM     16  C   UNL     1      15.438  17.653  32.530  1.00  0.00    -0.000 C 
BRANCH  16  17
ATOM     17  C   UNL     1      15.403  18.751  31.456  1.00  0.00    -0.003 C 
ATOM     18  C   UNL     1      15.880  18.217  30.109  1.00  0.00     0.004 C 
ENDBRANCH  16  17
ENDBRANCH  15  16
ENDBRANCH  14  15
ENDBRANCH  13  14
ENDBRANCH  12  13
ENDBRANCH  11  12
ENDBRANCH   1  11
TORSDOF 14
ENDMDL
MODEL 9
REMARK VINA RESULT:    -4.321      1.418      1.973
REMARK INTER + INTRA:          -9.754
REMARK INTER:                  -7.835
REMARK INTRA:                  -1.919
REMARK UNBOUND:                -1.897
REMARK SMILES CCCCCCCCCCCCCCCC(=O)[O-]
REMARK SMILES IDX 9 1 10 2 11 3 12 4 13 5 14 6 15 7 16 8 17 9 18 10 8 11 7 12
REMARK SMILES IDX 6 13 5 14 4 15 3 16 2 17 1 18
REMARK H PARENT
REMARK Flexibility Score: inf
ROOT
ATOM      1  C   UNL     1      18.356  19.839  33.827  1.00  0.00     0.000 C 
ENDROOT
BRANCH   1   2
ATOM      2  C   UNL     1      19.802  19.554  34.261  1.00  0.00     0.000 C 
BRANCH   2   3
ATOM      3  C   UNL     1      19.947  19.419  35.785  1.00  0.00     0.000 C 
BRANCH   3   4
ATOM      4  C   UNL     1      18.875  18.508  36.406  1.00  0.00     0.000 C 
BRANCH   4   5
ATOM      5  C   UNL     1      19.045  17.034  35.977  1.00  0.00     0.000 C 
BRANCH   5   6
ATOM      6  C   UNL     1      17.839  16.148  36.328  1.00  0.00     0.006 C 
BRANCH   6   7
ATOM      7  C   UNL     1      16.539  16.944  36.487  1.00  0.00     0.053 C 
BRANCH   7   8
ATOM      8  C   UNL     1      15.517  16.135  37.222  1.00  0.00     0.041 C 
ATOM      9  O   UNL     1      15.656  14.888  37.331  1.00  0.00    -0.550 OA
ATOM     10  O   UNL     1      14.437  16.764  37.827  1.00  0.00    -0.550 OA
ENDBRANCH   7   8
ENDBRANCH   6   7
ENDBRANCH   5   6
ENDBRANCH   4   5
ENDBRANCH   3   4
ENDBRANCH   2   3
ENDBRANCH   1   2
BRANCH   1  11
ATOM     11  C   UNL     1      18.024  19.107  32.518  1.00  0.00     0.000 C 
BRANCH  11  12
ATOM     12  C   UNL     1      17.514  17.676  32.754  1.00  0.00    -0.000 C 
BRANCH  12  13
ATOM     13  C   UNL     1      15.987  17.615  32.933  1.00  0.00    -0.000 C 
BRANCH  13  14
ATOM     14  C   UNL     1      15.263  18.766  32.215  1.00  0.00    -0.000 C 
BRANCH  14  15
ATOM     15  C   UNL     1      14.180  18.267  31.244  1.00  0.00    -0.000 C 
BRANCH  15  16
ATOM     16  C   UNL     1      14.773  17.641  29.970  1.00  0.00    -0.000 C 
BRANCH  16  17
ATOM     17  C   UNL     1      15.693  18.609  29.212  1.00  0.00    -0.003 C 
ATOM     18  C   UNL     1      17.096  18.029  29.063  1.00  0.00     0.004 C 
ENDBRANCH  16  17
ENDBRANCH  15  16
ENDBRANCH  14  15
ENDBRANCH  13  14
ENDBRANCH  12  13
ENDBRANCH  11  12
ENDBRANCH   1  11
TORSDOF 14
ENDMDL
