MODEL 1
REMARK VINA RESULT:    -4.628      0.000      0.000
REMARK INTER + INTRA:         -14.375
REMARK INTER:                 -10.580
REMARK INTRA:                  -3.795
REMARK UNBOUND:                -3.795
REMARK SMILES CCCCCCCCCCCCCCCCCCCCCCCC(=O)[O-]
REMARK SMILES IDX 13 1 14 2 15 3 16 4 17 5 18 6 19 7 20 8 21 9 22 10 23 11
REMARK SMILES IDX 24 12 25 13 26 14 12 15 11 16 10 17 9 18 8 19 7 20 6 21 5 22
REMARK SMILES IDX 4 23 3 24 2 25 1 26
REMARK H PARENT
REMARK Flexibility Score: inf
ROOT
ATOM      1  C   UNL     1     188.177 195.742 194.863  1.00  0.00     0.000 C 
ENDROOT
BRANCH   1   2
ATOM      2  C   UNL     1     188.503 194.368 195.472  1.00  0.00     0.000 C 
BRANCH   2   3
ATOM      3  C   UNL     1     189.784 193.746 194.888  1.00  0.00     0.000 C 
BRANCH   3   4
ATOM      4  C   UNL     1     189.598 193.274 193.436  1.00  0.00     0.000 C 
BRANCH   4   5
ATOM      5  C   UNL     1     190.123 191.845 193.212  1.00  0.00     0.000 C 
BRANCH   5   6
ATOM      6  C   UNL     1     190.748 191.657 191.820  1.00  0.00     0.000 C 
BRANCH   6   7
ATOM      7  C   UNL     1     191.083 192.993 191.138  1.00  0.00     0.000 C 
BRANCH   7   8
ATOM      8  C   UNL     1     192.575 193.320 191.276  1.00  0.00     0.000 C 
BRANCH   8   9
ATOM      9  C   UNL     1     192.803 194.837 191.340  1.00  0.00     0.000 C 
BRANCH   9  10
ATOM     10  C   UNL     1     191.491 195.642 191.395  1.00  0.00     0.006 C 
BRANCH  10  11
ATOM     11  C   UNL     1     191.307 196.450 192.692  1.00  0.00     0.053 C 
BRANCH  11  12
ATOM     12  C   UNL     1     191.941 197.806 192.623  1.00  0.00     0.041 C 
ATOM     13  O   UNL     1     192.935 198.081 193.347  1.00  0.00    -0.550 OA
ATOM     14  O   UNL     1     191.457 198.755 191.732  1.00  0.00    -0.550 OA
ENDBRANCH  11  12
ENDBRANCH  10  11
ENDBRANCH   9  10
ENDBRANCH   8   9
ENDBRANCH   7   8
ENDBRANCH   6   7
ENDBRANCH   5   6
ENDBRANCH   4   5
ENDBRANCH   3   4
ENDBRANCH   2   3
ENDBRANCH   1   2
BRANCH   1  15
ATOM     15  C   UNL     1     186.932 196.386 195.498  1.00  0.00     0.000 C 
BRANCH  15  16
ATOM     16  C   UNL     1     186.447 195.647 196.758  1.00  0.00     0.000 C 
BRANCH  16  17
ATOM     17  C   UNL     1     184.985 195.164 196.721  1.00  0.00     0.000 C 
BRANCH  17  18
ATOM     18  C   UNL     1     184.222 195.657 195.480  1.00  0.00    -0.000 C 
BRANCH  18  19
ATOM     19  C   UNL     1     183.310 194.577 194.869  1.00  0.00    -0.000 C 
BRANCH  19  20
ATOM     20  C   UNL     1     183.859 193.893 193.600  1.00  0.00    -0.000 C 
BRANCH  20  21
ATOM     21  C   UNL     1     185.140 194.523 193.017  1.00  0.00    -0.000 C 
BRANCH  21  22
ATOM     22  C   UNL     1     186.228 193.515 192.603  1.00  0.00    -0.000 C 
BRANCH  22  23
ATOM     23  C   UNL     1     186.182 192.217 193.423  1.00  0.00    -0.000 C 
BRANCH  23  24
ATOM     24  C   UNL     1     186.514 191.004 192.541  1.00  0.00    -0.000 C 
BRANCH  24  25
ATOM     25  C   UNL     1     186.884 191.400 191.104  1.00  0.00    -0.003 C 
ATOM     26  C   UNL     1     186.595 190.291 190.093  1.00  0.00     0.004 C 
ENDBRANCH  24  25
ENDBRANCH  23  24
ENDBRANCH  22  23
ENDBRANCH  21  22
ENDBRANCH  20  21
ENDBRANCH  19  20
ENDBRANCH  18  19
ENDBRANCH  17  18
ENDBRANCH  16  17
ENDBRANCH  15  16
ENDBRANCH   1  15
TORSDOF 22
ENDMDL
MODEL 2
REMARK VINA RESULT:    -4.610      1.736      4.579
REMARK INTER + INTRA:         -14.334
REMARK INTER:                 -11.337
REMARK INTRA:                  -2.997
REMARK UNBOUND:                -3.795
REMARK SMILES CCCCCCCCCCCCCCCCCCCCCCCC(=O)[O-]
REMARK SMILES IDX 13 1 14 2 15 3 16 4 17 5 18 6 19 7 20 8 21 9 22 10 23 11
REMARK SMILES IDX 24 12 25 13 26 14 12 15 11 16 10 17 9 18 8 19 7 20 6 21 5 22
REMARK SMILES IDX 4 23 3 24 2 25 1 26
REMARK H PARENT
REMARK Flexibility Score: inf
ROOT
ATOM      1  C   UNL     1     188.581 193.286 192.747  1.00  0.00     0.000 C 
ENDROOT
BRANCH   1   2
ATOM      2  C   UNL     1     188.378 192.547 191.413  1.00  0.00     0.000 C 
BRANCH   2   3
ATOM      3  C   UNL     1     189.706 192.179 190.729  1.00  0.00     0.000 C 
BRANCH   3   4
ATOM      4  C   UNL     1     190.649 191.398 191.658  1.00  0.00     0.000 C 
BRANCH   4   5
ATOM      5  C   UNL     1     191.925 192.187 191.999  1.00  0.00     0.000 C 
BRANCH   5   6
ATOM      6  C   UNL     1     192.227 193.293 190.975  1.00  0.00     0.000 C 
BRANCH   6   7
ATOM      7  C   UNL     1     192.637 194.617 191.638  1.00  0.00     0.000 C 
BRANCH   7   8
ATOM      8  C   UNL     1     191.536 195.673 191.481  1.00  0.00     0.000 C 
BRANCH   8   9
ATOM      9  C   UNL     1     190.960 196.075 192.846  1.00  0.00     0.000 C 
BRANCH   9  10
ATOM     10  C   UNL     1     191.223 197.549 193.202  1.00  0.00     0.006 C 
BRANCH  10  11
ATOM     11  C   UNL     1     192.696 197.973 193.060  1.00  0.00     0.053 C 
BRANCH  11  12
ATOM     12  C   UNL     1     192.855 199.285 192.352  1.00  0.00     0.041 C 
ATOM     13  O   UNL     1     193.375 200.267 192.943  1.00  0.00    -0.550 OA
ATOM     14  O   UNL     1     192.461 199.410 191.025  1.00  0.00    -0.550 OA
ENDBRANCH  11  12
ENDBRANCH  10  11
ENDBRANCH   9  10
ENDBRANCH   8   9
ENDBRANCH   7   8
ENDBRANCH   6   7
ENDBRANCH   5   6
ENDBRANCH   4   5
ENDBRANCH   3   4
ENDBRANCH   2   3
ENDBRANCH   1   2
BRANCH   1  15
ATOM     15  C   UNL     1     187.273 193.887 193.291  1.00  0.00     0.000 C 
BRANCH  15  16
ATOM     16  C   UNL     1     186.248 192.818 193.713  1.00  0.00     0.000 C 
BRANCH  16  17
ATOM     17  C   UNL     1     184.971 193.355 194.388  1.00  0.00     0.000 C 
BRANCH  17  18
ATOM     18  C   UNL     1     184.605 194.777 193.931  1.00  0.00    -0.000 C 
BRANCH  18  19
ATOM     19  C   UNL     1     184.729 195.819 195.059  1.00  0.00    -0.000 C 
BRANCH  19  20
ATOM     20  C   UNL     1     185.494 195.345 196.311  1.00  0.00    -0.000 C 
BRANCH  20  21
ATOM     21  C   UNL     1     186.942 195.861 196.431  1.00  0.00    -0.000 C 
BRANCH  21  22
ATOM     22  C   UNL     1     187.323 196.963 195.427  1.00  0.00    -0.000 C 
BRANCH  22  23
ATOM     23  C   UNL     1     188.576 197.746 195.846  1.00  0.00    -0.000 C 
BRANCH  23  24
ATOM     24  C   UNL     1     189.354 196.991 196.933  1.00  0.00    -0.000 C 
BRANCH  24  25
ATOM     25  C   UNL     1     190.250 197.916 197.770  1.00  0.00    -0.003 C 
ATOM     26  C   UNL     1     191.318 198.619 196.932  1.00  0.00     0.004 C 
ENDBRANCH  24  25
ENDBRANCH  23  24
ENDBRANCH  22  23
ENDBRANCH  21  22
ENDBRANCH  20  21
ENDBRANCH  19  20
ENDBRANCH  18  19
ENDBRANCH  17  18
ENDBRANCH  16  17
ENDBRANCH  15  16
ENDBRANCH   1  15
TORSDOF 22
ENDMDL
MODEL 3
REMARK VINA RESULT:    -4.606      1.214      4.784
REMARK INTER + INTRA:         -14.325
REMARK INTER:                 -10.957
REMARK INTRA:                  -3.368
REMARK UNBOUND:                -3.795
REMARK SMILES CCCCCCCCCCCCCCCCCCCCCCCC(=O)[O-]
REMARK SMILES IDX 13 1 14 2 15 3 16 4 17 5 18 6 19 7 20 8 21 9 22 10 23 11
REMARK SMILES IDX 24 12 25 13 26 14 12 15 11 16 10 17 9 18 8 19 7 20 6 21 5 22
REMARK SMILES IDX 4 23 3 24 2 25 1 26
REMARK H PARENT
REMARK Flexibility Score: inf
ROOT
ATOM      1  C   UNL     1     185.690 193.893 193.092  1.00  0.00     0.000 C 
ENDROOT
BRANCH   1   2
ATOM      2  C   UNL     1     184.429 194.311 193.866  1.00  0.00     0.000 C 
BRANCH   2   3
ATOM      3  C   UNL     1     184.600 195.651 194.604  1.00  0.00     0.000 C 
BRANCH   3   4
ATOM      4  C   UNL     1     185.244 195.480 195.990  1.00  0.00     0.000 C 
BRANCH   4   5
ATOM      5  C   UNL     1     186.679 196.034 196.043  1.00  0.00     0.000 C 
BRANCH   5   6
ATOM      6  C   UNL     1     187.666 195.053 196.695  1.00  0.00     0.000 C 
BRANCH   6   7
ATOM      7  C   UNL     1     188.612 194.401 195.673  1.00  0.00     0.000 C 
BRANCH   7   8
ATOM      8  C   UNL     1     189.152 195.441 194.684  1.00  0.00     0.000 C 
BRANCH   8   9
ATOM      9  C   UNL     1     189.907 194.763 193.531  1.00  0.00     0.000 C 
BRANCH   9  10
ATOM     10  C   UNL     1     191.050 195.628 192.968  1.00  0.00     0.006 C 
BRANCH  10  11
ATOM     11  C   UNL     1     190.807 197.143 193.092  1.00  0.00     0.053 C 
BRANCH  11  12
ATOM     12  C   UNL     1     191.377 197.916 191.941  1.00  0.00     0.041 C 
ATOM     13  O   UNL     1     192.124 198.908 192.149  1.00  0.00    -0.550 OA
ATOM     14  O   UNL     1     191.112 197.516 190.637  1.00  0.00    -0.550 OA
ENDBRANCH  11  12
ENDBRANCH  10  11
ENDBRANCH   9  10
ENDBRANCH   8   9
ENDBRANCH   7   8
ENDBRANCH   6   7
ENDBRANCH   5   6
ENDBRANCH   4   5
ENDBRANCH   3   4
ENDBRANCH   2   3
ENDBRANCH   1   2
BRANCH   1  15
ATOM     15  C   UNL     1     186.288 192.573 193.611  1.00  0.00     0.000 C 
BRANCH  15  16
ATOM     16  C   UNL     1     185.235 191.464 193.788  1.00  0.00     0.000 C 
BRANCH  16  17
ATOM     17  C   UNL     1     185.597 190.103 193.162  1.00  0.00     0.000 C 
BRANCH  17  18
ATOM     18  C   UNL     1     186.891 190.149 192.334  1.00  0.00    -0.000 C 
BRANCH  18  19
ATOM     19  C   UNL     1     186.718 189.567 190.919  1.00  0.00    -0.000 C 
BRANCH  19  20
ATOM     20  C   UNL     1     186.502 190.608 189.802  1.00  0.00    -0.000 C 
BRANCH  20  21
ATOM     21  C   UNL     1     187.084 192.007 190.087  1.00  0.00    -0.000 C 
BRANCH  21  22
ATOM     22  C   UNL     1     188.556 192.193 189.677  1.00  0.00    -0.000 C 
BRANCH  22  23
ATOM     23  C   UNL     1     189.478 192.480 190.871  1.00  0.00    -0.000 C 
BRANCH  23  24
ATOM     24  C   UNL     1     190.830 191.771 190.700  1.00  0.00    -0.000 C 
BRANCH  24  25
ATOM     25  C   UNL     1     191.568 191.577 192.034  1.00  0.00    -0.003 C 
ATOM     26  C   UNL     1     190.743 190.795 193.056  1.00  0.00     0.004 C 
ENDBRANCH  24  25
ENDBRANCH  23  24
ENDBRANCH  22  23
ENDBRANCH  21  22
ENDBRANCH  20  21
ENDBRANCH  19  20
ENDBRANCH  18  19
ENDBRANCH  17  18
ENDBRANCH  16  17
ENDBRANCH  15  16
ENDBRANCH   1  15
TORSDOF 22
ENDMDL
MODEL 4
REMARK VINA RESULT:    -4.531      1.941      6.508
REMARK INTER + INTRA:         -14.153
REMARK INTER:                 -10.398
REMARK INTRA:                  -3.754
REMARK UNBOUND:                -3.795
REMARK SMILES CCCCCCCCCCCCCCCCCCCCCCCC(=O)[O-]
REMARK SMILES IDX 13 1 14 2 15 3 16 4 17 5 18 6 19 7 20 8 21 9 22 10 23 11
REMARK SMILES IDX 24 12 25 13 26 14 12 15 11 16 10 17 9 18 8 19 7 20 6 21 5 22
REMARK SMILES IDX 4 23 3 24 2 25 1 26
REMARK H PARENT
REMARK Flexibility Score: inf
ROOT
ATOM      1  C   UNL     1     186.296 194.048 192.972  1.00  0.00     0.000 C 
ENDROOT
BRANCH   1   2
ATOM      2  C   UNL     1     184.875 194.598 193.173  1.00  0.00     0.000 C 
BRANCH   2   3
ATOM      3  C   UNL     1     183.902 193.544 193.730  1.00  0.00     0.000 C 
BRANCH   3   4
ATOM      4  C   UNL     1     183.482 193.839 195.180  1.00  0.00     0.000 C 
BRANCH   4   5
ATOM      5  C   UNL     1     183.919 195.240 195.644  1.00  0.00     0.000 C 
BRANCH   5   6
ATOM      6  C   UNL     1     184.889 195.191 196.836  1.00  0.00     0.000 C 
BRANCH   6   7
ATOM      7  C   UNL     1     186.021 194.172 196.634  1.00  0.00     0.000 C 
BRANCH   7   8
ATOM      8  C   UNL     1     187.358 194.879 196.383  1.00  0.00     0.000 C 
BRANCH   8   9
ATOM      9  C   UNL     1     187.195 196.405 196.451  1.00  0.00     0.000 C 
BRANCH   9  10
ATOM     10  C   UNL     1     187.843 197.134 195.259  1.00  0.00     0.006 C 
BRANCH  10  11
ATOM     11  C   UNL     1     189.322 197.499 195.478  1.00  0.00     0.053 C 
BRANCH  11  12
ATOM     12  C   UNL     1     189.613 197.911 196.889  1.00  0.00     0.041 C 
ATOM     13  O   UNL     1     189.269 199.049 197.303  1.00  0.00    -0.550 OA
ATOM     14  O   UNL     1     190.233 197.022 197.759  1.00  0.00    -0.550 OA
ENDBRANCH  11  12
ENDBRANCH  10  11
ENDBRANCH   9  10
ENDBRANCH   8   9
ENDBRANCH   7   8
ENDBRANCH   6   7
ENDBRANCH   5   6
ENDBRANCH   4   5
ENDBRANCH   3   4
ENDBRANCH   2   3
ENDBRANCH   1   2
BRANCH   1  15
ATOM     15  C   UNL     1     186.390 192.539 193.259  1.00  0.00     0.000 C 
BRANCH  15  16
ATOM     16  C   UNL     1     186.940 191.733 192.068  1.00  0.00     0.000 C 
BRANCH  16  17
ATOM     17  C   UNL     1     187.355 192.566 190.840  1.00  0.00     0.000 C 
BRANCH  17  18
ATOM     18  C   UNL     1     188.872 192.557 190.595  1.00  0.00    -0.000 C 
BRANCH  18  19
ATOM     19  C   UNL     1     189.633 191.646 191.577  1.00  0.00    -0.000 C 
BRANCH  19  20
ATOM     20  C   UNL     1     190.613 192.372 192.522  1.00  0.00    -0.000 C 
BRANCH  20  21
ATOM     21  C   UNL     1     189.975 193.435 193.438  1.00  0.00    -0.000 C 
BRANCH  21  22
ATOM     22  C   UNL     1     190.295 194.893 193.060  1.00  0.00    -0.000 C 
BRANCH  22  23
ATOM     23  C   UNL     1     191.572 195.024 192.217  1.00  0.00    -0.000 C 
BRANCH  23  24
ATOM     24  C   UNL     1     191.456 196.196 191.230  1.00  0.00    -0.000 C 
BRANCH  24  25
ATOM     25  C   UNL     1     191.155 197.530 191.930  1.00  0.00    -0.003 C 
ATOM     26  C   UNL     1     192.204 197.895 192.980  1.00  0.00     0.004 C 
ENDBRANCH  24  25
ENDBRANCH  23  24
ENDBRANCH  22  23
ENDBRANCH  21  22
ENDBRANCH  20  21
ENDBRANCH  19  20
ENDBRANCH  18  19
ENDBRANCH  17  18
ENDBRANCH  16  17
ENDBRANCH  15  16
ENDBRANCH   1  15
TORSDOF 22
ENDMDL
MODEL 5
REMARK VINA RESULT:    -4.527      3.838      6.978
REMARK INTER + INTRA:         -14.145
REMARK INTER:                 -10.585
REMARK INTRA:                  -3.560
REMARK UNBOUND:                -3.795
REMARK SMILES CCCCCCCCCCCCCCCCCCCCCCCC(=O)[O-]
REMARK SMILES IDX 13 1 14 2 15 3 16 4 17 5 18 6 19 7 20 8 21 9 22 10 23 11
REMARK SMILES IDX 24 12 25 13 26 14 12 15 11 16 10 17 9 18 8 19 7 20 6 21 5 22
REMARK SMILES IDX 4 23 3 24 2 25 1 26
REMARK H PARENT
REMARK Flexibility Score: inf
ROOT
ATOM      1  C   UNL     1     191.847 195.597 191.105  1.00  0.00     0.000 C 
ENDROOT
BRANCH   1   2
ATOM      2  C   UNL     1     192.696 194.412 191.594  1.00  0.00     0.000 C 
BRANCH   2   3
ATOM      3  C   UNL     1     192.306 193.083 190.923  1.00  0.00     0.000 C 
BRANCH   3   4
ATOM      4  C   UNL     1     191.801 192.040 191.933  1.00  0.00     0.000 C 
BRANCH   4   5
ATOM      5  C   UNL     1     190.444 191.438 191.527  1.00  0.00     0.000 C 
BRANCH   5   6
ATOM      6  C   UNL     1     189.739 192.255 190.433  1.00  0.00     0.000 C 
BRANCH   6   7
ATOM      7  C   UNL     1     188.316 191.752 190.144  1.00  0.00     0.000 C 
BRANCH   7   8
ATOM      8  C   UNL     1     187.285 192.505 190.992  1.00  0.00     0.000 C 
BRANCH   8   9
ATOM      9  C   UNL     1     186.662 191.583 192.050  1.00  0.00     0.000 C 
BRANCH   9  10
ATOM     10  C   UNL     1     186.933 190.091 191.784  1.00  0.00     0.006 C 
BRANCH  10  11
ATOM     11  C   UNL     1     185.709 189.316 191.264  1.00  0.00     0.053 C 
BRANCH  11  12
ATOM     12  C   UNL     1     186.073 187.989 190.670  1.00  0.00     0.041 C 
ATOM     13  O   UNL     1     185.489 187.575 189.634  1.00  0.00    -0.550 OA
ATOM     14  O   UNL     1     187.085 187.227 191.240  1.00  0.00    -0.550 OA
ENDBRANCH  11  12
ENDBRANCH  10  11
ENDBRANCH   9  10
ENDBRANCH   8   9
ENDBRANCH   7   8
ENDBRANCH   6   7
ENDBRANCH   5   6
ENDBRANCH   4   5
ENDBRANCH   3   4
ENDBRANCH   2   3
ENDBRANCH   1   2
BRANCH   1  15
ATOM     15  C   UNL     1     191.054 196.262 192.243  1.00  0.00     0.000 C 
BRANCH  15  16
ATOM     16  C   UNL     1     190.746 195.299 193.405  1.00  0.00     0.000 C 
BRANCH  16  17
ATOM     17  C   UNL     1     189.410 194.539 193.298  1.00  0.00     0.000 C 
BRANCH  17  18
ATOM     18  C   UNL     1     188.971 193.907 194.629  1.00  0.00    -0.000 C 
BRANCH  18  19
ATOM     19  C   UNL     1     187.447 193.965 194.846  1.00  0.00    -0.000 C 
BRANCH  19  20
ATOM     20  C   UNL     1     186.995 194.616 196.169  1.00  0.00    -0.000 C 
BRANCH  20  21
ATOM     21  C   UNL     1     186.430 196.044 196.038  1.00  0.00    -0.000 C 
BRANCH  21  22
ATOM     22  C   UNL     1     187.371 197.054 195.357  1.00  0.00    -0.000 C 
BRANCH  22  23
ATOM     23  C   UNL     1     188.296 197.773 196.350  1.00  0.00    -0.000 C 
BRANCH  23  24
ATOM     24  C   UNL     1     189.657 197.067 196.438  1.00  0.00    -0.000 C 
BRANCH  24  25
ATOM     25  C   UNL     1     190.077 196.772 197.886  1.00  0.00    -0.003 C 
ATOM     26  C   UNL     1     189.999 195.285 198.231  1.00  0.00     0.004 C 
ENDBRANCH  24  25
ENDBRANCH  23  24
ENDBRANCH  22  23
ENDBRANCH  21  22
ENDBRANCH  20  21
ENDBRANCH  19  20
ENDBRANCH  18  19
ENDBRANCH  17  18
ENDBRANCH  16  17
ENDBRANCH  15  16
ENDBRANCH   1  15
TORSDOF 22
ENDMDL
MODEL 6
REMARK VINA RESULT:    -4.491      1.989      4.948
REMARK INTER + INTRA:         -14.063
REMARK INTER:                 -11.220
REMARK INTRA:                  -2.842
REMARK UNBOUND:                -3.795
REMARK SMILES CCCCCCCCCCCCCCCCCCCCCCCC(=O)[O-]
REMARK SMILES IDX 13 1 14 2 15 3 16 4 17 5 18 6 19 7 20 8 21 9 22 10 23 11
REMARK SMILES IDX 24 12 25 13 26 14 12 15 11 16 10 17 9 18 8 19 7 20 6 21 5 22
REMARK SMILES IDX 4 23 3 24 2 25 1 26
REMARK H PARENT
REMARK Flexibility Score: inf
ROOT
ATOM      1  C   UNL     1     186.044 191.782 192.476  1.00  0.00     0.000 C 
ENDROOT
BRANCH   1   2
ATOM      2  C   UNL     1     186.927 191.040 191.460  1.00  0.00     0.000 C 
BRANCH   2   3
ATOM      3  C   UNL     1     187.344 191.927 190.274  1.00  0.00     0.000 C 
BRANCH   3   4
ATOM      4  C   UNL     1     188.867 191.944 190.059  1.00  0.00     0.000 C 
BRANCH   4   5
ATOM      5  C   UNL     1     189.592 192.853 191.067  1.00  0.00     0.000 C 
BRANCH   5   6
ATOM      6  C   UNL     1     190.324 192.058 192.159  1.00  0.00     0.000 C 
BRANCH   6   7
ATOM      7  C   UNL     1     191.845 192.020 191.943  1.00  0.00     0.000 C 
BRANCH   7   8
ATOM      8  C   UNL     1     192.265 192.981 190.825  1.00  0.00     0.000 C 
BRANCH   8   9
ATOM      9  C   UNL     1     192.932 194.239 191.401  1.00  0.00     0.000 C 
BRANCH   9  10
ATOM     10  C   UNL     1     192.111 195.520 191.163  1.00  0.00     0.006 C 
BRANCH  10  11
ATOM     11  C   UNL     1     191.331 196.001 192.399  1.00  0.00     0.053 C 
BRANCH  11  12
ATOM     12  C   UNL     1     191.456 197.478 192.623  1.00  0.00     0.041 C 
ATOM     13  O   UNL     1     190.513 198.251 192.310  1.00  0.00    -0.550 OA
ATOM     14  O   UNL     1     192.602 197.996 193.213  1.00  0.00    -0.550 OA
ENDBRANCH  11  12
ENDBRANCH  10  11
ENDBRANCH   9  10
ENDBRANCH   8   9
ENDBRANCH   7   8
ENDBRANCH   6   7
ENDBRANCH   5   6
ENDBRANCH   4   5
ENDBRANCH   3   4
ENDBRANCH   2   3
ENDBRANCH   1   2
BRANCH   1  15
ATOM     15  C   UNL     1     186.429 193.265 192.617  1.00  0.00     0.000 C 
BRANCH  15  16
ATOM     16  C   UNL     1     187.359 193.535 193.814  1.00  0.00     0.000 C 
BRANCH  16  17
ATOM     17  C   UNL     1     186.650 193.795 195.158  1.00  0.00     0.000 C 
BRANCH  17  18
ATOM     18  C   UNL     1     185.348 194.597 195.003  1.00  0.00    -0.000 C 
BRANCH  18  19
ATOM     19  C   UNL     1     185.537 196.102 195.270  1.00  0.00    -0.000 C 
BRANCH  19  20
ATOM     20  C   UNL     1     186.849 196.484 195.985  1.00  0.00    -0.000 C 
BRANCH  20  21
ATOM     21  C   UNL     1     187.802 197.384 195.173  1.00  0.00    -0.000 C 
BRANCH  21  22
ATOM     22  C   UNL     1     189.285 197.285 195.572  1.00  0.00    -0.000 C 
BRANCH  22  23
ATOM     23  C   UNL     1     189.517 196.374 196.787  1.00  0.00    -0.000 C 
BRANCH  23  24
ATOM     24  C   UNL     1     190.225 197.138 197.915  1.00  0.00    -0.000 C 
BRANCH  24  25
ATOM     25  C   UNL     1     190.697 198.534 197.479  1.00  0.00    -0.003 C 
ATOM     26  C   UNL     1     190.021 199.657 198.265  1.00  0.00     0.004 C 
ENDBRANCH  24  25
ENDBRANCH  23  24
ENDBRANCH  22  23
ENDBRANCH  21  22
ENDBRANCH  20  21
ENDBRANCH  19  20
ENDBRANCH  18  19
ENDBRANCH  17  18
ENDBRANCH  16  17
ENDBRANCH  15  16
ENDBRANCH   1  15
TORSDOF 22
ENDMDL
MODEL 7
REMARK VINA RESULT:    -4.448      1.564      4.335
REMARK INTER + INTRA:         -13.963
REMARK INTER:                 -10.959
REMARK INTRA:                  -3.004
REMARK UNBOUND:                -3.795
REMARK SMILES CCCCCCCCCCCCCCCCCCCCCCCC(=O)[O-]
REMARK SMILES IDX 13 1 14 2 15 3 16 4 17 5 18 6 19 7 20 8 21 9 22 10 23 11
REMARK SMILES IDX 24 12 25 13 26 14 12 15 11 16 10 17 9 18 8 19 7 20 6 21 5 22
REMARK SMILES IDX 4 23 3 24 2 25 1 26
REMARK H PARENT
REMARK Flexibility Score: inf
ROOT
ATOM      1  C   UNL     1     185.076 193.538 193.452  1.00  0.00     0.000 C 
ENDROOT
BRANCH   1   2
ATOM      2  C   UNL     1     186.403 193.540 192.676  1.00  0.00     0.000 C 
BRANCH   2   3
ATOM      3  C   UNL     1     187.176 192.217 192.816  1.00  0.00     0.000 C 
BRANCH   3   4
ATOM      4  C   UNL     1     187.704 191.699 191.468  1.00  0.00     0.000 C 
BRANCH   4   5
ATOM      5  C   UNL     1     188.743 192.646 190.841  1.00  0.00     0.000 C 
BRANCH   5   6
ATOM      6  C   UNL     1     189.870 191.890 190.119  1.00  0.00     0.000 C 
BRANCH   6   7
ATOM      7  C   UNL     1     191.175 191.859 190.930  1.00  0.00     0.000 C 
BRANCH   7   8
ATOM      8  C   UNL     1     191.216 193.005 191.948  1.00  0.00     0.000 C 
BRANCH   8   9
ATOM      9  C   UNL     1     192.228 194.080 191.528  1.00  0.00     0.000 C 
BRANCH   9  10
ATOM     10  C   UNL     1     191.584 195.461 191.307  1.00  0.00     0.006 C 
BRANCH  10  11
ATOM     11  C   UNL     1     191.033 196.106 192.592  1.00  0.00     0.053 C 
BRANCH  11  12
ATOM     12  C   UNL     1     191.356 197.567 192.690  1.00  0.00     0.041 C 
ATOM     13  O   UNL     1     190.525 198.429 192.303  1.00  0.00    -0.550 OA
ATOM     14  O   UNL     1     192.563 197.975 193.244  1.00  0.00    -0.550 OA
ENDBRANCH  11  12
ENDBRANCH  10  11
ENDBRANCH   9  10
ENDBRANCH   8   9
ENDBRANCH   7   8
ENDBRANCH   6   7
ENDBRANCH   5   6
ENDBRANCH   4   5
ENDBRANCH   3   4
ENDBRANCH   2   3
ENDBRANCH   1   2
BRANCH   1  15
ATOM     15  C   UNL     1     184.362 194.900 193.402  1.00  0.00     0.000 C 
BRANCH  15  16
ATOM     16  C   UNL     1     184.089 195.489 194.799  1.00  0.00     0.000 C 
BRANCH  16  17
ATOM     17  C   UNL     1     183.617 194.477 195.862  1.00  0.00     0.000 C 
BRANCH  17  18
ATOM     18  C   UNL     1     184.685 194.187 196.928  1.00  0.00    -0.000 C 
BRANCH  18  19
ATOM     19  C   UNL     1     185.795 195.254 196.972  1.00  0.00    -0.000 C 
BRANCH  19  20
ATOM     20  C   UNL     1     187.187 194.774 196.512  1.00  0.00    -0.000 C 
BRANCH  20  21
ATOM     21  C   UNL     1     187.780 195.535 195.309  1.00  0.00    -0.000 C 
BRANCH  21  22
ATOM     22  C   UNL     1     187.460 197.041 195.273  1.00  0.00    -0.000 C 
BRANCH  22  23
ATOM     23  C   UNL     1     188.289 197.852 196.280  1.00  0.00    -0.000 C 
BRANCH  23  24
ATOM     24  C   UNL     1     189.750 197.379 196.291  1.00  0.00    -0.000 C 
BRANCH  24  25
ATOM     25  C   UNL     1     190.327 197.273 197.711  1.00  0.00    -0.003 C 
ATOM     26  C   UNL     1     190.008 195.935 198.378  1.00  0.00     0.004 C 
ENDBRANCH  24  25
ENDBRANCH  23  24
ENDBRANCH  22  23
ENDBRANCH  21  22
ENDBRANCH  20  21
ENDBRANCH  19  20
ENDBRANCH  18  19
ENDBRANCH  17  18
ENDBRANCH  16  17
ENDBRANCH  15  16
ENDBRANCH   1  15
TORSDOF 22
ENDMDL
MODEL 8
REMARK VINA RESULT:    -4.447      2.214      5.095
REMARK INTER + INTRA:         -13.961
REMARK INTER:                 -10.573
REMARK INTRA:                  -3.388
REMARK UNBOUND:                -3.795
REMARK SMILES CCCCCCCCCCCCCCCCCCCCCCCC(=O)[O-]
REMARK SMILES IDX 13 1 14 2 15 3 16 4 17 5 18 6 19 7 20 8 21 9 22 10 23 11
REMARK SMILES IDX 24 12 25 13 26 14 12 15 11 16 10 17 9 18 8 19 7 20 6 21 5 22
REMARK SMILES IDX 4 23 3 24 2 25 1 26
REMARK H PARENT
REMARK Flexibility Score: inf
ROOT
ATOM      1  C   UNL     1     185.911 194.122 193.180  1.00  0.00     0.000 C 
ENDROOT
BRANCH   1   2
ATOM      2  C   UNL     1     186.410 192.746 193.650  1.00  0.00     0.000 C 
BRANCH   2   3
ATOM      3  C   UNL     1     185.311 191.670 193.615  1.00  0.00     0.000 C 
BRANCH   3   4
ATOM      4  C   UNL     1     185.797 190.353 192.988  1.00  0.00     0.000 C 
BRANCH   4   5
ATOM      5  C   UNL     1     185.631 190.334 191.458  1.00  0.00     0.000 C 
BRANCH   5   6
ATOM      6  C   UNL     1     186.968 190.489 190.717  1.00  0.00     0.000 C 
BRANCH   6   7
ATOM      7  C   UNL     1     186.857 191.397 189.482  1.00  0.00     0.000 C 
BRANCH   7   8
ATOM      8  C   UNL     1     187.897 192.522 189.533  1.00  0.00     0.000 C 
BRANCH   8   9
ATOM      9  C   UNL     1     189.057 192.158 190.471  1.00  0.00     0.000 C 
BRANCH   9  10
ATOM     10  C   UNL     1     189.269 193.188 191.596  1.00  0.00     0.006 C 
BRANCH  10  11
ATOM     11  C   UNL     1     190.133 192.672 192.761  1.00  0.00     0.053 C 
BRANCH  11  12
ATOM     12  C   UNL     1     191.377 191.979 192.295  1.00  0.00     0.041 C 
ATOM     13  O   UNL     1     191.536 190.748 192.506  1.00  0.00    -0.550 OA
ATOM     14  O   UNL     1     192.346 192.686 191.594  1.00  0.00    -0.550 OA
ENDBRANCH  11  12
ENDBRANCH  10  11
ENDBRANCH   9  10
ENDBRANCH   8   9
ENDBRANCH   7   8
ENDBRANCH   6   7
ENDBRANCH   5   6
ENDBRANCH   4   5
ENDBRANCH   3   4
ENDBRANCH   2   3
ENDBRANCH   1   2
BRANCH   1  15
ATOM     15  C   UNL     1     184.532 194.478 193.761  1.00  0.00     0.000 C 
BRANCH  15  16
ATOM     16  C   UNL     1     184.585 195.642 194.768  1.00  0.00     0.000 C 
BRANCH  16  17
ATOM     17  C   UNL     1     184.188 195.285 196.213  1.00  0.00     0.000 C 
BRANCH  17  18
ATOM     18  C   UNL     1     185.392 194.893 197.086  1.00  0.00    -0.000 C 
BRANCH  18  19
ATOM     19  C   UNL     1     186.714 195.513 196.596  1.00  0.00    -0.000 C 
BRANCH  19  20
ATOM     20  C   UNL     1     187.886 194.522 196.439  1.00  0.00    -0.000 C 
BRANCH  20  21
ATOM     21  C   UNL     1     189.184 195.126 195.866  1.00  0.00    -0.000 C 
BRANCH  21  22
ATOM     22  C   UNL     1     189.028 195.824 194.503  1.00  0.00    -0.000 C 
BRANCH  22  23
ATOM     23  C   UNL     1     190.034 196.965 194.297  1.00  0.00    -0.000 C 
BRANCH  23  24
ATOM     24  C   UNL     1     190.916 196.701 193.068  1.00  0.00    -0.000 C 
BRANCH  24  25
ATOM     25  C   UNL     1     191.160 197.966 192.231  1.00  0.00    -0.003 C 
ATOM     26  C   UNL     1     191.288 197.670 190.737  1.00  0.00     0.004 C 
ENDBRANCH  24  25
ENDBRANCH  23  24
ENDBRANCH  22  23
ENDBRANCH  21  22
ENDBRANCH  20  21
ENDBRANCH  19  20
ENDBRANCH  18  19
ENDBRANCH  17  18
ENDBRANCH  16  17
ENDBRANCH  15  16
ENDBRANCH   1  15
TORSDOF 22
ENDMDL
MODEL 9
REMARK VINA RESULT:    -4.444      2.039      6.142
REMARK INTER + INTRA:         -13.956
REMARK INTER:                 -10.450
REMARK INTRA:                  -3.506
REMARK UNBOUND:                -3.795
REMARK SMILES CCCCCCCCCCCCCCCCCCCCCCCC(=O)[O-]
REMARK SMILES IDX 13 1 14 2 15 3 16 4 17 5 18 6 19 7 20 8 21 9 22 10 23 11
REMARK SMILES IDX 24 12 25 13 26 14 12 15 11 16 10 17 9 18 8 19 7 20 6 21 5 22
REMARK SMILES IDX 4 23 3 24 2 25 1 26
REMARK H PARENT
REMARK Flexibility Score: inf
ROOT
ATOM      1  C   UNL     1     186.357 192.781 193.652  1.00  0.00     0.000 C 
ENDROOT
BRANCH   1   2
ATOM      2  C   UNL     1     185.793 194.068 193.028  1.00  0.00     0.000 C 
BRANCH   2   3
ATOM      3  C   UNL     1     184.312 194.298 193.374  1.00  0.00     0.000 C 
BRANCH   3   4
ATOM      4  C   UNL     1     184.115 195.433 194.392  1.00  0.00     0.000 C 
BRANCH   4   5
ATOM      5  C   UNL     1     183.716 194.912 195.784  1.00  0.00     0.000 C 
BRANCH   5   6
ATOM      6  C   UNL     1     184.736 195.287 196.870  1.00  0.00     0.000 C 
BRANCH   6   7
ATOM      7  C   UNL     1     186.007 194.426 196.810  1.00  0.00     0.000 C 
BRANCH   7   8
ATOM      8  C   UNL     1     187.258 195.302 196.675  1.00  0.00     0.000 C 
BRANCH   8   9
ATOM      9  C   UNL     1     187.026 196.444 195.675  1.00  0.00     0.000 C 
BRANCH   9  10
ATOM     10  C   UNL     1     188.084 197.558 195.774  1.00  0.00     0.006 C 
BRANCH  10  11
ATOM     11  C   UNL     1     189.274 197.210 196.686  1.00  0.00     0.053 C 
BRANCH  11  12
ATOM     12  C   UNL     1     189.894 198.420 197.315  1.00  0.00     0.041 C 
ATOM     13  O   UNL     1     191.146 198.517 197.410  1.00  0.00    -0.550 OA
ATOM     14  O   UNL     1     189.089 199.461 197.763  1.00  0.00    -0.550 OA
ENDBRANCH  11  12
ENDBRANCH  10  11
ENDBRANCH   9  10
ENDBRANCH   8   9
ENDBRANCH   7   8
ENDBRANCH   6   7
ENDBRANCH   5   6
ENDBRANCH   4   5
ENDBRANCH   3   4
ENDBRANCH   2   3
ENDBRANCH   1   2
BRANCH   1  15
ATOM     15  C   UNL     1     185.318 191.647 193.702  1.00  0.00     0.000 C 
BRANCH  15  16
ATOM     16  C   UNL     1     185.584 190.541 192.663  1.00  0.00     0.000 C 
BRANCH  16  17
ATOM     17  C   UNL     1     187.005 190.521 192.068  1.00  0.00     0.000 C 
BRANCH  17  18
ATOM     18  C   UNL     1     187.018 190.688 190.540  1.00  0.00    -0.000 C 
BRANCH  18  19
ATOM     19  C   UNL     1     187.306 192.135 190.097  1.00  0.00    -0.000 C 
BRANCH  19  20
ATOM     20  C   UNL     1     188.673 192.697 190.537  1.00  0.00    -0.000 C 
BRANCH  20  21
ATOM     21  C   UNL     1     189.894 191.847 190.133  1.00  0.00    -0.000 C 
BRANCH  21  22
ATOM     22  C   UNL     1     191.090 191.929 191.098  1.00  0.00    -0.000 C 
BRANCH  22  23
ATOM     23  C   UNL     1     190.953 193.063 192.125  1.00  0.00    -0.000 C 
BRANCH  23  24
ATOM     24  C   UNL     1     190.193 192.583 193.370  1.00  0.00    -0.000 C 
BRANCH  24  25
ATOM     25  C   UNL     1     189.651 193.745 194.216  1.00  0.00    -0.003 C 
ATOM     26  C   UNL     1     190.026 195.114 193.647  1.00  0.00     0.004 C 
ENDBRANCH  24  25
ENDBRANCH  23  24
ENDBRANCH  22  23
ENDBRANCH  21  22
ENDBRANCH  20  21
ENDBRANCH  19  20
ENDBRANCH  18  19
ENDBRANCH  17  18
ENDBRANCH  16  17
ENDBRANCH  15  16
ENDBRANCH   1  15
TORSDOF 22
ENDMDL
