MODEL 1
REMARK VINA RESULT:     0.060      0.000      0.000
REMARK INTER + INTRA:          -0.827
REMARK INTER:                   0.116
REMARK INTRA:                  -0.942
REMARK UNBOUND:                -0.942
REMARK SMILES CCCCCCCCCCCCCCCCCC(=O)[O-]
REMARK SMILES IDX 10 1 11 2 12 3 13 4 14 5 15 6 16 7 17 8 18 9 19 10 20 11
REMARK SMILES IDX 9 12 8 13 7 14 6 15 5 16 4 17 3 18 2 19 1 20
REMARK H PARENT
REMARK Flexibility Score: inf
ROOT
ATOM      1  C   UNL     1      33.981  24.119  34.309  1.00  0.00     0.000 C 
ENDROOT
BRANCH   1   2
ATOM      2  C   UNL     1      34.955  25.076  33.604  1.00  0.00     0.000 C 
BRANCH   2   3
ATOM      3  C   UNL     1      35.908  24.345  32.644  1.00  0.00     0.000 C 
BRANCH   3   4
ATOM      4  C   UNL     1      36.071  25.079  31.301  1.00  0.00     0.000 C 
BRANCH   4   5
ATOM      5  C   UNL     1      37.047  24.367  30.351  1.00  0.00     0.000 C 
BRANCH   5   6
ATOM      6  C   UNL     1      37.125  25.042  28.971  1.00  0.00     0.000 C 
BRANCH   6   7
ATOM      7  C   UNL     1      35.767  25.066  28.242  1.00  0.00     0.006 C 
BRANCH   7   8
ATOM      8  C   UNL     1      35.259  23.684  27.802  1.00  0.00     0.053 C 
BRANCH   8   9
ATOM      9  C   UNL     1      33.778  23.673  27.584  1.00  0.00     0.041 C 
ATOM     10  O   UNL     1      33.075  24.646  27.966  1.00  0.00    -0.550 OA
ATOM     11  O   UNL     1      33.170  22.576  26.990  1.00  0.00    -0.550 OA
ENDBRANCH   8   9
ENDBRANCH   7   8
ENDBRANCH   6   7
ENDBRANCH   5   6
ENDBRANCH   4   5
ENDBRANCH   3   4
ENDBRANCH   2   3
ENDBRANCH   1   2
BRANCH   1  12
ATOM     12  C   UNL     1      32.875  24.897  35.034  1.00  0.00     0.000 C 
BRANCH  12  13
ATOM     13  C   UNL     1      31.612  24.038  35.191  1.00  0.00    -0.000 C 
BRANCH  13  14
ATOM     14  C   UNL     1      30.351  24.731  34.646  1.00  0.00    -0.000 C 
BRANCH  14  15
ATOM     15  C   UNL     1      30.487  25.121  33.165  1.00  0.00    -0.000 C 
BRANCH  15  16
ATOM     16  C   UNL     1      29.141  25.109  32.417  1.00  0.00    -0.000 C 
BRANCH  16  17
ATOM     17  C   UNL     1      29.245  25.082  30.882  1.00  0.00    -0.000 C 
BRANCH  17  18
ATOM     18  C   UNL     1      30.546  24.437  30.380  1.00  0.00    -0.000 C 
BRANCH  18  19
ATOM     19  C   UNL     1      30.300  23.629  29.101  1.00  0.00    -0.003 C 
ATOM     20  C   UNL     1      29.675  24.495  28.012  1.00  0.00     0.004 C 
ENDBRANCH  18  19
ENDBRANCH  17  18
ENDBRANCH  16  17
ENDBRANCH  15  16
ENDBRANCH  14  15
ENDBRANCH  13  14
ENDBRANCH  12  13
ENDBRANCH   1  12
TORSDOF 16
ENDMDL
MODEL 2
REMARK VINA RESULT:     1.596      1.402      5.346
REMARK INTER + INTRA:           2.147
REMARK INTER:                   1.757
REMARK INTRA:                   0.390
REMARK UNBOUND:                -0.942
REMARK SMILES CCCCCCCCCCCCCCCCCC(=O)[O-]
REMARK SMILES IDX 10 1 11 2 12 3 13 4 14 5 15 6 16 7 17 8 18 9 19 10 20 11
REMARK SMILES IDX 9 12 8 13 7 14 6 15 5 16 4 17 3 18 2 19 1 20
REMARK H PARENT
REMARK Flexibility Score: inf
ROOT
ATOM      1  C   UNL     1      31.765  23.790  34.101  1.00  0.00     0.000 C 
ENDROOT
BRANCH   1   2
ATOM      2  C   UNL     1      30.858  24.460  35.145  1.00  0.00     0.000 C 
BRANCH   2   3
ATOM      3  C   UNL     1      29.440  24.724  34.614  1.00  0.00     0.000 C 
BRANCH   3   4
ATOM      4  C   UNL     1      29.431  25.124  33.128  1.00  0.00     0.000 C 
BRANCH   4   5
ATOM      5  C   UNL     1      30.084  24.066  32.224  1.00  0.00     0.000 C 
BRANCH   5   6
ATOM      6  C   UNL     1      30.361  24.591  30.806  1.00  0.00     0.000 C 
BRANCH   6   7
ATOM      7  C   UNL     1      31.708  24.101  30.242  1.00  0.00     0.006 C 
BRANCH   7   8
ATOM      8  C   UNL     1      31.601  23.353  28.903  1.00  0.00     0.053 C 
BRANCH   8   9
ATOM      9  C   UNL     1      30.421  23.806  28.100  1.00  0.00     0.041 C 
ATOM     10  O   UNL     1      29.313  23.219  28.216  1.00  0.00    -0.550 OA
ATOM     11  O   UNL     1      30.553  24.855  27.200  1.00  0.00    -0.550 OA
ENDBRANCH   8   9
ENDBRANCH   7   8
ENDBRANCH   6   7
ENDBRANCH   5   6
ENDBRANCH   4   5
ENDBRANCH   3   4
ENDBRANCH   2   3
ENDBRANCH   1   2
BRANCH   1  12
ATOM     12  C   UNL     1      33.177  24.387  34.137  1.00  0.00     0.000 C 
BRANCH  12  13
ATOM     13  C   UNL     1      33.522  25.061  32.800  1.00  0.00    -0.000 C 
BRANCH  13  14
ATOM     14  C   UNL     1      35.021  24.985  32.467  1.00  0.00    -0.000 C 
BRANCH  14  15
ATOM     15  C   UNL     1      35.298  25.123  30.960  1.00  0.00    -0.000 C 
BRANCH  15  16
ATOM     16  C   UNL     1      36.761  24.819  30.590  1.00  0.00    -0.000 C 
BRANCH  16  17
ATOM     17  C   UNL     1      37.120  25.033  29.109  1.00  0.00    -0.000 C 
BRANCH  17  18
ATOM     18  C   UNL     1      35.897  24.975  28.181  1.00  0.00    -0.000 C 
BRANCH  18  19
ATOM     19  C   UNL     1      35.454  23.525  27.947  1.00  0.00    -0.003 C 
ATOM     20  C   UNL     1      34.138  23.468  27.178  1.00  0.00     0.004 C 
ENDBRANCH  18  19
ENDBRANCH  17  18
ENDBRANCH  16  17
ENDBRANCH  15  16
ENDBRANCH  14  15
ENDBRANCH  13  14
ENDBRANCH  12  13
ENDBRANCH   1  12
TORSDOF 16
ENDMDL
