MODEL 1
REMARK VINA RESULT:    -7.594      0.000      0.000
REMARK INTER + INTRA:          -8.735
REMARK INTER:                  -9.148
REMARK INTRA:                   0.413
REMARK UNBOUND:                 0.413
REMARK SMILES O=c1c(O)c(-c2ccc(O)c(O)c2)oc2cc(O)cc(O)c12
REMARK SMILES IDX 5 1 3 2 2 3 1 4 22 5 20 6 19 7 17 8 16 9 15 10 14 11 6 12
REMARK SMILES IDX 7 13 8 14 9 15 13 16 11 17 10 18 12 20 4 22 21 24 18 26
REMARK H PARENT 10 19 12 21 4 23 21 25 18 27
REMARK Flexibility Score: inf
ROOT
ATOM      1  C   UNL     1      16.333  29.953  23.806  1.00  0.00     0.180 A 
ATOM      2  C   UNL     1      16.286  31.253  23.274  1.00  0.00     0.208 A 
ATOM      3  C   UNL     1      15.357  31.539  22.261  1.00  0.00     0.238 A 
ATOM      4  O   UNL     1      15.357  32.690  21.750  1.00  0.00    -0.285 OA
ATOM      5  C   UNL     1      14.476  30.529  21.806  1.00  0.00     0.111 A 
ATOM      6  C   UNL     1      13.468  30.719  20.813  1.00  0.00     0.134 A 
ATOM      7  C   UNL     1      12.743  29.617  20.346  1.00  0.00     0.093 A 
ATOM      8  C   UNL     1      12.942  28.343  20.882  1.00  0.00     0.123 A 
ATOM      9  C   UNL     1      13.882  28.157  21.894  1.00  0.00     0.094 A 
ATOM     10  C   UNL     1      14.648  29.232  22.355  1.00  0.00     0.146 A 
ATOM     11  O   UNL     1      15.539  29.009  23.312  1.00  0.00    -0.452 OA
ENDROOT
BRANCH   1  12
ATOM     12  C   UNL     1      17.268  29.581  24.894  1.00  0.00     0.025 A 
ATOM     13  C   UNL     1      17.675  28.251  25.085  1.00  0.00     0.016 A 
ATOM     14  C   UNL     1      18.576  27.929  26.102  1.00  0.00     0.051 A 
ATOM     15  C   UNL     1      19.098  28.923  26.936  1.00  0.00     0.157 A 
ATOM     16  C   UNL     1      17.807  30.584  25.716  1.00  0.00     0.062 A 
ATOM     17  C   UNL     1      18.711  30.269  26.738  1.00  0.00     0.158 A 
BRANCH  15  18
ATOM     18  O   UNL     1      19.990  28.533  27.937  1.00  0.00    -0.504 OA
ATOM     19  H   UNL     1      20.893  28.116  27.757  1.00  0.00     0.293 HD
ENDBRANCH  15  18
BRANCH  17  20
ATOM     20  O   UNL     1      19.195  31.317  27.524  1.00  0.00    -0.504 OA
ATOM     21  H   UNL     1      18.909  31.487  28.477  1.00  0.00     0.293 HD
ENDBRANCH  17  20
ENDBRANCH   1  12
BRANCH   2  22
ATOM     22  O   UNL     1      17.179  32.230  23.723  1.00  0.00    -0.502 OA
ATOM     23  H   UNL     1      17.374  32.381  24.704  1.00  0.00     0.293 HD
ENDBRANCH   2  22
BRANCH   6  24
ATOM     24  O   UNL     1      13.126  31.964  20.277  1.00  0.00    -0.507 OA
ATOM     25  H   UNL     1      13.295  32.850  20.729  1.00  0.00     0.293 HD
ENDBRANCH   6  24
BRANCH   8  26
ATOM     26  O   UNL     1      12.204  27.254  20.423  1.00  0.00    -0.508 OA
ATOM     27  H   UNL     1      12.520  26.302  20.566  1.00  0.00     0.293 HD
ENDBRANCH   8  26
TORSDOF 6
ENDMDL
MODEL 2
REMARK VINA RESULT:    -7.362      5.770      7.326
REMARK INTER + INTRA:          -8.456
REMARK INTER:                  -8.178
REMARK INTRA:                  -0.278
REMARK UNBOUND:                 0.413
REMARK SMILES O=c1c(O)c(-c2ccc(O)c(O)c2)oc2cc(O)cc(O)c12
REMARK SMILES IDX 5 1 3 2 2 3 1 4 22 5 20 6 19 7 17 8 16 9 15 10 14 11 6 12
REMARK SMILES IDX 7 13 8 14 9 15 13 16 11 17 10 18 12 20 4 22 21 24 18 26
REMARK H PARENT 10 19 12 21 4 23 21 25 18 27
REMARK Flexibility Score: inf
ROOT
ATOM      1  C   UNL     1      11.747  32.586  21.356  1.00  0.00     0.180 A 
ATOM      2  C   UNL     1      10.553  32.785  20.642  1.00  0.00     0.208 A 
ATOM      3  C   UNL     1       9.354  32.947  21.354  1.00  0.00     0.238 A 
ATOM      4  O   UNL     1       8.280  33.069  20.708  1.00  0.00    -0.285 OA
ATOM      5  C   UNL     1       9.366  32.927  22.769  1.00  0.00     0.111 A 
ATOM      6  C   UNL     1       8.216  33.121  23.592  1.00  0.00     0.134 A 
ATOM      7  C   UNL     1       8.322  32.949  24.978  1.00  0.00     0.093 A 
ATOM      8  C   UNL     1       9.549  32.654  25.575  1.00  0.00     0.123 A 
ATOM      9  C   UNL     1      10.689  32.521  24.786  1.00  0.00     0.094 A 
ATOM     10  C   UNL     1      10.608  32.650  23.397  1.00  0.00     0.146 A 
ATOM     11  O   UNL     1      11.716  32.505  22.682  1.00  0.00    -0.452 OA
ENDROOT
BRANCH   1  12
ATOM     12  C   UNL     1      13.054  32.432  20.677  1.00  0.00     0.025 A 
ATOM     13  C   UNL     1      13.416  31.228  20.052  1.00  0.00     0.016 A 
ATOM     14  C   UNL     1      14.644  31.115  19.397  1.00  0.00     0.051 A 
ATOM     15  C   UNL     1      15.527  32.199  19.341  1.00  0.00     0.157 A 
ATOM     16  C   UNL     1      13.929  33.528  20.603  1.00  0.00     0.062 A 
ATOM     17  C   UNL     1      15.163  33.424  19.948  1.00  0.00     0.158 A 
BRANCH  15  18
ATOM     18  O   UNL     1      16.741  32.018  18.675  1.00  0.00    -0.504 OA
ATOM     19  H   UNL     1      17.543  31.554  19.079  1.00  0.00     0.293 HD
ENDBRANCH  15  18
BRANCH  17  20
ATOM     20  O   UNL     1      15.986  34.551  19.926  1.00  0.00    -0.504 OA
ATOM     21  H   UNL     1      16.916  34.579  20.318  1.00  0.00     0.293 HD
ENDBRANCH  17  20
ENDBRANCH   1  12
BRANCH   2  22
ATOM     22  O   UNL     1      10.560  32.780  19.244  1.00  0.00    -0.502 OA
ATOM     23  H   UNL     1      10.434  33.622  18.696  1.00  0.00     0.293 HD
ENDBRANCH   2  22
BRANCH   6  24
ATOM     24  O   UNL     1       6.964  33.507  23.106  1.00  0.00    -0.507 OA
ATOM     25  H   UNL     1       6.436  32.999  22.412  1.00  0.00     0.293 HD
ENDBRANCH   6  24
BRANCH   8  26
ATOM     26  O   UNL     1       9.649  32.501  26.957  1.00  0.00    -0.508 OA
ATOM     27  H   UNL     1      10.543  32.545  27.432  1.00  0.00     0.293 HD
ENDBRANCH   8  26
TORSDOF 6
ENDMDL
MODEL 3
REMARK VINA RESULT:    -7.246      5.370      7.927
REMARK INTER + INTRA:          -8.315
REMARK INTER:                  -8.341
REMARK INTRA:                   0.026
REMARK UNBOUND:                 0.413
REMARK SMILES O=c1c(O)c(-c2ccc(O)c(O)c2)oc2cc(O)cc(O)c12
REMARK SMILES IDX 5 1 3 2 2 3 1 4 22 5 20 6 19 7 17 8 16 9 15 10 14 11 6 12
REMARK SMILES IDX 7 13 8 14 9 15 13 16 11 17 10 18 12 20 4 22 21 24 18 26
REMARK H PARENT 10 19 12 21 4 23 21 25 18 27
REMARK Flexibility Score: inf
ROOT
ATOM      1  C   UNL     1      10.437  33.030  22.014  1.00  0.00     0.180 A 
ATOM      2  C   UNL     1       9.992  33.712  20.869  1.00  0.00     0.208 A 
ATOM      3  C   UNL     1      10.932  34.107  19.904  1.00  0.00     0.238 A 
ATOM      4  O   UNL     1      10.535  34.766  18.908  1.00  0.00    -0.285 OA
ATOM      5  C   UNL     1      12.302  33.799  20.087  1.00  0.00     0.111 A 
ATOM      6  C   UNL     1      13.335  34.114  19.155  1.00  0.00     0.134 A 
ATOM      7  C   UNL     1      14.671  33.880  19.500  1.00  0.00     0.093 A 
ATOM      8  C   UNL     1      15.007  33.281  20.716  1.00  0.00     0.123 A 
ATOM      9  C   UNL     1      14.002  32.915  21.608  1.00  0.00     0.094 A 
ATOM     10  C   UNL     1      12.661  33.170  21.308  1.00  0.00     0.146 A 
ATOM     11  O   UNL     1      11.735  32.814  22.189  1.00  0.00    -0.452 OA
ENDROOT
BRANCH   1  12
ATOM     12  C   UNL     1       9.502  32.560  23.063  1.00  0.00     0.025 A 
ATOM     13  C   UNL     1       8.315  31.888  22.737  1.00  0.00     0.016 A 
ATOM     14  C   UNL     1       7.462  31.433  23.745  1.00  0.00     0.051 A 
ATOM     15  C   UNL     1       7.781  31.627  25.093  1.00  0.00     0.157 A 
ATOM     16  C   UNL     1       9.836  32.737  24.416  1.00  0.00     0.062 A 
ATOM     17  C   UNL     1       8.986  32.285  25.433  1.00  0.00     0.158 A 
BRANCH  15  18
ATOM     18  O   UNL     1       6.882  31.153  26.051  1.00  0.00    -0.504 OA
ATOM     19  H   UNL     1       6.666  31.638  26.911  1.00  0.00     0.293 HD
ENDBRANCH  15  18
BRANCH  17  20
ATOM     20  O   UNL     1       9.377  32.507  26.756  1.00  0.00    -0.504 OA
ATOM     21  H   UNL     1       9.157  31.887  27.521  1.00  0.00     0.293 HD
ENDBRANCH  17  20
ENDBRANCH   1  12
BRANCH   2  22
ATOM     22  O   UNL     1       8.638  34.025  20.717  1.00  0.00    -0.502 OA
ATOM     23  H   UNL     1       8.294  34.977  20.735  1.00  0.00     0.293 HD
ENDBRANCH   2  22
BRANCH   6  24
ATOM     24  O   UNL     1      13.103  34.631  17.877  1.00  0.00    -0.507 OA
ATOM     25  H   UNL     1      13.810  34.747  17.167  1.00  0.00     0.293 HD
ENDBRANCH   6  24
BRANCH   8  26
ATOM     26  O   UNL     1      16.339  33.036  21.045  1.00  0.00    -0.508 OA
ATOM     27  H   UNL     1      17.066  33.715  20.852  1.00  0.00     0.293 HD
ENDBRANCH   8  26
TORSDOF 6
ENDMDL
MODEL 4
REMARK VINA RESULT:    -7.061      4.937      6.269
REMARK INTER + INTRA:          -8.093
REMARK INTER:                  -7.760
REMARK INTRA:                  -0.333
REMARK UNBOUND:                 0.413
REMARK SMILES O=c1c(O)c(-c2ccc(O)c(O)c2)oc2cc(O)cc(O)c12
REMARK SMILES IDX 5 1 3 2 2 3 1 4 22 5 20 6 19 7 17 8 16 9 15 10 14 11 6 12
REMARK SMILES IDX 7 13 8 14 9 15 13 16 11 17 10 18 12 20 4 22 21 24 18 26
REMARK H PARENT 10 19 12 21 4 23 21 25 18 27
REMARK Flexibility Score: inf
ROOT
ATOM      1  C   UNL     1      12.356  31.750  21.875  1.00  0.00     0.180 A 
ATOM      2  C   UNL     1      13.608  32.220  21.443  1.00  0.00     0.208 A 
ATOM      3  C   UNL     1      14.380  31.414  20.590  1.00  0.00     0.238 A 
ATOM      4  O   UNL     1      15.524  31.815  20.252  1.00  0.00    -0.285 OA
ATOM      5  C   UNL     1      13.882  30.158  20.166  1.00  0.00     0.111 A 
ATOM      6  C   UNL     1      14.561  29.279  19.270  1.00  0.00     0.134 A 
ATOM      7  C   UNL     1      14.035  28.005  19.023  1.00  0.00     0.093 A 
ATOM      8  C   UNL     1      12.822  27.604  19.587  1.00  0.00     0.123 A 
ATOM      9  C   UNL     1      12.122  28.478  20.416  1.00  0.00     0.094 A 
ATOM     10  C   UNL     1      12.640  29.742  20.711  1.00  0.00     0.146 A 
ATOM     11  O   UNL     1      11.946  30.540  21.513  1.00  0.00    -0.452 OA
ENDROOT
BRANCH   1  12
ATOM     12  C   UNL     1      11.475  32.553  22.754  1.00  0.00     0.025 A 
ATOM     13  C   UNL     1      10.575  33.492  22.227  1.00  0.00     0.016 A 
ATOM     14  C   UNL     1       9.738  34.220  23.075  1.00  0.00     0.051 A 
ATOM     15  C   UNL     1       9.771  34.017  24.459  1.00  0.00     0.157 A 
ATOM     16  C   UNL     1      11.495  32.331  24.141  1.00  0.00     0.062 A 
ATOM     17  C   UNL     1      10.658  33.056  24.999  1.00  0.00     0.158 A 
BRANCH  15  18
ATOM     18  O   UNL     1       8.911  34.780  25.251  1.00  0.00    -0.504 OA
ATOM     19  H   UNL     1       8.986  35.782  25.362  1.00  0.00     0.293 HD
ENDBRANCH  15  18
BRANCH  17  20
ATOM     20  O   UNL     1      10.742  32.791  26.368  1.00  0.00    -0.504 OA
ATOM     21  H   UNL     1      10.893  31.873  26.757  1.00  0.00     0.293 HD
ENDBRANCH  17  20
ENDBRANCH   1  12
BRANCH   2  22
ATOM     22  O   UNL     1      14.091  33.453  21.891  1.00  0.00    -0.502 OA
ATOM     23  H   UNL     1      14.824  33.958  21.410  1.00  0.00     0.293 HD
ENDBRANCH   2  22
BRANCH   6  24
ATOM     24  O   UNL     1      15.731  29.614  18.582  1.00  0.00    -0.507 OA
ATOM     25  H   UNL     1      16.568  29.976  19.015  1.00  0.00     0.293 HD
ENDBRANCH   6  24
BRANCH   8  26
ATOM     26  O   UNL     1      12.297  26.341  19.323  1.00  0.00    -0.508 OA
ATOM     27  H   UNL     1      12.672  25.755  18.586  1.00  0.00     0.293 HD
ENDBRANCH   8  26
TORSDOF 6
ENDMDL
MODEL 5
REMARK VINA RESULT:    -7.033      5.550      7.649
REMARK INTER + INTRA:          -8.059
REMARK INTER:                  -7.737
REMARK INTRA:                  -0.322
REMARK UNBOUND:                 0.413
REMARK SMILES O=c1c(O)c(-c2ccc(O)c(O)c2)oc2cc(O)cc(O)c12
REMARK SMILES IDX 5 1 3 2 2 3 1 4 22 5 20 6 19 7 17 8 16 9 15 10 14 11 6 12
REMARK SMILES IDX 7 13 8 14 9 15 13 16 11 17 10 18 12 20 4 22 21 24 18 26
REMARK H PARENT 10 19 12 21 4 23 21 25 18 27
REMARK Flexibility Score: inf
ROOT
ATOM      1  C   UNL     1      12.147  32.750  21.285  1.00  0.00     0.180 A 
ATOM      2  C   UNL     1      12.688  31.475  21.048  1.00  0.00     0.208 A 
ATOM      3  C   UNL     1      13.819  31.358  20.225  1.00  0.00     0.238 A 
ATOM      4  O   UNL     1      14.265  30.208  19.972  1.00  0.00    -0.285 OA
ATOM      5  C   UNL     1      14.407  32.517  19.665  1.00  0.00     0.111 A 
ATOM      6  C   UNL     1      15.578  32.520  18.850  1.00  0.00     0.134 A 
ATOM      7  C   UNL     1      15.994  33.710  18.242  1.00  0.00     0.093 A 
ATOM      8  C   UNL     1      15.319  34.911  18.472  1.00  0.00     0.123 A 
ATOM      9  C   UNL     1      14.209  34.930  19.313  1.00  0.00     0.094 A 
ATOM     10  C   UNL     1      13.748  33.751  19.905  1.00  0.00     0.146 A 
ATOM     11  O   UNL     1      12.681  33.812  20.691  1.00  0.00    -0.452 OA
ENDROOT
BRANCH   1  12
ATOM     12  C   UNL     1      10.971  32.957  22.161  1.00  0.00     0.025 A 
ATOM     13  C   UNL     1       9.665  32.948  21.645  1.00  0.00     0.016 A 
ATOM     14  C   UNL     1       8.571  33.121  22.495  1.00  0.00     0.051 A 
ATOM     15  C   UNL     1       8.753  33.291  23.871  1.00  0.00     0.157 A 
ATOM     16  C   UNL     1      11.156  33.106  23.545  1.00  0.00     0.062 A 
ATOM     17  C   UNL     1      10.064  33.280  24.404  1.00  0.00     0.158 A 
BRANCH  15  18
ATOM     18  O   UNL     1       7.617  33.464  24.664  1.00  0.00    -0.504 OA
ATOM     19  H   UNL     1       7.167  32.718  25.175  1.00  0.00     0.293 HD
ENDBRANCH  15  18
BRANCH  17  20
ATOM     20  O   UNL     1      10.326  33.435  25.767  1.00  0.00    -0.504 OA
ATOM     21  H   UNL     1      11.203  33.195  26.204  1.00  0.00     0.293 HD
ENDBRANCH  17  20
ENDBRANCH   1  12
BRANCH   2  22
ATOM     22  O   UNL     1      12.080  30.340  21.594  1.00  0.00    -0.502 OA
ATOM     23  H   UNL     1      12.590  29.661  22.145  1.00  0.00     0.293 HD
ENDBRANCH   2  22
BRANCH   6  24
ATOM     24  O   UNL     1      16.378  31.394  18.630  1.00  0.00    -0.507 OA
ATOM     25  H   UNL     1      17.000  30.989  19.314  1.00  0.00     0.293 HD
ENDBRANCH   6  24
BRANCH   8  26
ATOM     26  O   UNL     1      15.749  36.094  17.875  1.00  0.00    -0.508 OA
ATOM     27  H   UNL     1      15.144  36.904  17.808  1.00  0.00     0.293 HD
ENDBRANCH   8  26
TORSDOF 6
ENDMDL
MODEL 6
REMARK VINA RESULT:    -6.741      6.662      8.680
REMARK INTER + INTRA:          -7.707
REMARK INTER:                  -7.393
REMARK INTRA:                  -0.314
REMARK UNBOUND:                 0.413
REMARK SMILES O=c1c(O)c(-c2ccc(O)c(O)c2)oc2cc(O)cc(O)c12
REMARK SMILES IDX 5 1 3 2 2 3 1 4 22 5 20 6 19 7 17 8 16 9 15 10 14 11 6 12
REMARK SMILES IDX 7 13 8 14 9 15 13 16 11 17 10 18 12 20 4 22 21 24 18 26
REMARK H PARENT 10 19 12 21 4 23 21 25 18 27
REMARK Flexibility Score: inf
ROOT
ATOM      1  C   UNL     1       9.549  32.681  21.924  1.00  0.00     0.180 A 
ATOM      2  C   UNL     1       9.166  33.411  23.063  1.00  0.00     0.208 A 
ATOM      3  C   UNL     1       8.322  32.805  24.007  1.00  0.00     0.238 A 
ATOM      4  O   UNL     1       7.939  33.482  24.997  1.00  0.00    -0.285 OA
ATOM      5  C   UNL     1       7.888  31.472  23.812  1.00  0.00     0.111 A 
ATOM      6  C   UNL     1       7.065  30.746  24.724  1.00  0.00     0.134 A 
ATOM      7  C   UNL     1       6.588  29.479  24.365  1.00  0.00     0.093 A 
ATOM      8  C   UNL     1       6.957  28.886  23.156  1.00  0.00     0.123 A 
ATOM      9  C   UNL     1       7.808  29.562  22.285  1.00  0.00     0.094 A 
ATOM     10  C   UNL     1       8.271  30.843  22.598  1.00  0.00     0.146 A 
ATOM     11  O   UNL     1       9.071  31.456  21.736  1.00  0.00    -0.452 OA
ENDROOT
BRANCH   1  12
ATOM     12  C   UNL     1      10.455  33.244  20.897  1.00  0.00     0.025 A 
ATOM     13  C   UNL     1       9.955  33.877  19.748  1.00  0.00     0.016 A 
ATOM     14  C   UNL     1      10.830  34.421  18.806  1.00  0.00     0.051 A 
ATOM     15  C   UNL     1      12.215  34.356  18.994  1.00  0.00     0.157 A 
ATOM     16  C   UNL     1      11.844  33.197  21.099  1.00  0.00     0.062 A 
ATOM     17  C   UNL     1      12.729  33.739  20.159  1.00  0.00     0.158 A 
BRANCH  15  18
ATOM     18  O   UNL     1      13.034  34.915  18.011  1.00  0.00    -0.504 OA
ATOM     19  H   UNL     1      14.039  34.987  18.087  1.00  0.00     0.293 HD
ENDBRANCH  15  18
BRANCH  17  20
ATOM     20  O   UNL     1      14.097  33.645  20.421  1.00  0.00    -0.504 OA
ATOM     21  H   UNL     1      14.486  33.182  21.229  1.00  0.00     0.293 HD
ENDBRANCH  17  20
ENDBRANCH   1  12
BRANCH   2  22
ATOM     22  O   UNL     1       9.589  34.733  23.227  1.00  0.00    -0.502 OA
ATOM     23  H   UNL     1       9.609  35.398  22.463  1.00  0.00     0.293 HD
ENDBRANCH   2  22
BRANCH   6  24
ATOM     24  O   UNL     1       6.712  31.208  25.995  1.00  0.00    -0.507 OA
ATOM     25  H   UNL     1       6.524  32.173  26.224  1.00  0.00     0.293 HD
ENDBRANCH   6  24
BRANCH   8  26
ATOM     26  O   UNL     1       6.491  27.618  22.814  1.00  0.00    -0.508 OA
ATOM     27  H   UNL     1       5.503  27.435  22.681  1.00  0.00     0.293 HD
ENDBRANCH   8  26
TORSDOF 6
ENDMDL
MODEL 7
REMARK VINA RESULT:    -6.616      2.888      4.524
REMARK INTER + INTRA:          -7.558
REMARK INTER:                  -7.423
REMARK INTRA:                  -0.135
REMARK UNBOUND:                 0.413
REMARK SMILES O=c1c(O)c(-c2ccc(O)c(O)c2)oc2cc(O)cc(O)c12
REMARK SMILES IDX 5 1 3 2 2 3 1 4 22 5 20 6 19 7 17 8 16 9 15 10 14 11 6 12
REMARK SMILES IDX 7 13 8 14 9 15 13 16 11 17 10 18 12 20 4 22 21 24 18 26
REMARK H PARENT 10 19 12 21 4 23 21 25 18 27
REMARK Flexibility Score: inf
ROOT
ATOM      1  C   UNL     1      14.105  31.956  21.397  1.00  0.00     0.180 A 
ATOM      2  C   UNL     1      14.665  32.484  20.221  1.00  0.00     0.208 A 
ATOM      3  C   UNL     1      13.864  33.274  19.380  1.00  0.00     0.238 A 
ATOM      4  O   UNL     1      14.355  33.698  18.302  1.00  0.00    -0.285 OA
ATOM      5  C   UNL     1      12.519  33.540  19.735  1.00  0.00     0.111 A 
ATOM      6  C   UNL     1      11.630  34.360  18.978  1.00  0.00     0.134 A 
ATOM      7  C   UNL     1      10.284  34.447  19.353  1.00  0.00     0.093 A 
ATOM      8  C   UNL     1       9.811  33.796  20.495  1.00  0.00     0.123 A 
ATOM      9  C   UNL     1      10.684  33.041  21.274  1.00  0.00     0.094 A 
ATOM     10  C   UNL     1      12.025  32.905  20.904  1.00  0.00     0.146 A 
ATOM     11  O   UNL     1      12.822  32.169  21.668  1.00  0.00    -0.452 OA
ENDROOT
BRANCH   1  12
ATOM     12  C   UNL     1      14.893  31.136  22.345  1.00  0.00     0.025 A 
ATOM     13  C   UNL     1      14.580  29.788  22.580  1.00  0.00     0.016 A 
ATOM     14  C   UNL     1      15.353  29.028  23.461  1.00  0.00     0.051 A 
ATOM     15  C   UNL     1      16.457  29.590  24.111  1.00  0.00     0.157 A 
ATOM     16  C   UNL     1      16.013  31.697  22.980  1.00  0.00     0.062 A 
ATOM     17  C   UNL     1      16.793  30.942  23.865  1.00  0.00     0.158 A 
BRANCH  15  18
ATOM     18  O   UNL     1      17.184  28.777  24.983  1.00  0.00    -0.504 OA
ATOM     19  H   UNL     1      17.049  27.780  25.070  1.00  0.00     0.293 HD
ENDBRANCH  15  18
BRANCH  17  20
ATOM     20  O   UNL     1      17.884  31.570  24.470  1.00  0.00    -0.504 OA
ATOM     21  H   UNL     1      17.877  31.929  25.413  1.00  0.00     0.293 HD
ENDBRANCH  17  20
ENDBRANCH   1  12
BRANCH   2  22
ATOM     22  O   UNL     1      15.989  32.192  19.879  1.00  0.00    -0.502 OA
ATOM     23  H   UNL     1      16.475  32.667  19.129  1.00  0.00     0.293 HD
ENDBRANCH   2  22
BRANCH   6  24
ATOM     24  O   UNL     1      12.020  35.125  17.875  1.00  0.00    -0.507 OA
ATOM     25  H   UNL     1      11.428  35.790  17.399  1.00  0.00     0.293 HD
ENDBRANCH   6  24
BRANCH   8  26
ATOM     26  O   UNL     1       8.473  33.901  20.871  1.00  0.00    -0.508 OA
ATOM     27  H   UNL     1       8.205  34.162  21.813  1.00  0.00     0.293 HD
ENDBRANCH   8  26
TORSDOF 6
ENDMDL
MODEL 8
REMARK VINA RESULT:    -6.522      2.429      4.163
REMARK INTER + INTRA:          -7.444
REMARK INTER:                  -7.407
REMARK INTRA:                  -0.037
REMARK UNBOUND:                 0.413
REMARK SMILES O=c1c(O)c(-c2ccc(O)c(O)c2)oc2cc(O)cc(O)c12
REMARK SMILES IDX 5 1 3 2 2 3 1 4 22 5 20 6 19 7 17 8 16 9 15 10 14 11 6 12
REMARK SMILES IDX 7 13 8 14 9 15 13 16 11 17 10 18 12 20 4 22 21 24 18 26
REMARK H PARENT 10 19 12 21 4 23 21 25 18 27
REMARK Flexibility Score: inf
ROOT
ATOM      1  C   UNL     1      14.132  30.655  22.377  1.00  0.00     0.180 A 
ATOM      2  C   UNL     1      13.764  29.639  21.480  1.00  0.00     0.208 A 
ATOM      3  C   UNL     1      12.546  29.750  20.789  1.00  0.00     0.238 A 
ATOM      4  O   UNL     1      12.195  28.811  20.029  1.00  0.00    -0.285 OA
ATOM      5  C   UNL     1      11.722  30.884  20.991  1.00  0.00     0.111 A 
ATOM      6  C   UNL     1      10.488  31.120  20.315  1.00  0.00     0.134 A 
ATOM      7  C   UNL     1       9.692  32.209  20.690  1.00  0.00     0.093 A 
ATOM      8  C   UNL     1      10.117  33.107  21.671  1.00  0.00     0.123 A 
ATOM      9  C   UNL     1      11.347  32.920  22.295  1.00  0.00     0.094 A 
ATOM     10  C   UNL     1      12.147  31.821  21.969  1.00  0.00     0.146 A 
ATOM     11  O   UNL     1      13.308  31.673  22.595  1.00  0.00    -0.452 OA
ENDROOT
BRANCH   1  12
ATOM     12  C   UNL     1      15.412  30.620  23.123  1.00  0.00     0.025 A 
ATOM     13  C   UNL     1      16.317  31.692  23.072  1.00  0.00     0.016 A 
ATOM     14  C   UNL     1      17.506  31.646  23.804  1.00  0.00     0.051 A 
ATOM     15  C   UNL     1      17.809  30.541  24.607  1.00  0.00     0.157 A 
ATOM     16  C   UNL     1      15.703  29.520  23.946  1.00  0.00     0.062 A 
ATOM     17  C   UNL     1      16.893  29.466  24.682  1.00  0.00     0.158 A 
BRANCH  15  18
ATOM     18  O   UNL     1      19.016  30.556  25.308  1.00  0.00    -0.504 OA
ATOM     19  H   UNL     1      19.109  30.867  26.265  1.00  0.00     0.293 HD
ENDBRANCH  15  18
BRANCH  17  20
ATOM     20  O   UNL     1      17.122  28.334  25.468  1.00  0.00    -0.504 OA
ATOM     21  H   UNL     1      16.547  28.067  26.254  1.00  0.00     0.293 HD
ENDBRANCH  17  20
ENDBRANCH   1  12
BRANCH   2  22
ATOM     22  O   UNL     1      14.581  28.517  21.310  1.00  0.00    -0.502 OA
ATOM     23  H   UNL     1      15.466  28.411  21.790  1.00  0.00     0.293 HD
ENDBRANCH   2  22
BRANCH   6  24
ATOM     24  O   UNL     1      10.014  30.336  19.258  1.00  0.00    -0.507 OA
ATOM     25  H   UNL     1       9.226  29.708  19.317  1.00  0.00     0.293 HD
ENDBRANCH   6  24
BRANCH   8  26
ATOM     26  O   UNL     1       9.326  34.198  22.027  1.00  0.00    -0.508 OA
ATOM     27  H   UNL     1       8.380  34.303  21.678  1.00  0.00     0.293 HD
ENDBRANCH   8  26
TORSDOF 6
ENDMDL
MODEL 9
REMARK VINA RESULT:    -6.295      4.457      8.317
REMARK INTER + INTRA:          -7.171
REMARK INTER:                  -6.852
REMARK INTRA:                  -0.318
REMARK UNBOUND:                 0.413
REMARK SMILES O=c1c(O)c(-c2ccc(O)c(O)c2)oc2cc(O)cc(O)c12
REMARK SMILES IDX 5 1 3 2 2 3 1 4 22 5 20 6 19 7 17 8 16 9 15 10 14 11 6 12
REMARK SMILES IDX 7 13 8 14 9 15 13 16 11 17 10 18 12 20 4 22 21 24 18 26
REMARK H PARENT 10 19 12 21 4 23 21 25 18 27
REMARK Flexibility Score: inf
ROOT
ATOM      1  C   UNL     1      10.520  32.004  21.359  1.00  0.00     0.180 A 
ATOM      2  C   UNL     1      10.414  32.972  20.345  1.00  0.00     0.208 A 
ATOM      3  C   UNL     1      11.583  33.580  19.860  1.00  0.00     0.238 A 
ATOM      4  O   UNL     1      11.477  34.485  18.992  1.00  0.00    -0.285 OA
ATOM      5  C   UNL     1      12.843  33.200  20.381  1.00  0.00     0.111 A 
ATOM      6  C   UNL     1      14.095  33.720  19.935  1.00  0.00     0.134 A 
ATOM      7  C   UNL     1      15.269  33.370  20.612  1.00  0.00     0.093 A 
ATOM      8  C   UNL     1      15.244  32.467  21.677  1.00  0.00     0.123 A 
ATOM      9  C   UNL     1      14.035  31.907  22.082  1.00  0.00     0.094 A 
ATOM     10  C   UNL     1      12.841  32.266  21.450  1.00  0.00     0.146 A 
ATOM     11  O   UNL     1      11.710  31.718  21.874  1.00  0.00    -0.452 OA
ENDROOT
BRANCH   1  12
ATOM     12  C   UNL     1       9.335  31.302  21.904  1.00  0.00     0.025 A 
ATOM     13  C   UNL     1       8.575  31.853  22.948  1.00  0.00     0.016 A 
ATOM     14  C   UNL     1       7.448  31.183  23.428  1.00  0.00     0.051 A 
ATOM     15  C   UNL     1       7.049  29.963  22.872  1.00  0.00     0.157 A 
ATOM     16  C   UNL     1       8.924  30.089  21.329  1.00  0.00     0.062 A 
ATOM     17  C   UNL     1       7.796  29.411  21.805  1.00  0.00     0.158 A 
BRANCH  15  18
ATOM     18  O   UNL     1       5.916  29.343  23.402  1.00  0.00    -0.504 OA
ATOM     19  H   UNL     1       5.838  28.348  23.558  1.00  0.00     0.293 HD
ENDBRANCH  15  18
BRANCH  17  20
ATOM     20  O   UNL     1       7.455  28.202  21.192  1.00  0.00    -0.504 OA
ATOM     21  H   UNL     1       7.804  27.302  21.487  1.00  0.00     0.293 HD
ENDBRANCH  17  20
ENDBRANCH   1  12
BRANCH   2  22
ATOM     22  O   UNL     1       9.158  33.349  19.859  1.00  0.00    -0.502 OA
ATOM     23  H   UNL     1       9.021  33.700  18.920  1.00  0.00     0.293 HD
ENDBRANCH   2  22
BRANCH   6  24
ATOM     24  O   UNL     1      14.241  34.557  18.824  1.00  0.00    -0.507 OA
ATOM     25  H   UNL     1      14.715  35.448  18.835  1.00  0.00     0.293 HD
ENDBRANCH   6  24
BRANCH   8  26
ATOM     26  O   UNL     1      16.420  32.111  22.335  1.00  0.00    -0.508 OA
ATOM     27  H   UNL     1      17.010  31.360  21.997  1.00  0.00     0.293 HD
ENDBRANCH   8  26
TORSDOF 6
ENDMDL
