MODEL 1
REMARK VINA RESULT:    -4.073      0.000      0.000
REMARK INTER + INTRA:         -13.734
REMARK INTER:                  -9.310
REMARK INTRA:                  -4.424
REMARK UNBOUND:                -4.424
REMARK SMILES CCCCCCCCCCCCCCCCCCCCCCCC(=O)[O-]
REMARK SMILES IDX 13 1 14 2 15 3 16 4 17 5 18 6 19 7 20 8 21 9 22 10 23 11
REMARK SMILES IDX 24 12 25 13 26 14 12 15 11 16 10 17 9 18 8 19 7 20 6 21 5 22
REMARK SMILES IDX 4 23 3 24 2 25 1 26
REMARK H PARENT
REMARK Flexibility Score: inf
ROOT
ATOM      1  C   UNL     1     173.232 176.382 178.989  1.00  0.00     0.000 C 
ENDROOT
BRANCH   1   2
ATOM      2  C   UNL     1     174.521 177.221 178.933  1.00  0.00     0.000 C 
BRANCH   2   3
ATOM      3  C   UNL     1     175.786 176.438 178.534  1.00  0.00     0.000 C 
BRANCH   3   4
ATOM      4  C   UNL     1     177.003 176.782 179.406  1.00  0.00     0.000 C 
BRANCH   4   5
ATOM      5  C   UNL     1     176.761 178.080 180.191  1.00  0.00     0.000 C 
BRANCH   5   6
ATOM      6  C   UNL     1     177.011 177.916 181.699  1.00  0.00     0.000 C 
BRANCH   6   7
ATOM      7  C   UNL     1     177.107 176.443 182.125  1.00  0.00     0.000 C 
BRANCH   7   8
ATOM      8  C   UNL     1     176.203 176.160 183.335  1.00  0.00     0.000 C 
BRANCH   8   9
ATOM      9  C   UNL     1     175.532 174.779 183.262  1.00  0.00     0.000 C 
BRANCH   9  10
ATOM     10  C   UNL     1     175.547 174.187 181.841  1.00  0.00     0.006 C 
BRANCH  10  11
ATOM     11  C   UNL     1     175.729 172.664 181.851  1.00  0.00     0.053 C 
BRANCH  11  12
ATOM     12  C   UNL     1     177.119 172.271 181.451  1.00  0.00     0.041 C 
ATOM     13  O   UNL     1     178.103 172.961 181.827  1.00  0.00    -0.550 OA
ATOM     14  O   UNL     1     177.328 171.131 180.684  1.00  0.00    -0.550 OA
ENDBRANCH  11  12
ENDBRANCH  10  11
ENDBRANCH   9  10
ENDBRANCH   8   9
ENDBRANCH   7   8
ENDBRANCH   6   7
ENDBRANCH   5   6
ENDBRANCH   4   5
ENDBRANCH   3   4
ENDBRANCH   2   3
ENDBRANCH   1   2
BRANCH   1  15
ATOM     15  C   UNL     1     172.366 176.703 180.218  1.00  0.00     0.000 C 
BRANCH  15  16
ATOM     16  C   UNL     1     173.237 176.984 181.450  1.00  0.00     0.000 C 
BRANCH  16  17
ATOM     17  C   UNL     1     172.415 177.663 182.556  1.00  0.00     0.000 C 
BRANCH  17  18
ATOM     18  C   UNL     1     170.901 177.637 182.281  1.00  0.00    -0.000 C 
BRANCH  18  19
ATOM     19  C   UNL     1     170.061 176.893 183.338  1.00  0.00    -0.000 C 
BRANCH  19  20
ATOM     20  C   UNL     1     169.767 175.413 183.022  1.00  0.00    -0.000 C 
BRANCH  20  21
ATOM     21  C   UNL     1     170.442 174.394 183.962  1.00  0.00    -0.000 C 
BRANCH  21  22
ATOM     22  C   UNL     1     171.899 174.047 183.607  1.00  0.00    -0.000 C 
BRANCH  22  23
ATOM     23  C   UNL     1     172.075 173.644 182.132  1.00  0.00    -0.000 C 
BRANCH  23  24
ATOM     24  C   UNL     1     171.758 172.153 181.894  1.00  0.00    -0.000 C 
BRANCH  24  25
ATOM     25  C   UNL     1     170.830 171.901 180.694  1.00  0.00    -0.003 C 
ATOM     26  C   UNL     1     170.675 173.125 179.793  1.00  0.00     0.004 C 
ENDBRANCH  24  25
ENDBRANCH  23  24
ENDBRANCH  22  23
ENDBRANCH  21  22
ENDBRANCH  20  21
ENDBRANCH  19  20
ENDBRANCH  18  19
ENDBRANCH  17  18
ENDBRANCH  16  17
ENDBRANCH  15  16
ENDBRANCH   1  15
TORSDOF 22
ENDMDL
MODEL 2
REMARK VINA RESULT:    -4.036      1.334      2.803
REMARK INTER + INTRA:         -13.651
REMARK INTER:                  -8.935
REMARK INTRA:                  -4.716
REMARK UNBOUND:                -4.424
REMARK SMILES CCCCCCCCCCCCCCCCCCCCCCCC(=O)[O-]
REMARK SMILES IDX 13 1 14 2 15 3 16 4 17 5 18 6 19 7 20 8 21 9 22 10 23 11
REMARK SMILES IDX 24 12 25 13 26 14 12 15 11 16 10 17 9 18 8 19 7 20 6 21 5 22
REMARK SMILES IDX 4 23 3 24 2 25 1 26
REMARK H PARENT
REMARK Flexibility Score: inf
ROOT
ATOM      1  C   UNL     1     174.369 175.467 182.555  1.00  0.00     0.000 C 
ENDROOT
BRANCH   1   2
ATOM      2  C   UNL     1     175.774 175.503 183.181  1.00  0.00     0.000 C 
BRANCH   2   3
ATOM      3  C   UNL     1     176.556 176.809 182.946  1.00  0.00     0.000 C 
BRANCH   3   4
ATOM      4  C   UNL     1     177.358 176.799 181.637  1.00  0.00     0.000 C 
BRANCH   4   5
ATOM      5  C   UNL     1     176.989 178.006 180.762  1.00  0.00     0.000 C 
BRANCH   5   6
ATOM      6  C   UNL     1     176.069 177.630 179.589  1.00  0.00     0.000 C 
BRANCH   6   7
ATOM      7  C   UNL     1     176.328 176.208 179.069  1.00  0.00     0.000 C 
BRANCH   7   8
ATOM      8  C   UNL     1     175.025 175.551 178.588  1.00  0.00     0.000 C 
BRANCH   8   9
ATOM      9  C   UNL     1     174.862 174.113 179.104  1.00  0.00     0.000 C 
BRANCH   9  10
ATOM     10  C   UNL     1     176.139 173.575 179.775  1.00  0.00     0.006 C 
BRANCH  10  11
ATOM     11  C   UNL     1     175.826 172.584 180.903  1.00  0.00     0.053 C 
BRANCH  11  12
ATOM     12  C   UNL     1     177.068 172.152 181.620  1.00  0.00     0.041 C 
ATOM     13  O   UNL     1     177.964 172.995 181.896  1.00  0.00    -0.550 OA
ATOM     14  O   UNL     1     177.227 170.826 182.004  1.00  0.00    -0.550 OA
ENDBRANCH  11  12
ENDBRANCH  10  11
ENDBRANCH   9  10
ENDBRANCH   8   9
ENDBRANCH   7   8
ENDBRANCH   6   7
ENDBRANCH   5   6
ENDBRANCH   4   5
ENDBRANCH   3   4
ENDBRANCH   2   3
ENDBRANCH   1   2
BRANCH   1  15
ATOM     15  C   UNL     1     173.690 176.847 182.535  1.00  0.00     0.000 C 
BRANCH  15  16
ATOM     16  C   UNL     1     172.916 177.063 181.229  1.00  0.00     0.000 C 
BRANCH  16  17
ATOM     17  C   UNL     1     171.581 177.775 181.496  1.00  0.00     0.000 C 
BRANCH  17  18
ATOM     18  C   UNL     1     171.235 177.859 182.993  1.00  0.00    -0.000 C 
BRANCH  18  19
ATOM     19  C   UNL     1     169.952 177.111 183.408  1.00  0.00    -0.000 C 
BRANCH  19  20
ATOM     20  C   UNL     1     170.020 175.575 183.291  1.00  0.00    -0.000 C 
BRANCH  20  21
ATOM     21  C   UNL     1     168.929 174.935 182.407  1.00  0.00    -0.000 C 
BRANCH  21  22
ATOM     22  C   UNL     1     168.370 175.847 181.301  1.00  0.00    -0.000 C 
BRANCH  22  23
ATOM     23  C   UNL     1     169.068 175.638 179.945  1.00  0.00    -0.000 C 
BRANCH  23  24
ATOM     24  C   UNL     1     169.633 174.211 179.793  1.00  0.00    -0.000 C 
BRANCH  24  25
ATOM     25  C   UNL     1     171.167 174.156 179.709  1.00  0.00    -0.003 C 
ATOM     26  C   UNL     1     171.795 173.300 180.807  1.00  0.00     0.004 C 
ENDBRANCH  24  25
ENDBRANCH  23  24
ENDBRANCH  22  23
ENDBRANCH  21  22
ENDBRANCH  20  21
ENDBRANCH  19  20
ENDBRANCH  18  19
ENDBRANCH  17  18
ENDBRANCH  16  17
ENDBRANCH  15  16
ENDBRANCH   1  15
TORSDOF 22
ENDMDL
MODEL 3
REMARK VINA RESULT:    -3.928      2.825      6.473
REMARK INTER + INTRA:         -13.404
REMARK INTER:                  -8.474
REMARK INTRA:                  -4.930
REMARK UNBOUND:                -4.424
REMARK SMILES CCCCCCCCCCCCCCCCCCCCCCCC(=O)[O-]
REMARK SMILES IDX 13 1 14 2 15 3 16 4 17 5 18 6 19 7 20 8 21 9 22 10 23 11
REMARK SMILES IDX 24 12 25 13 26 14 12 15 11 16 10 17 9 18 8 19 7 20 6 21 5 22
REMARK SMILES IDX 4 23 3 24 2 25 1 26
REMARK H PARENT
REMARK Flexibility Score: inf
ROOT
ATOM      1  C   UNL     1     173.881 173.341 180.155  1.00  0.00     0.000 C 
ENDROOT
BRANCH   1   2
ATOM      2  C   UNL     1     172.745 173.359 181.193  1.00  0.00     0.000 C 
BRANCH   2   3
ATOM      3  C   UNL     1     173.208 173.324 182.661  1.00  0.00     0.000 C 
BRANCH   3   4
ATOM      4  C   UNL     1     172.139 173.837 183.638  1.00  0.00     0.000 C 
BRANCH   4   5
ATOM      5  C   UNL     1     170.915 174.367 182.877  1.00  0.00     0.000 C 
BRANCH   5   6
ATOM      6  C   UNL     1     170.098 175.378 183.698  1.00  0.00     0.000 C 
BRANCH   6   7
ATOM      7  C   UNL     1     170.220 176.811 183.158  1.00  0.00     0.000 C 
BRANCH   7   8
ATOM      8  C   UNL     1     168.888 177.291 182.562  1.00  0.00     0.000 C 
BRANCH   8   9
ATOM      9  C   UNL     1     168.687 176.825 181.112  1.00  0.00     0.000 C 
BRANCH   9  10
ATOM     10  C   UNL     1     169.933 177.051 180.238  1.00  0.00     0.006 C 
BRANCH  10  11
ATOM     11  C   UNL     1     170.358 175.778 179.494  1.00  0.00     0.053 C 
BRANCH  11  12
ATOM     12  C   UNL     1     170.863 176.084 178.117  1.00  0.00     0.041 C 
ATOM     13  O   UNL     1     170.770 177.252 177.655  1.00  0.00    -0.550 OA
ATOM     14  O   UNL     1     171.455 175.085 177.354  1.00  0.00    -0.550 OA
ENDBRANCH  11  12
ENDBRANCH  10  11
ENDBRANCH   9  10
ENDBRANCH   8   9
ENDBRANCH   7   8
ENDBRANCH   6   7
ENDBRANCH   5   6
ENDBRANCH   4   5
ENDBRANCH   3   4
ENDBRANCH   2   3
ENDBRANCH   1   2
BRANCH   1  15
ATOM     15  C   UNL     1     175.247 173.002 180.773  1.00  0.00     0.000 C 
BRANCH  15  16
ATOM     16  C   UNL     1     176.373 173.791 180.092  1.00  0.00     0.000 C 
BRANCH  16  17
ATOM     17  C   UNL     1     177.066 174.728 181.094  1.00  0.00     0.000 C 
BRANCH  17  18
ATOM     18  C   UNL     1     176.756 174.374 182.559  1.00  0.00    -0.000 C 
BRANCH  18  19
ATOM     19  C   UNL     1     176.080 175.497 183.371  1.00  0.00    -0.000 C 
BRANCH  19  20
ATOM     20  C   UNL     1     175.634 176.724 182.551  1.00  0.00    -0.000 C 
BRANCH  20  21
ATOM     21  C   UNL     1     174.108 176.891 182.394  1.00  0.00    -0.000 C 
BRANCH  21  22
ATOM     22  C   UNL     1     173.609 176.975 180.940  1.00  0.00    -0.000 C 
BRANCH  22  23
ATOM     23  C   UNL     1     174.750 177.184 179.929  1.00  0.00    -0.000 C 
BRANCH  23  24
ATOM     24  C   UNL     1     174.245 177.184 178.471  1.00  0.00    -0.000 C 
BRANCH  24  25
ATOM     25  C   UNL     1     174.906 176.114 177.586  1.00  0.00    -0.003 C 
ATOM     26  C   UNL     1     176.426 176.249 177.521  1.00  0.00     0.004 C 
ENDBRANCH  24  25
ENDBRANCH  23  24
ENDBRANCH  22  23
ENDBRANCH  21  22
ENDBRANCH  20  21
ENDBRANCH  19  20
ENDBRANCH  18  19
ENDBRANCH  17  18
ENDBRANCH  16  17
ENDBRANCH  15  16
ENDBRANCH   1  15
TORSDOF 22
ENDMDL
MODEL 4
REMARK VINA RESULT:    -3.796      3.550      6.887
REMARK INTER + INTRA:         -13.102
REMARK INTER:                  -8.842
REMARK INTRA:                  -4.259
REMARK UNBOUND:                -4.424
REMARK SMILES CCCCCCCCCCCCCCCCCCCCCCCC(=O)[O-]
REMARK SMILES IDX 13 1 14 2 15 3 16 4 17 5 18 6 19 7 20 8 21 9 22 10 23 11
REMARK SMILES IDX 24 12 25 13 26 14 12 15 11 16 10 17 9 18 8 19 7 20 6 21 5 22
REMARK SMILES IDX 4 23 3 24 2 25 1 26
REMARK H PARENT
REMARK Flexibility Score: inf
ROOT
ATOM      1  C   UNL     1     172.743 176.457 180.944  1.00  0.00     0.000 C 
ENDROOT
BRANCH   1   2
ATOM      2  C   UNL     1     172.499 177.495 182.055  1.00  0.00     0.000 C 
BRANCH   2   3
ATOM      3  C   UNL     1     171.277 177.212 182.949  1.00  0.00     0.000 C 
BRANCH   3   4
ATOM      4  C   UNL     1     170.854 175.736 182.935  1.00  0.00     0.000 C 
BRANCH   4   5
ATOM      5  C   UNL     1     169.387 175.593 182.504  1.00  0.00     0.000 C 
BRANCH   5   6
ATOM      6  C   UNL     1     168.744 176.939 182.131  1.00  0.00     0.000 C 
BRANCH   6   7
ATOM      7  C   UNL     1     168.238 176.969 180.680  1.00  0.00     0.000 C 
BRANCH   7   8
ATOM      8  C   UNL     1     169.408 177.084 179.691  1.00  0.00     0.000 C 
BRANCH   8   9
ATOM      9  C   UNL     1     169.460 175.911 178.699  1.00  0.00     0.000 C 
BRANCH   9  10
ATOM     10  C   UNL     1     170.678 175.982 177.761  1.00  0.00     0.006 C 
BRANCH  10  11
ATOM     11  C   UNL     1     170.951 177.410 177.272  1.00  0.00     0.053 C 
BRANCH  11  12
ATOM     12  C   UNL     1     170.684 177.553 175.804  1.00  0.00     0.041 C 
ATOM     13  O   UNL     1     171.644 177.606 174.990  1.00  0.00    -0.550 OA
ATOM     14  O   UNL     1     169.377 177.604 175.335  1.00  0.00    -0.550 OA
ENDBRANCH  11  12
ENDBRANCH  10  11
ENDBRANCH   9  10
ENDBRANCH   8   9
ENDBRANCH   7   8
ENDBRANCH   6   7
ENDBRANCH   5   6
ENDBRANCH   4   5
ENDBRANCH   3   4
ENDBRANCH   2   3
ENDBRANCH   1   2
BRANCH   1  15
ATOM     15  C   UNL     1     173.602 177.007 179.794  1.00  0.00     0.000 C 
BRANCH  15  16
ATOM     16  C   UNL     1     174.523 175.920 179.224  1.00  0.00     0.000 C 
BRANCH  16  17
ATOM     17  C   UNL     1     175.971 176.426 179.130  1.00  0.00     0.000 C 
BRANCH  17  18
ATOM     18  C   UNL     1     176.192 177.755 179.873  1.00  0.00    -0.000 C 
BRANCH  18  19
ATOM     19  C   UNL     1     177.499 177.837 180.687  1.00  0.00    -0.000 C 
BRANCH  19  20
ATOM     20  C   UNL     1     177.327 177.745 182.216  1.00  0.00    -0.000 C 
BRANCH  20  21
ATOM     21  C   UNL     1     175.958 177.220 182.694  1.00  0.00    -0.000 C 
BRANCH  21  22
ATOM     22  C   UNL     1     175.975 175.794 183.272  1.00  0.00    -0.000 C 
BRANCH  22  23
ATOM     23  C   UNL     1     176.886 174.839 182.480  1.00  0.00    -0.000 C 
BRANCH  23  24
ATOM     24  C   UNL     1     176.090 173.711 181.791  1.00  0.00    -0.000 C 
BRANCH  24  25
ATOM     25  C   UNL     1     174.620 173.629 182.236  1.00  0.00    -0.003 C 
ATOM     26  C   UNL     1     173.755 172.801 181.286  1.00  0.00     0.004 C 
ENDBRANCH  24  25
ENDBRANCH  23  24
ENDBRANCH  22  23
ENDBRANCH  21  22
ENDBRANCH  20  21
ENDBRANCH  19  20
ENDBRANCH  18  19
ENDBRANCH  17  18
ENDBRANCH  16  17
ENDBRANCH  15  16
ENDBRANCH   1  15
TORSDOF 22
ENDMDL
MODEL 5
REMARK VINA RESULT:    -3.766      3.166      6.801
REMARK INTER + INTRA:         -13.034
REMARK INTER:                  -8.705
REMARK INTRA:                  -4.329
REMARK UNBOUND:                -4.424
REMARK SMILES CCCCCCCCCCCCCCCCCCCCCCCC(=O)[O-]
REMARK SMILES IDX 13 1 14 2 15 3 16 4 17 5 18 6 19 7 20 8 21 9 22 10 23 11
REMARK SMILES IDX 24 12 25 13 26 14 12 15 11 16 10 17 9 18 8 19 7 20 6 21 5 22
REMARK SMILES IDX 4 23 3 24 2 25 1 26
REMARK H PARENT
REMARK Flexibility Score: inf
ROOT
ATOM      1  C   UNL     1     173.018 174.760 180.466  1.00  0.00     0.000 C 
ENDROOT
BRANCH   1   2
ATOM      2  C   UNL     1     172.950 176.214 180.966  1.00  0.00     0.000 C 
BRANCH   2   3
ATOM      3  C   UNL     1     172.481 176.377 182.424  1.00  0.00     0.000 C 
BRANCH   3   4
ATOM      4  C   UNL     1     171.979 177.794 182.736  1.00  0.00     0.000 C 
BRANCH   4   5
ATOM      5  C   UNL     1     170.582 177.749 183.373  1.00  0.00     0.000 C 
BRANCH   5   6
ATOM      6  C   UNL     1     169.734 176.574 182.860  1.00  0.00     0.000 C 
BRANCH   6   7
ATOM      7  C   UNL     1     168.572 177.032 181.965  1.00  0.00     0.000 C 
BRANCH   7   8
ATOM      8  C   UNL     1     169.009 177.113 180.495  1.00  0.00     0.000 C 
BRANCH   8   9
ATOM      9  C   UNL     1     169.502 175.764 179.948  1.00  0.00     0.000 C 
BRANCH   9  10
ATOM     10  C   UNL     1     169.830 175.817 178.446  1.00  0.00     0.006 C 
BRANCH  10  11
ATOM     11  C   UNL     1     170.783 176.970 178.102  1.00  0.00     0.053 C 
BRANCH  11  12
ATOM     12  C   UNL     1     171.069 177.031 176.632  1.00  0.00     0.041 C 
ATOM     13  O   UNL     1     172.017 176.359 176.144  1.00  0.00    -0.550 OA
ATOM     14  O   UNL     1     170.275 177.811 175.799  1.00  0.00    -0.550 OA
ENDBRANCH  11  12
ENDBRANCH  10  11
ENDBRANCH   9  10
ENDBRANCH   8   9
ENDBRANCH   7   8
ENDBRANCH   6   7
ENDBRANCH   5   6
ENDBRANCH   4   5
ENDBRANCH   3   4
ENDBRANCH   2   3
ENDBRANCH   1   2
BRANCH   1  15
ATOM     15  C   UNL     1     172.773 173.733 181.583  1.00  0.00     0.000 C 
BRANCH  15  16
ATOM     16  C   UNL     1     174.091 173.107 182.057  1.00  0.00     0.000 C 
BRANCH  16  17
ATOM     17  C   UNL     1     175.263 173.573 181.180  1.00  0.00     0.000 C 
BRANCH  17  18
ATOM     18  C   UNL     1     176.353 174.310 181.978  1.00  0.00    -0.000 C 
BRANCH  18  19
ATOM     19  C   UNL     1     175.868 174.979 183.279  1.00  0.00    -0.000 C 
BRANCH  19  20
ATOM     20  C   UNL     1     176.313 176.443 183.471  1.00  0.00    -0.000 C 
BRANCH  20  21
ATOM     21  C   UNL     1     176.080 177.366 182.257  1.00  0.00    -0.000 C 
BRANCH  21  22
ATOM     22  C   UNL     1     177.357 177.973 181.648  1.00  0.00    -0.000 C 
BRANCH  22  23
ATOM     23  C   UNL     1     177.388 177.879 180.112  1.00  0.00    -0.000 C 
BRANCH  23  24
ATOM     24  C   UNL     1     176.096 177.259 179.539  1.00  0.00    -0.000 C 
BRANCH  24  25
ATOM     25  C   UNL     1     176.345 176.062 178.606  1.00  0.00    -0.003 C 
ATOM     26  C   UNL     1     175.222 175.854 177.591  1.00  0.00     0.004 C 
ENDBRANCH  24  25
ENDBRANCH  23  24
ENDBRANCH  22  23
ENDBRANCH  21  22
ENDBRANCH  20  21
ENDBRANCH  19  20
ENDBRANCH  18  19
ENDBRANCH  17  18
ENDBRANCH  16  17
ENDBRANCH  15  16
ENDBRANCH   1  15
TORSDOF 22
ENDMDL
MODEL 6
REMARK VINA RESULT:    -3.752      3.138      5.013
REMARK INTER + INTRA:         -13.002
REMARK INTER:                  -8.493
REMARK INTRA:                  -4.509
REMARK UNBOUND:                -4.424
REMARK SMILES CCCCCCCCCCCCCCCCCCCCCCCC(=O)[O-]
REMARK SMILES IDX 13 1 14 2 15 3 16 4 17 5 18 6 19 7 20 8 21 9 22 10 23 11
REMARK SMILES IDX 24 12 25 13 26 14 12 15 11 16 10 17 9 18 8 19 7 20 6 21 5 22
REMARK SMILES IDX 4 23 3 24 2 25 1 26
REMARK H PARENT
REMARK Flexibility Score: inf
ROOT
ATOM      1  C   UNL     1     173.649 176.458 182.574  1.00  0.00     0.000 C 
ENDROOT
BRANCH   1   2
ATOM      2  C   UNL     1     175.156 176.635 182.833  1.00  0.00     0.000 C 
BRANCH   2   3
ATOM      3  C   UNL     1     175.893 175.356 183.272  1.00  0.00     0.000 C 
BRANCH   3   4
ATOM      4  C   UNL     1     176.877 174.839 182.213  1.00  0.00     0.000 C 
BRANCH   4   5
ATOM      5  C   UNL     1     176.970 175.816 181.032  1.00  0.00     0.000 C 
BRANCH   5   6
ATOM      6  C   UNL     1     176.743 175.131 179.675  1.00  0.00     0.000 C 
BRANCH   6   7
ATOM      7  C   UNL     1     176.143 176.081 178.627  1.00  0.00     0.000 C 
BRANCH   7   8
ATOM      8  C   UNL     1     175.493 177.300 179.298  1.00  0.00     0.000 C 
BRANCH   8   9
ATOM      9  C   UNL     1     173.973 177.358 179.076  1.00  0.00     0.000 C 
BRANCH   9  10
ATOM     10  C   UNL     1     173.569 176.976 177.641  1.00  0.00     0.006 C 
BRANCH  10  11
ATOM     11  C   UNL     1     172.667 178.034 176.992  1.00  0.00     0.053 C 
BRANCH  11  12
ATOM     12  C   UNL     1     171.239 177.585 176.937  1.00  0.00     0.041 C 
ATOM     13  O   UNL     1     170.674 177.144 177.973  1.00  0.00    -0.550 OA
ATOM     14  O   UNL     1     170.526 177.674 175.747  1.00  0.00    -0.550 OA
ENDBRANCH  11  12
ENDBRANCH  10  11
ENDBRANCH   9  10
ENDBRANCH   8   9
ENDBRANCH   7   8
ENDBRANCH   6   7
ENDBRANCH   5   6
ENDBRANCH   4   5
ENDBRANCH   3   4
ENDBRANCH   2   3
ENDBRANCH   1   2
BRANCH   1  15
ATOM     15  C   UNL     1     172.863 177.773 182.706  1.00  0.00     0.000 C 
BRANCH  15  16
ATOM     16  C   UNL     1     171.491 177.667 182.029  1.00  0.00     0.000 C 
BRANCH  16  17
ATOM     17  C   UNL     1     170.445 177.102 183.001  1.00  0.00     0.000 C 
BRANCH  17  18
ATOM     18  C   UNL     1     169.930 175.712 182.587  1.00  0.00    -0.000 C 
BRANCH  18  19
ATOM     19  C   UNL     1     170.080 175.382 181.088  1.00  0.00    -0.000 C 
BRANCH  19  20
ATOM     20  C   UNL     1     170.837 174.076 180.776  1.00  0.00    -0.000 C 
BRANCH  20  21
ATOM     21  C   UNL     1     171.984 174.209 179.753  1.00  0.00    -0.000 C 
BRANCH  21  22
ATOM     22  C   UNL     1     173.384 173.875 180.298  1.00  0.00    -0.000 C 
BRANCH  22  23
ATOM     23  C   UNL     1     173.338 173.083 181.617  1.00  0.00    -0.000 C 
BRANCH  23  24
ATOM     24  C   UNL     1     174.372 171.939 181.647  1.00  0.00    -0.000 C 
BRANCH  24  25
ATOM     25  C   UNL     1     175.270 171.882 180.400  1.00  0.00    -0.003 C 
ATOM     26  C   UNL     1     176.700 171.447 180.715  1.00  0.00     0.004 C 
ENDBRANCH  24  25
ENDBRANCH  23  24
ENDBRANCH  22  23
ENDBRANCH  21  22
ENDBRANCH  20  21
ENDBRANCH  19  20
ENDBRANCH  18  19
ENDBRANCH  17  18
ENDBRANCH  16  17
ENDBRANCH  15  16
ENDBRANCH   1  15
TORSDOF 22
ENDMDL
MODEL 7
REMARK VINA RESULT:    -3.744      2.862      6.545
REMARK INTER + INTRA:         -12.983
REMARK INTER:                  -8.153
REMARK INTRA:                  -4.830
REMARK UNBOUND:                -4.424
REMARK SMILES CCCCCCCCCCCCCCCCCCCCCCCC(=O)[O-]
REMARK SMILES IDX 13 1 14 2 15 3 16 4 17 5 18 6 19 7 20 8 21 9 22 10 23 11
REMARK SMILES IDX 24 12 25 13 26 14 12 15 11 16 10 17 9 18 8 19 7 20 6 21 5 22
REMARK SMILES IDX 4 23 3 24 2 25 1 26
REMARK H PARENT
REMARK Flexibility Score: inf
ROOT
ATOM      1  C   UNL     1     172.460 176.627 182.535  1.00  0.00     0.000 C 
ENDROOT
BRANCH   1   2
ATOM      2  C   UNL     1     171.386 177.637 182.977  1.00  0.00     0.000 C 
BRANCH   2   3
ATOM      3  C   UNL     1     170.038 177.012 183.383  1.00  0.00     0.000 C 
BRANCH   3   4
ATOM      4  C   UNL     1     170.073 175.477 183.410  1.00  0.00     0.000 C 
BRANCH   4   5
ATOM      5  C   UNL     1     169.109 174.891 182.369  1.00  0.00     0.000 C 
BRANCH   5   6
ATOM      6  C   UNL     1     169.824 174.027 181.318  1.00  0.00     0.000 C 
BRANCH   6   7
ATOM      7  C   UNL     1     170.338 174.851 180.128  1.00  0.00     0.000 C 
BRANCH   7   8
ATOM      8  C   UNL     1     169.323 175.933 179.727  1.00  0.00     0.000 C 
BRANCH   8   9
ATOM      9  C   UNL     1     169.939 177.340 179.695  1.00  0.00     0.000 C 
BRANCH   9  10
ATOM     10  C   UNL     1     171.388 177.341 179.176  1.00  0.00     0.006 C 
BRANCH  10  11
ATOM     11  C   UNL     1     171.505 177.975 177.784  1.00  0.00     0.053 C 
BRANCH  11  12
ATOM     12  C   UNL     1     172.028 176.999 176.774  1.00  0.00     0.041 C 
ATOM     13  O   UNL     1     172.876 177.369 175.919  1.00  0.00    -0.550 OA
ATOM     14  O   UNL     1     171.595 175.678 176.791  1.00  0.00    -0.550 OA
ENDBRANCH  11  12
ENDBRANCH  10  11
ENDBRANCH   9  10
ENDBRANCH   8   9
ENDBRANCH   7   8
ENDBRANCH   6   7
ENDBRANCH   5   6
ENDBRANCH   4   5
ENDBRANCH   3   4
ENDBRANCH   2   3
ENDBRANCH   1   2
BRANCH   1  15
ATOM     15  C   UNL     1     173.871 177.237 182.498  1.00  0.00     0.000 C 
BRANCH  15  16
ATOM     16  C   UNL     1     174.926 176.218 182.949  1.00  0.00     0.000 C 
BRANCH  16  17
ATOM     17  C   UNL     1     176.338 176.814 182.850  1.00  0.00     0.000 C 
BRANCH  17  18
ATOM     18  C   UNL     1     177.055 176.444 181.539  1.00  0.00    -0.000 C 
BRANCH  18  19
ATOM     19  C   UNL     1     177.096 177.565 180.481  1.00  0.00    -0.000 C 
BRANCH  19  20
ATOM     20  C   UNL     1     176.573 177.171 179.086  1.00  0.00    -0.000 C 
BRANCH  20  21
ATOM     21  C   UNL     1     175.071 176.829 179.019  1.00  0.00    -0.000 C 
BRANCH  21  22
ATOM     22  C   UNL     1     174.752 175.364 178.669  1.00  0.00    -0.000 C 
BRANCH  22  23
ATOM     23  C   UNL     1     173.994 174.633 179.792  1.00  0.00    -0.000 C 
BRANCH  23  24
ATOM     24  C   UNL     1     174.600 173.248 180.099  1.00  0.00    -0.000 C 
BRANCH  24  25
ATOM     25  C   UNL     1     174.640 172.908 181.598  1.00  0.00    -0.003 C 
ATOM     26  C   UNL     1     173.268 172.985 182.264  1.00  0.00     0.004 C 
ENDBRANCH  24  25
ENDBRANCH  23  24
ENDBRANCH  22  23
ENDBRANCH  21  22
ENDBRANCH  20  21
ENDBRANCH  19  20
ENDBRANCH  18  19
ENDBRANCH  17  18
ENDBRANCH  16  17
ENDBRANCH  15  16
ENDBRANCH   1  15
TORSDOF 22
ENDMDL
MODEL 8
REMARK VINA RESULT:    -3.742      2.295      6.000
REMARK INTER + INTRA:         -12.977
REMARK INTER:                  -8.964
REMARK INTRA:                  -4.013
REMARK UNBOUND:                -4.424
REMARK SMILES CCCCCCCCCCCCCCCCCCCCCCCC(=O)[O-]
REMARK SMILES IDX 13 1 14 2 15 3 16 4 17 5 18 6 19 7 20 8 21 9 22 10 23 11
REMARK SMILES IDX 24 12 25 13 26 14 12 15 11 16 10 17 9 18 8 19 7 20 6 21 5 22
REMARK SMILES IDX 4 23 3 24 2 25 1 26
REMARK H PARENT
REMARK Flexibility Score: inf
ROOT
ATOM      1  C   UNL     1     174.322 174.442 182.289  1.00  0.00     0.000 C 
ENDROOT
BRANCH   1   2
ATOM      2  C   UNL     1     173.369 175.557 181.823  1.00  0.00     0.000 C 
BRANCH   2   3
ATOM      3  C   UNL     1     173.507 176.888 182.585  1.00  0.00     0.000 C 
BRANCH   3   4
ATOM      4  C   UNL     1     172.256 177.772 182.478  1.00  0.00     0.000 C 
BRANCH   4   5
ATOM      5  C   UNL     1     171.550 177.556 181.131  1.00  0.00     0.000 C 
BRANCH   5   6
ATOM      6  C   UNL     1     170.054 177.240 181.289  1.00  0.00     0.000 C 
BRANCH   6   7
ATOM      7  C   UNL     1     169.674 176.893 182.737  1.00  0.00     0.000 C 
BRANCH   7   8
ATOM      8  C   UNL     1     169.470 175.379 182.905  1.00  0.00     0.000 C 
BRANCH   8   9
ATOM      9  C   UNL     1     170.406 174.771 183.960  1.00  0.00     0.000 C 
BRANCH   9  10
ATOM     10  C   UNL     1     170.856 173.343 183.601  1.00  0.00     0.006 C 
BRANCH  10  11
ATOM     11  C   UNL     1     170.692 173.043 182.106  1.00  0.00     0.053 C 
BRANCH  11  12
ATOM     12  C   UNL     1     171.564 171.905 181.671  1.00  0.00     0.041 C 
ATOM     13  O   UNL     1     172.289 172.020 180.646  1.00  0.00    -0.550 OA
ATOM     14  O   UNL     1     171.594 170.728 182.409  1.00  0.00    -0.550 OA
ENDBRANCH  11  12
ENDBRANCH  10  11
ENDBRANCH   9  10
ENDBRANCH   8   9
ENDBRANCH   7   8
ENDBRANCH   6   7
ENDBRANCH   5   6
ENDBRANCH   4   5
ENDBRANCH   3   4
ENDBRANCH   2   3
ENDBRANCH   1   2
BRANCH   1  15
ATOM     15  C   UNL     1     175.500 174.974 183.120  1.00  0.00     0.000 C 
BRANCH  15  16
ATOM     16  C   UNL     1     176.843 174.559 182.505  1.00  0.00     0.000 C 
BRANCH  16  17
ATOM     17  C   UNL     1     177.058 175.248 181.149  1.00  0.00     0.000 C 
BRANCH  17  18
ATOM     18  C   UNL     1     177.033 176.784 181.246  1.00  0.00    -0.000 C 
BRANCH  18  19
ATOM     19  C   UNL     1     176.825 177.517 179.906  1.00  0.00    -0.000 C 
BRANCH  19  20
ATOM     20  C   UNL     1     175.363 177.604 179.424  1.00  0.00    -0.000 C 
BRANCH  20  21
ATOM     21  C   UNL     1     174.917 176.476 178.472  1.00  0.00    -0.000 C 
BRANCH  21  22
ATOM     22  C   UNL     1     173.415 176.466 178.135  1.00  0.00    -0.000 C 
BRANCH  22  23
ATOM     23  C   UNL     1     172.918 177.814 177.581  1.00  0.00    -0.000 C 
BRANCH  23  24
ATOM     24  C   UNL     1     171.386 177.840 177.397  1.00  0.00    -0.000 C 
BRANCH  24  25
ATOM     25  C   UNL     1     170.939 177.859 175.926  1.00  0.00    -0.003 C 
ATOM     26  C   UNL     1     169.701 177.002 175.667  1.00  0.00     0.004 C 
ENDBRANCH  24  25
ENDBRANCH  23  24
ENDBRANCH  22  23
ENDBRANCH  21  22
ENDBRANCH  20  21
ENDBRANCH  19  20
ENDBRANCH  18  19
ENDBRANCH  17  18
ENDBRANCH  16  17
ENDBRANCH  15  16
ENDBRANCH   1  15
TORSDOF 22
ENDMDL
MODEL 9
REMARK VINA RESULT:    -3.727      3.047      6.605
REMARK INTER + INTRA:         -12.945
REMARK INTER:                  -8.570
REMARK INTRA:                  -4.375
REMARK UNBOUND:                -4.424
REMARK SMILES CCCCCCCCCCCCCCCCCCCCCCCC(=O)[O-]
REMARK SMILES IDX 13 1 14 2 15 3 16 4 17 5 18 6 19 7 20 8 21 9 22 10 23 11
REMARK SMILES IDX 24 12 25 13 26 14 12 15 11 16 10 17 9 18 8 19 7 20 6 21 5 22
REMARK SMILES IDX 4 23 3 24 2 25 1 26
REMARK H PARENT
REMARK Flexibility Score: inf
ROOT
ATOM      1  C   UNL     1     172.610 173.604 182.085  1.00  0.00     0.000 C 
ENDROOT
BRANCH   1   2
ATOM      2  C   UNL     1     172.979 174.925 182.784  1.00  0.00     0.000 C 
BRANCH   2   3
ATOM      3  C   UNL     1     173.108 176.140 181.846  1.00  0.00     0.000 C 
BRANCH   3   4
ATOM      4  C   UNL     1     172.873 177.477 182.564  1.00  0.00     0.000 C 
BRANCH   4   5
ATOM      5  C   UNL     1     171.434 177.968 182.347  1.00  0.00     0.000 C 
BRANCH   5   6
ATOM      6  C   UNL     1     170.397 177.116 183.098  1.00  0.00     0.000 C 
BRANCH   6   7
ATOM      7  C   UNL     1     169.077 176.976 182.324  1.00  0.00     0.000 C 
BRANCH   7   8
ATOM      8  C   UNL     1     169.335 176.832 180.816  1.00  0.00     0.000 C 
BRANCH   8   9
ATOM      9  C   UNL     1     169.896 175.451 180.442  1.00  0.00     0.000 C 
BRANCH   9  10
ATOM     10  C   UNL     1     170.737 175.481 179.154  1.00  0.00     0.006 C 
BRANCH  10  11
ATOM     11  C   UNL     1     170.229 176.529 178.155  1.00  0.00     0.053 C 
BRANCH  11  12
ATOM     12  C   UNL     1     171.254 177.593 177.901  1.00  0.00     0.041 C 
ATOM     13  O   UNL     1     171.936 178.054 178.854  1.00  0.00    -0.550 OA
ATOM     14  O   UNL     1     171.470 178.058 176.609  1.00  0.00    -0.550 OA
ENDBRANCH  11  12
ENDBRANCH  10  11
ENDBRANCH   9  10
ENDBRANCH   8   9
ENDBRANCH   7   8
ENDBRANCH   6   7
ENDBRANCH   5   6
ENDBRANCH   4   5
ENDBRANCH   3   4
ENDBRANCH   2   3
ENDBRANCH   1   2
BRANCH   1  15
ATOM     15  C   UNL     1     173.804 172.957 181.366  1.00  0.00     0.000 C 
BRANCH  15  16
ATOM     16  C   UNL     1     173.678 173.100 179.844  1.00  0.00     0.000 C 
BRANCH  16  17
ATOM     17  C   UNL     1     174.785 174.007 179.287  1.00  0.00     0.000 C 
BRANCH  17  18
ATOM     18  C   UNL     1     174.287 174.947 178.175  1.00  0.00    -0.000 C 
BRANCH  18  19
ATOM     19  C   UNL     1     174.756 176.411 178.300  1.00  0.00    -0.000 C 
BRANCH  19  20
ATOM     20  C   UNL     1     176.152 176.602 178.927  1.00  0.00    -0.000 C 
BRANCH  20  21
ATOM     21  C   UNL     1     176.204 177.560 180.135  1.00  0.00    -0.000 C 
BRANCH  21  22
ATOM     22  C   UNL     1     177.233 177.186 181.217  1.00  0.00    -0.000 C 
BRANCH  22  23
ATOM     23  C   UNL     1     176.576 176.725 182.531  1.00  0.00    -0.000 C 
BRANCH  23  24
ATOM     24  C   UNL     1     176.617 175.192 182.697  1.00  0.00    -0.000 C 
BRANCH  24  25
ATOM     25  C   UNL     1     177.440 174.473 181.615  1.00  0.00    -0.003 C 
ATOM     26  C   UNL     1     177.379 172.951 181.732  1.00  0.00     0.004 C 
ENDBRANCH  24  25
ENDBRANCH  23  24
ENDBRANCH  22  23
ENDBRANCH  21  22
ENDBRANCH  20  21
ENDBRANCH  19  20
ENDBRANCH  18  19
ENDBRANCH  17  18
ENDBRANCH  16  17
ENDBRANCH  15  16
ENDBRANCH   1  15
TORSDOF 22
ENDMDL
