MODEL 1
REMARK VINA RESULT:    -4.929      0.000      0.000
REMARK INTER + INTRA:          -9.474
REMARK INTER:                  -8.387
REMARK INTRA:                  -1.088
REMARK UNBOUND:                -1.088
REMARK SMILES CCCCCCCCCCCCCC(=O)[O-]
REMARK SMILES IDX 8 1 9 2 10 3 11 4 12 5 13 6 14 7 15 8 16 9 7 10 6 11 5 12
REMARK SMILES IDX 4 13 3 14 2 15 1 16
REMARK H PARENT
REMARK Flexibility Score: inf
ROOT
ATOM      1  C   UNL     1      -1.149   9.421  24.086  1.00  0.00     0.000 C 
ENDROOT
BRANCH   1   2
ATOM      2  C   UNL     1      -0.455   9.619  25.442  1.00  0.00     0.000 C 
BRANCH   2   3
ATOM      3  C   UNL     1       0.251  10.982  25.554  1.00  0.00     0.000 C 
BRANCH   3   4
ATOM      4  C   UNL     1       1.757  10.845  25.835  1.00  0.00     0.000 C 
BRANCH   4   5
ATOM      5  C   UNL     1       2.269   9.405  25.645  1.00  0.00     0.006 C 
BRANCH   5   6
ATOM      6  C   UNL     1       3.595   9.103  26.360  1.00  0.00     0.053 C 
BRANCH   6   7
ATOM      7  C   UNL     1       3.795   7.635  26.575  1.00  0.00     0.041 C 
ATOM      8  O   UNL     1       4.463   6.959  25.749  1.00  0.00    -0.550 OA
ATOM      9  O   UNL     1       3.218   7.007  27.671  1.00  0.00    -0.550 OA
ENDBRANCH   6   7
ENDBRANCH   5   6
ENDBRANCH   4   5
ENDBRANCH   3   4
ENDBRANCH   2   3
ENDBRANCH   1   2
BRANCH   1  10
ATOM     10  C   UNL     1      -2.207   8.310  24.171  1.00  0.00     0.000 C 
BRANCH  10  11
ATOM     11  C   UNL     1      -2.756   7.895  22.793  1.00  0.00    -0.000 C 
BRANCH  11  12
ATOM     12  C   UNL     1      -1.933   8.382  21.587  1.00  0.00    -0.000 C 
BRANCH  12  13
ATOM     13  C   UNL     1      -2.774   9.170  20.567  1.00  0.00    -0.000 C 
BRANCH  13  14
ATOM     14  C   UNL     1      -3.796  10.100  21.240  1.00  0.00    -0.000 C 
BRANCH  14  15
ATOM     15  C   UNL     1      -3.199  11.466  21.609  1.00  0.00    -0.003 C 
ATOM     16  C   UNL     1      -3.580  11.864  23.033  1.00  0.00     0.004 C 
ENDBRANCH  14  15
ENDBRANCH  13  14
ENDBRANCH  12  13
ENDBRANCH  11  12
ENDBRANCH  10  11
ENDBRANCH   1  10
TORSDOF 12
ENDMDL
MODEL 2
REMARK VINA RESULT:    -4.844      2.487      3.238
REMARK INTER + INTRA:          -9.330
REMARK INTER:                  -7.824
REMARK INTRA:                  -1.506
REMARK UNBOUND:                -1.088
REMARK SMILES CCCCCCCCCCCCCC(=O)[O-]
REMARK SMILES IDX 8 1 9 2 10 3 11 4 12 5 13 6 14 7 15 8 16 9 7 10 6 11 5 12
REMARK SMILES IDX 4 13 3 14 2 15 1 16
REMARK H PARENT
REMARK Flexibility Score: inf
ROOT
ATOM      1  C   UNL     1      -1.902   9.935  24.315  1.00  0.00     0.000 C 
ENDROOT
BRANCH   1   2
ATOM      2  C   UNL     1      -2.912  10.384  25.382  1.00  0.00     0.000 C 
BRANCH   2   3
ATOM      3  C   UNL     1      -2.392  11.550  26.239  1.00  0.00     0.000 C 
BRANCH   3   4
ATOM      4  C   UNL     1      -1.820  12.698  25.390  1.00  0.00     0.000 C 
BRANCH   4   5
ATOM      5  C   UNL     1      -0.616  13.389  26.058  1.00  0.00     0.006 C 
BRANCH   5   6
ATOM      6  C   UNL     1       0.338  12.434  26.790  1.00  0.00     0.053 C 
BRANCH   6   7
ATOM      7  C   UNL     1       1.323  11.799  25.857  1.00  0.00     0.041 C 
ATOM      8  O   UNL     1       1.216  10.581  25.556  1.00  0.00    -0.550 OA
ATOM      9  O   UNL     1       2.377  12.545  25.347  1.00  0.00    -0.550 OA
ENDBRANCH   6   7
ENDBRANCH   5   6
ENDBRANCH   4   5
ENDBRANCH   3   4
ENDBRANCH   2   3
ENDBRANCH   1   2
BRANCH   1  10
ATOM     10  C   UNL     1      -1.897   8.405  24.176  1.00  0.00     0.000 C 
BRANCH  10  11
ATOM     11  C   UNL     1      -2.568   7.916  22.878  1.00  0.00    -0.000 C 
BRANCH  11  12
ATOM     12  C   UNL     1      -1.970   8.483  21.578  1.00  0.00    -0.000 C 
BRANCH  12  13
ATOM     13  C   UNL     1      -2.991   9.279  20.747  1.00  0.00    -0.000 C 
BRANCH  13  14
ATOM     14  C   UNL     1      -4.324   9.480  21.485  1.00  0.00    -0.000 C 
BRANCH  14  15
ATOM     15  C   UNL     1      -4.552  10.939  21.908  1.00  0.00    -0.003 C 
ATOM     16  C   UNL     1      -3.340  11.804  21.571  1.00  0.00     0.004 C 
ENDBRANCH  14  15
ENDBRANCH  13  14
ENDBRANCH  12  13
ENDBRANCH  11  12
ENDBRANCH  10  11
ENDBRANCH   1  10
TORSDOF 12
ENDMDL
MODEL 3
REMARK VINA RESULT:    -4.749      2.759      4.312
REMARK INTER + INTRA:          -9.169
REMARK INTER:                  -7.428
REMARK INTRA:                  -1.741
REMARK UNBOUND:                -1.088
REMARK SMILES CCCCCCCCCCCCCC(=O)[O-]
REMARK SMILES IDX 8 1 9 2 10 3 11 4 12 5 13 6 14 7 15 8 16 9 7 10 6 11 5 12
REMARK SMILES IDX 4 13 3 14 2 15 1 16
REMARK H PARENT
REMARK Flexibility Score: inf
ROOT
ATOM      1  C   UNL     1      -3.251  11.837  23.396  1.00  0.00     0.000 C 
ENDROOT
BRANCH   1   2
ATOM      2  C   UNL     1      -4.337  11.097  24.191  1.00  0.00     0.000 C 
BRANCH   2   3
ATOM      3  C   UNL     1      -3.823  10.553  25.535  1.00  0.00     0.000 C 
BRANCH   3   4
ATOM      4  C   UNL     1      -2.993  11.590  26.313  1.00  0.00     0.000 C 
BRANCH   4   5
ATOM      5  C   UNL     1      -1.515  11.181  26.456  1.00  0.00     0.006 C 
BRANCH   5   6
ATOM      6  C   UNL     1      -0.585  12.313  26.919  1.00  0.00     0.053 C 
BRANCH   6   7
ATOM      7  C   UNL     1       0.712  12.317  26.171  1.00  0.00     0.041 C 
ATOM      8  O   UNL     1       1.219  13.403  25.786  1.00  0.00    -0.550 OA
ATOM      9  O   UNL     1       1.345  11.118  25.871  1.00  0.00    -0.550 OA
ENDBRANCH   6   7
ENDBRANCH   5   6
ENDBRANCH   4   5
ENDBRANCH   3   4
ENDBRANCH   2   3
ENDBRANCH   1   2
BRANCH   1  10
ATOM     10  C   UNL     1      -3.447  11.634  21.885  1.00  0.00     0.000 C 
BRANCH  10  11
ATOM     11  C   UNL     1      -3.795  10.180  21.513  1.00  0.00    -0.000 C 
BRANCH  11  12
ATOM     12  C   UNL     1      -2.728   9.444  20.682  1.00  0.00    -0.000 C 
BRANCH  12  13
ATOM     13  C   UNL     1      -2.038   8.311  21.463  1.00  0.00    -0.000 C 
BRANCH  13  14
ATOM     14  C   UNL     1      -2.620   8.129  22.874  1.00  0.00    -0.000 C 
BRANCH  14  15
ATOM     15  C   UNL     1      -1.564   8.295  23.976  1.00  0.00    -0.003 C 
ATOM     16  C   UNL     1      -0.403   9.162  23.496  1.00  0.00     0.004 C 
ENDBRANCH  14  15
ENDBRANCH  13  14
ENDBRANCH  12  13
ENDBRANCH  11  12
ENDBRANCH  10  11
ENDBRANCH   1  10
TORSDOF 12
ENDMDL
MODEL 4
REMARK VINA RESULT:    -4.742      1.963      3.503
REMARK INTER + INTRA:          -9.157
REMARK INTER:                  -7.408
REMARK INTRA:                  -1.749
REMARK UNBOUND:                -1.088
REMARK SMILES CCCCCCCCCCCCCC(=O)[O-]
REMARK SMILES IDX 8 1 9 2 10 3 11 4 12 5 13 6 14 7 15 8 16 9 7 10 6 11 5 12
REMARK SMILES IDX 4 13 3 14 2 15 1 16
REMARK H PARENT
REMARK Flexibility Score: inf
ROOT
ATOM      1  C   UNL     1      -3.002  11.666  25.241  1.00  0.00     0.000 C 
ENDROOT
BRANCH   1   2
ATOM      2  C   UNL     1      -3.941  10.487  25.537  1.00  0.00     0.000 C 
BRANCH   2   3
ATOM      3  C   UNL     1      -3.233   9.330  26.261  1.00  0.00     0.000 C 
BRANCH   3   4
ATOM      4  C   UNL     1      -1.821   9.708  26.739  1.00  0.00     0.000 C 
BRANCH   4   5
ATOM      5  C   UNL     1      -0.721   8.861  26.072  1.00  0.00     0.006 C 
BRANCH   5   6
ATOM      6  C   UNL     1       0.085   9.600  24.993  1.00  0.00     0.053 C 
BRANCH   6   7
ATOM      7  C   UNL     1       1.411  10.070  25.506  1.00  0.00     0.041 C 
ATOM      8  O   UNL     1       1.569  11.272  25.846  1.00  0.00    -0.550 OA
ATOM      9  O   UNL     1       2.481   9.188  25.579  1.00  0.00    -0.550 OA
ENDBRANCH   6   7
ENDBRANCH   5   6
ENDBRANCH   4   5
ENDBRANCH   3   4
ENDBRANCH   2   3
ENDBRANCH   1   2
BRANCH   1  10
ATOM     10  C   UNL     1      -2.675  11.742  23.741  1.00  0.00     0.000 C 
BRANCH  10  11
ATOM     11  C   UNL     1      -3.905  11.504  22.845  1.00  0.00    -0.000 C 
BRANCH  11  12
ATOM     12  C   UNL     1      -3.588  11.130  21.385  1.00  0.00    -0.000 C 
BRANCH  12  13
ATOM     13  C   UNL     1      -3.801   9.635  21.090  1.00  0.00    -0.000 C 
BRANCH  13  14
ATOM     14  C   UNL     1      -2.496   8.919  20.706  1.00  0.00    -0.000 C 
BRANCH  14  15
ATOM     15  C   UNL     1      -1.705   8.434  21.931  1.00  0.00    -0.003 C 
ATOM     16  C   UNL     1      -2.640   7.886  23.005  1.00  0.00     0.004 C 
ENDBRANCH  14  15
ENDBRANCH  13  14
ENDBRANCH  12  13
ENDBRANCH  11  12
ENDBRANCH  10  11
ENDBRANCH   1  10
TORSDOF 12
ENDMDL
MODEL 5
REMARK VINA RESULT:    -4.706      2.539      3.219
REMARK INTER + INTRA:          -9.096
REMARK INTER:                  -7.389
REMARK INTRA:                  -1.707
REMARK UNBOUND:                -1.088
REMARK SMILES CCCCCCCCCCCCCC(=O)[O-]
REMARK SMILES IDX 8 1 9 2 10 3 11 4 12 5 13 6 14 7 15 8 16 9 7 10 6 11 5 12
REMARK SMILES IDX 4 13 3 14 2 15 1 16
REMARK H PARENT
REMARK Flexibility Score: inf
ROOT
ATOM      1  C   UNL     1      -2.571  10.644  25.611  1.00  0.00     0.000 C 
ENDROOT
BRANCH   1   2
ATOM      2  C   UNL     1      -2.029   9.542  26.534  1.00  0.00     0.000 C 
BRANCH   2   3
ATOM      3  C   UNL     1      -0.831   8.793  25.925  1.00  0.00     0.000 C 
BRANCH   3   4
ATOM      4  C   UNL     1      -0.464   9.307  24.522  1.00  0.00     0.000 C 
BRANCH   4   5
ATOM      5  C   UNL     1       1.043   9.578  24.364  1.00  0.00     0.006 C 
BRANCH   5   6
ATOM      6  C   UNL     1       1.741  10.056  25.646  1.00  0.00     0.053 C 
BRANCH   6   7
ATOM      7  C   UNL     1       1.586  11.531  25.854  1.00  0.00     0.041 C 
ATOM      8  O   UNL     1       0.650  11.975  26.570  1.00  0.00    -0.550 OA
ATOM      9  O   UNL     1       2.456  12.416  25.231  1.00  0.00    -0.550 OA
ENDBRANCH   6   7
ENDBRANCH   5   6
ENDBRANCH   4   5
ENDBRANCH   3   4
ENDBRANCH   2   3
ENDBRANCH   1   2
BRANCH   1  10
ATOM     10  C   UNL     1      -4.063  10.424  25.314  1.00  0.00     0.000 C 
BRANCH  10  11
ATOM     11  C   UNL     1      -4.408   8.952  25.023  1.00  0.00    -0.000 C 
BRANCH  11  12
ATOM     12  C   UNL     1      -3.921   8.423  23.661  1.00  0.00    -0.000 C 
BRANCH  12  13
ATOM     13  C   UNL     1      -4.740   8.970  22.479  1.00  0.00    -0.000 C 
BRANCH  13  14
ATOM     14  C   UNL     1      -3.852   9.524  21.354  1.00  0.00    -0.000 C 
BRANCH  14  15
ATOM     15  C   UNL     1      -2.919  10.647  21.834  1.00  0.00    -0.003 C 
ATOM     16  C   UNL     1      -3.656  11.982  21.896  1.00  0.00     0.004 C 
ENDBRANCH  14  15
ENDBRANCH  13  14
ENDBRANCH  12  13
ENDBRANCH  11  12
ENDBRANCH  10  11
ENDBRANCH   1  10
TORSDOF 12
ENDMDL
MODEL 6
REMARK VINA RESULT:    -4.705      2.873      4.870
REMARK INTER + INTRA:          -9.093
REMARK INTER:                  -7.137
REMARK INTRA:                  -1.956
REMARK UNBOUND:                -1.088
REMARK SMILES CCCCCCCCCCCCCC(=O)[O-]
REMARK SMILES IDX 8 1 9 2 10 3 11 4 12 5 13 6 14 7 15 8 16 9 7 10 6 11 5 12
REMARK SMILES IDX 4 13 3 14 2 15 1 16
REMARK H PARENT
REMARK Flexibility Score: inf
ROOT
ATOM      1  C   UNL     1      -3.222  11.560  22.201  1.00  0.00     0.000 C 
ENDROOT
BRANCH   1   2
ATOM      2  C   UNL     1      -4.348  11.201  23.183  1.00  0.00     0.000 C 
BRANCH   2   3
ATOM      3  C   UNL     1      -3.863  11.121  24.640  1.00  0.00     0.000 C 
BRANCH   3   4
ATOM      4  C   UNL     1      -2.530  11.856  24.860  1.00  0.00     0.000 C 
BRANCH   4   5
ATOM      5  C   UNL     1      -2.291  12.225  26.337  1.00  0.00     0.006 C 
BRANCH   5   6
ATOM      6  C   UNL     1      -1.441  11.209  27.115  1.00  0.00     0.053 C 
BRANCH   6   7
ATOM      7  C   UNL     1      -2.287  10.251  27.896  1.00  0.00     0.041 C 
ATOM      8  O   UNL     1      -2.201   9.012  27.685  1.00  0.00    -0.550 OA
ATOM      9  O   UNL     1      -3.193  10.728  28.834  1.00  0.00    -0.550 OA
ENDBRANCH   6   7
ENDBRANCH   5   6
ENDBRANCH   4   5
ENDBRANCH   3   4
ENDBRANCH   2   3
ENDBRANCH   1   2
BRANCH   1  10
ATOM     10  C   UNL     1      -3.260  10.644  20.968  1.00  0.00     0.000 C 
BRANCH  10  11
ATOM     11  C   UNL     1      -3.529   9.169  21.321  1.00  0.00    -0.000 C 
BRANCH  11  12
ATOM     12  C   UNL     1      -2.313   8.391  21.856  1.00  0.00    -0.000 C 
BRANCH  12  13
ATOM     13  C   UNL     1      -2.528   7.851  23.281  1.00  0.00    -0.000 C 
BRANCH  13  14
ATOM     14  C   UNL     1      -1.505   8.410  24.283  1.00  0.00    -0.000 C 
BRANCH  14  15
ATOM     15  C   UNL     1      -0.340   9.138  23.596  1.00  0.00    -0.003 C 
ATOM     16  C   UNL     1       0.750   9.499  24.602  1.00  0.00     0.004 C 
ENDBRANCH  14  15
ENDBRANCH  13  14
ENDBRANCH  12  13
ENDBRANCH  11  12
ENDBRANCH  10  11
ENDBRANCH   1  10
TORSDOF 12
ENDMDL
MODEL 7
REMARK VINA RESULT:    -4.681      8.886     10.682
REMARK INTER + INTRA:          -9.052
REMARK INTER:                  -7.029
REMARK INTRA:                  -2.023
REMARK UNBOUND:                -1.088
REMARK SMILES CCCCCCCCCCCCCC(=O)[O-]
REMARK SMILES IDX 8 1 9 2 10 3 11 4 12 5 13 6 14 7 15 8 16 9 7 10 6 11 5 12
REMARK SMILES IDX 4 13 3 14 2 15 1 16
REMARK H PARENT
REMARK Flexibility Score: inf
ROOT
ATOM      1  C   UNL     1       4.596  20.157  21.332  1.00  0.00     0.000 C 
ENDROOT
BRANCH   1   2
ATOM      2  C   UNL     1       4.993  20.299  22.809  1.00  0.00     0.000 C 
BRANCH   2   3
ATOM      3  C   UNL     1       4.977  18.956  23.561  1.00  0.00     0.000 C 
BRANCH   3   4
ATOM      4  C   UNL     1       4.022  17.933  22.922  1.00  0.00     0.000 C 
BRANCH   4   5
ATOM      5  C   UNL     1       3.939  16.619  23.720  1.00  0.00     0.006 C 
BRANCH   5   6
ATOM      6  C   UNL     1       2.587  15.897  23.616  1.00  0.00     0.053 C 
BRANCH   6   7
ATOM      7  C   UNL     1       2.419  14.861  24.684  1.00  0.00     0.041 C 
ATOM      8  O   UNL     1       3.112  13.809  24.661  1.00  0.00    -0.550 OA
ATOM      9  O   UNL     1       1.476  15.042  25.687  1.00  0.00    -0.550 OA
ENDBRANCH   6   7
ENDBRANCH   5   6
ENDBRANCH   4   5
ENDBRANCH   3   4
ENDBRANCH   2   3
ENDBRANCH   1   2
BRANCH   1  10
ATOM     10  C   UNL     1       3.428  21.094  20.987  1.00  0.00     0.000 C 
BRANCH  10  11
ATOM     11  C   UNL     1       2.480  21.336  22.177  1.00  0.00    -0.000 C 
BRANCH  11  12
ATOM     12  C   UNL     1       1.325  20.327  22.309  1.00  0.00    -0.000 C 
BRANCH  12  13
ATOM     13  C   UNL     1       0.963  20.020  23.773  1.00  0.00    -0.000 C 
BRANCH  13  14
ATOM     14  C   UNL     1       1.797  20.840  24.770  1.00  0.00    -0.000 C 
BRANCH  14  15
ATOM     15  C   UNL     1       2.394  19.977  25.892  1.00  0.00    -0.003 C 
ATOM     16  C   UNL     1       1.687  18.627  25.980  1.00  0.00     0.004 C 
ENDBRANCH  14  15
ENDBRANCH  13  14
ENDBRANCH  12  13
ENDBRANCH  11  12
ENDBRANCH  10  11
ENDBRANCH   1  10
TORSDOF 12
ENDMDL
MODEL 8
REMARK VINA RESULT:    -4.659      3.702      4.658
REMARK INTER + INTRA:          -9.015
REMARK INTER:                  -7.598
REMARK INTRA:                  -1.418
REMARK UNBOUND:                -1.088
REMARK SMILES CCCCCCCCCCCCCC(=O)[O-]
REMARK SMILES IDX 8 1 9 2 10 3 11 4 12 5 13 6 14 7 15 8 16 9 7 10 6 11 5 12
REMARK SMILES IDX 4 13 3 14 2 15 1 16
REMARK H PARENT
REMARK Flexibility Score: inf
ROOT
ATOM      1  C   UNL     1      -0.879   9.229  23.946  1.00  0.00     0.000 C 
ENDROOT
BRANCH   1   2
ATOM      2  C   UNL     1      -0.791   9.974  25.286  1.00  0.00     0.000 C 
BRANCH   2   3
ATOM      3  C   UNL     1      -1.631   9.311  26.391  1.00  0.00     0.000 C 
BRANCH   3   4
ATOM      4  C   UNL     1      -2.935  10.074  26.680  1.00  0.00     0.000 C 
BRANCH   4   5
ATOM      5  C   UNL     1      -2.923  10.775  28.051  1.00  0.00     0.006 C 
BRANCH   5   6
ATOM      6  C   UNL     1      -1.884  11.899  28.181  1.00  0.00     0.053 C 
BRANCH   6   7
ATOM      7  C   UNL     1      -2.305  13.139  27.456  1.00  0.00     0.041 C 
ATOM      8  O   UNL     1      -1.812  13.413  26.330  1.00  0.00    -0.550 OA
ATOM      9  O   UNL     1      -3.217  14.010  28.038  1.00  0.00    -0.550 OA
ENDBRANCH   6   7
ENDBRANCH   5   6
ENDBRANCH   4   5
ENDBRANCH   3   4
ENDBRANCH   2   3
ENDBRANCH   1   2
BRANCH   1  10
ATOM     10  C   UNL     1      -1.943   8.121  24.005  1.00  0.00     0.000 C 
BRANCH  10  11
ATOM     11  C   UNL     1      -2.766   8.009  22.708  1.00  0.00    -0.000 C 
BRANCH  11  12
ATOM     12  C   UNL     1      -2.024   8.424  21.424  1.00  0.00    -0.000 C 
BRANCH  12  13
ATOM     13  C   UNL     1      -2.830   9.409  20.560  1.00  0.00    -0.000 C 
BRANCH  13  14
ATOM     14  C   UNL     1      -3.850  10.215  21.380  1.00  0.00    -0.000 C 
BRANCH  14  15
ATOM     15  C   UNL     1      -3.356  11.632  21.711  1.00  0.00    -0.003 C 
ATOM     16  C   UNL     1      -3.314  11.860  23.219  1.00  0.00     0.004 C 
ENDBRANCH  14  15
ENDBRANCH  13  14
ENDBRANCH  12  13
ENDBRANCH  11  12
ENDBRANCH  10  11
ENDBRANCH   1  10
TORSDOF 12
ENDMDL
MODEL 9
REMARK VINA RESULT:    -4.623      3.460      4.446
REMARK INTER + INTRA:          -8.954
REMARK INTER:                  -7.823
REMARK INTRA:                  -1.130
REMARK UNBOUND:                -1.088
REMARK SMILES CCCCCCCCCCCCCC(=O)[O-]
REMARK SMILES IDX 8 1 9 2 10 3 11 4 12 5 13 6 14 7 15 8 16 9 7 10 6 11 5 12
REMARK SMILES IDX 4 13 3 14 2 15 1 16
REMARK H PARENT
REMARK Flexibility Score: inf
ROOT
ATOM      1  C   UNL     1      -1.920   9.311  26.254  1.00  0.00     0.000 C 
ENDROOT
BRANCH   1   2
ATOM      2  C   UNL     1      -2.497   9.506  27.664  1.00  0.00     0.000 C 
BRANCH   2   3
ATOM      3  C   UNL     1      -2.988  10.943  27.912  1.00  0.00     0.000 C 
BRANCH   3   4
ATOM      4  C   UNL     1      -1.830  11.937  28.105  1.00  0.00     0.000 C 
BRANCH   4   5
ATOM      5  C   UNL     1      -1.983  13.204  27.243  1.00  0.00     0.006 C 
BRANCH   5   6
ATOM      6  C   UNL     1      -1.214  13.164  25.913  1.00  0.00     0.053 C 
BRANCH   6   7
ATOM      7  C   UNL     1       0.263  13.297  26.115  1.00  0.00     0.041 C 
ATOM      8  O   UNL     1       0.778  14.432  26.298  1.00  0.00    -0.550 OA
ATOM      9  O   UNL     1       1.076  12.172  26.070  1.00  0.00    -0.550 OA
ENDBRANCH   6   7
ENDBRANCH   5   6
ENDBRANCH   4   5
ENDBRANCH   3   4
ENDBRANCH   2   3
ENDBRANCH   1   2
BRANCH   1  10
ATOM     10  C   UNL     1      -2.884   9.854  25.188  1.00  0.00     0.000 C 
BRANCH  10  11
ATOM     11  C   UNL     1      -3.476   8.750  24.292  1.00  0.00    -0.000 C 
BRANCH  11  12
ATOM     12  C   UNL     1      -2.442   7.900  23.532  1.00  0.00    -0.000 C 
BRANCH  12  13
ATOM     13  C   UNL     1      -1.586   8.729  22.558  1.00  0.00    -0.000 C 
BRANCH  13  14
ATOM     14  C   UNL     1      -2.010   8.541  21.093  1.00  0.00    -0.000 C 
BRANCH  14  15
ATOM     15  C   UNL     1      -3.102   9.532  20.661  1.00  0.00    -0.003 C 
ATOM     16  C   UNL     1      -4.463   8.847  20.580  1.00  0.00     0.004 C 
ENDBRANCH  14  15
ENDBRANCH  13  14
ENDBRANCH  12  13
ENDBRANCH  11  12
ENDBRANCH  10  11
ENDBRANCH   1  10
TORSDOF 12
ENDMDL
