MODEL 1
REMARK VINA RESULT:     6.283      0.000      0.000
REMARK INTER + INTRA:           7.401
REMARK INTER:                   7.568
REMARK INTRA:                  -0.167
REMARK UNBOUND:                -0.167
REMARK SMILES O=c1c(O)c(-c2ccc(O)c(O)c2)oc2cc(O)cc(O)c12
REMARK SMILES IDX 5 1 3 2 2 3 1 4 22 5 20 6 19 7 17 8 16 9 15 10 14 11 6 12
REMARK SMILES IDX 7 13 8 14 9 15 13 16 11 17 10 18 12 20 4 22 21 24 18 26
REMARK H PARENT 10 19 12 21 4 23 21 25 18 27
REMARK Flexibility Score: inf
ROOT
ATOM      1  C   UNL     1     -13.449  -4.347 -14.144  1.00  0.00     0.180 A 
ATOM      2  C   UNL     1     -13.686  -3.481 -15.229  1.00  0.00     0.208 A 
ATOM      3  C   UNL     1     -13.927  -4.033 -16.497  1.00  0.00     0.238 A 
ATOM      4  O   UNL     1     -14.151  -3.267 -17.475  1.00  0.00    -0.285 OA
ATOM      5  C   UNL     1     -13.908  -5.432 -16.663  1.00  0.00     0.111 A 
ATOM      6  C   UNL     1     -14.138  -6.068 -17.908  1.00  0.00     0.134 A 
ATOM      7  C   UNL     1     -14.093  -7.467 -17.993  1.00  0.00     0.093 A 
ATOM      8  C   UNL     1     -13.823  -8.242 -16.859  1.00  0.00     0.123 A 
ATOM      9  C   UNL     1     -13.596  -7.621 -15.631  1.00  0.00     0.094 A 
ATOM     10  C   UNL     1     -13.638  -6.226 -15.525  1.00  0.00     0.146 A 
ATOM     11  O   UNL     1     -13.424  -5.662 -14.341  1.00  0.00    -0.452 OA
ENDROOT
BRANCH   1  12
ATOM     12  C   UNL     1     -13.206  -3.843 -12.773  1.00  0.00     0.025 A 
ATOM     13  C   UNL     1     -12.071  -3.073 -12.467  1.00  0.00     0.016 A 
ATOM     14  C   UNL     1     -11.876  -2.588 -11.171  1.00  0.00     0.051 A 
ATOM     15  C   UNL     1     -12.816  -2.853 -10.167  1.00  0.00     0.157 A 
ATOM     16  C   UNL     1     -14.156  -4.088 -11.768  1.00  0.00     0.062 A 
ATOM     17  C   UNL     1     -13.963  -3.605 -10.470  1.00  0.00     0.158 A 
BRANCH  15  18
ATOM     18  O   UNL     1     -12.616  -2.369  -8.875  1.00  0.00    -0.504 OA
ATOM     19  H   UNL     1     -13.262  -2.580  -8.123  1.00  0.00     0.293 HD
ENDBRANCH  15  18
BRANCH  17  20
ATOM     20  O   UNL     1     -14.921  -3.880  -9.494  1.00  0.00    -0.504 OA
ATOM     21  H   UNL     1     -14.697  -4.385  -8.646  1.00  0.00     0.293 HD
ENDBRANCH  17  20
ENDBRANCH   1  12
BRANCH   2  22
ATOM     22  O   UNL     1     -13.650  -2.096 -15.048  1.00  0.00    -0.502 OA
ATOM     23  H   UNL     1     -13.797  -1.664 -14.143  1.00  0.00     0.293 HD
ENDBRANCH   2  22
BRANCH   6  24
ATOM     24  O   UNL     1     -14.409  -5.322 -19.056  1.00  0.00    -0.507 OA
ATOM     25  H   UNL     1     -15.346  -5.247 -19.434  1.00  0.00     0.293 HD
ENDBRANCH   6  24
BRANCH   8  26
ATOM     26  O   UNL     1     -13.777  -9.632 -16.944  1.00  0.00    -0.508 OA
ATOM     27  H   UNL     1     -13.531 -10.203 -16.144  1.00  0.00     0.293 HD
ENDBRANCH   8  26
TORSDOF 6
ENDMDL
MODEL 2
REMARK VINA RESULT:     7.195      2.189      6.752
REMARK INTER + INTRA:           8.500
REMARK INTER:                   8.821
REMARK INTRA:                  -0.321
REMARK UNBOUND:                -0.167
REMARK SMILES O=c1c(O)c(-c2ccc(O)c(O)c2)oc2cc(O)cc(O)c12
REMARK SMILES IDX 5 1 3 2 2 3 1 4 22 5 20 6 19 7 17 8 16 9 15 10 14 11 6 12
REMARK SMILES IDX 7 13 8 14 9 15 13 16 11 17 10 18 12 20 4 22 21 24 18 26
REMARK H PARENT 10 19 12 21 4 23 21 25 18 27
REMARK Flexibility Score: inf
ROOT
ATOM      1  C   UNL     1     -13.770  -4.095 -16.241  1.00  0.00     0.180 A 
ATOM      2  C   UNL     1     -13.129  -2.842 -16.170  1.00  0.00     0.208 A 
ATOM      3  C   UNL     1     -12.711  -2.365 -14.918  1.00  0.00     0.238 A 
ATOM      4  O   UNL     1     -12.126  -1.249 -14.844  1.00  0.00    -0.285 OA
ATOM      5  C   UNL     1     -12.957  -3.132 -13.762  1.00  0.00     0.111 A 
ATOM      6  C   UNL     1     -12.571  -2.721 -12.463  1.00  0.00     0.134 A 
ATOM      7  C   UNL     1     -12.860  -3.537 -11.360  1.00  0.00     0.093 A 
ATOM      8  C   UNL     1     -13.527  -4.756 -11.531  1.00  0.00     0.123 A 
ATOM      9  C   UNL     1     -13.909  -5.166 -12.809  1.00  0.00     0.094 A 
ATOM     10  C   UNL     1     -13.628  -4.366 -13.922  1.00  0.00     0.146 A 
ATOM     11  O   UNL     1     -13.998  -4.784 -15.127  1.00  0.00    -0.452 OA
ENDROOT
BRANCH   1  12
ATOM     12  C   UNL     1     -14.223  -4.675 -17.526  1.00  0.00     0.025 A 
ATOM     13  C   UNL     1     -13.337  -5.368 -18.369  1.00  0.00     0.016 A 
ATOM     14  C   UNL     1     -13.793  -5.927 -19.566  1.00  0.00     0.051 A 
ATOM     15  C   UNL     1     -15.141  -5.816 -19.930  1.00  0.00     0.157 A 
ATOM     16  C   UNL     1     -15.577  -4.584 -17.886  1.00  0.00     0.062 A 
ATOM     17  C   UNL     1     -16.037  -5.142 -19.083  1.00  0.00     0.158 A 
BRANCH  15  18
ATOM     18  O   UNL     1     -15.592  -6.373 -21.125  1.00  0.00    -0.504 OA
ATOM     19  H   UNL     1     -15.163  -7.203 -21.519  1.00  0.00     0.293 HD
ENDBRANCH  15  18
BRANCH  17  20
ATOM     20  O   UNL     1     -17.386  -5.021 -19.414  1.00  0.00    -0.504 OA
ATOM     21  H   UNL     1     -18.124  -5.301 -18.780  1.00  0.00     0.293 HD
ENDBRANCH  17  20
ENDBRANCH   1  12
BRANCH   2  22
ATOM     22  O   UNL     1     -12.941  -2.079 -17.325  1.00  0.00    -0.502 OA
ATOM     23  H   UNL     1     -13.328  -1.149 -17.430  1.00  0.00     0.293 HD
ENDBRANCH   2  22
BRANCH   6  24
ATOM     24  O   UNL     1     -11.905  -1.511 -12.261  1.00  0.00    -0.507 OA
ATOM     25  H   UNL     1     -12.324  -0.753 -11.734  1.00  0.00     0.293 HD
ENDBRANCH   6  24
BRANCH   8  26
ATOM     26  O   UNL     1     -13.816  -5.567 -10.435  1.00  0.00    -0.508 OA
ATOM     27  H   UNL     1     -14.655  -5.432  -9.883  1.00  0.00     0.293 HD
ENDBRANCH   8  26
TORSDOF 6
ENDMDL
MODEL 3
REMARK VINA RESULT:     7.527     19.249     21.157
REMARK INTER + INTRA:           8.901
REMARK INTER:                   9.103
REMARK INTRA:                  -0.203
REMARK UNBOUND:                -0.167
REMARK SMILES O=c1c(O)c(-c2ccc(O)c(O)c2)oc2cc(O)cc(O)c12
REMARK SMILES IDX 5 1 3 2 2 3 1 4 22 5 20 6 19 7 17 8 16 9 15 10 14 11 6 12
REMARK SMILES IDX 7 13 8 14 9 15 13 16 11 17 10 18 12 20 4 22 21 24 18 26
REMARK H PARENT 10 19 12 21 4 23 21 25 18 27
REMARK Flexibility Score: inf
ROOT
ATOM      1  C   UNL     1     -30.964   0.005 -24.200  1.00  0.00     0.180 A 
ATOM      2  C   UNL     1     -31.155  -0.920 -25.245  1.00  0.00     0.208 A 
ATOM      3  C   UNL     1     -31.473  -0.441 -26.525  1.00  0.00     0.238 A 
ATOM      4  O   UNL     1     -31.636  -1.260 -27.471  1.00  0.00    -0.285 OA
ATOM      5  C   UNL     1     -31.613   0.946 -26.735  1.00  0.00     0.111 A 
ATOM      6  C   UNL     1     -31.934   1.510 -27.993  1.00  0.00     0.134 A 
ATOM      7  C   UNL     1     -32.066   2.900 -28.119  1.00  0.00     0.093 A 
ATOM      8  C   UNL     1     -31.882   3.737 -27.012  1.00  0.00     0.123 A 
ATOM      9  C   UNL     1     -31.564   3.186 -25.770  1.00  0.00     0.094 A 
ATOM     10  C   UNL     1     -31.428   1.802 -25.624  1.00  0.00     0.146 A 
ATOM     11  O   UNL     1     -31.119   1.305 -24.431  1.00  0.00    -0.452 OA
ENDROOT
BRANCH   1  12
ATOM     12  C   UNL     1     -30.608  -0.422 -22.827  1.00  0.00     0.025 A 
ATOM     13  C   UNL     1     -31.525  -0.316 -21.767  1.00  0.00     0.016 A 
ATOM     14  C   UNL     1     -31.174  -0.747 -20.484  1.00  0.00     0.051 A 
ATOM     15  C   UNL     1     -29.910  -1.302 -20.246  1.00  0.00     0.157 A 
ATOM     16  C   UNL     1     -29.350  -0.997 -22.587  1.00  0.00     0.062 A 
ATOM     17  C   UNL     1     -28.995  -1.429 -21.304  1.00  0.00     0.158 A 
BRANCH  15  18
ATOM     18  O   UNL     1     -29.563  -1.729 -18.965  1.00  0.00    -0.504 OA
ATOM     19  H   UNL     1     -29.894  -2.611 -18.592  1.00  0.00     0.293 HD
ENDBRANCH  15  18
BRANCH  17  20
ATOM     20  O   UNL     1     -27.732  -1.984 -21.101  1.00  0.00    -0.504 OA
ATOM     21  H   UNL     1     -27.225  -1.865 -20.233  1.00  0.00     0.293 HD
ENDBRANCH  17  20
ENDBRANCH   1  12
BRANCH   2  22
ATOM     22  O   UNL     1     -31.059  -2.293 -24.999  1.00  0.00    -0.502 OA
ATOM     23  H   UNL     1     -31.416  -2.986 -25.645  1.00  0.00     0.293 HD
ENDBRANCH   2  22
BRANCH   6  24
ATOM     24  O   UNL     1     -32.125   0.702 -29.115  1.00  0.00    -0.507 OA
ATOM     25  H   UNL     1     -32.863   0.009 -29.154  1.00  0.00     0.293 HD
ENDBRANCH   6  24
BRANCH   8  26
ATOM     26  O   UNL     1     -32.013   5.119 -27.136  1.00  0.00    -0.508 OA
ATOM     27  H   UNL     1     -31.395   5.658 -27.731  1.00  0.00     0.293 HD
ENDBRANCH   8  26
TORSDOF 6
ENDMDL
MODEL 4
REMARK VINA RESULT:     8.929      1.324      6.675
REMARK INTER + INTRA:          10.590
REMARK INTER:                  10.385
REMARK INTRA:                   0.205
REMARK UNBOUND:                -0.167
REMARK SMILES O=c1c(O)c(-c2ccc(O)c(O)c2)oc2cc(O)cc(O)c12
REMARK SMILES IDX 5 1 3 2 2 3 1 4 22 5 20 6 19 7 17 8 16 9 15 10 14 11 6 12
REMARK SMILES IDX 7 13 8 14 9 15 13 16 11 17 10 18 12 20 4 22 21 24 18 26
REMARK H PARENT 10 19 12 21 4 23 21 25 18 27
REMARK Flexibility Score: inf
ROOT
ATOM      1  C   UNL     1     -13.390  -4.121 -14.646  1.00  0.00     0.180 A 
ATOM      2  C   UNL     1     -12.761  -2.867 -14.512  1.00  0.00     0.208 A 
ATOM      3  C   UNL     1     -12.451  -2.397 -13.226  1.00  0.00     0.238 A 
ATOM      4  O   UNL     1     -11.878  -1.281 -13.095  1.00  0.00    -0.285 OA
ATOM      5  C   UNL     1     -12.791  -3.174 -12.100  1.00  0.00     0.111 A 
ATOM      6  C   UNL     1     -12.517  -2.771 -10.770  1.00  0.00     0.134 A 
ATOM      7  C   UNL     1     -12.896  -3.596  -9.702  1.00  0.00     0.093 A 
ATOM      8  C   UNL     1     -13.542  -4.815  -9.937  1.00  0.00     0.123 A 
ATOM      9  C   UNL     1     -13.813  -5.217 -11.245  1.00  0.00     0.094 A 
ATOM     10  C   UNL     1     -13.443  -4.409 -12.325  1.00  0.00     0.146 A 
ATOM     11  O   UNL     1     -13.709  -4.819 -13.560  1.00  0.00    -0.452 OA
ENDROOT
BRANCH   1  12
ATOM     12  C   UNL     1     -13.730  -4.693 -15.968  1.00  0.00     0.025 A 
ATOM     13  C   UNL     1     -14.150  -3.877 -17.033  1.00  0.00     0.016 A 
ATOM     14  C   UNL     1     -14.443  -4.438 -18.279  1.00  0.00     0.051 A 
ATOM     15  C   UNL     1     -14.308  -5.818 -18.483  1.00  0.00     0.157 A 
ATOM     16  C   UNL     1     -13.577  -6.072 -16.184  1.00  0.00     0.062 A 
ATOM     17  C   UNL     1     -13.871  -6.637 -17.430  1.00  0.00     0.158 A 
BRANCH  15  18
ATOM     18  O   UNL     1     -14.604  -6.373 -19.727  1.00  0.00    -0.504 OA
ATOM     19  H   UNL     1     -15.535  -6.319 -20.125  1.00  0.00     0.293 HD
ENDBRANCH  15  18
BRANCH  17  20
ATOM     20  O   UNL     1     -13.720  -8.013 -17.603  1.00  0.00    -0.504 OA
ATOM     21  H   UNL     1     -12.984  -8.405 -18.177  1.00  0.00     0.293 HD
ENDBRANCH  17  20
ENDBRANCH   1  12
BRANCH   2  22
ATOM     22  O   UNL     1     -12.479  -2.095 -15.642  1.00  0.00    -0.502 OA
ATOM     23  H   UNL     1     -12.801  -1.139 -15.740  1.00  0.00     0.293 HD
ENDBRANCH   2  22
BRANCH   6  24
ATOM     24  O   UNL     1     -11.875  -1.561 -10.504  1.00  0.00    -0.507 OA
ATOM     25  H   UNL     1     -11.723  -1.235  -9.557  1.00  0.00     0.293 HD
ENDBRANCH   6  24
BRANCH   8  26
ATOM     26  O   UNL     1     -13.919  -5.636  -8.875  1.00  0.00    -0.508 OA
ATOM     27  H   UNL     1     -13.738  -5.373  -7.913  1.00  0.00     0.293 HD
ENDBRANCH   8  26
TORSDOF 6
ENDMDL
