MODEL 1
REMARK VINA RESULT:    -1.471      0.000      0.000
REMARK INTER + INTRA:          -3.248
REMARK INTER:                  -3.191
REMARK INTRA:                  -0.057
REMARK UNBOUND:                -0.057
REMARK SMILES CCCCCCCCCCCCCCCCCCCCCC(=O)[O-]
REMARK SMILES IDX 12 1 11 2 10 3 9 4 8 5 7 6 6 7 5 8 4 9 3 10 2 11 1 12 13 13
REMARK SMILES IDX 14 14 15 15 16 16 17 17 18 18 19 19 20 20 21 21 22 22 23 23
REMARK SMILES IDX 24 24
REMARK H PARENT
REMARK Flexibility Score: inf
ROOT
ATOM      1  C   UNL     1     -27.715   8.236  -5.065  1.00  0.00     0.000 C 
ENDROOT
BRANCH   1   2
ATOM      2  C   UNL     1     -27.403   9.207  -3.914  1.00  0.00     0.000 C 
BRANCH   2   3
ATOM      3  C   UNL     1     -27.034  10.615  -4.405  1.00  0.00     0.000 C 
BRANCH   3   4
ATOM      4  C   UNL     1     -26.569  10.579  -5.868  1.00  0.00    -0.000 C 
BRANCH   4   5
ATOM      5  C   UNL     1     -25.043  10.694  -6.013  1.00  0.00    -0.000 C 
BRANCH   5   6
ATOM      6  C   UNL     1     -24.354  11.110  -4.702  1.00  0.00    -0.000 C 
BRANCH   6   7
ATOM      7  C   UNL     1     -23.884   9.901  -3.877  1.00  0.00    -0.000 C 
BRANCH   7   8
ATOM      8  C   UNL     1     -22.566   9.304  -4.397  1.00  0.00    -0.000 C 
BRANCH   8   9
ATOM      9  C   UNL     1     -22.591   7.771  -4.313  1.00  0.00    -0.000 C 
BRANCH   9  10
ATOM     10  C   UNL     1     -22.188   7.098  -5.635  1.00  0.00    -0.000 C 
BRANCH  10  11
ATOM     11  C   UNL     1     -23.177   6.005  -6.067  1.00  0.00    -0.003 C 
ATOM     12  C   UNL     1     -24.608   6.382  -5.696  1.00  0.00     0.004 C 
ENDBRANCH  10  11
ENDBRANCH   9  10
ENDBRANCH   8   9
ENDBRANCH   7   8
ENDBRANCH   6   7
ENDBRANCH   5   6
ENDBRANCH   4   5
ENDBRANCH   3   4
ENDBRANCH   2   3
ENDBRANCH   1   2
BRANCH   1  13
ATOM     13  C   UNL     1     -28.856   8.680  -5.999  1.00  0.00     0.000 C 
BRANCH  13  14
ATOM     14  C   UNL     1     -30.208   7.993  -5.706  1.00  0.00     0.000 C 
BRANCH  14  15
ATOM     15  C   UNL     1     -31.013   7.709  -6.988  1.00  0.00     0.000 C 
BRANCH  15  16
ATOM     16  C   UNL     1     -31.795   8.935  -7.491  1.00  0.00     0.000 C 
BRANCH  16  17
ATOM     17  C   UNL     1     -33.007   8.615  -8.385  1.00  0.00     0.000 C 
BRANCH  17  18
ATOM     18  C   UNL     1     -34.087   7.795  -7.658  1.00  0.00     0.000 C 
BRANCH  18  19
ATOM     19  C   UNL     1     -33.666   6.331  -7.440  1.00  0.00     0.000 C 
BRANCH  19  20
ATOM     20  C   UNL     1     -34.001   5.431  -8.643  1.00  0.00     0.006 C 
BRANCH  20  21
ATOM     21  C   UNL     1     -34.091   6.226  -9.952  1.00  0.00     0.053 C 
BRANCH  21  22
ATOM     22  C   UNL     1     -33.338   5.558 -11.061  1.00  0.00     0.041 C 
ATOM     23  O   UNL     1     -33.832   4.563 -11.653  1.00  0.00    -0.550 OA
ATOM     24  O   UNL     1     -32.078   6.020 -11.424  1.00  0.00    -0.550 OA
ENDBRANCH  21  22
ENDBRANCH  20  21
ENDBRANCH  19  20
ENDBRANCH  18  19
ENDBRANCH  17  18
ENDBRANCH  16  17
ENDBRANCH  15  16
ENDBRANCH  14  15
ENDBRANCH  13  14
ENDBRANCH   1  13
TORSDOF 20
ENDMDL
MODEL 2
REMARK VINA RESULT:    -1.178      3.079      9.547
REMARK INTER + INTRA:          -2.613
REMARK INTER:                  -1.569
REMARK INTRA:                  -1.044
REMARK UNBOUND:                -0.057
REMARK SMILES CCCCCCCCCCCCCCCCCCCCCC(=O)[O-]
REMARK SMILES IDX 12 1 11 2 10 3 9 4 8 5 7 6 6 7 5 8 4 9 3 10 2 11 1 12 13 13
REMARK SMILES IDX 14 14 15 15 16 16 17 17 18 18 19 19 20 20 21 21 22 22 23 23
REMARK SMILES IDX 24 24
REMARK H PARENT
REMARK Flexibility Score: inf
ROOT
ATOM      1  C   UNL     1     -27.740   8.766  -4.696  1.00  0.00     0.000 C 
ENDROOT
BRANCH   1   2
ATOM      2  C   UNL     1     -28.637   8.915  -5.937  1.00  0.00     0.000 C 
BRANCH   2   3
ATOM      3  C   UNL     1     -29.884   8.020  -5.883  1.00  0.00     0.000 C 
BRANCH   3   4
ATOM      4  C   UNL     1     -31.158   8.843  -6.124  1.00  0.00    -0.000 C 
BRANCH   4   5
ATOM      5  C   UNL     1     -31.726   8.662  -7.541  1.00  0.00    -0.000 C 
BRANCH   5   6
ATOM      6  C   UNL     1     -33.209   9.059  -7.640  1.00  0.00    -0.000 C 
BRANCH   6   7
ATOM      7  C   UNL     1     -34.107   7.877  -8.041  1.00  0.00    -0.000 C 
BRANCH   7   8
ATOM      8  C   UNL     1     -33.387   6.523  -7.934  1.00  0.00    -0.000 C 
BRANCH   8   9
ATOM      9  C   UNL     1     -34.125   5.447  -8.745  1.00  0.00    -0.000 C 
BRANCH   9  10
ATOM     10  C   UNL     1     -34.097   5.722 -10.258  1.00  0.00    -0.000 C 
BRANCH  10  11
ATOM     11  C   UNL     1     -32.734   6.240 -10.739  1.00  0.00    -0.003 C 
ATOM     12  C   UNL     1     -32.236   5.441 -11.939  1.00  0.00     0.004 C 
ENDBRANCH  10  11
ENDBRANCH   9  10
ENDBRANCH   8   9
ENDBRANCH   7   8
ENDBRANCH   6   7
ENDBRANCH   5   6
ENDBRANCH   4   5
ENDBRANCH   3   4
ENDBRANCH   2   3
ENDBRANCH   1   2
BRANCH   1  13
ATOM     13  C   UNL     1     -27.544  10.055  -3.878  1.00  0.00     0.000 C 
BRANCH  13  14
ATOM     14  C   UNL     1     -26.688  11.125  -4.591  1.00  0.00     0.000 C 
BRANCH  14  15
ATOM     15  C   UNL     1     -25.999  10.579  -5.855  1.00  0.00     0.000 C 
BRANCH  15  16
ATOM     16  C   UNL     1     -24.495  10.902  -5.907  1.00  0.00     0.000 C 
BRANCH  16  17
ATOM     17  C   UNL     1     -23.825  11.117  -4.538  1.00  0.00     0.000 C 
BRANCH  17  18
ATOM     18  C   UNL     1     -23.238   9.822  -3.948  1.00  0.00     0.000 C 
BRANCH  18  19
ATOM     19  C   UNL     1     -22.507   8.974  -5.003  1.00  0.00     0.000 C 
BRANCH  19  20
ATOM     20  C   UNL     1     -22.360   7.500  -4.583  1.00  0.00     0.006 C 
BRANCH  20  21
ATOM     21  C   UNL     1     -21.855   6.619  -5.732  1.00  0.00     0.053 C 
BRANCH  21  22
ATOM     22  C   UNL     1     -22.914   5.680  -6.221  1.00  0.00     0.041 C 
ATOM     23  O   UNL     1     -22.592   4.609  -6.800  1.00  0.00    -0.550 OA
ATOM     24  O   UNL     1     -24.257   6.001  -6.061  1.00  0.00    -0.550 OA
ENDBRANCH  21  22
ENDBRANCH  20  21
ENDBRANCH  19  20
ENDBRANCH  18  19
ENDBRANCH  17  18
ENDBRANCH  16  17
ENDBRANCH  15  16
ENDBRANCH  14  15
ENDBRANCH  13  14
ENDBRANCH   1  13
TORSDOF 20
ENDMDL
MODEL 3
REMARK VINA RESULT:     0.242      3.519     10.175
REMARK INTER + INTRA:           0.468
REMARK INTER:                   1.237
REMARK INTRA:                  -0.769
REMARK UNBOUND:                -0.057
REMARK SMILES CCCCCCCCCCCCCCCCCCCCCC(=O)[O-]
REMARK SMILES IDX 12 1 11 2 10 3 9 4 8 5 7 6 6 7 5 8 4 9 3 10 2 11 1 12 13 13
REMARK SMILES IDX 14 14 15 15 16 16 17 17 18 18 19 19 20 20 21 21 22 22 23 23
REMARK SMILES IDX 24 24
REMARK H PARENT
REMARK Flexibility Score: inf
ROOT
ATOM      1  C   UNL     1     -30.959   8.183  -6.134  1.00  0.00     0.000 C 
ENDROOT
BRANCH   1   2
ATOM      2  C   UNL     1     -31.872   9.137  -6.922  1.00  0.00     0.000 C 
BRANCH   2   3
ATOM      3  C   UNL     1     -32.683   8.420  -8.013  1.00  0.00     0.000 C 
BRANCH   3   4
ATOM      4  C   UNL     1     -33.925   7.743  -7.415  1.00  0.00    -0.000 C 
BRANCH   4   5
ATOM      5  C   UNL     1     -33.692   6.262  -7.076  1.00  0.00    -0.000 C 
BRANCH   5   6
ATOM      6  C   UNL     1     -34.055   5.324  -8.240  1.00  0.00    -0.000 C 
BRANCH   6   7
ATOM      7  C   UNL     1     -34.119   6.059  -9.588  1.00  0.00    -0.000 C 
BRANCH   7   8
ATOM      8  C   UNL     1     -34.065   5.101 -10.789  1.00  0.00    -0.000 C 
BRANCH   8   9
ATOM      9  C   UNL     1     -32.869   5.428 -11.694  1.00  0.00    -0.000 C 
BRANCH   9  10
ATOM     10  C   UNL     1     -32.832   4.562 -12.965  1.00  0.00    -0.000 C 
BRANCH  10  11
ATOM     11  C   UNL     1     -34.123   3.754 -13.166  1.00  0.00    -0.003 C 
ATOM     12  C   UNL     1     -33.892   2.577 -14.110  1.00  0.00     0.004 C 
ENDBRANCH  10  11
ENDBRANCH   9  10
ENDBRANCH   8   9
ENDBRANCH   7   8
ENDBRANCH   6   7
ENDBRANCH   5   6
ENDBRANCH   4   5
ENDBRANCH   3   4
ENDBRANCH   2   3
ENDBRANCH   1   2
BRANCH   1  13
ATOM     13  C   UNL     1     -29.455   8.498  -6.229  1.00  0.00     0.000 C 
BRANCH  13  14
ATOM     14  C   UNL     1     -28.646   8.074  -4.983  1.00  0.00     0.000 C 
BRANCH  14  15
ATOM     15  C   UNL     1     -27.920   9.260  -4.322  1.00  0.00     0.000 C 
BRANCH  15  16
ATOM     16  C   UNL     1     -27.292  10.226  -5.342  1.00  0.00     0.000 C 
BRANCH  16  17
ATOM     17  C   UNL     1     -25.882  10.729  -4.982  1.00  0.00     0.000 C 
BRANCH  17  18
ATOM     18  C   UNL     1     -25.163   9.824  -3.966  1.00  0.00     0.000 C 
BRANCH  18  19
ATOM     19  C   UNL     1     -23.657  10.122  -3.875  1.00  0.00     0.000 C 
BRANCH  19  20
ATOM     20  C   UNL     1     -22.789   8.964  -4.401  1.00  0.00     0.006 C 
BRANCH  20  21
ATOM     21  C   UNL     1     -23.579   8.018  -5.314  1.00  0.00     0.053 C 
BRANCH  21  22
ATOM     22  C   UNL     1     -22.784   6.801  -5.675  1.00  0.00     0.041 C 
ATOM     23  O   UNL     1     -23.358   5.791  -6.162  1.00  0.00    -0.550 OA
ATOM     24  O   UNL     1     -21.413   6.771  -5.448  1.00  0.00    -0.550 OA
ENDBRANCH  21  22
ENDBRANCH  20  21
ENDBRANCH  19  20
ENDBRANCH  18  19
ENDBRANCH  17  18
ENDBRANCH  16  17
ENDBRANCH  15  16
ENDBRANCH  14  15
ENDBRANCH  13  14
ENDBRANCH   1  13
TORSDOF 20
ENDMDL
MODEL 4
REMARK VINA RESULT:     0.463      1.451      3.857
REMARK INTER + INTRA:           0.948
REMARK INTER:                   1.218
REMARK INTRA:                  -0.270
REMARK UNBOUND:                -0.057
REMARK SMILES CCCCCCCCCCCCCCCCCCCCCC(=O)[O-]
REMARK SMILES IDX 12 1 11 2 10 3 9 4 8 5 7 6 6 7 5 8 4 9 3 10 2 11 1 12 13 13
REMARK SMILES IDX 14 14 15 15 16 16 17 17 18 18 19 19 20 20 21 21 22 22 23 23
REMARK SMILES IDX 24 24
REMARK H PARENT
REMARK Flexibility Score: inf
ROOT
ATOM      1  C   UNL     1     -24.818  11.045  -5.592  1.00  0.00     0.000 C 
ENDROOT
BRANCH   1   2
ATOM      2  C   UNL     1     -24.303   9.636  -5.250  1.00  0.00     0.000 C 
BRANCH   2   3
ATOM      3  C   UNL     1     -23.473   9.601  -3.958  1.00  0.00     0.000 C 
BRANCH   3   4
ATOM      4  C   UNL     1     -22.294   8.627  -4.091  1.00  0.00    -0.000 C 
BRANCH   4   5
ATOM      5  C   UNL     1     -21.970   8.279  -5.553  1.00  0.00    -0.000 C 
BRANCH   5   6
ATOM      6  C   UNL     1     -20.988   7.101  -5.677  1.00  0.00    -0.000 C 
BRANCH   6   7
ATOM      7  C   UNL     1     -21.700   5.772  -5.980  1.00  0.00    -0.000 C 
BRANCH   7   8
ATOM      8  C   UNL     1     -23.226   5.928  -6.083  1.00  0.00    -0.000 C 
BRANCH   8   9
ATOM      9  C   UNL     1     -23.833   4.800  -6.930  1.00  0.00    -0.000 C 
BRANCH   9  10
ATOM     10  C   UNL     1     -25.328   4.582  -6.643  1.00  0.00    -0.000 C 
BRANCH  10  11
ATOM     11  C   UNL     1     -25.841   5.453  -5.488  1.00  0.00    -0.003 C 
ATOM     12  C   UNL     1     -25.865   6.928  -5.881  1.00  0.00     0.004 C 
ENDBRANCH  10  11
ENDBRANCH   9  10
ENDBRANCH   8   9
ENDBRANCH   7   8
ENDBRANCH   6   7
ENDBRANCH   5   6
ENDBRANCH   4   5
ENDBRANCH   3   4
ENDBRANCH   2   3
ENDBRANCH   1   2
BRANCH   1  13
ATOM     13  C   UNL     1     -26.319  11.125  -5.923  1.00  0.00     0.000 C 
BRANCH  13  14
ATOM     14  C   UNL     1     -27.235  10.542  -4.825  1.00  0.00     0.000 C 
BRANCH  14  15
ATOM     15  C   UNL     1     -27.773   9.146  -5.188  1.00  0.00     0.000 C 
BRANCH  15  16
ATOM     16  C   UNL     1     -28.960   8.712  -4.311  1.00  0.00     0.000 C 
BRANCH  16  17
ATOM     17  C   UNL     1     -29.966   7.767  -4.994  1.00  0.00     0.000 C 
BRANCH  17  18
ATOM     18  C   UNL     1     -30.288   8.179  -6.441  1.00  0.00     0.000 C 
BRANCH  18  19
ATOM     19  C   UNL     1     -31.799   8.339  -6.684  1.00  0.00     0.000 C 
BRANCH  19  20
ATOM     20  C   UNL     1     -32.126   8.784  -8.121  1.00  0.00     0.006 C 
BRANCH  20  21
ATOM     21  C   UNL     1     -33.532   8.351  -8.554  1.00  0.00     0.053 C 
BRANCH  21  22
ATOM     22  C   UNL     1     -33.619   6.871  -8.765  1.00  0.00     0.041 C 
ATOM     23  O   UNL     1     -33.404   6.380  -9.904  1.00  0.00    -0.550 OA
ATOM     24  O   UNL     1     -33.965   6.037  -7.709  1.00  0.00    -0.550 OA
ENDBRANCH  21  22
ENDBRANCH  20  21
ENDBRANCH  19  20
ENDBRANCH  18  19
ENDBRANCH  17  18
ENDBRANCH  16  17
ENDBRANCH  15  16
ENDBRANCH  14  15
ENDBRANCH  13  14
ENDBRANCH   1  13
TORSDOF 20
ENDMDL
MODEL 5
REMARK VINA RESULT:     0.911      1.663      2.743
REMARK INTER + INTRA:           1.919
REMARK INTER:                   2.848
REMARK INTRA:                  -0.929
REMARK UNBOUND:                -0.057
REMARK SMILES CCCCCCCCCCCCCCCCCCCCCC(=O)[O-]
REMARK SMILES IDX 12 1 11 2 10 3 9 4 8 5 7 6 6 7 5 8 4 9 3 10 2 11 1 12 13 13
REMARK SMILES IDX 14 14 15 15 16 16 17 17 18 18 19 19 20 20 21 21 22 22 23 23
REMARK SMILES IDX 24 24
REMARK H PARENT
REMARK Flexibility Score: inf
ROOT
ATOM      1  C   UNL     1     -26.184   8.681  -5.057  1.00  0.00     0.000 C 
ENDROOT
BRANCH   1   2
ATOM      2  C   UNL     1     -26.610   9.607  -3.905  1.00  0.00     0.000 C 
BRANCH   2   3
ATOM      3  C   UNL     1     -26.102  11.046  -4.077  1.00  0.00     0.000 C 
BRANCH   3   4
ATOM      4  C   UNL     1     -24.864  11.084  -4.985  1.00  0.00    -0.000 C 
BRANCH   4   5
ATOM      5  C   UNL     1     -23.546  10.973  -4.202  1.00  0.00    -0.000 C 
BRANCH   5   6
ATOM      6  C   UNL     1     -23.148   9.515  -3.916  1.00  0.00    -0.000 C 
BRANCH   6   7
ATOM      7  C   UNL     1     -22.662   8.781  -5.176  1.00  0.00    -0.000 C 
BRANCH   7   8
ATOM      8  C   UNL     1     -22.870   7.260  -5.093  1.00  0.00    -0.000 C 
BRANCH   8   9
ATOM      9  C   UNL     1     -21.628   6.511  -5.597  1.00  0.00    -0.000 C 
BRANCH   9  10
ATOM     10  C   UNL     1     -20.474   7.458  -5.968  1.00  0.00    -0.000 C 
BRANCH  10  11
ATOM     11  C   UNL     1     -19.098   6.787  -5.847  1.00  0.00    -0.003 C 
ATOM     12  C   UNL     1     -18.131   7.659  -5.051  1.00  0.00     0.004 C 
ENDBRANCH  10  11
ENDBRANCH   9  10
ENDBRANCH   8   9
ENDBRANCH   7   8
ENDBRANCH   6   7
ENDBRANCH   5   6
ENDBRANCH   4   5
ENDBRANCH   3   4
ENDBRANCH   2   3
ENDBRANCH   1   2
BRANCH   1  13
ATOM     13  C   UNL     1     -27.302   7.779  -5.612  1.00  0.00     0.000 C 
BRANCH  13  14
ATOM     14  C   UNL     1     -28.640   8.512  -5.849  1.00  0.00     0.000 C 
BRANCH  14  15
ATOM     15  C   UNL     1     -29.679   8.207  -4.754  1.00  0.00     0.000 C 
BRANCH  15  16
ATOM     16  C   UNL     1     -31.095   7.985  -5.314  1.00  0.00     0.000 C 
BRANCH  16  17
ATOM     17  C   UNL     1     -31.172   7.795  -6.840  1.00  0.00     0.000 C 
BRANCH  17  18
ATOM     18  C   UNL     1     -31.513   9.096  -7.589  1.00  0.00     0.000 C 
BRANCH  18  19
ATOM     19  C   UNL     1     -32.967   9.542  -7.358  1.00  0.00     0.000 C 
BRANCH  19  20
ATOM     20  C   UNL     1     -33.993   8.496  -7.831  1.00  0.00     0.006 C 
BRANCH  20  21
ATOM     21  C   UNL     1     -33.517   7.744  -9.081  1.00  0.00     0.053 C 
BRANCH  21  22
ATOM     22  C   UNL     1     -33.858   6.287  -9.017  1.00  0.00     0.041 C 
ATOM     23  O   UNL     1     -34.020   5.628 -10.077  1.00  0.00    -0.550 OA
ATOM     24  O   UNL     1     -34.024   5.664  -7.785  1.00  0.00    -0.550 OA
ENDBRANCH  21  22
ENDBRANCH  20  21
ENDBRANCH  19  20
ENDBRANCH  18  19
ENDBRANCH  17  18
ENDBRANCH  16  17
ENDBRANCH  15  16
ENDBRANCH  14  15
ENDBRANCH  13  14
ENDBRANCH   1  13
TORSDOF 20
ENDMDL
MODEL 6
REMARK VINA RESULT:     1.212      2.259      3.991
REMARK INTER + INTRA:           2.572
REMARK INTER:                   4.082
REMARK INTRA:                  -1.510
REMARK UNBOUND:                -0.057
REMARK SMILES CCCCCCCCCCCCCCCCCCCCCC(=O)[O-]
REMARK SMILES IDX 12 1 11 2 10 3 9 4 8 5 7 6 6 7 5 8 4 9 3 10 2 11 1 12 13 13
REMARK SMILES IDX 14 14 15 15 16 16 17 17 18 18 19 19 20 20 21 21 22 22 23 23
REMARK SMILES IDX 24 24
REMARK H PARENT
REMARK Flexibility Score: inf
ROOT
ATOM      1  C   UNL     1     -26.007  11.119  -5.076  1.00  0.00     0.000 C 
ENDROOT
BRANCH   1   2
ATOM      2  C   UNL     1     -24.473  11.125  -5.189  1.00  0.00     0.000 C 
BRANCH   2   3
ATOM      3  C   UNL     1     -23.777  10.739  -3.875  1.00  0.00     0.000 C 
BRANCH   3   4
ATOM      4  C   UNL     1     -23.386   9.254  -3.879  1.00  0.00    -0.000 C 
BRANCH   4   5
ATOM      5  C   UNL     1     -23.039   8.732  -5.283  1.00  0.00    -0.000 C 
BRANCH   5   6
ATOM      6  C   UNL     1     -23.073   7.196  -5.370  1.00  0.00    -0.000 C 
BRANCH   6   7
ATOM      7  C   UNL     1     -21.743   6.606  -5.865  1.00  0.00    -0.000 C 
BRANCH   7   8
ATOM      8  C   UNL     1     -20.521   7.262  -5.201  1.00  0.00    -0.000 C 
BRANCH   8   9
ATOM      9  C   UNL     1     -19.238   6.486  -5.534  1.00  0.00    -0.000 C 
BRANCH   9  10
ATOM     10  C   UNL     1     -17.992   7.082  -4.857  1.00  0.00    -0.000 C 
BRANCH  10  11
ATOM     11  C   UNL     1     -17.243   8.070  -5.762  1.00  0.00    -0.003 C 
ATOM     12  C   UNL     1     -16.935   9.368  -5.022  1.00  0.00     0.004 C 
ENDBRANCH  10  11
ENDBRANCH   9  10
ENDBRANCH   8   9
ENDBRANCH   7   8
ENDBRANCH   6   7
ENDBRANCH   5   6
ENDBRANCH   4   5
ENDBRANCH   3   4
ENDBRANCH   2   3
ENDBRANCH   1   2
BRANCH   1  13
ATOM     13  C   UNL     1     -26.744  10.484  -6.270  1.00  0.00     0.000 C 
BRANCH  13  14
ATOM     14  C   UNL     1     -27.142   9.009  -6.048  1.00  0.00     0.000 C 
BRANCH  14  15
ATOM     15  C   UNL     1     -27.708   8.758  -4.638  1.00  0.00     0.000 C 
BRANCH  15  16
ATOM     16  C   UNL     1     -29.057   8.019  -4.655  1.00  0.00     0.000 C 
BRANCH  16  17
ATOM     17  C   UNL     1     -30.211   8.780  -5.334  1.00  0.00     0.000 C 
BRANCH  17  18
ATOM     18  C   UNL     1     -30.906   7.957  -6.433  1.00  0.00     0.000 C 
BRANCH  18  19
ATOM     19  C   UNL     1     -31.611   8.843  -7.474  1.00  0.00     0.000 C 
BRANCH  19  20
ATOM     20  C   UNL     1     -33.139   8.656  -7.477  1.00  0.00     0.006 C 
BRANCH  20  21
ATOM     21  C   UNL     1     -33.650   8.090  -8.808  1.00  0.00     0.053 C 
BRANCH  21  22
ATOM     22  C   UNL     1     -33.521   6.599  -8.864  1.00  0.00     0.041 C 
ATOM     23  O   UNL     1     -33.539   6.003  -9.973  1.00  0.00    -0.550 OA
ATOM     24  O   UNL     1     -33.409   5.864  -7.689  1.00  0.00    -0.550 OA
ENDBRANCH  21  22
ENDBRANCH  20  21
ENDBRANCH  19  20
ENDBRANCH  18  19
ENDBRANCH  17  18
ENDBRANCH  16  17
ENDBRANCH  15  16
ENDBRANCH  14  15
ENDBRANCH  13  14
ENDBRANCH   1  13
TORSDOF 20
ENDMDL
