MODEL 1
REMARK VINA RESULT:    -7.356      0.000      0.000
REMARK INTER + INTRA:          -8.773
REMARK INTER:                  -8.862
REMARK INTRA:                   0.088
REMARK UNBOUND:                 0.088
REMARK SMILES O=c1c(O)c(-c2ccc(O)c(O)c2)oc2cc(O)cc(O)c12
REMARK SMILES IDX 5 1 3 2 2 3 1 4 22 5 20 6 19 7 17 8 16 9 15 10 14 11 6 12
REMARK SMILES IDX 7 13 8 14 9 15 13 16 11 17 10 18 12 20 4 22 21 24 18 26
REMARK H PARENT 10 19 12 21 4 23 21 25 18 27
REMARK Flexibility Score: inf
ROOT
ATOM      1  C   UNL     1      59.464  -1.709   4.391  1.00  0.00     0.180 A 
ATOM      2  C   UNL     1      59.862  -2.277   3.167  1.00  0.00     0.208 A 
ATOM      3  C   UNL     1      60.981  -1.747   2.504  1.00  0.00     0.238 A 
ATOM      4  O   UNL     1      61.299  -2.225   1.382  1.00  0.00    -0.285 OA
ATOM      5  C   UNL     1      61.696  -0.670   3.078  1.00  0.00     0.111 A 
ATOM      6  C   UNL     1      62.867  -0.082   2.512  1.00  0.00     0.134 A 
ATOM      7  C   UNL     1      63.417   1.064   3.099  1.00  0.00     0.093 A 
ATOM      8  C   UNL     1      62.876   1.605   4.268  1.00  0.00     0.123 A 
ATOM      9  C   UNL     1      61.770   1.002   4.861  1.00  0.00     0.094 A 
ATOM     10  C   UNL     1      61.177  -0.120   4.278  1.00  0.00     0.146 A 
ATOM     11  O   UNL     1      60.116  -0.657   4.870  1.00  0.00    -0.452 OA
ENDROOT
BRANCH   1  12
ATOM     12  C   UNL     1      58.311  -2.227   5.162  1.00  0.00     0.025 A 
ATOM     13  C   UNL     1      58.391  -2.433   6.550  1.00  0.00     0.016 A 
ATOM     14  C   UNL     1      57.283  -2.900   7.260  1.00  0.00     0.051 A 
ATOM     15  C   UNL     1      56.075  -3.155   6.598  1.00  0.00     0.157 A 
ATOM     16  C   UNL     1      57.091  -2.465   4.506  1.00  0.00     0.062 A 
ATOM     17  C   UNL     1      55.979  -2.933   5.215  1.00  0.00     0.158 A 
BRANCH  15  18
ATOM     18  O   UNL     1      54.970  -3.623   7.310  1.00  0.00    -0.504 OA
ATOM     19  H   UNL     1      54.679  -4.592   7.261  1.00  0.00     0.293 HD
ENDBRANCH  15  18
BRANCH  17  20
ATOM     20  O   UNL     1      54.789  -3.171   4.527  1.00  0.00    -0.504 OA
ATOM     21  H   UNL     1      54.241  -4.009   4.675  1.00  0.00     0.293 HD
ENDBRANCH  17  20
ENDBRANCH   1  12
BRANCH   2  22
ATOM     22  O   UNL     1      59.128  -3.326   2.608  1.00  0.00    -0.502 OA
ATOM     23  H   UNL     1      59.453  -3.849   1.803  1.00  0.00     0.293 HD
ENDBRANCH   2  22
BRANCH   6  24
ATOM     24  O   UNL     1      63.539  -0.597   1.399  1.00  0.00    -0.507 OA
ATOM     25  H   UNL     1      63.962  -1.511   1.356  1.00  0.00     0.293 HD
ENDBRANCH   6  24
BRANCH   8  26
ATOM     26  O   UNL     1      63.440   2.736   4.855  1.00  0.00    -0.508 OA
ATOM     27  H   UNL     1      63.489   3.620   4.362  1.00  0.00     0.293 HD
ENDBRANCH   8  26
TORSDOF 6
ENDMDL
MODEL 2
REMARK VINA RESULT:    -7.174      1.399      6.629
REMARK INTER + INTRA:          -8.553
REMARK INTER:                  -8.295
REMARK INTRA:                  -0.258
REMARK UNBOUND:                 0.088
REMARK SMILES O=c1c(O)c(-c2ccc(O)c(O)c2)oc2cc(O)cc(O)c12
REMARK SMILES IDX 5 1 3 2 2 3 1 4 22 5 20 6 19 7 17 8 16 9 15 10 14 11 6 12
REMARK SMILES IDX 7 13 8 14 9 15 13 16 11 17 10 18 12 20 4 22 21 24 18 26
REMARK H PARENT 10 19 12 21 4 23 21 25 18 27
REMARK Flexibility Score: inf
ROOT
ATOM      1  C   UNL     1      59.959  -1.630   4.279  1.00  0.00     0.180 A 
ATOM      2  C   UNL     1      59.614  -2.193   3.038  1.00  0.00     0.208 A 
ATOM      3  C   UNL     1      58.346  -2.778   2.886  1.00  0.00     0.238 A 
ATOM      4  O   UNL     1      58.063  -3.329   1.789  1.00  0.00    -0.285 OA
ATOM      5  C   UNL     1      57.436  -2.778   3.969  1.00  0.00     0.111 A 
ATOM      6  C   UNL     1      56.111  -3.308   3.914  1.00  0.00     0.134 A 
ATOM      7  C   UNL     1      55.344  -3.372   5.084  1.00  0.00     0.093 A 
ATOM      8  C   UNL     1      55.830  -2.868   6.293  1.00  0.00     0.123 A 
ATOM      9  C   UNL     1      57.098  -2.295   6.343  1.00  0.00     0.094 A 
ATOM     10  C   UNL     1      57.901  -2.249   5.201  1.00  0.00     0.146 A 
ATOM     11  O   UNL     1      59.108  -1.705   5.295  1.00  0.00    -0.452 OA
ENDROOT
BRANCH   1  12
ATOM     12  C   UNL     1      61.266  -0.974   4.510  1.00  0.00     0.025 A 
ATOM     13  C   UNL     1      62.447  -1.723   4.655  1.00  0.00     0.016 A 
ATOM     14  C   UNL     1      63.672  -1.081   4.846  1.00  0.00     0.051 A 
ATOM     15  C   UNL     1      63.740   0.318   4.883  1.00  0.00     0.157 A 
ATOM     16  C   UNL     1      61.343   0.430   4.526  1.00  0.00     0.062 A 
ATOM     17  C   UNL     1      62.569   1.075   4.719  1.00  0.00     0.158 A 
BRANCH  15  18
ATOM     18  O   UNL     1      64.965   0.956   5.077  1.00  0.00    -0.504 OA
ATOM     19  H   UNL     1      65.078   1.689   5.766  1.00  0.00     0.293 HD
ENDBRANCH  15  18
BRANCH  17  20
ATOM     20  O   UNL     1      62.603   2.470   4.744  1.00  0.00    -0.504 OA
ATOM     21  H   UNL     1      62.651   2.991   5.611  1.00  0.00     0.293 HD
ENDBRANCH  17  20
ENDBRANCH   1  12
BRANCH   2  22
ATOM     22  O   UNL     1      60.536  -2.201   1.989  1.00  0.00    -0.502 OA
ATOM     23  H   UNL     1      61.254  -1.492   1.891  1.00  0.00     0.293 HD
ENDBRANCH   2  22
BRANCH   6  24
ATOM     24  O   UNL     1      55.497  -3.753   2.740  1.00  0.00    -0.507 OA
ATOM     25  H   UNL     1      54.503  -3.739   2.570  1.00  0.00     0.293 HD
ENDBRANCH   6  24
BRANCH   8  26
ATOM     26  O   UNL     1      55.054  -2.921   7.449  1.00  0.00    -0.508 OA
ATOM     27  H   UNL     1      54.086  -2.621   7.451  1.00  0.00     0.293 HD
ENDBRANCH   8  26
TORSDOF 6
ENDMDL
MODEL 3
REMARK VINA RESULT:    -7.156      2.212      7.231
REMARK INTER + INTRA:          -8.532
REMARK INTER:                  -8.244
REMARK INTRA:                  -0.288
REMARK UNBOUND:                 0.088
REMARK SMILES O=c1c(O)c(-c2ccc(O)c(O)c2)oc2cc(O)cc(O)c12
REMARK SMILES IDX 5 1 3 2 2 3 1 4 22 5 20 6 19 7 17 8 16 9 15 10 14 11 6 12
REMARK SMILES IDX 7 13 8 14 9 15 13 16 11 17 10 18 12 20 4 22 21 24 18 26
REMARK H PARENT 10 19 12 21 4 23 21 25 18 27
REMARK Flexibility Score: inf
ROOT
ATOM      1  C   UNL     1      59.829  -2.256   3.063  1.00  0.00     0.180 A 
ATOM      2  C   UNL     1      60.118  -2.135   4.434  1.00  0.00     0.208 A 
ATOM      3  C   UNL     1      59.086  -2.328   5.367  1.00  0.00     0.238 A 
ATOM      4  O   UNL     1      59.339  -2.164   6.589  1.00  0.00    -0.285 OA
ATOM      5  C   UNL     1      57.784  -2.654   4.919  1.00  0.00     0.111 A 
ATOM      6  C   UNL     1      56.672  -2.910   5.778  1.00  0.00     0.134 A 
ATOM      7  C   UNL     1      55.400  -3.096   5.223  1.00  0.00     0.093 A 
ATOM      8  C   UNL     1      55.211  -3.099   3.838  1.00  0.00     0.123 A 
ATOM      9  C   UNL     1      56.300  -2.910   2.992  1.00  0.00     0.094 A 
ATOM     10  C   UNL     1      57.575  -2.686   3.516  1.00  0.00     0.146 A 
ATOM     11  O   UNL     1      58.584  -2.499   2.673  1.00  0.00    -0.452 OA
ENDROOT
BRANCH   1  12
ATOM     12  C   UNL     1      60.869  -2.092   2.022  1.00  0.00     0.025 A 
ATOM     13  C   UNL     1      61.312  -0.819   1.623  1.00  0.00     0.016 A 
ATOM     14  C   UNL     1      62.311  -0.690   0.657  1.00  0.00     0.051 A 
ATOM     15  C   UNL     1      62.893  -1.828   0.083  1.00  0.00     0.157 A 
ATOM     16  C   UNL     1      61.470  -3.231   1.459  1.00  0.00     0.062 A 
ATOM     17  C   UNL     1      62.471  -3.104   0.490  1.00  0.00     0.158 A 
BRANCH  15  18
ATOM     18  O   UNL     1      63.889  -1.695  -0.884  1.00  0.00    -0.504 OA
ATOM     19  H   UNL     1      64.798  -1.306  -0.659  1.00  0.00     0.293 HD
ENDBRANCH  15  18
BRANCH  17  20
ATOM     20  O   UNL     1      63.034  -4.258  -0.057  1.00  0.00    -0.504 OA
ATOM     21  H   UNL     1      62.991  -5.153   0.415  1.00  0.00     0.293 HD
ENDBRANCH  17  20
ENDBRANCH   1  12
BRANCH   2  22
ATOM     22  O   UNL     1      61.406  -1.790   4.853  1.00  0.00    -0.502 OA
ATOM     23  H   UNL     1      61.577  -1.234   5.682  1.00  0.00     0.293 HD
ENDBRANCH   2  22
BRANCH   6  24
ATOM     24  O   UNL     1      56.769  -3.019   7.168  1.00  0.00    -0.507 OA
ATOM     25  H   UNL     1      57.631  -3.143   7.676  1.00  0.00     0.293 HD
ENDBRANCH   6  24
BRANCH   8  26
ATOM     26  O   UNL     1      53.944  -3.301   3.295  1.00  0.00    -0.508 OA
ATOM     27  H   UNL     1      53.651  -2.830   2.446  1.00  0.00     0.293 HD
ENDBRANCH   8  26
TORSDOF 6
ENDMDL
MODEL 4
REMARK VINA RESULT:    -7.106      4.031      6.560
REMARK INTER + INTRA:          -8.472
REMARK INTER:                  -8.168
REMARK INTRA:                  -0.304
REMARK UNBOUND:                 0.088
REMARK SMILES O=c1c(O)c(-c2ccc(O)c(O)c2)oc2cc(O)cc(O)c12
REMARK SMILES IDX 5 1 3 2 2 3 1 4 22 5 20 6 19 7 17 8 16 9 15 10 14 11 6 12
REMARK SMILES IDX 7 13 8 14 9 15 13 16 11 17 10 18 12 20 4 22 21 24 18 26
REMARK H PARENT 10 19 12 21 4 23 21 25 18 27
REMARK Flexibility Score: inf
ROOT
ATOM      1  C   UNL     1      62.049   2.081   4.070  1.00  0.00     0.180 A 
ATOM      2  C   UNL     1      62.282   2.809   2.890  1.00  0.00     0.208 A 
ATOM      3  C   UNL     1      62.208   2.143   1.655  1.00  0.00     0.238 A 
ATOM      4  O   UNL     1      62.471   2.788   0.606  1.00  0.00    -0.285 OA
ATOM      5  C   UNL     1      61.888   0.766   1.615  1.00  0.00     0.111 A 
ATOM      6  C   UNL     1      61.747   0.002   0.418  1.00  0.00     0.134 A 
ATOM      7  C   UNL     1      61.556  -1.383   0.501  1.00  0.00     0.093 A 
ATOM      8  C   UNL     1      61.437  -2.021   1.738  1.00  0.00     0.123 A 
ATOM      9  C   UNL     1      61.513  -1.274   2.911  1.00  0.00     0.094 A 
ATOM     10  C   UNL     1      61.739   0.103   2.860  1.00  0.00     0.146 A 
ATOM     11  O   UNL     1      61.816   0.776   4.003  1.00  0.00    -0.452 OA
ENDROOT
BRANCH   1  12
ATOM     12  C   UNL     1      62.085   2.717   5.407  1.00  0.00     0.025 A 
ATOM     13  C   UNL     1      61.003   3.474   5.887  1.00  0.00     0.016 A 
ATOM     14  C   UNL     1      61.049   4.044   7.161  1.00  0.00     0.051 A 
ATOM     15  C   UNL     1      62.169   3.855   7.981  1.00  0.00     0.157 A 
ATOM     16  C   UNL     1      63.198   2.513   6.241  1.00  0.00     0.062 A 
ATOM     17  C   UNL     1      63.247   3.083   7.518  1.00  0.00     0.158 A 
BRANCH  15  18
ATOM     18  O   UNL     1      62.213   4.428   9.252  1.00  0.00    -0.504 OA
ATOM     19  H   UNL     1      62.641   5.331   9.413  1.00  0.00     0.293 HD
ENDBRANCH  15  18
BRANCH  17  20
ATOM     20  O   UNL     1      64.375   2.870   8.311  1.00  0.00    -0.504 OA
ATOM     21  H   UNL     1      64.800   3.614   8.851  1.00  0.00     0.293 HD
ENDBRANCH  17  20
ENDBRANCH   1  12
BRANCH   2  22
ATOM     22  O   UNL     1      62.618   4.163   2.954  1.00  0.00    -0.502 OA
ATOM     23  H   UNL     1      62.753   4.730   2.125  1.00  0.00     0.293 HD
ENDBRANCH   2  22
BRANCH   6  24
ATOM     24  O   UNL     1      61.759   0.554  -0.867  1.00  0.00    -0.507 OA
ATOM     25  H   UNL     1      62.330   0.223  -1.629  1.00  0.00     0.293 HD
ENDBRANCH   6  24
BRANCH   8  26
ATOM     26  O   UNL     1      61.231  -3.397   1.812  1.00  0.00    -0.508 OA
ATOM     27  H   UNL     1      60.694  -3.891   1.108  1.00  0.00     0.293 HD
ENDBRANCH   8  26
TORSDOF 6
ENDMDL
MODEL 5
REMARK VINA RESULT:    -6.905      4.154      6.304
REMARK INTER + INTRA:          -8.230
REMARK INTER:                  -7.911
REMARK INTRA:                  -0.319
REMARK UNBOUND:                 0.088
REMARK SMILES O=c1c(O)c(-c2ccc(O)c(O)c2)oc2cc(O)cc(O)c12
REMARK SMILES IDX 5 1 3 2 2 3 1 4 22 5 20 6 19 7 17 8 16 9 15 10 14 11 6 12
REMARK SMILES IDX 7 13 8 14 9 15 13 16 11 17 10 18 12 20 4 22 21 24 18 26
REMARK H PARENT 10 19 12 21 4 23 21 25 18 27
REMARK Flexibility Score: inf
ROOT
ATOM      1  C   UNL     1      62.238   1.869   3.978  1.00  0.00     0.180 A 
ATOM      2  C   UNL     1      61.603   0.633   3.767  1.00  0.00     0.208 A 
ATOM      3  C   UNL     1      61.544   0.111   2.465  1.00  0.00     0.238 A 
ATOM      4  O   UNL     1      60.927  -0.970   2.275  1.00  0.00    -0.285 OA
ATOM      5  C   UNL     1      62.134   0.823   1.393  1.00  0.00     0.111 A 
ATOM      6  C   UNL     1      62.169   0.368   0.040  1.00  0.00     0.134 A 
ATOM      7  C   UNL     1      62.663   1.215  -0.960  1.00  0.00     0.093 A 
ATOM      8  C   UNL     1      63.184   2.473  -0.646  1.00  0.00     0.123 A 
ATOM      9  C   UNL     1      63.210   2.900   0.679  1.00  0.00     0.094 A 
ATOM     10  C   UNL     1      62.690   2.093   1.694  1.00  0.00     0.146 A 
ATOM     11  O   UNL     1      62.724   2.544   2.943  1.00  0.00    -0.452 OA
ENDROOT
BRANCH   1  12
ATOM     12  C   UNL     1      62.362   2.472   5.324  1.00  0.00     0.025 A 
ATOM     13  C   UNL     1      61.406   3.379   5.812  1.00  0.00     0.016 A 
ATOM     14  C   UNL     1      61.530   3.916   7.095  1.00  0.00     0.051 A 
ATOM     15  C   UNL     1      62.603   3.546   7.916  1.00  0.00     0.157 A 
ATOM     16  C   UNL     1      63.425   2.087   6.160  1.00  0.00     0.062 A 
ATOM     17  C   UNL     1      63.552   2.624   7.445  1.00  0.00     0.158 A 
BRANCH  15  18
ATOM     18  O   UNL     1      62.725   4.085   9.196  1.00  0.00    -0.504 OA
ATOM     19  H   UNL     1      61.912   4.309   9.757  1.00  0.00     0.293 HD
ENDBRANCH  15  18
BRANCH  17  20
ATOM     20  O   UNL     1      64.629   2.229   8.240  1.00  0.00    -0.504 OA
ATOM     21  H   UNL     1      65.072   2.859   8.897  1.00  0.00     0.293 HD
ENDBRANCH  17  20
ENDBRANCH   1  12
BRANCH   2  22
ATOM     22  O   UNL     1      61.009  -0.043   4.836  1.00  0.00    -0.502 OA
ATOM     23  H   UNL     1      60.978   0.342   5.773  1.00  0.00     0.293 HD
ENDBRANCH   2  22
BRANCH   6  24
ATOM     24  O   UNL     1      61.758  -0.905  -0.366  1.00  0.00    -0.507 OA
ATOM     25  H   UNL     1      61.047  -1.086  -1.057  1.00  0.00     0.293 HD
ENDBRANCH   6  24
BRANCH   8  26
ATOM     26  O   UNL     1      63.689   3.302  -1.646  1.00  0.00    -0.508 OA
ATOM     27  H   UNL     1      64.091   4.207  -1.430  1.00  0.00     0.293 HD
ENDBRANCH   8  26
TORSDOF 6
ENDMDL
MODEL 6
REMARK VINA RESULT:    -6.902      2.301      3.038
REMARK INTER + INTRA:          -8.226
REMARK INTER:                  -8.066
REMARK INTRA:                  -0.160
REMARK UNBOUND:                 0.088
REMARK SMILES O=c1c(O)c(-c2ccc(O)c(O)c2)oc2cc(O)cc(O)c12
REMARK SMILES IDX 5 1 3 2 2 3 1 4 22 5 20 6 19 7 17 8 16 9 15 10 14 11 6 12
REMARK SMILES IDX 7 13 8 14 9 15 13 16 11 17 10 18 12 20 4 22 21 24 18 26
REMARK H PARENT 10 19 12 21 4 23 21 25 18 27
REMARK Flexibility Score: inf
ROOT
ATOM      1  C   UNL     1      60.848  -1.579   2.295  1.00  0.00     0.180 A 
ATOM      2  C   UNL     1      61.476  -2.544   1.488  1.00  0.00     0.208 A 
ATOM      3  C   UNL     1      62.334  -2.118   0.461  1.00  0.00     0.238 A 
ATOM      4  O   UNL     1      62.850  -2.985  -0.293  1.00  0.00    -0.285 OA
ATOM      5  C   UNL     1      62.566  -0.736   0.264  1.00  0.00     0.111 A 
ATOM      6  C   UNL     1      63.447  -0.195  -0.720  1.00  0.00     0.134 A 
ATOM      7  C   UNL     1      63.500   1.192  -0.911  1.00  0.00     0.093 A 
ATOM      8  C   UNL     1      62.752   2.058  -0.110  1.00  0.00     0.123 A 
ATOM      9  C   UNL     1      61.935   1.542   0.892  1.00  0.00     0.094 A 
ATOM     10  C   UNL     1      61.834   0.162   1.083  1.00  0.00     0.146 A 
ATOM     11  O   UNL     1      61.035  -0.289   2.043  1.00  0.00    -0.452 OA
ENDROOT
BRANCH   1  12
ATOM     12  C   UNL     1      59.950  -1.950   3.412  1.00  0.00     0.025 A 
ATOM     13  C   UNL     1      60.270  -1.637   4.745  1.00  0.00     0.016 A 
ATOM     14  C   UNL     1      59.396  -1.975   5.779  1.00  0.00     0.051 A 
ATOM     15  C   UNL     1      58.183  -2.619   5.500  1.00  0.00     0.157 A 
ATOM     16  C   UNL     1      58.723  -2.576   3.135  1.00  0.00     0.062 A 
ATOM     17  C   UNL     1      57.845  -2.917   4.170  1.00  0.00     0.158 A 
BRANCH  15  18
ATOM     18  O   UNL     1      57.314  -2.957   6.536  1.00  0.00    -0.504 OA
ATOM     19  H   UNL     1      57.606  -2.925   7.506  1.00  0.00     0.293 HD
ENDBRANCH  15  18
BRANCH  17  20
ATOM     20  O   UNL     1      56.643  -3.551   3.857  1.00  0.00    -0.504 OA
ATOM     21  H   UNL     1      56.240  -3.511   2.929  1.00  0.00     0.293 HD
ENDBRANCH  17  20
ENDBRANCH   1  12
BRANCH   2  22
ATOM     22  O   UNL     1      61.215  -3.903   1.686  1.00  0.00    -0.502 OA
ATOM     23  H   UNL     1      61.843  -4.629   1.362  1.00  0.00     0.293 HD
ENDBRANCH   2  22
BRANCH   6  24
ATOM     24  O   UNL     1      64.304  -0.967  -1.509  1.00  0.00    -0.507 OA
ATOM     25  H   UNL     1      65.214  -1.292  -1.220  1.00  0.00     0.293 HD
ENDBRANCH   6  24
BRANCH   8  26
ATOM     26  O   UNL     1      62.822   3.437  -0.297  1.00  0.00    -0.508 OA
ATOM     27  H   UNL     1      63.510   4.003   0.188  1.00  0.00     0.293 HD
ENDBRANCH   8  26
TORSDOF 6
ENDMDL
MODEL 7
REMARK VINA RESULT:    -6.803      4.279      6.180
REMARK INTER + INTRA:          -8.107
REMARK INTER:                  -7.779
REMARK INTRA:                  -0.328
REMARK UNBOUND:                 0.088
REMARK SMILES O=c1c(O)c(-c2ccc(O)c(O)c2)oc2cc(O)cc(O)c12
REMARK SMILES IDX 5 1 3 2 2 3 1 4 22 5 20 6 19 7 17 8 16 9 15 10 14 11 6 12
REMARK SMILES IDX 7 13 8 14 9 15 13 16 11 17 10 18 12 20 4 22 21 24 18 26
REMARK H PARENT 10 19 12 21 4 23 21 25 18 27
REMARK Flexibility Score: inf
ROOT
ATOM      1  C   UNL     1      62.519   1.648   3.711  1.00  0.00     0.180 A 
ATOM      2  C   UNL     1      61.876   0.423   3.461  1.00  0.00     0.208 A 
ATOM      3  C   UNL     1      61.801  -0.050   2.141  1.00  0.00     0.238 A 
ATOM      4  O   UNL     1      61.176  -1.120   1.917  1.00  0.00    -0.285 OA
ATOM      5  C   UNL     1      62.383   0.698   1.091  1.00  0.00     0.111 A 
ATOM      6  C   UNL     1      62.401   0.294  -0.279  1.00  0.00     0.134 A 
ATOM      7  C   UNL     1      62.890   1.175  -1.252  1.00  0.00     0.093 A 
ATOM      8  C   UNL     1      63.421   2.418  -0.897  1.00  0.00     0.123 A 
ATOM      9  C   UNL     1      63.462   2.795   0.442  1.00  0.00     0.094 A 
ATOM     10  C   UNL     1      62.949   1.954   1.432  1.00  0.00     0.146 A 
ATOM     11  O   UNL     1      62.997   2.358   2.696  1.00  0.00    -0.452 OA
ENDROOT
BRANCH   1  12
ATOM     12  C   UNL     1      62.660   2.199   5.077  1.00  0.00     0.025 A 
ATOM     13  C   UNL     1      63.795   1.931   5.863  1.00  0.00     0.016 A 
ATOM     14  C   UNL     1      63.917   2.482   7.139  1.00  0.00     0.051 A 
ATOM     15  C   UNL     1      62.915   3.320   7.648  1.00  0.00     0.157 A 
ATOM     16  C   UNL     1      61.668   3.057   5.583  1.00  0.00     0.062 A 
ATOM     17  C   UNL     1      61.788   3.610   6.863  1.00  0.00     0.158 A 
BRANCH  15  18
ATOM     18  O   UNL     1      63.040   3.867   8.924  1.00  0.00    -0.504 OA
ATOM     19  H   UNL     1      63.890   3.765   9.465  1.00  0.00     0.293 HD
ENDBRANCH  15  18
BRANCH  17  20
ATOM     20  O   UNL     1      60.775   4.446   7.336  1.00  0.00    -0.504 OA
ATOM     21  H   UNL     1      60.663   4.648   8.322  1.00  0.00     0.293 HD
ENDBRANCH  17  20
ENDBRANCH   1  12
BRANCH   2  22
ATOM     22  O   UNL     1      61.289  -0.289   4.511  1.00  0.00    -0.502 OA
ATOM     23  H   UNL     1      61.819  -0.912   5.109  1.00  0.00     0.293 HD
ENDBRANCH   2  22
BRANCH   6  24
ATOM     24  O   UNL     1      61.981  -0.961  -0.728  1.00  0.00    -0.507 OA
ATOM     25  H   UNL     1      61.434  -1.120  -1.560  1.00  0.00     0.293 HD
ENDBRANCH   6  24
BRANCH   8  26
ATOM     26  O   UNL     1      63.920   3.281  -1.870  1.00  0.00    -0.508 OA
ATOM     27  H   UNL     1      64.717   3.880  -1.689  1.00  0.00     0.293 HD
ENDBRANCH   8  26
TORSDOF 6
ENDMDL
MODEL 8
REMARK VINA RESULT:    -6.697      2.133      3.208
REMARK INTER + INTRA:          -7.979
REMARK INTER:                  -7.716
REMARK INTRA:                  -0.263
REMARK UNBOUND:                 0.088
REMARK SMILES O=c1c(O)c(-c2ccc(O)c(O)c2)oc2cc(O)cc(O)c12
REMARK SMILES IDX 5 1 3 2 2 3 1 4 22 5 20 6 19 7 17 8 16 9 15 10 14 11 6 12
REMARK SMILES IDX 7 13 8 14 9 15 13 16 11 17 10 18 12 20 4 22 21 24 18 26
REMARK H PARENT 10 19 12 21 4 23 21 25 18 27
REMARK Flexibility Score: inf
ROOT
ATOM      1  C   UNL     1      61.243  -0.967   3.475  1.00  0.00     0.180 A 
ATOM      2  C   UNL     1      62.516  -1.442   3.837  1.00  0.00     0.208 A 
ATOM      3  C   UNL     1      63.653  -0.804   3.315  1.00  0.00     0.238 A 
ATOM      4  O   UNL     1      64.789  -1.268   3.600  1.00  0.00    -0.285 OA
ATOM      5  C   UNL     1      63.504   0.307   2.452  1.00  0.00     0.111 A 
ATOM      6  C   UNL     1      64.588   1.053   1.897  1.00  0.00     0.134 A 
ATOM      7  C   UNL     1      64.325   2.052   0.952  1.00  0.00     0.093 A 
ATOM      8  C   UNL     1      63.015   2.376   0.590  1.00  0.00     0.123 A 
ATOM      9  C   UNL     1      61.949   1.694   1.172  1.00  0.00     0.094 A 
ATOM     10  C   UNL     1      62.181   0.668   2.090  1.00  0.00     0.146 A 
ATOM     11  O   UNL     1      61.136   0.035   2.612  1.00  0.00    -0.452 OA
ENDROOT
BRANCH   1  12
ATOM     12  C   UNL     1      59.998  -1.570   4.004  1.00  0.00     0.025 A 
ATOM     13  C   UNL     1      59.214  -2.435   3.221  1.00  0.00     0.016 A 
ATOM     14  C   UNL     1      58.057  -3.012   3.749  1.00  0.00     0.051 A 
ATOM     15  C   UNL     1      57.672  -2.745   5.070  1.00  0.00     0.157 A 
ATOM     16  C   UNL     1      59.619  -1.322   5.334  1.00  0.00     0.062 A 
ATOM     17  C   UNL     1      58.460  -1.898   5.866  1.00  0.00     0.158 A 
BRANCH  15  18
ATOM     18  O   UNL     1      56.515  -3.321   5.593  1.00  0.00    -0.504 OA
ATOM     19  H   UNL     1      56.348  -4.318   5.540  1.00  0.00     0.293 HD
ENDBRANCH  15  18
BRANCH  17  20
ATOM     20  O   UNL     1      58.109  -1.616   7.186  1.00  0.00    -0.504 OA
ATOM     21  H   UNL     1      57.316  -2.056   7.637  1.00  0.00     0.293 HD
ENDBRANCH  17  20
ENDBRANCH   1  12
BRANCH   2  22
ATOM     22  O   UNL     1      62.639  -2.554   4.674  1.00  0.00    -0.502 OA
ATOM     23  H   UNL     1      63.532  -2.863   5.039  1.00  0.00     0.293 HD
ENDBRANCH   2  22
BRANCH   6  24
ATOM     24  O   UNL     1      65.926   0.872   2.259  1.00  0.00    -0.507 OA
ATOM     25  H   UNL     1      66.273   0.103   2.812  1.00  0.00     0.293 HD
ENDBRANCH   6  24
BRANCH   8  26
ATOM     26  O   UNL     1      62.762   3.382  -0.339  1.00  0.00    -0.508 OA
ATOM     27  H   UNL     1      62.888   3.229  -1.333  1.00  0.00     0.293 HD
ENDBRANCH   8  26
TORSDOF 6
ENDMDL
MODEL 9
REMARK VINA RESULT:    -6.526      5.623      7.118
REMARK INTER + INTRA:          -7.773
REMARK INTER:                  -7.644
REMARK INTRA:                  -0.129
REMARK UNBOUND:                 0.088
REMARK SMILES O=c1c(O)c(-c2ccc(O)c(O)c2)oc2cc(O)cc(O)c12
REMARK SMILES IDX 5 1 3 2 2 3 1 4 22 5 20 6 19 7 17 8 16 9 15 10 14 11 6 12
REMARK SMILES IDX 7 13 8 14 9 15 13 16 11 17 10 18 12 20 4 22 21 24 18 26
REMARK H PARENT 10 19 12 21 4 23 21 25 18 27
REMARK Flexibility Score: inf
ROOT
ATOM      1  C   UNL     1      63.205   3.252   3.139  1.00  0.00     0.180 A 
ATOM      2  C   UNL     1      62.769   2.083   2.491  1.00  0.00     0.208 A 
ATOM      3  C   UNL     1      62.876   2.000   1.093  1.00  0.00     0.238 A 
ATOM      4  O   UNL     1      62.435   0.973   0.513  1.00  0.00    -0.285 OA
ATOM      5  C   UNL     1      63.431   3.078   0.363  1.00  0.00     0.111 A 
ATOM      6  C   UNL     1      63.624   3.085  -1.051  1.00  0.00     0.134 A 
ATOM      7  C   UNL     1      64.061   4.256  -1.682  1.00  0.00     0.093 A 
ATOM      8  C   UNL     1      64.373   5.400  -0.943  1.00  0.00     0.123 A 
ATOM      9  C   UNL     1      64.246   5.383   0.444  1.00  0.00     0.094 A 
ATOM     10  C   UNL     1      63.777   4.241   1.098  1.00  0.00     0.146 A 
ATOM     11  O   UNL     1      63.659   4.271   2.421  1.00  0.00    -0.452 OA
ENDROOT
BRANCH   1  12
ATOM     12  C   UNL     1      63.147   3.404   4.610  1.00  0.00     0.025 A 
ATOM     13  C   UNL     1      64.311   3.606   5.372  1.00  0.00     0.016 A 
ATOM     14  C   UNL     1      64.230   3.772   6.756  1.00  0.00     0.051 A 
ATOM     15  C   UNL     1      62.986   3.752   7.400  1.00  0.00     0.157 A 
ATOM     16  C   UNL     1      61.900   3.407   5.258  1.00  0.00     0.062 A 
ATOM     17  C   UNL     1      61.816   3.572   6.645  1.00  0.00     0.158 A 
BRANCH  15  18
ATOM     18  O   UNL     1      62.909   3.916   8.783  1.00  0.00    -0.504 OA
ATOM     19  H   UNL     1      62.327   3.317   9.356  1.00  0.00     0.293 HD
ENDBRANCH  15  18
BRANCH  17  20
ATOM     20  O   UNL     1      60.560   3.554   7.253  1.00  0.00    -0.504 OA
ATOM     21  H   UNL     1      59.902   2.799   7.105  1.00  0.00     0.293 HD
ENDBRANCH  17  20
ENDBRANCH   1  12
BRANCH   2  22
ATOM     22  O   UNL     1      62.205   1.039   3.228  1.00  0.00    -0.502 OA
ATOM     23  H   UNL     1      61.525   0.400   2.833  1.00  0.00     0.293 HD
ENDBRANCH   2  22
BRANCH   6  24
ATOM     24  O   UNL     1      63.430   1.970  -1.871  1.00  0.00    -0.507 OA
ATOM     25  H   UNL     1      64.170   1.419  -2.278  1.00  0.00     0.293 HD
ENDBRANCH   6  24
BRANCH   8  26
ATOM     26  O   UNL     1      64.823   6.556  -1.577  1.00  0.00    -0.508 OA
ATOM     27  H   UNL     1      64.278   7.411  -1.569  1.00  0.00     0.293 HD
ENDBRANCH   8  26
TORSDOF 6
ENDMDL
