MODEL 1
REMARK VINA RESULT:    -5.359      0.000      0.000
REMARK INTER + INTRA:          -9.052
REMARK INTER:                  -8.493
REMARK INTRA:                  -0.560
REMARK UNBOUND:                -0.560
REMARK SMILES CCCCCCCCCCCC(=O)[O-]
REMARK SMILES IDX 7 1 8 2 9 3 10 4 11 5 12 6 13 7 14 8 6 9 5 10 4 11 3 12 2 13
REMARK SMILES IDX 1 14
REMARK H PARENT
REMARK Flexibility Score: inf
ROOT
ATOM      1  C   UNL     1      39.784  55.474  60.271  1.00  0.00     0.000 C 
ENDROOT
BRANCH   1   2
ATOM      2  C   UNL     1      40.693  54.298  60.664  1.00  0.00     0.000 C 
BRANCH   2   3
ATOM      3  C   UNL     1      42.185  54.657  60.598  1.00  0.00     0.000 C 
BRANCH   3   4
ATOM      4  C   UNL     1      42.587  55.073  59.175  1.00  0.00     0.006 C 
BRANCH   4   5
ATOM      5  C   UNL     1      43.415  56.364  59.160  1.00  0.00     0.053 C 
BRANCH   5   6
ATOM      6  C   UNL     1      42.549  57.579  59.026  1.00  0.00     0.041 C 
ATOM      7  O   UNL     1      42.252  58.024  57.885  1.00  0.00    -0.550 OA
ATOM      8  O   UNL     1      42.043  58.200  60.160  1.00  0.00    -0.550 OA
ENDBRANCH   5   6
ENDBRANCH   4   5
ENDBRANCH   3   4
ENDBRANCH   2   3
ENDBRANCH   1   2
BRANCH   1   9
ATOM      9  C   UNL     1      38.295  55.178  60.520  1.00  0.00     0.000 C 
BRANCH   9  10
ATOM     10  C   UNL     1      37.370  56.225  59.879  1.00  0.00    -0.000 C 
BRANCH  10  11
ATOM     11  C   UNL     1      36.253  55.590  59.033  1.00  0.00    -0.000 C 
BRANCH  11  12
ATOM     12  C   UNL     1      36.177  54.060  59.223  1.00  0.00    -0.000 C 
BRANCH  12  13
ATOM     13  C   UNL     1      35.105  53.384  58.351  1.00  0.00    -0.003 C 
ATOM     14  C   UNL     1      35.464  51.951  57.966  1.00  0.00     0.004 C 
ENDBRANCH  12  13
ENDBRANCH  11  12
ENDBRANCH  10  11
ENDBRANCH   9  10
ENDBRANCH   1   9
TORSDOF 10
ENDMDL
MODEL 2
REMARK VINA RESULT:    -5.310      3.034      6.075
REMARK INTER + INTRA:          -8.974
REMARK INTER:                  -7.904
REMARK INTRA:                  -1.070
REMARK UNBOUND:                -0.560
REMARK SMILES CCCCCCCCCCCC(=O)[O-]
REMARK SMILES IDX 7 1 8 2 9 3 10 4 11 5 12 6 13 7 14 8 6 9 5 10 4 11 3 12 2 13
REMARK SMILES IDX 1 14
REMARK H PARENT
REMARK Flexibility Score: inf
ROOT
ATOM      1  C   UNL     1      40.061  57.678  58.944  1.00  0.00     0.000 C 
ENDROOT
BRANCH   1   2
ATOM      2  C   UNL     1      39.881  57.345  60.434  1.00  0.00     0.000 C 
BRANCH   2   3
ATOM      3  C   UNL     1      38.540  56.657  60.728  1.00  0.00     0.000 C 
BRANCH   3   4
ATOM      4  C   UNL     1      37.766  56.387  59.429  1.00  0.00     0.006 C 
BRANCH   4   5
ATOM      5  C   UNL     1      36.348  55.864  59.696  1.00  0.00     0.053 C 
BRANCH   5   6
ATOM      6  C   UNL     1      36.244  54.390  59.450  1.00  0.00     0.041 C 
ATOM      7  O   UNL     1      35.401  53.941  58.628  1.00  0.00    -0.550 OA
ATOM      8  O   UNL     1      37.101  53.514  60.103  1.00  0.00    -0.550 OA
ENDBRANCH   5   6
ENDBRANCH   4   5
ENDBRANCH   3   4
ENDBRANCH   2   3
ENDBRANCH   1   2
BRANCH   1   9
ATOM      9  C   UNL     1      41.487  58.151  58.613  1.00  0.00     0.000 C 
BRANCH   9  10
ATOM     10  C   UNL     1      42.475  56.984  58.455  1.00  0.00    -0.000 C 
BRANCH  10  11
ATOM     11  C   UNL     1      43.330  56.757  59.714  1.00  0.00    -0.000 C 
BRANCH  11  12
ATOM     12  C   UNL     1      43.125  55.349  60.313  1.00  0.00    -0.000 C 
BRANCH  12  13
ATOM     13  C   UNL     1      42.042  54.527  59.592  1.00  0.00    -0.003 C 
ATOM     14  C   UNL     1      40.986  53.967  60.542  1.00  0.00     0.004 C 
ENDBRANCH  12  13
ENDBRANCH  11  12
ENDBRANCH  10  11
ENDBRANCH   9  10
ENDBRANCH   1   9
TORSDOF 10
ENDMDL
MODEL 3
REMARK VINA RESULT:    -5.265      2.387      4.321
REMARK INTER + INTRA:          -8.903
REMARK INTER:                  -8.489
REMARK INTRA:                  -0.415
REMARK UNBOUND:                -0.560
REMARK SMILES CCCCCCCCCCCC(=O)[O-]
REMARK SMILES IDX 7 1 8 2 9 3 10 4 11 5 12 6 13 7 14 8 6 9 5 10 4 11 3 12 2 13
REMARK SMILES IDX 1 14
REMARK H PARENT
REMARK Flexibility Score: inf
ROOT
ATOM      1  C   UNL     1      36.541  54.249  59.387  1.00  0.00     0.000 C 
ENDROOT
BRANCH   1   2
ATOM      2  C   UNL     1      36.532  55.771  59.166  1.00  0.00     0.000 C 
BRANCH   2   3
ATOM      3  C   UNL     1      37.646  56.487  59.943  1.00  0.00     0.000 C 
BRANCH   3   4
ATOM      4  C   UNL     1      38.602  55.474  60.590  1.00  0.00     0.006 C 
BRANCH   4   5
ATOM      5  C   UNL     1      40.071  55.768  60.258  1.00  0.00     0.053 C 
BRANCH   5   6
ATOM      6  C   UNL     1      40.906  54.524  60.279  1.00  0.00     0.041 C 
ATOM      7  O   UNL     1      40.608  53.573  61.050  1.00  0.00    -0.550 OA
ATOM      8  O   UNL     1      41.992  54.401  59.423  1.00  0.00    -0.550 OA
ENDBRANCH   5   6
ENDBRANCH   4   5
ENDBRANCH   3   4
ENDBRANCH   2   3
ENDBRANCH   1   2
BRANCH   1   9
ATOM      9  C   UNL     1      35.379  53.541  58.667  1.00  0.00     0.000 C 
BRANCH   9  10
ATOM     10  C   UNL     1      35.813  52.226  58.000  1.00  0.00    -0.000 C 
BRANCH  10  11
ATOM     11  C   UNL     1      34.704  51.159  58.019  1.00  0.00    -0.000 C 
BRANCH  11  12
ATOM     12  C   UNL     1      33.301  51.780  58.190  1.00  0.00    -0.000 C 
BRANCH  12  13
ATOM     13  C   UNL     1      32.164  50.744  58.170  1.00  0.00    -0.003 C 
ATOM     14  C   UNL     1      31.331  50.746  59.449  1.00  0.00     0.004 C 
ENDBRANCH  12  13
ENDBRANCH  11  12
ENDBRANCH  10  11
ENDBRANCH   9  10
ENDBRANCH   1   9
TORSDOF 10
ENDMDL
MODEL 4
REMARK VINA RESULT:    -5.238      3.234      6.945
REMARK INTER + INTRA:          -8.860
REMARK INTER:                  -8.364
REMARK INTRA:                  -0.496
REMARK UNBOUND:                -0.560
REMARK SMILES CCCCCCCCCCCC(=O)[O-]
REMARK SMILES IDX 7 1 8 2 9 3 10 4 11 5 12 6 13 7 14 8 6 9 5 10 4 11 3 12 2 13
REMARK SMILES IDX 1 14
REMARK H PARENT
REMARK Flexibility Score: inf
ROOT
ATOM      1  C   UNL     1      39.144  54.716  60.770  1.00  0.00     0.000 C 
ENDROOT
BRANCH   1   2
ATOM      2  C   UNL     1      39.231  56.204  60.392  1.00  0.00     0.000 C 
BRANCH   2   3
ATOM      3  C   UNL     1      38.047  56.664  59.530  1.00  0.00     0.000 C 
BRANCH   3   4
ATOM      4  C   UNL     1      36.754  55.946  59.945  1.00  0.00     0.006 C 
BRANCH   4   5
ATOM      5  C   UNL     1      35.953  55.447  58.735  1.00  0.00     0.053 C 
BRANCH   5   6
ATOM      6  C   UNL     1      35.715  53.969  58.797  1.00  0.00     0.041 C 
ATOM      7  O   UNL     1      34.746  53.455  58.178  1.00  0.00    -0.550 OA
ATOM      8  O   UNL     1      36.584  53.155  59.512  1.00  0.00    -0.550 OA
ENDBRANCH   5   6
ENDBRANCH   4   5
ENDBRANCH   3   4
ENDBRANCH   2   3
ENDBRANCH   1   2
BRANCH   1   9
ATOM      9  C   UNL     1      40.530  54.076  60.969  1.00  0.00     0.000 C 
BRANCH   9  10
ATOM     10  C   UNL     1      41.508  54.422  59.834  1.00  0.00    -0.000 C 
BRANCH  10  11
ATOM     11  C   UNL     1      42.824  55.027  60.352  1.00  0.00    -0.000 C 
BRANCH  11  12
ATOM     12  C   UNL     1      43.379  56.113  59.406  1.00  0.00    -0.000 C 
BRANCH  12  13
ATOM     13  C   UNL     1      44.320  57.112  60.100  1.00  0.00    -0.003 C 
ATOM     14  C   UNL     1      45.148  57.936  59.117  1.00  0.00     0.004 C 
ENDBRANCH  12  13
ENDBRANCH  11  12
ENDBRANCH  10  11
ENDBRANCH   9  10
ENDBRANCH   1   9
TORSDOF 10
ENDMDL
MODEL 5
REMARK VINA RESULT:    -5.234      1.155      2.198
REMARK INTER + INTRA:          -8.853
REMARK INTER:                  -8.203
REMARK INTRA:                  -0.650
REMARK UNBOUND:                -0.560
REMARK SMILES CCCCCCCCCCCC(=O)[O-]
REMARK SMILES IDX 7 1 8 2 9 3 10 4 11 5 12 6 13 7 14 8 6 9 5 10 4 11 3 12 2 13
REMARK SMILES IDX 1 14
REMARK H PARENT
REMARK Flexibility Score: inf
ROOT
ATOM      1  C   UNL     1      41.641  54.536  59.763  1.00  0.00     0.000 C 
ENDROOT
BRANCH   1   2
ATOM      2  C   UNL     1      42.807  54.995  60.655  1.00  0.00     0.000 C 
BRANCH   2   3
ATOM      3  C   UNL     1      43.511  56.246  60.108  1.00  0.00     0.000 C 
BRANCH   3   4
ATOM      4  C   UNL     1      43.033  56.566  58.684  1.00  0.00     0.006 C 
BRANCH   4   5
ATOM      5  C   UNL     1      43.029  58.074  58.399  1.00  0.00     0.053 C 
BRANCH   5   6
ATOM      6  C   UNL     1      41.641  58.594  58.180  1.00  0.00     0.041 C 
ATOM      7  O   UNL     1      40.647  57.950  58.608  1.00  0.00    -0.550 OA
ATOM      8  O   UNL     1      41.448  59.807  57.531  1.00  0.00    -0.550 OA
ENDBRANCH   5   6
ENDBRANCH   4   5
ENDBRANCH   3   4
ENDBRANCH   2   3
ENDBRANCH   1   2
BRANCH   1   9
ATOM      9  C   UNL     1      40.378  54.194  60.572  1.00  0.00     0.000 C 
BRANCH   9  10
ATOM     10  C   UNL     1      39.376  55.360  60.622  1.00  0.00    -0.000 C 
BRANCH  10  11
ATOM     11  C   UNL     1      37.943  54.924  60.270  1.00  0.00    -0.000 C 
BRANCH  11  12
ATOM     12  C   UNL     1      37.125  56.069  59.637  1.00  0.00    -0.000 C 
BRANCH  12  13
ATOM     13  C   UNL     1      35.986  55.580  58.726  1.00  0.00    -0.003 C 
ATOM     14  C   UNL     1      35.725  54.081  58.847  1.00  0.00     0.004 C 
ENDBRANCH  12  13
ENDBRANCH  11  12
ENDBRANCH  10  11
ENDBRANCH   9  10
ENDBRANCH   1   9
TORSDOF 10
ENDMDL
MODEL 6
REMARK VINA RESULT:    -5.179      3.014      6.254
REMARK INTER + INTRA:          -8.767
REMARK INTER:                  -7.726
REMARK INTRA:                  -1.041
REMARK UNBOUND:                -0.560
REMARK SMILES CCCCCCCCCCCC(=O)[O-]
REMARK SMILES IDX 7 1 8 2 9 3 10 4 11 5 12 6 13 7 14 8 6 9 5 10 4 11 3 12 2 13
REMARK SMILES IDX 1 14
REMARK H PARENT
REMARK Flexibility Score: inf
ROOT
ATOM      1  C   UNL     1      41.444  54.440  59.676  1.00  0.00     0.000 C 
ENDROOT
BRANCH   1   2
ATOM      2  C   UNL     1      40.064  54.465  60.354  1.00  0.00     0.000 C 
BRANCH   2   3
ATOM      3  C   UNL     1      39.535  55.891  60.563  1.00  0.00     0.000 C 
BRANCH   3   4
ATOM      4  C   UNL     1      38.069  56.003  60.117  1.00  0.00     0.006 C 
BRANCH   4   5
ATOM      5  C   UNL     1      37.391  54.632  59.999  1.00  0.00     0.053 C 
BRANCH   5   6
ATOM      6  C   UNL     1      36.171  54.687  59.133  1.00  0.00     0.041 C 
ATOM      7  O   UNL     1      35.737  55.795  58.718  1.00  0.00    -0.550 OA
ATOM      8  O   UNL     1      35.531  53.514  58.757  1.00  0.00    -0.550 OA
ENDBRANCH   5   6
ENDBRANCH   4   5
ENDBRANCH   3   4
ENDBRANCH   2   3
ENDBRANCH   1   2
BRANCH   1   9
ATOM      9  C   UNL     1      42.586  54.786  60.649  1.00  0.00     0.000 C 
BRANCH   9  10
ATOM     10  C   UNL     1      43.287  56.106  60.289  1.00  0.00    -0.000 C 
BRANCH  10  11
ATOM     11  C   UNL     1      43.304  56.373  58.774  1.00  0.00    -0.000 C 
BRANCH  11  12
ATOM     12  C   UNL     1      43.185  57.877  58.446  1.00  0.00    -0.000 C 
BRANCH  12  13
ATOM     13  C   UNL     1      41.910  58.530  59.007  1.00  0.00    -0.003 C 
ATOM     14  C   UNL     1      40.674  58.259  58.152  1.00  0.00     0.004 C 
ENDBRANCH  12  13
ENDBRANCH  11  12
ENDBRANCH  10  11
ENDBRANCH   9  10
ENDBRANCH   1   9
TORSDOF 10
ENDMDL
MODEL 7
REMARK VINA RESULT:    -5.122      1.778      3.216
REMARK INTER + INTRA:          -8.676
REMARK INTER:                  -7.720
REMARK INTRA:                  -0.956
REMARK UNBOUND:                -0.560
REMARK SMILES CCCCCCCCCCCC(=O)[O-]
REMARK SMILES IDX 7 1 8 2 9 3 10 4 11 5 12 6 13 7 14 8 6 9 5 10 4 11 3 12 2 13
REMARK SMILES IDX 1 14
REMARK H PARENT
REMARK Flexibility Score: inf
ROOT
ATOM      1  C   UNL     1      42.630  54.901  60.645  1.00  0.00     0.000 C 
ENDROOT
BRANCH   1   2
ATOM      2  C   UNL     1      43.079  56.147  59.866  1.00  0.00     0.000 C 
BRANCH   2   3
ATOM      3  C   UNL     1      42.085  56.546  58.765  1.00  0.00     0.000 C 
BRANCH   3   4
ATOM      4  C   UNL     1      41.469  57.923  59.055  1.00  0.00     0.006 C 
BRANCH   4   5
ATOM      5  C   UNL     1      41.954  58.995  58.071  1.00  0.00     0.053 C 
BRANCH   5   6
ATOM      6  C   UNL     1      43.174  59.703  58.576  1.00  0.00     0.041 C 
ATOM      7  O   UNL     1      44.317  59.367  58.167  1.00  0.00    -0.550 OA
ATOM      8  O   UNL     1      43.045  60.756  59.472  1.00  0.00    -0.550 OA
ENDBRANCH   5   6
ENDBRANCH   4   5
ENDBRANCH   3   4
ENDBRANCH   2   3
ENDBRANCH   1   2
BRANCH   1   9
ATOM      9  C   UNL     1      41.389  54.233  60.026  1.00  0.00     0.000 C 
BRANCH   9  10
ATOM     10  C   UNL     1      40.311  53.907  61.073  1.00  0.00    -0.000 C 
BRANCH  10  11
ATOM     11  C   UNL     1      38.905  54.352  60.633  1.00  0.00    -0.000 C 
BRANCH  11  12
ATOM     12  C   UNL     1      38.767  55.889  60.592  1.00  0.00    -0.000 C 
BRANCH  12  13
ATOM     13  C   UNL     1      37.542  56.375  59.798  1.00  0.00    -0.003 C 
ATOM     14  C   UNL     1      36.540  55.262  59.504  1.00  0.00     0.004 C 
ENDBRANCH  12  13
ENDBRANCH  11  12
ENDBRANCH  10  11
ENDBRANCH   9  10
ENDBRANCH   1   9
TORSDOF 10
ENDMDL
MODEL 8
REMARK VINA RESULT:    -5.103      2.472      4.082
REMARK INTER + INTRA:          -8.646
REMARK INTER:                  -7.688
REMARK INTRA:                  -0.958
REMARK UNBOUND:                -0.560
REMARK SMILES CCCCCCCCCCCC(=O)[O-]
REMARK SMILES IDX 7 1 8 2 9 3 10 4 11 5 12 6 13 7 14 8 6 9 5 10 4 11 3 12 2 13
REMARK SMILES IDX 1 14
REMARK H PARENT
REMARK Flexibility Score: inf
ROOT
ATOM      1  C   UNL     1      43.587  55.985  60.099  1.00  0.00     0.000 C 
ENDROOT
BRANCH   1   2
ATOM      2  C   UNL     1      43.085  56.486  58.736  1.00  0.00     0.000 C 
BRANCH   2   3
ATOM      3  C   UNL     1      43.501  57.936  58.449  1.00  0.00     0.000 C 
BRANCH   3   4
ATOM      4  C   UNL     1      42.308  58.891  58.610  1.00  0.00     0.006 C 
BRANCH   4   5
ATOM      5  C   UNL     1      40.962  58.165  58.485  1.00  0.00     0.053 C 
BRANCH   5   6
ATOM      6  C   UNL     1      39.990  58.937  57.647  1.00  0.00     0.041 C 
ATOM      7  O   UNL     1      40.242  60.126  57.315  1.00  0.00    -0.550 OA
ATOM      8  O   UNL     1      38.820  58.333  57.205  1.00  0.00    -0.550 OA
ENDBRANCH   5   6
ENDBRANCH   4   5
ENDBRANCH   3   4
ENDBRANCH   2   3
ENDBRANCH   1   2
BRANCH   1   9
ATOM      9  C   UNL     1      42.733  54.834  60.657  1.00  0.00     0.000 C 
BRANCH   9  10
ATOM     10  C   UNL     1      41.300  54.838  60.099  1.00  0.00    -0.000 C 
BRANCH  10  11
ATOM     11  C   UNL     1      40.355  53.914  60.887  1.00  0.00    -0.000 C 
BRANCH  11  12
ATOM     12  C   UNL     1      38.924  54.485  60.977  1.00  0.00    -0.000 C 
BRANCH  12  13
ATOM     13  C   UNL     1      38.836  55.982  60.638  1.00  0.00    -0.003 C 
ATOM     14  C   UNL     1      37.607  56.336  59.806  1.00  0.00     0.004 C 
ENDBRANCH  12  13
ENDBRANCH  11  12
ENDBRANCH  10  11
ENDBRANCH   9  10
ENDBRANCH   1   9
TORSDOF 10
ENDMDL
MODEL 9
REMARK VINA RESULT:    -5.045      4.108      7.529
REMARK INTER + INTRA:          -8.554
REMARK INTER:                  -8.147
REMARK INTRA:                  -0.407
REMARK UNBOUND:                -0.560
REMARK SMILES CCCCCCCCCCCC(=O)[O-]
REMARK SMILES IDX 7 1 8 2 9 3 10 4 11 5 12 6 13 7 14 8 6 9 5 10 4 11 3 12 2 13
REMARK SMILES IDX 1 14
REMARK H PARENT
REMARK Flexibility Score: inf
ROOT
ATOM      1  C   UNL     1      37.961  56.159  60.278  1.00  0.00     0.000 C 
ENDROOT
BRANCH   1   2
ATOM      2  C   UNL     1      36.809  55.653  59.395  1.00  0.00     0.000 C 
BRANCH   2   3
ATOM      3  C   UNL     1      36.264  54.293  59.858  1.00  0.00     0.000 C 
BRANCH   3   4
ATOM      4  C   UNL     1      36.159  53.314  58.679  1.00  0.00     0.006 C 
BRANCH   4   5
ATOM      5  C   UNL     1      34.708  53.102  58.228  1.00  0.00     0.053 C 
BRANCH   5   6
ATOM      6  C   UNL     1      34.382  51.649  58.068  1.00  0.00     0.041 C 
ATOM      7  O   UNL     1      33.200  51.242  58.227  1.00  0.00    -0.550 OA
ATOM      8  O   UNL     1      35.377  50.748  57.712  1.00  0.00    -0.550 OA
ENDBRANCH   5   6
ENDBRANCH   4   5
ENDBRANCH   3   4
ENDBRANCH   2   3
ENDBRANCH   1   2
BRANCH   1   9
ATOM      9  C   UNL     1      38.975  55.053  60.617  1.00  0.00     0.000 C 
BRANCH   9  10
ATOM     10  C   UNL     1      40.425  55.472  60.325  1.00  0.00    -0.000 C 
BRANCH  10  11
ATOM     11  C   UNL     1      41.413  54.296  60.427  1.00  0.00    -0.000 C 
BRANCH  11  12
ATOM     12  C   UNL     1      42.875  54.774  60.560  1.00  0.00    -0.000 C 
BRANCH  12  13
ATOM     13  C   UNL     1      43.261  55.862  59.544  1.00  0.00    -0.003 C 
ATOM     14  C   UNL     1      44.101  56.980  60.156  1.00  0.00     0.004 C 
ENDBRANCH  12  13
ENDBRANCH  11  12
ENDBRANCH  10  11
ENDBRANCH   9  10
ENDBRANCH   1   9
TORSDOF 10
ENDMDL
