MODEL 1
REMARK VINA RESULT:    -5.228      0.000      0.000
REMARK INTER + INTRA:         -14.053
REMARK INTER:                 -11.340
REMARK INTRA:                  -2.713
REMARK UNBOUND:                -2.713
REMARK SMILES CCCCCCCCCCCCCCCCCCCCCC(=O)[O-]
REMARK SMILES IDX 12 1 11 2 10 3 9 4 8 5 7 6 6 7 5 8 4 9 3 10 2 11 1 12 13 13
REMARK SMILES IDX 14 14 15 15 16 16 17 17 18 18 19 19 20 20 21 21 22 22 23 23
REMARK SMILES IDX 24 24
REMARK H PARENT
REMARK Flexibility Score: inf
ROOT
ATOM      1  C   UNL     1      17.035 -30.301  22.140  1.00  0.00     0.000 C 
ENDROOT
BRANCH   1   2
ATOM      2  C   UNL     1      16.012 -29.253  21.665  1.00  0.00     0.000 C 
BRANCH   2   3
ATOM      3  C   UNL     1      14.534 -29.689  21.738  1.00  0.00     0.000 C 
BRANCH   3   4
ATOM      4  C   UNL     1      14.052 -30.144  23.127  1.00  0.00    -0.000 C 
BRANCH   4   5
ATOM      5  C   UNL     1      13.294 -31.483  23.090  1.00  0.00    -0.000 C 
BRANCH   5   6
ATOM      6  C   UNL     1      13.869 -32.513  24.086  1.00  0.00    -0.000 C 
BRANCH   6   7
ATOM      7  C   UNL     1      15.031 -33.349  23.522  1.00  0.00    -0.000 C 
BRANCH   7   8
ATOM      8  C   UNL     1      14.981 -33.492  21.992  1.00  0.00    -0.000 C 
BRANCH   8   9
ATOM      9  C   UNL     1      15.746 -34.727  21.488  1.00  0.00    -0.000 C 
BRANCH   9  10
ATOM     10  C   UNL     1      15.431 -35.060  20.019  1.00  0.00    -0.000 C 
BRANCH  10  11
ATOM     11  C   UNL     1      16.656 -35.594  19.262  1.00  0.00    -0.003 C 
ATOM     12  C   UNL     1      17.618 -34.483  18.838  1.00  0.00     0.004 C 
ENDBRANCH  10  11
ENDBRANCH   9  10
ENDBRANCH   8   9
ENDBRANCH   7   8
ENDBRANCH   6   7
ENDBRANCH   5   6
ENDBRANCH   4   5
ENDBRANCH   3   4
ENDBRANCH   2   3
ENDBRANCH   1   2
BRANCH   1  13
ATOM     13  C   UNL     1      17.554 -31.194  21.001  1.00  0.00     0.000 C 
BRANCH  13  14
ATOM     14  C   UNL     1      18.658 -32.164  21.462  1.00  0.00     0.000 C 
BRANCH  14  15
ATOM     15  C   UNL     1      20.025 -31.963  20.782  1.00  0.00     0.000 C 
BRANCH  15  16
ATOM     16  C   UNL     1      21.114 -31.492  21.762  1.00  0.00     0.000 C 
BRANCH  16  17
ATOM     17  C   UNL     1      20.874 -30.064  22.276  1.00  0.00     0.000 C 
BRANCH  17  18
ATOM     18  C   UNL     1      21.215 -28.994  21.224  1.00  0.00     0.000 C 
BRANCH  18  19
ATOM     19  C   UNL     1      19.999 -28.133  20.843  1.00  0.00     0.000 C 
BRANCH  19  20
ATOM     20  C   UNL     1      20.143 -26.669  21.296  1.00  0.00     0.006 C 
BRANCH  20  21
ATOM     21  C   UNL     1      20.677 -25.766  20.176  1.00  0.00     0.053 C 
BRANCH  21  22
ATOM     22  C   UNL     1      22.159 -25.577  20.272  1.00  0.00     0.041 C 
ATOM     23  O   UNL     1      22.723 -25.552  21.398  1.00  0.00    -0.550 OA
ATOM     24  O   UNL     1      22.914 -25.393  19.120  1.00  0.00    -0.550 OA
ENDBRANCH  21  22
ENDBRANCH  20  21
ENDBRANCH  19  20
ENDBRANCH  18  19
ENDBRANCH  17  18
ENDBRANCH  16  17
ENDBRANCH  15  16
ENDBRANCH  14  15
ENDBRANCH  13  14
ENDBRANCH   1  13
TORSDOF 20
ENDMDL
MODEL 2
REMARK VINA RESULT:    -5.135      1.830      3.969
REMARK INTER + INTRA:         -13.852
REMARK INTER:                 -10.457
REMARK INTRA:                  -3.394
REMARK UNBOUND:                -2.713
REMARK SMILES CCCCCCCCCCCCCCCCCCCCCC(=O)[O-]
REMARK SMILES IDX 12 1 11 2 10 3 9 4 8 5 7 6 6 7 5 8 4 9 3 10 2 11 1 12 13 13
REMARK SMILES IDX 14 14 15 15 16 16 17 17 18 18 19 19 20 20 21 21 22 22 23 23
REMARK SMILES IDX 24 24
REMARK H PARENT
REMARK Flexibility Score: inf
ROOT
ATOM      1  C   UNL     1      14.528 -32.517  22.838  1.00  0.00     0.000 C 
ENDROOT
BRANCH   1   2
ATOM      2  C   UNL     1      13.905 -32.116  21.489  1.00  0.00     0.000 C 
BRANCH   2   3
ATOM      3  C   UNL     1      14.096 -33.130  20.343  1.00  0.00     0.000 C 
BRANCH   3   4
ATOM      4  C   UNL     1      14.933 -34.373  20.698  1.00  0.00    -0.000 C 
BRANCH   4   5
ATOM      5  C   UNL     1      16.088 -34.619  19.712  1.00  0.00    -0.000 C 
BRANCH   5   6
ATOM      6  C   UNL     1      16.430 -36.117  19.569  1.00  0.00    -0.000 C 
BRANCH   6   7
ATOM      7  C   UNL     1      17.313 -36.669  20.701  1.00  0.00    -0.000 C 
BRANCH   7   8
ATOM      8  C   UNL     1      18.231 -35.603  21.322  1.00  0.00    -0.000 C 
BRANCH   8   9
ATOM      9  C   UNL     1      18.272 -35.680  22.857  1.00  0.00    -0.000 C 
BRANCH   9  10
ATOM     10  C   UNL     1      17.214 -34.785  23.524  1.00  0.00    -0.000 C 
BRANCH  10  11
ATOM     11  C   UNL     1      17.702 -34.188  24.853  1.00  0.00    -0.003 C 
ATOM     12  C   UNL     1      18.597 -32.963  24.656  1.00  0.00     0.004 C 
ENDBRANCH  10  11
ENDBRANCH   9  10
ENDBRANCH   8   9
ENDBRANCH   7   8
ENDBRANCH   6   7
ENDBRANCH   5   6
ENDBRANCH   4   5
ENDBRANCH   3   4
ENDBRANCH   2   3
ENDBRANCH   1   2
BRANCH   1  13
ATOM     13  C   UNL     1      15.428 -31.423  23.434  1.00  0.00     0.000 C 
BRANCH  13  14
ATOM     14  C   UNL     1      15.794 -30.329  22.412  1.00  0.00     0.000 C 
BRANCH  14  15
ATOM     15  C   UNL     1      17.259 -30.344  21.941  1.00  0.00     0.000 C 
BRANCH  15  16
ATOM     16  C   UNL     1      17.532 -31.424  20.878  1.00  0.00     0.000 C 
BRANCH  16  17
ATOM     17  C   UNL     1      18.928 -32.052  21.015  1.00  0.00     0.000 C 
BRANCH  17  18
ATOM     18  C   UNL     1      19.931 -31.114  21.708  1.00  0.00     0.000 C 
BRANCH  18  19
ATOM     19  C   UNL     1      20.927 -30.483  20.721  1.00  0.00     0.000 C 
BRANCH  19  20
ATOM     20  C   UNL     1      21.220 -29.005  21.037  1.00  0.00     0.006 C 
BRANCH  20  21
ATOM     21  C   UNL     1      19.976 -28.120  20.879  1.00  0.00     0.053 C 
BRANCH  21  22
ATOM     22  C   UNL     1      20.325 -26.664  20.883  1.00  0.00     0.041 C 
ATOM     23  O   UNL     1      21.219 -26.225  20.113  1.00  0.00    -0.550 OA
ATOM     24  O   UNL     1      19.688 -25.797  21.763  1.00  0.00    -0.550 OA
ENDBRANCH  21  22
ENDBRANCH  20  21
ENDBRANCH  19  20
ENDBRANCH  18  19
ENDBRANCH  17  18
ENDBRANCH  16  17
ENDBRANCH  15  16
ENDBRANCH  14  15
ENDBRANCH  13  14
ENDBRANCH   1  13
TORSDOF 20
ENDMDL
MODEL 3
REMARK VINA RESULT:    -5.063      5.272      8.223
REMARK INTER + INTRA:         -13.697
REMARK INTER:                 -10.305
REMARK INTRA:                  -3.391
REMARK UNBOUND:                -2.713
REMARK SMILES CCCCCCCCCCCCCCCCCCCCCC(=O)[O-]
REMARK SMILES IDX 12 1 11 2 10 3 9 4 8 5 7 6 6 7 5 8 4 9 3 10 2 11 1 12 13 13
REMARK SMILES IDX 14 14 15 15 16 16 17 17 18 18 19 19 20 20 21 21 22 22 23 23
REMARK SMILES IDX 24 24
REMARK H PARENT
REMARK Flexibility Score: inf
ROOT
ATOM      1  C   UNL     1      15.470 -34.153  19.731  1.00  0.00     0.000 C 
ENDROOT
BRANCH   1   2
ATOM      2  C   UNL     1      14.905 -33.511  21.010  1.00  0.00     0.000 C 
BRANCH   2   3
ATOM      3  C   UNL     1      15.291 -34.211  22.329  1.00  0.00     0.000 C 
BRANCH   3   4
ATOM      4  C   UNL     1      15.591 -33.269  23.509  1.00  0.00    -0.000 C 
BRANCH   4   5
ATOM      5  C   UNL     1      17.094 -33.159  23.821  1.00  0.00    -0.000 C 
BRANCH   5   6
ATOM      6  C   UNL     1      17.645 -31.739  23.565  1.00  0.00    -0.000 C 
BRANCH   6   7
ATOM      7  C   UNL     1      18.174 -31.521  22.137  1.00  0.00    -0.000 C 
BRANCH   7   8
ATOM      8  C   UNL     1      17.222 -30.686  21.264  1.00  0.00    -0.000 C 
BRANCH   8   9
ATOM      9  C   UNL     1      16.352 -29.726  22.091  1.00  0.00    -0.000 C 
BRANCH   9  10
ATOM     10  C   UNL     1      14.873 -29.753  21.667  1.00  0.00    -0.000 C 
BRANCH  10  11
ATOM     11  C   UNL     1      13.925 -29.991  22.853  1.00  0.00    -0.003 C 
ATOM     12  C   UNL     1      12.739 -30.885  22.488  1.00  0.00     0.004 C 
ENDBRANCH  10  11
ENDBRANCH   9  10
ENDBRANCH   8   9
ENDBRANCH   7   8
ENDBRANCH   6   7
ENDBRANCH   5   6
ENDBRANCH   4   5
ENDBRANCH   3   4
ENDBRANCH   2   3
ENDBRANCH   1   2
BRANCH   1  13
ATOM     13  C   UNL     1      16.992 -33.981  19.593  1.00  0.00     0.000 C 
BRANCH  13  14
ATOM     14  C   UNL     1      17.716 -35.308  19.298  1.00  0.00     0.000 C 
BRANCH  14  15
ATOM     15  C   UNL     1      16.964 -36.573  19.747  1.00  0.00     0.000 C 
BRANCH  15  16
ATOM     16  C   UNL     1      17.691 -37.333  20.870  1.00  0.00     0.000 C 
BRANCH  16  17
ATOM     17  C   UNL     1      18.109 -36.418  22.033  1.00  0.00     0.000 C 
BRANCH  17  18
ATOM     18  C   UNL     1      19.174 -37.063  22.936  1.00  0.00     0.000 C 
BRANCH  18  19
ATOM     19  C   UNL     1      19.251 -36.401  24.322  1.00  0.00     0.000 C 
BRANCH  19  20
ATOM     20  C   UNL     1      18.685 -37.295  25.440  1.00  0.00     0.006 C 
BRANCH  20  21
ATOM     21  C   UNL     1      17.368 -36.749  26.008  1.00  0.00     0.053 C 
BRANCH  21  22
ATOM     22  C   UNL     1      16.865 -37.583  27.146  1.00  0.00     0.041 C 
ATOM     23  O   UNL     1      15.729 -38.122  27.083  1.00  0.00    -0.550 OA
ATOM     24  O   UNL     1      17.635 -37.733  28.293  1.00  0.00    -0.550 OA
ENDBRANCH  21  22
ENDBRANCH  20  21
ENDBRANCH  19  20
ENDBRANCH  18  19
ENDBRANCH  17  18
ENDBRANCH  16  17
ENDBRANCH  15  16
ENDBRANCH  14  15
ENDBRANCH  13  14
ENDBRANCH   1  13
TORSDOF 20
ENDMDL
MODEL 4
REMARK VINA RESULT:    -5.058      4.215      6.894
REMARK INTER + INTRA:         -13.686
REMARK INTER:                 -10.601
REMARK INTRA:                  -3.085
REMARK UNBOUND:                -2.713
REMARK SMILES CCCCCCCCCCCCCCCCCCCCCC(=O)[O-]
REMARK SMILES IDX 12 1 11 2 10 3 9 4 8 5 7 6 6 7 5 8 4 9 3 10 2 11 1 12 13 13
REMARK SMILES IDX 14 14 15 15 16 16 17 17 18 18 19 19 20 20 21 21 22 22 23 23
REMARK SMILES IDX 24 24
REMARK H PARENT
REMARK Flexibility Score: inf
ROOT
ATOM      1  C   UNL     1      17.658 -31.562  20.989  1.00  0.00     0.000 C 
ENDROOT
BRANCH   1   2
ATOM      2  C   UNL     1      17.907 -31.142  22.449  1.00  0.00     0.000 C 
BRANCH   2   3
ATOM      3  C   UNL     1      16.781 -31.495  23.442  1.00  0.00     0.000 C 
BRANCH   3   4
ATOM      4  C   UNL     1      16.881 -32.893  24.079  1.00  0.00    -0.000 C 
BRANCH   4   5
ATOM      5  C   UNL     1      17.961 -32.977  25.172  1.00  0.00    -0.000 C 
BRANCH   5   6
ATOM      6  C   UNL     1      19.073 -33.989  24.822  1.00  0.00    -0.000 C 
BRANCH   6   7
ATOM      7  C   UNL     1      18.667 -35.024  23.758  1.00  0.00    -0.000 C 
BRANCH   7   8
ATOM      8  C   UNL     1      18.509 -36.442  24.330  1.00  0.00    -0.000 C 
BRANCH   8   9
ATOM      9  C   UNL     1      18.278 -36.445  25.849  1.00  0.00    -0.000 C 
BRANCH   9  10
ATOM     10  C   UNL     1      16.790 -36.573  26.221  1.00  0.00    -0.000 C 
BRANCH  10  11
ATOM     11  C   UNL     1      16.508 -37.799  27.104  1.00  0.00    -0.003 C 
ATOM     12  C   UNL     1      16.115 -37.419  28.533  1.00  0.00     0.004 C 
ENDBRANCH  10  11
ENDBRANCH   9  10
ENDBRANCH   8   9
ENDBRANCH   7   8
ENDBRANCH   6   7
ENDBRANCH   5   6
ENDBRANCH   4   5
ENDBRANCH   3   4
ENDBRANCH   2   3
ENDBRANCH   1   2
BRANCH   1  13
ATOM     13  C   UNL     1      18.378 -32.864  20.606  1.00  0.00     0.000 C 
BRANCH  13  14
ATOM     14  C   UNL     1      17.469 -33.846  19.843  1.00  0.00     0.000 C 
BRANCH  14  15
ATOM     15  C   UNL     1      16.759 -34.892  20.721  1.00  0.00     0.000 C 
BRANCH  15  16
ATOM     16  C   UNL     1      15.227 -34.837  20.592  1.00  0.00     0.000 C 
BRANCH  16  17
ATOM     17  C   UNL     1      14.602 -33.690  21.402  1.00  0.00     0.000 C 
BRANCH  17  18
ATOM     18  C   UNL     1      13.877 -32.666  20.512  1.00  0.00     0.000 C 
BRANCH  18  19
ATOM     19  C   UNL     1      13.803 -31.272  21.155  1.00  0.00     0.000 C 
BRANCH  19  20
ATOM     20  C   UNL     1      12.662 -31.151  22.181  1.00  0.00     0.006 C 
BRANCH  20  21
ATOM     21  C   UNL     1      13.166 -30.696  23.558  1.00  0.00     0.053 C 
BRANCH  21  22
ATOM     22  C   UNL     1      13.071 -29.211  23.722  1.00  0.00     0.041 C 
ATOM     23  O   UNL     1      12.091 -28.702  24.328  1.00  0.00    -0.550 OA
ATOM     24  O   UNL     1      14.045 -28.385  23.175  1.00  0.00    -0.550 OA
ENDBRANCH  21  22
ENDBRANCH  20  21
ENDBRANCH  19  20
ENDBRANCH  18  19
ENDBRANCH  17  18
ENDBRANCH  16  17
ENDBRANCH  15  16
ENDBRANCH  14  15
ENDBRANCH  13  14
ENDBRANCH   1  13
TORSDOF 20
ENDMDL
MODEL 5
REMARK VINA RESULT:    -5.028      3.720      7.003
REMARK INTER + INTRA:         -13.620
REMARK INTER:                 -10.157
REMARK INTRA:                  -3.463
REMARK UNBOUND:                -2.713
REMARK SMILES CCCCCCCCCCCCCCCCCCCCCC(=O)[O-]
REMARK SMILES IDX 12 1 11 2 10 3 9 4 8 5 7 6 6 7 5 8 4 9 3 10 2 11 1 12 13 13
REMARK SMILES IDX 14 14 15 15 16 16 17 17 18 18 19 19 20 20 21 21 22 22 23 23
REMARK SMILES IDX 24 24
REMARK H PARENT
REMARK Flexibility Score: inf
ROOT
ATOM      1  C   UNL     1      18.002 -37.107  21.284  1.00  0.00     0.000 C 
ENDROOT
BRANCH   1   2
ATOM      2  C   UNL     1      17.392 -36.924  19.882  1.00  0.00     0.000 C 
BRANCH   2   3
ATOM      3  C   UNL     1      16.169 -35.987  19.810  1.00  0.00     0.000 C 
BRANCH   3   4
ATOM      4  C   UNL     1      16.425 -34.624  19.141  1.00  0.00    -0.000 C 
BRANCH   4   5
ATOM      5  C   UNL     1      17.921 -34.290  19.013  1.00  0.00    -0.000 C 
BRANCH   5   6
ATOM      6  C   UNL     1      18.383 -33.249  20.054  1.00  0.00    -0.000 C 
BRANCH   6   7
ATOM      7  C   UNL     1      17.230 -32.497  20.742  1.00  0.00    -0.000 C 
BRANCH   7   8
ATOM      8  C   UNL     1      17.671 -31.164  21.368  1.00  0.00    -0.000 C 
BRANCH   8   9
ATOM      9  C   UNL     1      17.899 -31.269  22.885  1.00  0.00    -0.000 C 
BRANCH   9  10
ATOM     10  C   UNL     1      19.357 -31.607  23.243  1.00  0.00    -0.000 C 
BRANCH  10  11
ATOM     11  C   UNL     1      19.520 -32.024  24.713  1.00  0.00    -0.003 C 
ATOM     12  C   UNL     1      18.564 -31.281  25.646  1.00  0.00     0.004 C 
ENDBRANCH  10  11
ENDBRANCH   9  10
ENDBRANCH   8   9
ENDBRANCH   7   8
ENDBRANCH   6   7
ENDBRANCH   5   6
ENDBRANCH   4   5
ENDBRANCH   3   4
ENDBRANCH   2   3
ENDBRANCH   1   2
BRANCH   1  13
ATOM     13  C   UNL     1      17.694 -35.938  22.233  1.00  0.00     0.000 C 
BRANCH  13  14
ATOM     14  C   UNL     1      18.846 -35.646  23.213  1.00  0.00     0.000 C 
BRANCH  14  15
ATOM     15  C   UNL     1      18.412 -35.382  24.665  1.00  0.00     0.000 C 
BRANCH  15  16
ATOM     16  C   UNL     1      16.884 -35.403  24.845  1.00  0.00     0.000 C 
BRANCH  16  17
ATOM     17  C   UNL     1      16.278 -33.995  24.949  1.00  0.00     0.000 C 
BRANCH  17  18
ATOM     18  C   UNL     1      15.317 -33.679  23.789  1.00  0.00     0.000 C 
BRANCH  18  19
ATOM     19  C   UNL     1      14.113 -32.833  24.234  1.00  0.00     0.000 C 
BRANCH  19  20
ATOM     20  C   UNL     1      13.547 -31.962  23.098  1.00  0.00     0.006 C 
BRANCH  20  21
ATOM     21  C   UNL     1      14.115 -30.537  23.121  1.00  0.00     0.053 C 
BRANCH  21  22
ATOM     22  C   UNL     1      14.308 -29.992  21.739  1.00  0.00     0.041 C 
ATOM     23  O   UNL     1      13.856 -30.616  20.743  1.00  0.00    -0.550 OA
ATOM     24  O   UNL     1      15.020 -28.814  21.547  1.00  0.00    -0.550 OA
ENDBRANCH  21  22
ENDBRANCH  20  21
ENDBRANCH  19  20
ENDBRANCH  18  19
ENDBRANCH  17  18
ENDBRANCH  16  17
ENDBRANCH  15  16
ENDBRANCH  14  15
ENDBRANCH  13  14
ENDBRANCH   1  13
TORSDOF 20
ENDMDL
MODEL 6
REMARK VINA RESULT:    -5.020      4.743      7.470
REMARK INTER + INTRA:         -13.604
REMARK INTER:                 -10.491
REMARK INTRA:                  -3.113
REMARK UNBOUND:                -2.713
REMARK SMILES CCCCCCCCCCCCCCCCCCCCCC(=O)[O-]
REMARK SMILES IDX 12 1 11 2 10 3 9 4 8 5 7 6 6 7 5 8 4 9 3 10 2 11 1 12 13 13
REMARK SMILES IDX 14 14 15 15 16 16 17 17 18 18 19 19 20 20 21 21 22 22 23 23
REMARK SMILES IDX 24 24
REMARK H PARENT
REMARK Flexibility Score: inf
ROOT
ATOM      1  C   UNL     1      14.634 -33.478  21.161  1.00  0.00     0.000 C 
ENDROOT
BRANCH   1   2
ATOM      2  C   UNL     1      15.010 -33.724  22.633  1.00  0.00     0.000 C 
BRANCH   2   3
ATOM      3  C   UNL     1      14.777 -32.533  23.585  1.00  0.00     0.000 C 
BRANCH   3   4
ATOM      4  C   UNL     1      13.432 -31.805  23.409  1.00  0.00    -0.000 C 
BRANCH   4   5
ATOM      5  C   UNL     1      13.596 -30.335  22.984  1.00  0.00    -0.000 C 
BRANCH   5   6
ATOM      6  C   UNL     1      15.061 -29.857  23.079  1.00  0.00    -0.000 C 
BRANCH   6   7
ATOM      7  C   UNL     1      15.731 -29.617  21.714  1.00  0.00    -0.000 C 
BRANCH   7   8
ATOM      8  C   UNL     1      17.239 -29.914  21.725  1.00  0.00    -0.000 C 
BRANCH   8   9
ATOM      9  C   UNL     1      17.599 -31.173  20.921  1.00  0.00    -0.000 C 
BRANCH   9  10
ATOM     10  C   UNL     1      18.161 -32.300  21.805  1.00  0.00    -0.000 C 
BRANCH  10  11
ATOM     11  C   UNL     1      19.694 -32.269  21.895  1.00  0.00    -0.003 C 
ATOM     12  C   UNL     1      20.330 -31.377  20.827  1.00  0.00     0.004 C 
ENDBRANCH  10  11
ENDBRANCH   9  10
ENDBRANCH   8   9
ENDBRANCH   7   8
ENDBRANCH   6   7
ENDBRANCH   5   6
ENDBRANCH   4   5
ENDBRANCH   3   4
ENDBRANCH   2   3
ENDBRANCH   1   2
BRANCH   1  13
ATOM     13  C   UNL     1      15.014 -34.648  20.239  1.00  0.00     0.000 C 
BRANCH  13  14
ATOM     14  C   UNL     1      16.179 -34.306  19.291  1.00  0.00     0.000 C 
BRANCH  14  15
ATOM     15  C   UNL     1      17.331 -35.326  19.283  1.00  0.00     0.000 C 
BRANCH  15  16
ATOM     16  C   UNL     1      16.925 -36.688  19.872  1.00  0.00     0.000 C 
BRANCH  16  17
ATOM     17  C   UNL     1      17.825 -37.122  21.041  1.00  0.00     0.000 C 
BRANCH  17  18
ATOM     18  C   UNL     1      18.409 -35.925  21.810  1.00  0.00     0.000 C 
BRANCH  18  19
ATOM     19  C   UNL     1      17.902 -35.851  23.260  1.00  0.00     0.000 C 
BRANCH  19  20
ATOM     20  C   UNL     1      18.715 -36.737  24.220  1.00  0.00     0.006 C 
BRANCH  20  21
ATOM     21  C   UNL     1      18.797 -36.140  25.631  1.00  0.00     0.053 C 
BRANCH  21  22
ATOM     22  C   UNL     1      17.962 -36.907  26.609  1.00  0.00     0.041 C 
ATOM     23  O   UNL     1      18.512 -37.594  27.511  1.00  0.00    -0.550 OA
ATOM     24  O   UNL     1      16.576 -36.895  26.503  1.00  0.00    -0.550 OA
ENDBRANCH  21  22
ENDBRANCH  20  21
ENDBRANCH  19  20
ENDBRANCH  18  19
ENDBRANCH  17  18
ENDBRANCH  16  17
ENDBRANCH  15  16
ENDBRANCH  14  15
ENDBRANCH  13  14
ENDBRANCH   1  13
TORSDOF 20
ENDMDL
MODEL 7
REMARK VINA RESULT:    -5.006      3.750      6.457
REMARK INTER + INTRA:         -13.572
REMARK INTER:                  -9.341
REMARK INTRA:                  -4.232
REMARK UNBOUND:                -2.713
REMARK SMILES CCCCCCCCCCCCCCCCCCCCCC(=O)[O-]
REMARK SMILES IDX 12 1 11 2 10 3 9 4 8 5 7 6 6 7 5 8 4 9 3 10 2 11 1 12 13 13
REMARK SMILES IDX 14 14 15 15 16 16 17 17 18 18 19 19 20 20 21 21 22 22 23 23
REMARK SMILES IDX 24 24
REMARK H PARENT
REMARK Flexibility Score: inf
ROOT
ATOM      1  C   UNL     1      17.665 -31.440  20.866  1.00  0.00     0.000 C 
ENDROOT
BRANCH   1   2
ATOM      2  C   UNL     1      17.385 -30.804  22.240  1.00  0.00     0.000 C 
BRANCH   2   3
ATOM      3  C   UNL     1      17.398 -31.778  23.436  1.00  0.00     0.000 C 
BRANCH   3   4
ATOM      4  C   UNL     1      16.019 -32.313  23.863  1.00  0.00    -0.000 C 
BRANCH   4   5
ATOM      5  C   UNL     1      16.060 -33.782  24.318  1.00  0.00    -0.000 C 
BRANCH   5   6
ATOM      6  C   UNL     1      16.756 -34.697  23.287  1.00  0.00    -0.000 C 
BRANCH   6   7
ATOM      7  C   UNL     1      17.839 -35.609  23.890  1.00  0.00    -0.000 C 
BRANCH   7   8
ATOM      8  C   UNL     1      19.266 -35.178  23.509  1.00  0.00    -0.000 C 
BRANCH   8   9
ATOM      9  C   UNL     1      19.857 -34.156  24.493  1.00  0.00    -0.000 C 
BRANCH   9  10
ATOM     10  C   UNL     1      20.971 -33.302  23.863  1.00  0.00    -0.000 C 
BRANCH  10  11
ATOM     11  C   UNL     1      21.027 -31.883  24.448  1.00  0.00    -0.003 C 
ATOM     12  C   UNL     1      21.109 -30.802  23.368  1.00  0.00     0.004 C 
ENDBRANCH  10  11
ENDBRANCH   9  10
ENDBRANCH   8   9
ENDBRANCH   7   8
ENDBRANCH   6   7
ENDBRANCH   5   6
ENDBRANCH   4   5
ENDBRANCH   3   4
ENDBRANCH   2   3
ENDBRANCH   1   2
BRANCH   1  13
ATOM     13  C   UNL     1      18.913 -32.338  20.862  1.00  0.00     0.000 C 
BRANCH  13  14
ATOM     14  C   UNL     1      18.640 -33.733  20.268  1.00  0.00     0.000 C 
BRANCH  14  15
ATOM     15  C   UNL     1      17.355 -33.842  19.428  1.00  0.00     0.000 C 
BRANCH  15  16
ATOM     16  C   UNL     1      16.696 -35.230  19.523  1.00  0.00     0.000 C 
BRANCH  16  17
ATOM     17  C   UNL     1      15.274 -35.174  20.104  1.00  0.00     0.000 C 
BRANCH  17  18
ATOM     18  C   UNL     1      14.557 -33.853  19.778  1.00  0.00     0.000 C 
BRANCH  18  19
ATOM     19  C   UNL     1      14.195 -33.051  21.039  1.00  0.00     0.000 C 
BRANCH  19  20
ATOM     20  C   UNL     1      13.327 -31.818  20.730  1.00  0.00     0.006 C 
BRANCH  20  21
ATOM     21  C   UNL     1      14.032 -30.506  21.101  1.00  0.00     0.053 C 
BRANCH  21  22
ATOM     22  C   UNL     1      13.511 -29.940  22.386  1.00  0.00     0.041 C 
ATOM     23  O   UNL     1      12.367 -30.260  22.802  1.00  0.00    -0.550 OA
ATOM     24  O   UNL     1      14.275 -29.029  23.107  1.00  0.00    -0.550 OA
ENDBRANCH  21  22
ENDBRANCH  20  21
ENDBRANCH  19  20
ENDBRANCH  18  19
ENDBRANCH  17  18
ENDBRANCH  16  17
ENDBRANCH  15  16
ENDBRANCH  14  15
ENDBRANCH  13  14
ENDBRANCH   1  13
TORSDOF 20
ENDMDL
MODEL 8
REMARK VINA RESULT:    -4.987      4.188      6.460
REMARK INTER + INTRA:         -13.531
REMARK INTER:                  -9.588
REMARK INTRA:                  -3.943
REMARK UNBOUND:                -2.713
REMARK SMILES CCCCCCCCCCCCCCCCCCCCCC(=O)[O-]
REMARK SMILES IDX 12 1 11 2 10 3 9 4 8 5 7 6 6 7 5 8 4 9 3 10 2 11 1 12 13 13
REMARK SMILES IDX 14 14 15 15 16 16 17 17 18 18 19 19 20 20 21 21 22 22 23 23
REMARK SMILES IDX 24 24
REMARK H PARENT
REMARK Flexibility Score: inf
ROOT
ATOM      1  C   UNL     1      16.061 -35.161  20.867  1.00  0.00     0.000 C 
ENDROOT
BRANCH   1   2
ATOM      2  C   UNL     1      14.992 -34.121  21.249  1.00  0.00     0.000 C 
BRANCH   2   3
ATOM      3  C   UNL     1      14.907 -33.780  22.751  1.00  0.00     0.000 C 
BRANCH   3   4
ATOM      4  C   UNL     1      16.260 -33.587  23.459  1.00  0.00    -0.000 C 
BRANCH   4   5
ATOM      5  C   UNL     1      16.379 -34.404  24.758  1.00  0.00    -0.000 C 
BRANCH   5   6
ATOM      6  C   UNL     1      17.558 -35.399  24.721  1.00  0.00    -0.000 C 
BRANCH   6   7
ATOM      7  C   UNL     1      18.774 -34.900  23.921  1.00  0.00    -0.000 C 
BRANCH   7   8
ATOM      8  C   UNL     1      19.856 -34.263  24.808  1.00  0.00    -0.000 C 
BRANCH   8   9
ATOM      9  C   UNL     1      20.343 -32.909  24.267  1.00  0.00    -0.000 C 
BRANCH   9  10
ATOM     10  C   UNL     1      19.266 -31.814  24.356  1.00  0.00    -0.000 C 
BRANCH  10  11
ATOM     11  C   UNL     1      18.740 -31.620  25.787  1.00  0.00    -0.003 C 
ATOM     12  C   UNL     1      19.740 -30.897  26.690  1.00  0.00     0.004 C 
ENDBRANCH  10  11
ENDBRANCH   9  10
ENDBRANCH   8   9
ENDBRANCH   7   8
ENDBRANCH   6   7
ENDBRANCH   5   6
ENDBRANCH   4   5
ENDBRANCH   3   4
ENDBRANCH   2   3
ENDBRANCH   1   2
BRANCH   1  13
ATOM     13  C   UNL     1      16.500 -35.061  19.398  1.00  0.00     0.000 C 
BRANCH  13  14
ATOM     14  C   UNL     1      17.635 -34.042  19.183  1.00  0.00     0.000 C 
BRANCH  14  15
ATOM     15  C   UNL     1      18.632 -33.924  20.350  1.00  0.00     0.000 C 
BRANCH  15  16
ATOM     16  C   UNL     1      18.789 -32.479  20.856  1.00  0.00     0.000 C 
BRANCH  16  17
ATOM     17  C   UNL     1      17.529 -31.629  20.629  1.00  0.00     0.000 C 
BRANCH  17  18
ATOM     18  C   UNL     1      17.569 -30.299  21.402  1.00  0.00     0.000 C 
BRANCH  18  19
ATOM     19  C   UNL     1      16.384 -30.144  22.369  1.00  0.00     0.000 C 
BRANCH  19  20
ATOM     20  C   UNL     1      15.064 -29.824  21.645  1.00  0.00     0.006 C 
BRANCH  20  21
ATOM     21  C   UNL     1      13.836 -30.179  22.494  1.00  0.00     0.053 C 
BRANCH  21  22
ATOM     22  C   UNL     1      12.745 -30.789  21.668  1.00  0.00     0.041 C 
ATOM     23  O   UNL     1      11.545 -30.697  22.036  1.00  0.00    -0.550 OA
ATOM     24  O   UNL     1      13.058 -31.493  20.511  1.00  0.00    -0.550 OA
ENDBRANCH  21  22
ENDBRANCH  20  21
ENDBRANCH  19  20
ENDBRANCH  18  19
ENDBRANCH  17  18
ENDBRANCH  16  17
ENDBRANCH  15  16
ENDBRANCH  14  15
ENDBRANCH  13  14
ENDBRANCH   1  13
TORSDOF 20
ENDMDL
MODEL 9
REMARK VINA RESULT:    -4.960      1.415      4.195
REMARK INTER + INTRA:         -13.472
REMARK INTER:                 -11.085
REMARK INTRA:                  -2.387
REMARK UNBOUND:                -2.713
REMARK SMILES CCCCCCCCCCCCCCCCCCCCCC(=O)[O-]
REMARK SMILES IDX 12 1 11 2 10 3 9 4 8 5 7 6 6 7 5 8 4 9 3 10 2 11 1 12 13 13
REMARK SMILES IDX 14 14 15 15 16 16 17 17 18 18 19 19 20 20 21 21 22 22 23 23
REMARK SMILES IDX 24 24
REMARK H PARENT
REMARK Flexibility Score: inf
ROOT
ATOM      1  C   UNL     1      16.622 -32.505  23.706  1.00  0.00     0.000 C 
ENDROOT
BRANCH   1   2
ATOM      2  C   UNL     1      17.030 -33.952  23.373  1.00  0.00     0.000 C 
BRANCH   2   3
ATOM      3  C   UNL     1      16.234 -34.619  22.233  1.00  0.00     0.000 C 
BRANCH   3   4
ATOM      4  C   UNL     1      16.136 -33.799  20.933  1.00  0.00    -0.000 C 
BRANCH   4   5
ATOM      5  C   UNL     1      14.684 -33.563  20.483  1.00  0.00    -0.000 C 
BRANCH   5   6
ATOM      6  C   UNL     1      13.890 -32.698  21.486  1.00  0.00    -0.000 C 
BRANCH   6   7
ATOM      7  C   UNL     1      13.357 -31.382  20.894  1.00  0.00    -0.000 C 
BRANCH   7   8
ATOM      8  C   UNL     1      14.228 -30.166  21.254  1.00  0.00    -0.000 C 
BRANCH   8   9
ATOM      9  C   UNL     1      14.183 -29.830  22.753  1.00  0.00    -0.000 C 
BRANCH   9  10
ATOM     10  C   UNL     1      12.771 -29.966  23.349  1.00  0.00    -0.000 C 
BRANCH  10  11
ATOM     11  C   UNL     1      12.359 -28.737  24.174  1.00  0.00    -0.003 C 
ATOM     12  C   UNL     1      11.700 -27.650  23.324  1.00  0.00     0.004 C 
ENDBRANCH  10  11
ENDBRANCH   9  10
ENDBRANCH   8   9
ENDBRANCH   7   8
ENDBRANCH   6   7
ENDBRANCH   5   6
ENDBRANCH   4   5
ENDBRANCH   3   4
ENDBRANCH   2   3
ENDBRANCH   1   2
BRANCH   1  13
ATOM     13  C   UNL     1      17.768 -31.498  23.520  1.00  0.00     0.000 C 
BRANCH  13  14
ATOM     14  C   UNL     1      17.624 -30.662  22.234  1.00  0.00     0.000 C 
BRANCH  14  15
ATOM     15  C   UNL     1      18.471 -31.148  21.045  1.00  0.00     0.000 C 
BRANCH  15  16
ATOM     16  C   UNL     1      19.861 -31.655  21.470  1.00  0.00     0.000 C 
BRANCH  16  17
ATOM     17  C   UNL     1      21.005 -30.796  20.907  1.00  0.00     0.000 C 
BRANCH  17  18
ATOM     18  C   UNL     1      21.077 -29.407  21.565  1.00  0.00     0.000 C 
BRANCH  18  19
ATOM     19  C   UNL     1      20.799 -28.268  20.571  1.00  0.00     0.000 C 
BRANCH  19  20
ATOM     20  C   UNL     1      20.403 -26.954  21.268  1.00  0.00     0.006 C 
BRANCH  20  21
ATOM     21  C   UNL     1      20.721 -25.723  20.409  1.00  0.00     0.053 C 
BRANCH  21  22
ATOM     22  C   UNL     1      22.171 -25.355  20.478  1.00  0.00     0.041 C 
ATOM     23  O   UNL     1      22.816 -25.118  19.422  1.00  0.00    -0.550 OA
ATOM     24  O   UNL     1      22.821 -25.310  21.705  1.00  0.00    -0.550 OA
ENDBRANCH  21  22
ENDBRANCH  20  21
ENDBRANCH  19  20
ENDBRANCH  18  19
ENDBRANCH  17  18
ENDBRANCH  16  17
ENDBRANCH  15  16
ENDBRANCH  14  15
ENDBRANCH  13  14
ENDBRANCH   1  13
TORSDOF 20
ENDMDL
