MODEL 1
REMARK VINA RESULT:    -4.497      0.000      0.000
REMARK INTER + INTRA:          -5.837
REMARK INTER:                  -5.418
REMARK INTRA:                  -0.419
REMARK UNBOUND:                -0.419
REMARK SMILES O=c1c(O)c(-c2ccc(O)cc2O)oc2cc(O)cc(O)c12
REMARK SMILES IDX 5 1 3 2 2 3 1 4 22 5 20 6 19 7 17 8 16 9 15 10 14 11 6 12
REMARK SMILES IDX 8 13 7 14 9 15 11 16 12 17 10 18 13 20 4 22 21 24 18 26
REMARK H PARENT 10 19 13 21 4 23 21 25 18 27
REMARK Flexibility Score: inf
ROOT
ATOM      1  C   UNL     1      41.284   0.918  -2.718  1.00  0.00     0.184 A 
ATOM      2  C   UNL     1      42.235  -0.101  -2.548  1.00  0.00     0.208 A 
ATOM      3  C   UNL     1      42.188  -1.225  -3.388  1.00  0.00     0.238 A 
ATOM      4  O   UNL     1      43.077  -2.107  -3.267  1.00  0.00    -0.285 OA
ATOM      5  C   UNL     1      41.176  -1.325  -4.373  1.00  0.00     0.111 A 
ATOM      6  C   UNL     1      41.009  -2.437  -5.253  1.00  0.00     0.134 A 
ATOM      7  C   UNL     1      40.053  -2.371  -6.274  1.00  0.00     0.093 A 
ATOM      8  C   UNL     1      39.216  -1.264  -6.409  1.00  0.00     0.123 A 
ATOM      9  C   UNL     1      39.332  -0.196  -5.517  1.00  0.00     0.094 A 
ATOM     10  C   UNL     1      40.300  -0.216  -4.510  1.00  0.00     0.146 A 
ATOM     11  O   UNL     1      40.384   0.823  -3.690  1.00  0.00    -0.451 OA
ENDROOT
BRANCH   1  12
ATOM     12  C   UNL     1      41.261   2.119  -1.851  1.00  0.00     0.063 A 
ATOM     13  C   UNL     1      42.258   4.220  -1.132  1.00  0.00     0.047 A 
ATOM     14  C   UNL     1      42.262   3.101  -1.967  1.00  0.00     0.020 A 
ATOM     15  C   UNL     1      41.260   4.370  -0.160  1.00  0.00     0.119 A 
ATOM     16  C   UNL     1      40.270   3.392  -0.027  1.00  0.00     0.093 A 
ATOM     17  C   UNL     1      40.266   2.266  -0.864  1.00  0.00     0.130 A 
BRANCH  15  18
ATOM     18  O   UNL     1      41.247   5.482   0.678  1.00  0.00    -0.508 OA
ATOM     19  H   UNL     1      41.646   5.449   1.608  1.00  0.00     0.293 HD
ENDBRANCH  15  18
BRANCH  17  20
ATOM     20  O   UNL     1      39.266   1.303  -0.724  1.00  0.00    -0.507 OA
ATOM     21  H   UNL     1      38.286   1.532  -0.838  1.00  0.00     0.293 HD
ENDBRANCH  17  20
ENDBRANCH   1  12
BRANCH   2  22
ATOM     22  O   UNL     1      43.232   0.026  -1.576  1.00  0.00    -0.502 OA
ATOM     23  H   UNL     1      43.746   0.887  -1.435  1.00  0.00     0.293 HD
ENDBRANCH   2  22
BRANCH   6  24
ATOM     24  O   UNL     1      41.729  -3.629  -5.150  1.00  0.00    -0.507 OA
ATOM     25  H   UNL     1      41.594  -4.323  -4.430  1.00  0.00     0.293 HD
ENDBRANCH   6  24
BRANCH   8  26
ATOM     26  O   UNL     1      38.266  -1.239  -7.427  1.00  0.00    -0.508 OA
ATOM     27  H   UNL     1      37.354  -1.667  -7.312  1.00  0.00     0.293 HD
ENDBRANCH   8  26
TORSDOF 6
ENDMDL
MODEL 2
REMARK VINA RESULT:    -4.466      0.889      1.501
REMARK INTER + INTRA:          -5.798
REMARK INTER:                  -5.422
REMARK INTRA:                  -0.376
REMARK UNBOUND:                -0.419
REMARK SMILES O=c1c(O)c(-c2ccc(O)cc2O)oc2cc(O)cc(O)c12
REMARK SMILES IDX 5 1 3 2 2 3 1 4 22 5 20 6 19 7 17 8 16 9 15 10 14 11 6 12
REMARK SMILES IDX 8 13 7 14 9 15 11 16 12 17 10 18 13 20 4 22 21 24 18 26
REMARK H PARENT 10 19 13 21 4 23 21 25 18 27
REMARK Flexibility Score: inf
ROOT
ATOM      1  C   UNL     1      41.000   0.600  -2.804  1.00  0.00     0.184 A 
ATOM      2  C   UNL     1      41.904  -0.470  -2.696  1.00  0.00     0.208 A 
ATOM      3  C   UNL     1      41.870  -1.491  -3.658  1.00  0.00     0.238 A 
ATOM      4  O   UNL     1      42.719  -2.417  -3.587  1.00  0.00    -0.285 OA
ATOM      5  C   UNL     1      40.918  -1.441  -4.705  1.00  0.00     0.111 A 
ATOM      6  C   UNL     1      40.768  -2.441  -5.713  1.00  0.00     0.134 A 
ATOM      7  C   UNL     1      39.879  -2.224  -6.773  1.00  0.00     0.093 A 
ATOM      8  C   UNL     1      39.090  -1.076  -6.830  1.00  0.00     0.123 A 
ATOM      9  C   UNL     1      39.187  -0.118  -5.818  1.00  0.00     0.094 A 
ATOM     10  C   UNL     1      40.090  -0.289  -4.766  1.00  0.00     0.146 A 
ATOM     11  O   UNL     1      40.160   0.650  -3.831  1.00  0.00    -0.451 OA
ENDROOT
BRANCH   1  12
ATOM     12  C   UNL     1      40.965   1.697  -1.810  1.00  0.00     0.063 A 
ATOM     13  C   UNL     1      39.955   2.744   0.141  1.00  0.00     0.047 A 
ATOM     14  C   UNL     1      40.007   1.696  -0.780  1.00  0.00     0.020 A 
ATOM     15  C   UNL     1      40.853   3.815   0.041  1.00  0.00     0.119 A 
ATOM     16  C   UNL     1      41.799   3.833  -0.988  1.00  0.00     0.093 A 
ATOM     17  C   UNL     1      41.859   2.782  -1.916  1.00  0.00     0.130 A 
BRANCH  15  18
ATOM     18  O   UNL     1      40.810   4.865   0.955  1.00  0.00    -0.508 OA
ATOM     19  H   UNL     1      39.995   5.461   1.040  1.00  0.00     0.293 HD
ENDBRANCH  15  18
BRANCH  17  20
ATOM     20  O   UNL     1      42.813   2.810  -2.933  1.00  0.00    -0.507 OA
ATOM     21  H   UNL     1      43.036   3.665  -3.431  1.00  0.00     0.293 HD
ENDBRANCH  17  20
ENDBRANCH   1  12
BRANCH   2  22
ATOM     22  O   UNL     1      42.843  -0.492  -1.661  1.00  0.00    -0.502 OA
ATOM     23  H   UNL     1      43.297  -1.345  -1.357  1.00  0.00     0.293 HD
ENDBRANCH   2  22
BRANCH   6  24
ATOM     24  O   UNL     1      41.440  -3.666  -5.704  1.00  0.00    -0.507 OA
ATOM     25  H   UNL     1      41.106  -4.502  -5.248  1.00  0.00     0.293 HD
ENDBRANCH   6  24
BRANCH   8  26
ATOM     26  O   UNL     1      38.206  -0.900  -7.891  1.00  0.00    -0.508 OA
ATOM     27  H   UNL     1      37.358  -0.354  -7.790  1.00  0.00     0.293 HD
ENDBRANCH   8  26
TORSDOF 6
ENDMDL
MODEL 3
REMARK VINA RESULT:    -4.445      1.417      2.223
REMARK INTER + INTRA:          -5.773
REMARK INTER:                  -5.332
REMARK INTRA:                  -0.441
REMARK UNBOUND:                -0.419
REMARK SMILES O=c1c(O)c(-c2ccc(O)cc2O)oc2cc(O)cc(O)c12
REMARK SMILES IDX 5 1 3 2 2 3 1 4 22 5 20 6 19 7 17 8 16 9 15 10 14 11 6 12
REMARK SMILES IDX 8 13 7 14 9 15 11 16 12 17 10 18 13 20 4 22 21 24 18 26
REMARK H PARENT 10 19 13 21 4 23 21 25 18 27
REMARK Flexibility Score: inf
ROOT
ATOM      1  C   UNL     1      40.752   0.158  -3.743  1.00  0.00     0.184 A 
ATOM      2  C   UNL     1      41.375  -1.101  -3.750  1.00  0.00     0.208 A 
ATOM      3  C   UNL     1      41.002  -2.040  -4.725  1.00  0.00     0.238 A 
ATOM      4  O   UNL     1      41.603  -3.145  -4.761  1.00  0.00    -0.285 OA
ATOM      5  C   UNL     1      39.993  -1.717  -5.665  1.00  0.00     0.111 A 
ATOM      6  C   UNL     1      39.508  -2.606  -6.671  1.00  0.00     0.134 A 
ATOM      7  C   UNL     1      38.601  -2.135  -7.628  1.00  0.00     0.093 A 
ATOM      8  C   UNL     1      38.113  -0.830  -7.579  1.00  0.00     0.123 A 
ATOM      9  C   UNL     1      38.537   0.030  -6.564  1.00  0.00     0.094 A 
ATOM     10  C   UNL     1      39.469  -0.399  -5.616  1.00  0.00     0.146 A 
ATOM     11  O   UNL     1      39.854   0.453  -4.675  1.00  0.00    -0.451 OA
ENDROOT
BRANCH   1  12
ATOM     12  C   UNL     1      41.081   1.187  -2.729  1.00  0.00     0.063 A 
ATOM     13  C   UNL     1      40.704   2.191  -0.544  1.00  0.00     0.047 A 
ATOM     14  C   UNL     1      40.414   1.205  -1.490  1.00  0.00     0.020 A 
ATOM     15  C   UNL     1      41.656   3.179  -0.825  1.00  0.00     0.119 A 
ATOM     16  C   UNL     1      42.313   3.178  -2.059  1.00  0.00     0.093 A 
ATOM     17  C   UNL     1      42.030   2.190  -3.014  1.00  0.00     0.130 A 
BRANCH  15  18
ATOM     18  O   UNL     1      41.952   4.167   0.111  1.00  0.00    -0.508 OA
ATOM     19  H   UNL     1      42.229   3.934   1.057  1.00  0.00     0.293 HD
ENDBRANCH  15  18
BRANCH  17  20
ATOM     20  O   UNL     1      42.699   2.197  -4.238  1.00  0.00    -0.507 OA
ATOM     21  H   UNL     1      42.831   1.348  -4.777  1.00  0.00     0.293 HD
ENDBRANCH  17  20
ENDBRANCH   1  12
BRANCH   2  22
ATOM     22  O   UNL     1      42.376  -1.393  -2.820  1.00  0.00    -0.502 OA
ATOM     23  H   UNL     1      43.084  -2.098  -2.987  1.00  0.00     0.293 HD
ENDBRANCH   2  22
BRANCH   6  24
ATOM     24  O   UNL     1      39.860  -3.955  -6.757  1.00  0.00    -0.507 OA
ATOM     25  H   UNL     1      40.806  -4.305  -6.742  1.00  0.00     0.293 HD
ENDBRANCH   6  24
BRANCH   8  26
ATOM     26  O   UNL     1      37.199  -0.400  -8.539  1.00  0.00    -0.508 OA
ATOM     27  H   UNL     1      36.767   0.515  -8.488  1.00  0.00     0.293 HD
ENDBRANCH   8  26
TORSDOF 6
ENDMDL
MODEL 4
REMARK VINA RESULT:    -4.222      1.897      3.783
REMARK INTER + INTRA:          -5.505
REMARK INTER:                  -5.102
REMARK INTRA:                  -0.403
REMARK UNBOUND:                -0.419
REMARK SMILES O=c1c(O)c(-c2ccc(O)cc2O)oc2cc(O)cc(O)c12
REMARK SMILES IDX 5 1 3 2 2 3 1 4 22 5 20 6 19 7 17 8 16 9 15 10 14 11 6 12
REMARK SMILES IDX 8 13 7 14 9 15 11 16 12 17 10 18 13 20 4 22 21 24 18 26
REMARK H PARENT 10 19 13 21 4 23 21 25 18 27
REMARK Flexibility Score: inf
ROOT
ATOM      1  C   UNL     1      41.458   0.231  -2.090  1.00  0.00     0.184 A 
ATOM      2  C   UNL     1      41.093  -0.022  -3.423  1.00  0.00     0.208 A 
ATOM      3  C   UNL     1      41.398  -1.270  -3.987  1.00  0.00     0.238 A 
ATOM      4  O   UNL     1      41.018  -1.511  -5.163  1.00  0.00    -0.285 OA
ATOM      5  C   UNL     1      42.083  -2.242  -3.219  1.00  0.00     0.111 A 
ATOM      6  C   UNL     1      42.478  -3.527  -3.702  1.00  0.00     0.134 A 
ATOM      7  C   UNL     1      43.036  -4.455  -2.815  1.00  0.00     0.093 A 
ATOM      8  C   UNL     1      43.273  -4.127  -1.481  1.00  0.00     0.123 A 
ATOM      9  C   UNL     1      42.944  -2.853  -1.012  1.00  0.00     0.094 A 
ATOM     10  C   UNL     1      42.353  -1.917  -1.864  1.00  0.00     0.146 A 
ATOM     11  O   UNL     1      42.046  -0.722  -1.376  1.00  0.00    -0.451 OA
ENDROOT
BRANCH   1  12
ATOM     12  C   UNL     1      41.189   1.535  -1.441  1.00  0.00     0.063 A 
ATOM     13  C   UNL     1      39.707   2.997  -0.180  1.00  0.00     0.047 A 
ATOM     14  C   UNL     1      39.973   1.759  -0.769  1.00  0.00     0.020 A 
ATOM     15  C   UNL     1      40.646   4.033  -0.261  1.00  0.00     0.119 A 
ATOM     16  C   UNL     1      41.850   3.825  -0.940  1.00  0.00     0.093 A 
ATOM     17  C   UNL     1      42.127   2.584  -1.532  1.00  0.00     0.130 A 
BRANCH  15  18
ATOM     18  O   UNL     1      40.390   5.271   0.323  1.00  0.00    -0.508 OA
ATOM     19  H   UNL     1      40.565   6.137  -0.173  1.00  0.00     0.293 HD
ENDBRANCH  15  18
BRANCH  17  20
ATOM     20  O   UNL     1      43.336   2.388  -2.199  1.00  0.00    -0.507 OA
ATOM     21  H   UNL     1      43.368   2.081  -3.165  1.00  0.00     0.293 HD
ENDBRANCH  17  20
ENDBRANCH   1  12
BRANCH   2  22
ATOM     22  O   UNL     1      40.407   0.949  -4.158  1.00  0.00    -0.502 OA
ATOM     23  H   UNL     1      40.079   0.784  -5.102  1.00  0.00     0.293 HD
ENDBRANCH   2  22
BRANCH   6  24
ATOM     24  O   UNL     1      42.370  -3.926  -5.036  1.00  0.00    -0.507 OA
ATOM     25  H   UNL     1      42.861  -4.707  -5.444  1.00  0.00     0.293 HD
ENDBRANCH   6  24
BRANCH   8  26
ATOM     26  O   UNL     1      43.844  -5.071  -0.630  1.00  0.00    -0.508 OA
ATOM     27  H   UNL     1      43.472  -5.243   0.297  1.00  0.00     0.293 HD
ENDBRANCH   8  26
TORSDOF 6
ENDMDL
MODEL 5
REMARK VINA RESULT:    -4.147      2.857      3.892
REMARK INTER + INTRA:          -5.415
REMARK INTER:                  -4.931
REMARK INTRA:                  -0.484
REMARK UNBOUND:                -0.419
REMARK SMILES O=c1c(O)c(-c2ccc(O)cc2O)oc2cc(O)cc(O)c12
REMARK SMILES IDX 5 1 3 2 2 3 1 4 22 5 20 6 19 7 17 8 16 9 15 10 14 11 6 12
REMARK SMILES IDX 8 13 7 14 9 15 11 16 12 17 10 18 13 20 4 22 21 24 18 26
REMARK H PARENT 10 19 13 21 4 23 21 25 18 27
REMARK Flexibility Score: inf
ROOT
ATOM      1  C   UNL     1      41.848  -0.333  -0.630  1.00  0.00     0.184 A 
ATOM      2  C   UNL     1      41.975  -1.165   0.495  1.00  0.00     0.208 A 
ATOM      3  C   UNL     1      42.346  -2.506   0.312  1.00  0.00     0.238 A 
ATOM      4  O   UNL     1      42.513  -3.231   1.328  1.00  0.00    -0.285 OA
ATOM      5  C   UNL     1      42.563  -3.005  -0.995  1.00  0.00     0.111 A 
ATOM      6  C   UNL     1      42.903  -4.358  -1.300  1.00  0.00     0.134 A 
ATOM      7  C   UNL     1      43.221  -4.709  -2.618  1.00  0.00     0.093 A 
ATOM      8  C   UNL     1      43.148  -3.775  -3.651  1.00  0.00     0.123 A 
ATOM      9  C   UNL     1      42.759  -2.463  -3.372  1.00  0.00     0.094 A 
ATOM     10  C   UNL     1      42.472  -2.073  -2.062  1.00  0.00     0.146 A 
ATOM     11  O   UNL     1      42.117  -0.814  -1.838  1.00  0.00    -0.451 OA
ENDROOT
BRANCH   1  12
ATOM     12  C   UNL     1      41.437   1.085  -0.511  1.00  0.00     0.063 A 
ATOM     13  C   UNL     1      39.690   2.760  -0.254  1.00  0.00     0.047 A 
ATOM     14  C   UNL     1      40.082   1.422  -0.338  1.00  0.00     0.020 A 
ATOM     15  C   UNL     1      40.643   3.781  -0.351  1.00  0.00     0.119 A 
ATOM     16  C   UNL     1      41.990   3.456  -0.537  1.00  0.00     0.093 A 
ATOM     17  C   UNL     1      42.393   2.115  -0.621  1.00  0.00     0.130 A 
BRANCH  15  18
ATOM     18  O   UNL     1      40.263   5.119  -0.268  1.00  0.00    -0.508 OA
ATOM     19  H   UNL     1      40.414   5.761  -1.036  1.00  0.00     0.293 HD
ENDBRANCH  15  18
BRANCH  17  20
ATOM     20  O   UNL     1      43.741   1.806  -0.799  1.00  0.00    -0.507 OA
ATOM     21  H   UNL     1      44.045   1.125  -1.486  1.00  0.00     0.293 HD
ENDBRANCH  17  20
ENDBRANCH   1  12
BRANCH   2  22
ATOM     22  O   UNL     1      41.768  -0.647   1.777  1.00  0.00    -0.502 OA
ATOM     23  H   UNL     1      42.265   0.166   2.121  1.00  0.00     0.293 HD
ENDBRANCH   2  22
BRANCH   6  24
ATOM     24  O   UNL     1      42.917  -5.391  -0.360  1.00  0.00    -0.507 OA
ATOM     25  H   UNL     1      42.537  -6.313  -0.512  1.00  0.00     0.293 HD
ENDBRANCH   6  24
BRANCH   8  26
ATOM     26  O   UNL     1      43.456  -4.163  -4.952  1.00  0.00    -0.508 OA
ATOM     27  H   UNL     1      42.995  -4.950  -5.394  1.00  0.00     0.293 HD
ENDBRANCH   8  26
TORSDOF 6
ENDMDL
MODEL 6
REMARK VINA RESULT:    -4.102      9.820     12.509
REMARK INTER + INTRA:          -5.360
REMARK INTER:                  -4.972
REMARK INTRA:                  -0.389
REMARK UNBOUND:                -0.419
REMARK SMILES O=c1c(O)c(-c2ccc(O)cc2O)oc2cc(O)cc(O)c12
REMARK SMILES IDX 5 1 3 2 2 3 1 4 22 5 20 6 19 7 17 8 16 9 15 10 14 11 6 12
REMARK SMILES IDX 8 13 7 14 9 15 11 16 12 17 10 18 13 20 4 22 21 24 18 26
REMARK H PARENT 10 19 13 21 4 23 21 25 18 27
REMARK Flexibility Score: inf
ROOT
ATOM      1  C   UNL     1      32.258   4.775  -7.203  1.00  0.00     0.184 A 
ATOM      2  C   UNL     1      32.490   5.991  -7.867  1.00  0.00     0.208 A 
ATOM      3  C   UNL     1      31.635   7.077  -7.619  1.00  0.00     0.238 A 
ATOM      4  O   UNL     1      31.882   8.179  -8.174  1.00  0.00    -0.285 OA
ATOM      5  C   UNL     1      30.546   6.926  -6.726  1.00  0.00     0.111 A 
ATOM      6  C   UNL     1      29.594   7.948  -6.430  1.00  0.00     0.134 A 
ATOM      7  C   UNL     1      28.634   7.728  -5.435  1.00  0.00     0.093 A 
ATOM      8  C   UNL     1      28.551   6.506  -4.770  1.00  0.00     0.123 A 
ATOM      9  C   UNL     1      29.441   5.480  -5.093  1.00  0.00     0.094 A 
ATOM     10  C   UNL     1      30.433   5.680  -6.056  1.00  0.00     0.146 A 
ATOM     11  O   UNL     1      31.266   4.683  -6.326  1.00  0.00    -0.451 OA
ENDROOT
BRANCH   1  12
ATOM     12  C   UNL     1      33.106   3.584  -7.437  1.00  0.00     0.063 A 
ATOM     13  C   UNL     1      33.486   1.449  -8.543  1.00  0.00     0.047 A 
ATOM     14  C   UNL     1      32.701   2.587  -8.343  1.00  0.00     0.020 A 
ATOM     15  C   UNL     1      34.682   1.285  -7.834  1.00  0.00     0.119 A 
ATOM     16  C   UNL     1      35.086   2.263  -6.920  1.00  0.00     0.093 A 
ATOM     17  C   UNL     1      34.305   3.410  -6.715  1.00  0.00     0.130 A 
BRANCH  15  18
ATOM     18  O   UNL     1      35.473   0.154  -8.026  1.00  0.00    -0.508 OA
ATOM     19  H   UNL     1      35.285  -0.502  -8.774  1.00  0.00     0.293 HD
ENDBRANCH  15  18
BRANCH  17  20
ATOM     20  O   UNL     1      34.724   4.381  -5.805  1.00  0.00    -0.507 OA
ATOM     21  H   UNL     1      34.200   5.236  -5.660  1.00  0.00     0.293 HD
ENDBRANCH  17  20
ENDBRANCH   1  12
BRANCH   2  22
ATOM     22  O   UNL     1      33.578   6.120  -8.735  1.00  0.00    -0.502 OA
ATOM     23  H   UNL     1      34.112   5.323  -9.058  1.00  0.00     0.293 HD
ENDBRANCH   2  22
BRANCH   6  24
ATOM     24  O   UNL     1      29.529   9.173  -7.099  1.00  0.00    -0.507 OA
ATOM     25  H   UNL     1      30.020   9.389  -7.953  1.00  0.00     0.293 HD
ENDBRANCH   6  24
BRANCH   8  26
ATOM     26  O   UNL     1      27.574   6.317  -3.795  1.00  0.00    -0.508 OA
ATOM     27  H   UNL     1      27.063   7.097  -3.399  1.00  0.00     0.293 HD
ENDBRANCH   8  26
TORSDOF 6
ENDMDL
MODEL 7
REMARK VINA RESULT:    -4.098      7.594     10.962
REMARK INTER + INTRA:          -5.355
REMARK INTER:                  -4.878
REMARK INTRA:                  -0.477
REMARK UNBOUND:                -0.419
REMARK SMILES O=c1c(O)c(-c2ccc(O)cc2O)oc2cc(O)cc(O)c12
REMARK SMILES IDX 5 1 3 2 2 3 1 4 22 5 20 6 19 7 17 8 16 9 15 10 14 11 6 12
REMARK SMILES IDX 8 13 7 14 9 15 11 16 12 17 10 18 13 20 4 22 21 24 18 26
REMARK H PARENT 10 19 13 21 4 23 21 25 18 27
REMARK Flexibility Score: inf
ROOT
ATOM      1  C   UNL     1      36.102   6.587  -6.675  1.00  0.00     0.184 A 
ATOM      2  C   UNL     1      35.327   7.741  -6.873  1.00  0.00     0.208 A 
ATOM      3  C   UNL     1      35.796   8.970  -6.383  1.00  0.00     0.238 A 
ATOM      4  O   UNL     1      35.123  10.009  -6.613  1.00  0.00    -0.285 OA
ATOM      5  C   UNL     1      37.025   9.026  -5.681  1.00  0.00     0.111 A 
ATOM      6  C   UNL     1      37.577  10.210  -5.107  1.00  0.00     0.134 A 
ATOM      7  C   UNL     1      38.860  10.172  -4.548  1.00  0.00     0.093 A 
ATOM      8  C   UNL     1      39.585   8.982  -4.484  1.00  0.00     0.123 A 
ATOM      9  C   UNL     1      39.029   7.806  -4.991  1.00  0.00     0.094 A 
ATOM     10  C   UNL     1      37.766   7.819  -5.588  1.00  0.00     0.146 A 
ATOM     11  O   UNL     1      37.279   6.681  -6.067  1.00  0.00    -0.451 OA
ENDROOT
BRANCH   1  12
ATOM     12  C   UNL     1      35.656   5.255  -7.144  1.00  0.00     0.063 A 
ATOM     13  C   UNL     1      34.345   3.231  -6.811  1.00  0.00     0.047 A 
ATOM     14  C   UNL     1      34.746   4.499  -6.383  1.00  0.00     0.020 A 
ATOM     15  C   UNL     1      34.855   2.695  -8.000  1.00  0.00     0.119 A 
ATOM     16  C   UNL     1      35.772   3.433  -8.755  1.00  0.00     0.093 A 
ATOM     17  C   UNL     1      36.177   4.708  -8.334  1.00  0.00     0.130 A 
BRANCH  15  18
ATOM     18  O   UNL     1      34.463   1.432  -8.435  1.00  0.00    -0.508 OA
ATOM     19  H   UNL     1      35.131   0.681  -8.553  1.00  0.00     0.293 HD
ENDBRANCH  15  18
BRANCH  17  20
ATOM     20  O   UNL     1      37.087   5.435  -9.103  1.00  0.00    -0.507 OA
ATOM     21  H   UNL     1      36.863   5.742 -10.043  1.00  0.00     0.293 HD
ENDBRANCH  17  20
ENDBRANCH   1  12
BRANCH   2  22
ATOM     22  O   UNL     1      34.123   7.664  -7.579  1.00  0.00    -0.502 OA
ATOM     23  H   UNL     1      33.266   7.326  -7.157  1.00  0.00     0.293 HD
ENDBRANCH   2  22
BRANCH   6  24
ATOM     24  O   UNL     1      36.902  11.431  -5.035  1.00  0.00    -0.507 OA
ATOM     25  H   UNL     1      36.353  11.830  -5.781  1.00  0.00     0.293 HD
ENDBRANCH   6  24
BRANCH   8  26
ATOM     26  O   UNL     1      40.852   8.978  -3.907  1.00  0.00    -0.508 OA
ATOM     27  H   UNL     1      41.529   8.253  -4.119  1.00  0.00     0.293 HD
ENDBRANCH   8  26
TORSDOF 6
ENDMDL
MODEL 8
REMARK VINA RESULT:    -4.072      2.897      6.843
REMARK INTER + INTRA:          -5.324
REMARK INTER:                  -4.934
REMARK INTRA:                  -0.390
REMARK UNBOUND:                -0.419
REMARK SMILES O=c1c(O)c(-c2ccc(O)cc2O)oc2cc(O)cc(O)c12
REMARK SMILES IDX 5 1 3 2 2 3 1 4 22 5 20 6 19 7 17 8 16 9 15 10 14 11 6 12
REMARK SMILES IDX 8 13 7 14 9 15 11 16 12 17 10 18 13 20 4 22 21 24 18 26
REMARK H PARENT 10 19 13 21 4 23 21 25 18 27
REMARK Flexibility Score: inf
ROOT
ATOM      1  C   UNL     1      38.444  -0.465  -6.836  1.00  0.00     0.184 A 
ATOM      2  C   UNL     1      38.788  -1.783  -7.177  1.00  0.00     0.208 A 
ATOM      3  C   UNL     1      39.781  -2.442  -6.436  1.00  0.00     0.238 A 
ATOM      4  O   UNL     1      40.045  -3.642  -6.711  1.00  0.00    -0.285 OA
ATOM      5  C   UNL     1      40.435  -1.766  -5.377  1.00  0.00     0.111 A 
ATOM      6  C   UNL     1      41.484  -2.323  -4.585  1.00  0.00     0.134 A 
ATOM      7  C   UNL     1      41.968  -1.610  -3.482  1.00  0.00     0.093 A 
ATOM      8  C   UNL     1      41.488  -0.336  -3.179  1.00  0.00     0.123 A 
ATOM      9  C   UNL     1      40.503   0.242  -3.982  1.00  0.00     0.094 A 
ATOM     10  C   UNL     1      39.974  -0.459  -5.068  1.00  0.00     0.146 A 
ATOM     11  O   UNL     1      39.032   0.121  -5.800  1.00  0.00    -0.451 OA
ENDROOT
BRANCH   1  12
ATOM     12  C   UNL     1      37.422   0.297  -7.591  1.00  0.00     0.063 A 
ATOM     13  C   UNL     1      35.111   1.000  -7.892  1.00  0.00     0.047 A 
ATOM     14  C   UNL     1      36.081   0.305  -7.166  1.00  0.00     0.020 A 
ATOM     15  C   UNL     1      35.464   1.688  -9.060  1.00  0.00     0.119 A 
ATOM     16  C   UNL     1      36.792   1.674  -9.498  1.00  0.00     0.093 A 
ATOM     17  C   UNL     1      37.772   0.980  -8.773  1.00  0.00     0.130 A 
BRANCH  15  18
ATOM     18  O   UNL     1      34.505   2.384  -9.791  1.00  0.00    -0.508 OA
ATOM     19  H   UNL     1      33.656   1.936 -10.113  1.00  0.00     0.293 HD
ENDBRANCH  15  18
BRANCH  17  20
ATOM     20  O   UNL     1      39.094   0.981  -9.219  1.00  0.00    -0.507 OA
ATOM     21  H   UNL     1      39.395   1.565  -9.992  1.00  0.00     0.293 HD
ENDBRANCH  17  20
ENDBRANCH   1  12
BRANCH   2  22
ATOM     22  O   UNL     1      38.121  -2.434  -8.219  1.00  0.00    -0.502 OA
ATOM     23  H   UNL     1      38.277  -3.411  -8.438  1.00  0.00     0.293 HD
ENDBRANCH   2  22
BRANCH   6  24
ATOM     24  O   UNL     1      42.099  -3.548  -4.854  1.00  0.00    -0.507 OA
ATOM     25  H   UNL     1      42.221  -3.941  -5.775  1.00  0.00     0.293 HD
ENDBRANCH   6  24
BRANCH   8  26
ATOM     26  O   UNL     1      42.003   0.350  -2.082  1.00  0.00    -0.508 OA
ATOM     27  H   UNL     1      42.516   1.218  -2.192  1.00  0.00     0.293 HD
ENDBRANCH   8  26
TORSDOF 6
ENDMDL
MODEL 9
REMARK VINA RESULT:    -4.042      3.456      5.076
REMARK INTER + INTRA:          -5.288
REMARK INTER:                  -4.886
REMARK INTRA:                  -0.402
REMARK UNBOUND:                -0.419
REMARK SMILES O=c1c(O)c(-c2ccc(O)cc2O)oc2cc(O)cc(O)c12
REMARK SMILES IDX 5 1 3 2 2 3 1 4 22 5 20 6 19 7 17 8 16 9 15 10 14 11 6 12
REMARK SMILES IDX 8 13 7 14 9 15 11 16 12 17 10 18 13 20 4 22 21 24 18 26
REMARK H PARENT 10 19 13 21 4 23 21 25 18 27
REMARK Flexibility Score: inf
ROOT
ATOM      1  C   UNL     1      41.800  -0.552  -0.411  1.00  0.00     0.184 A 
ATOM      2  C   UNL     1      42.281  -1.080  -1.620  1.00  0.00     0.208 A 
ATOM      3  C   UNL     1      42.648  -2.433  -1.676  1.00  0.00     0.238 A 
ATOM      4  O   UNL     1      43.025  -2.913  -2.777  1.00  0.00    -0.285 OA
ATOM      5  C   UNL     1      42.550  -3.238  -0.515  1.00  0.00     0.111 A 
ATOM      6  C   UNL     1      42.931  -4.612  -0.446  1.00  0.00     0.134 A 
ATOM      7  C   UNL     1      42.670  -5.343   0.719  1.00  0.00     0.093 A 
ATOM      8  C   UNL     1      42.101  -4.737   1.839  1.00  0.00     0.123 A 
ATOM      9  C   UNL     1      41.778  -3.379   1.802  1.00  0.00     0.094 A 
ATOM     10  C   UNL     1      41.993  -2.632   0.642  1.00  0.00     0.146 A 
ATOM     11  O   UNL     1      41.662  -1.347   0.645  1.00  0.00    -0.451 OA
ENDROOT
BRANCH   1  12
ATOM     12  C   UNL     1      41.418   0.872  -0.276  1.00  0.00     0.063 A 
ATOM     13  C   UNL     1      39.744   2.632  -0.435  1.00  0.00     0.047 A 
ATOM     14  C   UNL     1      40.098   1.284  -0.535  1.00  0.00     0.020 A 
ATOM     15  C   UNL     1      40.704   3.589  -0.085  1.00  0.00     0.119 A 
ATOM     16  C   UNL     1      42.022   3.191   0.159  1.00  0.00     0.093 A 
ATOM     17  C   UNL     1      42.386   1.840   0.064  1.00  0.00     0.130 A 
BRANCH  15  18
ATOM     18  O   UNL     1      40.361   4.935   0.017  1.00  0.00    -0.508 OA
ATOM     19  H   UNL     1      39.574   5.321  -0.490  1.00  0.00     0.293 HD
ENDBRANCH  15  18
BRANCH  17  20
ATOM     20  O   UNL     1      43.703   1.457   0.318  1.00  0.00    -0.507 OA
ATOM     21  H   UNL     1      44.408   1.457  -0.411  1.00  0.00     0.293 HD
ENDBRANCH  17  20
ENDBRANCH   1  12
BRANCH   2  22
ATOM     22  O   UNL     1      42.358  -0.269  -2.757  1.00  0.00    -0.502 OA
ATOM     23  H   UNL     1      41.534   0.072  -3.237  1.00  0.00     0.293 HD
ENDBRANCH   2  22
BRANCH   6  24
ATOM     24  O   UNL     1      43.589  -5.292  -1.474  1.00  0.00    -0.507 OA
ATOM     25  H   UNL     1      44.061  -6.177  -1.369  1.00  0.00     0.293 HD
ENDBRANCH   6  24
BRANCH   8  26
ATOM     26  O   UNL     1      41.869  -5.491   2.986  1.00  0.00    -0.508 OA
ATOM     27  H   UNL     1      41.393  -5.100   3.791  1.00  0.00     0.293 HD
ENDBRANCH   8  26
TORSDOF 6
ENDMDL
