MODEL 1
REMARK VINA RESULT:    56.580      0.000      0.000
REMARK INTER + INTRA:          62.377
REMARK INTER:                  61.542
REMARK INTRA:                   0.835
REMARK UNBOUND:                 0.835
REMARK SMILES C[C@@H]1[C@@H](C)CC[C@@]2(C(=O)[O-])CC[C@@]3(C)C(=CC[C@@H]4[C@]5(C)CC[C@@H](O)C(C)(C)[C@H]5CC[C@@]43C)[C@@H]12
REMARK SMILES IDX 7 1 6 2 11 3 33 4 5 5 12 6 15 7 2 8 3 9 13 10 16 11 1 12
REMARK SMILES IDX 4 13 14 14 31 15 17 16 18 17 30 18 32 19 19 20 29 21 28 22
REMARK SMILES IDX 21 23 20 24 25 25 22 26 23 27 26 28 27 29 8 30 9 31 10 32
REMARK SMILES IDX 24 33
REMARK H PARENT 24 34
REMARK Flexibility Score: inf
ROOT
ATOM      1  C   UNL     1      15.982  24.082   4.539  1.00  0.00     0.017 C 
ATOM      2  C   UNL     1      16.403  23.893   6.036  1.00  0.00     0.014 C 
ATOM      3  C   UNL     1      16.996  23.308   3.660  1.00  0.00     0.014 C 
ATOM      4  C   UNL     1      14.538  23.519   4.272  1.00  0.00     0.030 C 
ATOM      5  C   UNL     1      15.201  23.787   6.977  1.00  0.00     0.004 C 
ATOM      6  C   UNL     1      16.706  23.465   2.168  1.00  0.00     0.013 C 
ATOM      7  C   UNL     1      14.224  23.366   2.771  1.00  0.00    -0.063 C 
ATOM      8  C   UNL     1      14.287  22.222   5.118  1.00  0.00    -0.003 C 
ATOM      9  C   UNL     1      14.342  22.540   6.652  1.00  0.00    -0.011 C 
ATOM     10  C   UNL     1      15.276  22.978   1.712  1.00  0.00    -0.006 C 
ATOM     11  C   UNL     1      12.933  23.458   2.402  1.00  0.00    -0.027 C 
ATOM     12  C   UNL     1      12.958  21.516   4.783  1.00  0.00     0.008 C 
ATOM     13  C   UNL     1      14.842  21.324   7.454  1.00  0.00     0.008 C 
ATOM     14  C   UNL     1      15.346  21.421   1.678  1.00  0.00     0.017 C 
ATOM     15  C   UNL     1      14.871  23.608   0.258  1.00  0.00    -0.020 C 
ATOM     16  C   UNL     1      12.463  22.936   1.088  1.00  0.00     0.032 C 
ATOM     17  C   UNL     1      13.289  23.516  -0.080  1.00  0.00     0.006 C 
ATOM     18  C   UNL     1      15.795  22.994  -0.875  1.00  0.00     0.008 C 
ATOM     19  C   UNL     1      15.179  25.146   0.258  1.00  0.00     0.012 C 
ATOM     20  C   UNL     1      12.934  22.896  -1.500  1.00  0.00    -0.025 C 
ATOM     21  C   UNL     1      15.265  21.804  -1.710  1.00  0.00     0.005 C 
ATOM     22  C   UNL     1      13.742  21.566  -1.635  1.00  0.00     0.003 C 
ATOM     23  C   UNL     1      11.397  22.620  -1.694  1.00  0.00     0.010 C 
ATOM     24  C   UNL     1      13.288  23.963  -2.588  1.00  0.00     0.012 C 
ATOM     25  C   UNL     1      13.159  20.514  -2.661  1.00  0.00    -0.006 C 
ATOM     26  C   UNL     1      10.953  21.185  -1.382  1.00  0.00     0.033 C 
ATOM     27  C   UNL     1      11.703  20.106  -2.208  1.00  0.00     0.120 C 
ATOM     28  C   UNL     1      13.154  21.036  -4.125  1.00  0.00     0.014 C 
ATOM     29  C   UNL     1      14.032  19.232  -2.646  1.00  0.00     0.014 C 
ENDROOT
BRANCH   1  30
ATOM     30  C   UNL     1      16.059  25.573   4.217  1.00  0.00     0.048 C 
ATOM     31  O   UNL     1      15.851  26.007   3.052  1.00  0.00    -0.550 OA
ATOM     32  O   UNL     1      16.334  26.485   5.231  1.00  0.00    -0.550 OA
ENDBRANCH   1  30
BRANCH  27  33
ATOM     33  O   UNL     1      10.923  19.723  -3.316  1.00  0.00    -0.393 OA
ATOM     34  H   UNL     1      10.836  20.517  -3.906  1.00  0.00     0.210 HD
ENDBRANCH  27  33
TORSDOF 2
ENDMDL
MODEL 2
REMARK VINA RESULT:    59.512      2.604      4.451
REMARK INTER + INTRA:          65.565
REMARK INTER:                  65.180
REMARK INTRA:                   0.386
REMARK UNBOUND:                 0.835
REMARK SMILES C[C@@H]1[C@@H](C)CC[C@@]2(C(=O)[O-])CC[C@@]3(C)C(=CC[C@@H]4[C@]5(C)CC[C@@H](O)C(C)(C)[C@H]5CC[C@@]43C)[C@@H]12
REMARK SMILES IDX 7 1 6 2 11 3 33 4 5 5 12 6 15 7 2 8 3 9 13 10 16 11 1 12
REMARK SMILES IDX 4 13 14 14 31 15 17 16 18 17 30 18 32 19 19 20 29 21 28 22
REMARK SMILES IDX 21 23 20 24 25 25 22 26 23 27 26 28 27 29 8 30 9 31 10 32
REMARK SMILES IDX 24 33
REMARK H PARENT 24 34
REMARK Flexibility Score: inf
ROOT
ATOM      1  C   UNL     1      12.956  21.071   5.067  1.00  0.00     0.017 C 
ATOM      2  C   UNL     1      12.876  21.302   6.614  1.00  0.00     0.014 C 
ATOM      3  C   UNL     1      11.637  21.591   4.441  1.00  0.00     0.014 C 
ATOM      4  C   UNL     1      14.166  21.849   4.431  1.00  0.00     0.030 C 
ATOM      5  C   UNL     1      14.227  21.682   7.223  1.00  0.00     0.004 C 
ATOM      6  C   UNL     1      11.587  21.370   2.930  1.00  0.00     0.013 C 
ATOM      7  C   UNL     1      14.080  21.937   2.894  1.00  0.00    -0.063 C 
ATOM      8  C   UNL     1      14.367  23.232   5.144  1.00  0.00    -0.003 C 
ATOM      9  C   UNL     1      14.738  23.029   6.654  1.00  0.00    -0.011 C 
ATOM     10  C   UNL     1      12.752  22.057   2.117  1.00  0.00    -0.006 C 
ATOM     11  C   UNL     1      15.240  22.038   2.220  1.00  0.00    -0.027 C 
ATOM     12  C   UNL     1      15.425  24.126   4.467  1.00  0.00     0.008 C 
ATOM     13  C   UNL     1      14.229  24.201   7.513  1.00  0.00     0.008 C 
ATOM     14  C   UNL     1      12.391  23.572   2.049  1.00  0.00     0.017 C 
ATOM     15  C   UNL     1      12.908  21.394   0.630  1.00  0.00    -0.020 C 
ATOM     16  C   UNL     1      15.279  22.529   0.814  1.00  0.00     0.032 C 
ATOM     17  C   UNL     1      14.319  21.728  -0.093  1.00  0.00     0.006 C 
ATOM     18  C   UNL     1      11.645  21.752  -0.258  1.00  0.00     0.008 C 
ATOM     19  C   UNL     1      12.898  19.831   0.758  1.00  0.00     0.012 C 
ATOM     20  C   UNL     1      14.206  22.287  -1.576  1.00  0.00    -0.025 C 
ATOM     21  C   UNL     1      11.732  22.947  -1.238  1.00  0.00     0.005 C 
ATOM     22  C   UNL     1      13.158  23.446  -1.551  1.00  0.00     0.003 C 
ATOM     23  C   UNL     1      15.575  22.805  -2.154  1.00  0.00     0.010 C 
ATOM     24  C   UNL     1      13.806  21.094  -2.506  1.00  0.00     0.012 C 
ATOM     25  C   UNL     1      13.277  24.499  -2.724  1.00  0.00    -0.006 C 
ATOM     26  C   UNL     1      15.808  24.315  -2.010  1.00  0.00     0.033 C 
ATOM     27  C   UNL     1      14.698  25.182  -2.660  1.00  0.00     0.120 C 
ATOM     28  C   UNL     1      13.029  23.873  -4.125  1.00  0.00     0.014 C 
ATOM     29  C   UNL     1      12.212  25.611  -2.536  1.00  0.00     0.014 C 
ENDROOT
BRANCH   1  30
ATOM     30  C   UNL     1      13.080  19.568   4.824  1.00  0.00     0.048 C 
ATOM     31  O   UNL     1      14.008  18.891   5.343  1.00  0.00    -0.550 OA
ATOM     32  O   UNL     1      12.134  18.915   4.040  1.00  0.00    -0.550 OA
ENDBRANCH   1  30
BRANCH  27  33
ATOM     33  O   UNL     1      15.108  25.606  -3.939  1.00  0.00    -0.393 OA
ATOM     34  H   UNL     1      16.080  25.803  -3.888  1.00  0.00     0.210 HD
ENDBRANCH  27  33
TORSDOF 2
ENDMDL
