MODEL 1
REMARK VINA RESULT:    -5.595      0.000      0.000
REMARK INTER + INTRA:          -7.245
REMARK INTER:                  -6.903
REMARK INTRA:                  -0.342
REMARK UNBOUND:                -0.342
REMARK SMILES Oc1cc(O)c2cc(O)c(-c3cc(O)c(O)c(O)c3)[o+]c2c1
REMARK SMILES IDX 10 1 20 2 21 3 22 4 2 5 3 6 4 7 6 8 7 9 8 10 11 11 12 12
REMARK SMILES IDX 13 13 19 14 15 15 17 16 14 17 16 19 18 21 9 23 1 25 5 27
REMARK H PARENT 14 18 16 20 18 22 9 24 1 26 5 28
REMARK Flexibility Score: inf
ROOT
ATOM      1  C   UNL     1      18.887  22.081  15.457  1.00  0.00     0.402 A 
ATOM      2  O   UNL     1      19.751  22.041  16.471  1.00  0.00    -0.202 OA
ATOM      3  C   UNL     1      19.413  21.666  17.701  1.00  0.00     0.368 A 
ATOM      4  C   UNL     1      20.380  21.655  18.711  1.00  0.00     0.162 A 
ATOM      5  C   UNL     1      20.036  21.265  20.012  1.00  0.00     0.128 A 
ATOM      6  C   UNL     1      18.722  20.886  20.301  1.00  0.00     0.093 A 
ATOM      7  C   UNL     1      17.741  20.889  19.298  1.00  0.00     0.136 A 
ATOM      8  C   UNL     1      18.087  21.281  17.990  1.00  0.00     0.125 A 
ATOM      9  C   UNL     1      17.153  21.298  16.948  1.00  0.00     0.078 A 
ATOM     10  C   UNL     1      17.549  21.689  15.665  1.00  0.00     0.223 A 
ENDROOT
BRANCH   1  11
ATOM     11  C   UNL     1      19.380  22.525  14.133  1.00  0.00     0.091 A 
ATOM     12  C   UNL     1      19.692  21.570  13.157  1.00  0.00     0.068 A 
ATOM     13  C   UNL     1      20.178  21.953  11.902  1.00  0.00     0.162 A 
ATOM     14  C   UNL     1      19.597  23.883  13.853  1.00  0.00     0.068 A 
ATOM     15  C   UNL     1      20.374  23.325  11.617  1.00  0.00     0.200 A 
ATOM     16  C   UNL     1      20.085  24.283  12.606  1.00  0.00     0.162 A 
BRANCH  13  17
ATOM     17  O   UNL     1      20.455  20.942  10.978  1.00  0.00    -0.504 OA
ATOM     18  H   UNL     1      20.227  20.994   9.996  1.00  0.00     0.293 HD
ENDBRANCH  13  17
BRANCH  15  19
ATOM     19  O   UNL     1      20.851  23.769  10.380  1.00  0.00    -0.502 OA
ATOM     20  H   UNL     1      20.700  24.696  10.013  1.00  0.00     0.293 HD
ENDBRANCH  15  19
BRANCH  16  21
ATOM     21  O   UNL     1      20.279  25.644  12.368  1.00  0.00    -0.504 OA
ATOM     22  H   UNL     1      19.709  26.358  12.808  1.00  0.00     0.293 HD
ENDBRANCH  16  21
ENDBRANCH   1  11
BRANCH  10  23
ATOM     23  O   UNL     1      16.636  21.659  14.612  1.00  0.00    -0.500 OA
ATOM     24  H   UNL     1      16.823  22.128  13.733  1.00  0.00     0.294 HD
ENDBRANCH  10  23
BRANCH   5  25
ATOM     25  O   UNL     1      20.992  21.253  21.024  1.00  0.00    -0.507 OA
ATOM     26  H   UNL     1      21.984  21.204  20.816  1.00  0.00     0.293 HD
ENDBRANCH   5  25
BRANCH   7  27
ATOM     27  O   UNL     1      16.433  20.506  19.599  1.00  0.00    -0.507 OA
ATOM     28  H   UNL     1      16.072  20.550  20.544  1.00  0.00     0.293 HD
ENDBRANCH   7  27
TORSDOF 7
ENDMDL
MODEL 2
REMARK VINA RESULT:    -5.031      1.623      7.371
REMARK INTER + INTRA:          -6.550
REMARK INTER:                  -6.384
REMARK INTRA:                  -0.166
REMARK UNBOUND:                -0.342
REMARK SMILES Oc1cc(O)c2cc(O)c(-c3cc(O)c(O)c(O)c3)[o+]c2c1
REMARK SMILES IDX 10 1 20 2 21 3 22 4 2 5 3 6 4 7 6 8 7 9 8 10 11 11 12 12
REMARK SMILES IDX 13 13 19 14 15 15 17 16 14 17 16 19 18 21 9 23 1 25 5 27
REMARK H PARENT 14 18 16 20 18 22 9 24 1 26 5 28
REMARK Flexibility Score: inf
ROOT
ATOM      1  C   UNL     1      19.018  22.007  14.313  1.00  0.00     0.402 A 
ATOM      2  O   UNL     1      19.034  21.117  13.321  1.00  0.00    -0.202 OA
ATOM      3  C   UNL     1      19.525  21.383  12.114  1.00  0.00     0.368 A 
ATOM      4  C   UNL     1      19.501  20.395  11.125  1.00  0.00     0.162 A 
ATOM      5  C   UNL     1      20.013  20.664   9.848  1.00  0.00     0.128 A 
ATOM      6  C   UNL     1      20.549  21.923   9.563  1.00  0.00     0.093 A 
ATOM      7  C   UNL     1      20.583  22.923  10.546  1.00  0.00     0.136 A 
ATOM      8  C   UNL     1      20.068  22.654  11.828  1.00  0.00     0.125 A 
ATOM      9  C   UNL     1      20.081  23.610  12.850  1.00  0.00     0.078 A 
ATOM     10  C   UNL     1      19.564  23.290  14.109  1.00  0.00     0.223 A 
ENDROOT
BRANCH   1  11
ATOM     11  C   UNL     1      18.434  21.596  15.611  1.00  0.00     0.091 A 
ATOM     12  C   UNL     1      17.081  21.240  15.677  1.00  0.00     0.068 A 
ATOM     13  C   UNL     1      16.492  20.865  16.890  1.00  0.00     0.162 A 
ATOM     14  C   UNL     1      19.194  21.610  16.790  1.00  0.00     0.068 A 
ATOM     15  C   UNL     1      17.270  20.859  18.073  1.00  0.00     0.200 A 
ATOM     16  C   UNL     1      18.622  21.240  18.011  1.00  0.00     0.162 A 
BRANCH  13  17
ATOM     17  O   UNL     1      15.140  20.513  16.873  1.00  0.00    -0.504 OA
ATOM     18  H   UNL     1      14.435  20.998  16.338  1.00  0.00     0.293 HD
ENDBRANCH  13  17
BRANCH  15  19
ATOM     19  O   UNL     1      16.739  20.488  19.311  1.00  0.00    -0.502 OA
ATOM     20  H   UNL     1      16.131  19.697  19.454  1.00  0.00     0.293 HD
ENDBRANCH  15  19
BRANCH  16  21
ATOM     21  O   UNL     1      19.418  21.263  19.157  1.00  0.00    -0.504 OA
ATOM     22  H   UNL     1      19.025  21.350  20.087  1.00  0.00     0.293 HD
ENDBRANCH  16  21
ENDBRANCH   1  11
BRANCH  10  23
ATOM     23  O   UNL     1      19.619  24.221  15.145  1.00  0.00    -0.500 OA
ATOM     24  H   UNL     1      20.336  24.938  15.178  1.00  0.00     0.294 HD
ENDBRANCH  10  23
BRANCH   5  25
ATOM     25  O   UNL     1      19.992  19.686   8.856  1.00  0.00    -0.507 OA
ATOM     26  H   UNL     1      20.072  19.925   7.874  1.00  0.00     0.293 HD
ENDBRANCH   5  25
BRANCH   7  27
ATOM     27  O   UNL     1      21.123  24.175  10.248  1.00  0.00    -0.507 OA
ATOM     28  H   UNL     1      21.491  24.779  10.973  1.00  0.00     0.293 HD
ENDBRANCH   7  27
TORSDOF 7
ENDMDL
MODEL 3
REMARK VINA RESULT:    -4.950      1.225      2.570
REMARK INTER + INTRA:          -6.449
REMARK INTER:                  -6.259
REMARK INTRA:                  -0.190
REMARK UNBOUND:                -0.342
REMARK SMILES Oc1cc(O)c2cc(O)c(-c3cc(O)c(O)c(O)c3)[o+]c2c1
REMARK SMILES IDX 10 1 20 2 21 3 22 4 2 5 3 6 4 7 6 8 7 9 8 10 11 11 12 12
REMARK SMILES IDX 13 13 19 14 15 15 17 16 14 17 16 19 18 21 9 23 1 25 5 27
REMARK H PARENT 14 18 16 20 18 22 9 24 1 26 5 28
REMARK Flexibility Score: inf
ROOT
ATOM      1  C   UNL     1      19.396  22.609  15.350  1.00  0.00     0.402 A 
ATOM      2  O   UNL     1      18.387  21.765  15.562  1.00  0.00    -0.202 OA
ATOM      3  C   UNL     1      18.018  21.363  16.775  1.00  0.00     0.368 A 
ATOM      4  C   UNL     1      16.950  20.471  16.913  1.00  0.00     0.162 A 
ATOM      5  C   UNL     1      16.555  20.037  18.185  1.00  0.00     0.128 A 
ATOM      6  C   UNL     1      17.228  20.499  19.320  1.00  0.00     0.093 A 
ATOM      7  C   UNL     1      18.299  21.397  19.198  1.00  0.00     0.136 A 
ATOM      8  C   UNL     1      18.698  21.832  17.919  1.00  0.00     0.125 A 
ATOM      9  C   UNL     1      19.755  22.731  17.737  1.00  0.00     0.078 A 
ATOM     10  C   UNL     1      20.107  23.137  16.446  1.00  0.00     0.223 A 
ENDROOT
BRANCH   1  11
ATOM     11  C   UNL     1      19.719  22.976  13.951  1.00  0.00     0.091 A 
ATOM     12  C   UNL     1      20.177  21.989  13.068  1.00  0.00     0.068 A 
ATOM     13  C   UNL     1      20.510  22.303  11.745  1.00  0.00     0.162 A 
ATOM     14  C   UNL     1      19.629  24.302  13.504  1.00  0.00     0.068 A 
ATOM     15  C   UNL     1      20.395  23.639  11.294  1.00  0.00     0.200 A 
ATOM     16  C   UNL     1      19.958  24.634  12.187  1.00  0.00     0.162 A 
BRANCH  13  17
ATOM     17  O   UNL     1      20.949  21.262  10.923  1.00  0.00    -0.504 OA
ATOM     18  H   UNL     1      20.404  20.439  10.711  1.00  0.00     0.293 HD
ENDBRANCH  13  17
BRANCH  15  19
ATOM     19  O   UNL     1      20.706  24.012   9.983  1.00  0.00    -0.502 OA
ATOM     20  H   UNL     1      21.626  24.286   9.674  1.00  0.00     0.293 HD
ENDBRANCH  15  19
BRANCH  16  21
ATOM     21  O   UNL     1      19.848  25.966  11.784  1.00  0.00    -0.504 OA
ATOM     22  H   UNL     1      19.542  26.698  12.413  1.00  0.00     0.293 HD
ENDBRANCH  16  21
ENDBRANCH   1  11
BRANCH  10  23
ATOM     23  O   UNL     1      21.125  24.071  16.260  1.00  0.00    -0.500 OA
ATOM     24  H   UNL     1      21.482  24.292  15.337  1.00  0.00     0.294 HD
ENDBRANCH  10  23
BRANCH   5  25
ATOM     25  O   UNL     1      15.493  19.148  18.332  1.00  0.00    -0.507 OA
ATOM     26  H   UNL     1      15.589  18.165  18.101  1.00  0.00     0.293 HD
ENDBRANCH   5  25
BRANCH   7  27
ATOM     27  O   UNL     1      18.962  21.851  20.339  1.00  0.00    -0.507 OA
ATOM     28  H   UNL     1      18.687  22.706  20.807  1.00  0.00     0.293 HD
ENDBRANCH   7  27
TORSDOF 7
ENDMDL
MODEL 4
REMARK VINA RESULT:    -4.867      1.282      7.323
REMARK INTER + INTRA:          -6.347
REMARK INTER:                  -6.100
REMARK INTRA:                  -0.248
REMARK UNBOUND:                -0.342
REMARK SMILES Oc1cc(O)c2cc(O)c(-c3cc(O)c(O)c(O)c3)[o+]c2c1
REMARK SMILES IDX 10 1 20 2 21 3 22 4 2 5 3 6 4 7 6 8 7 9 8 10 11 11 12 12
REMARK SMILES IDX 13 13 19 14 15 15 17 16 14 17 16 19 18 21 9 23 1 25 5 27
REMARK H PARENT 14 18 16 20 18 22 9 24 1 26 5 28
REMARK Flexibility Score: inf
ROOT
ATOM      1  C   UNL     1      19.634  22.296  16.836  1.00  0.00     0.402 A 
ATOM      2  O   UNL     1      19.441  21.461  15.815  1.00  0.00    -0.202 OA
ATOM      3  C   UNL     1      19.660  21.799  14.548  1.00  0.00     0.368 A 
ATOM      4  C   UNL     1      19.430  20.865  13.533  1.00  0.00     0.162 A 
ATOM      5  C   UNL     1      19.654  21.211  12.194  1.00  0.00     0.128 A 
ATOM      6  C   UNL     1      20.110  22.492  11.872  1.00  0.00     0.093 A 
ATOM      7  C   UNL     1      20.349  23.439  12.878  1.00  0.00     0.136 A 
ATOM      8  C   UNL     1      20.123  23.093  14.225  1.00  0.00     0.125 A 
ATOM      9  C   UNL     1      20.350  23.994  15.271  1.00  0.00     0.078 A 
ATOM     10  C   UNL     1      20.117  23.598  16.592  1.00  0.00     0.223 A 
ENDROOT
BRANCH   1  11
ATOM     11  C   UNL     1      19.345  21.807  18.204  1.00  0.00     0.091 A 
ATOM     12  C   UNL     1      18.018  21.569  18.586  1.00  0.00     0.068 A 
ATOM     13  C   UNL     1      17.707  21.124  19.875  1.00  0.00     0.162 A 
ATOM     14  C   UNL     1      20.368  21.630  19.148  1.00  0.00     0.068 A 
ATOM     15  C   UNL     1      18.745  20.926  20.816  1.00  0.00     0.200 A 
ATOM     16  C   UNL     1      20.075  21.189  20.441  1.00  0.00     0.162 A 
BRANCH  13  17
ATOM     17  O   UNL     1      16.361  20.898  20.176  1.00  0.00    -0.504 OA
ATOM     18  H   UNL     1      15.752  21.583  20.599  1.00  0.00     0.293 HD
ENDBRANCH  13  17
BRANCH  15  19
ATOM     19  O   UNL     1      18.497  20.477  22.117  1.00  0.00    -0.502 OA
ATOM     20  H   UNL     1      18.372  19.509  22.369  1.00  0.00     0.293 HD
ENDBRANCH  15  19
BRANCH  16  21
ATOM     21  O   UNL     1      21.125  21.020  21.345  1.00  0.00    -0.504 OA
ATOM     22  H   UNL     1      21.751  20.224  21.306  1.00  0.00     0.293 HD
ENDBRANCH  16  21
ENDBRANCH   1  11
BRANCH  10  23
ATOM     23  O   UNL     1      20.389  24.473  17.642  1.00  0.00    -0.500 OA
ATOM     24  H   UNL     1      20.047  24.300  18.581  1.00  0.00     0.294 HD
ENDBRANCH  10  23
BRANCH   5  25
ATOM     25  O   UNL     1      19.426  20.287  11.177  1.00  0.00    -0.507 OA
ATOM     26  H   UNL     1      18.691  19.591  11.248  1.00  0.00     0.293 HD
ENDBRANCH   5  25
BRANCH   7  27
ATOM     27  O   UNL     1      20.806  24.714  12.543  1.00  0.00    -0.507 OA
ATOM     28  H   UNL     1      21.422  25.235  13.155  1.00  0.00     0.293 HD
ENDBRANCH   7  27
TORSDOF 7
ENDMDL
MODEL 5
REMARK VINA RESULT:    -4.667      9.006     11.262
REMARK INTER + INTRA:          -6.099
REMARK INTER:                  -5.791
REMARK INTRA:                  -0.308
REMARK UNBOUND:                -0.342
REMARK SMILES Oc1cc(O)c2cc(O)c(-c3cc(O)c(O)c(O)c3)[o+]c2c1
REMARK SMILES IDX 10 1 20 2 21 3 22 4 2 5 3 6 4 7 6 8 7 9 8 10 11 11 12 12
REMARK SMILES IDX 13 13 19 14 15 15 17 16 14 17 16 19 18 21 9 23 1 25 5 27
REMARK H PARENT 14 18 16 20 18 22 9 24 1 26 5 28
REMARK Flexibility Score: inf
ROOT
ATOM      1  C   UNL     1      16.560  18.970   6.228  1.00  0.00     0.402 A 
ATOM      2  O   UNL     1      16.596  17.709   5.799  1.00  0.00    -0.202 OA
ATOM      3  C   UNL     1      17.014  16.697   6.553  1.00  0.00     0.368 A 
ATOM      4  C   UNL     1      17.026  15.401   6.027  1.00  0.00     0.162 A 
ATOM      5  C   UNL     1      17.467  14.326   6.810  1.00  0.00     0.128 A 
ATOM      6  C   UNL     1      17.897  14.550   8.121  1.00  0.00     0.093 A 
ATOM      7  C   UNL     1      17.890  15.843   8.664  1.00  0.00     0.136 A 
ATOM      8  C   UNL     1      17.446  16.924   7.877  1.00  0.00     0.125 A 
ATOM      9  C   UNL     1      17.410  18.234   8.368  1.00  0.00     0.078 A 
ATOM     10  C   UNL     1      16.954  19.271   7.547  1.00  0.00     0.223 A 
ENDROOT
BRANCH   1  11
ATOM     11  C   UNL     1      16.082  20.014   5.292  1.00  0.00     0.091 A 
ATOM     12  C   UNL     1      16.997  20.929   4.753  1.00  0.00     0.068 A 
ATOM     13  C   UNL     1      16.579  21.939   3.881  1.00  0.00     0.162 A 
ATOM     14  C   UNL     1      14.722  20.144   4.974  1.00  0.00     0.068 A 
ATOM     15  C   UNL     1      15.208  22.051   3.546  1.00  0.00     0.200 A 
ATOM     16  C   UNL     1      14.286  21.148   4.105  1.00  0.00     0.162 A 
BRANCH  13  17
ATOM     17  O   UNL     1      17.553  22.805   3.377  1.00  0.00    -0.504 OA
ATOM     18  H   UNL     1      18.154  23.377   3.951  1.00  0.00     0.293 HD
ENDBRANCH  13  17
BRANCH  15  19
ATOM     19  O   UNL     1      14.731  23.035   2.675  1.00  0.00    -0.502 OA
ATOM     20  H   UNL     1      14.923  23.058   1.685  1.00  0.00     0.293 HD
ENDBRANCH  15  19
BRANCH  16  21
ATOM     21  O   UNL     1      12.924  21.235   3.813  1.00  0.00    -0.504 OA
ATOM     22  H   UNL     1      12.580  21.643   2.952  1.00  0.00     0.293 HD
ENDBRANCH  16  21
ENDBRANCH   1  11
BRANCH  10  23
ATOM     23  O   UNL     1      16.868  20.570   8.046  1.00  0.00    -0.500 OA
ATOM     24  H   UNL     1      16.991  20.770   9.032  1.00  0.00     0.294 HD
ENDBRANCH  10  23
BRANCH   5  25
ATOM     25  O   UNL     1      17.483  13.033   6.293  1.00  0.00    -0.507 OA
ATOM     26  H   UNL     1      18.273  12.684   5.761  1.00  0.00     0.293 HD
ENDBRANCH   5  25
BRANCH   7  27
ATOM     27  O   UNL     1      18.320  16.052   9.975  1.00  0.00    -0.507 OA
ATOM     28  H   UNL     1      17.764  16.578  10.638  1.00  0.00     0.293 HD
ENDBRANCH   7  27
TORSDOF 7
ENDMDL
MODEL 6
REMARK VINA RESULT:    -4.642     10.226     12.316
REMARK INTER + INTRA:          -6.069
REMARK INTER:                  -5.735
REMARK INTRA:                  -0.334
REMARK UNBOUND:                -0.342
REMARK SMILES Oc1cc(O)c2cc(O)c(-c3cc(O)c(O)c(O)c3)[o+]c2c1
REMARK SMILES IDX 10 1 20 2 21 3 22 4 2 5 3 6 4 7 6 8 7 9 8 10 11 11 12 12
REMARK SMILES IDX 13 13 19 14 15 15 17 16 14 17 16 19 18 21 9 23 1 25 5 27
REMARK H PARENT 14 18 16 20 18 22 9 24 1 26 5 28
REMARK Flexibility Score: inf
ROOT
ATOM      1  C   UNL     1      15.181  18.881   4.598  1.00  0.00     0.402 A 
ATOM      2  O   UNL     1      15.911  18.723   5.702  1.00  0.00    -0.202 OA
ATOM      3  C   UNL     1      16.208  17.532   6.213  1.00  0.00     0.368 A 
ATOM      4  C   UNL     1      16.977  17.452   7.379  1.00  0.00     0.162 A 
ATOM      5  C   UNL     1      17.294  16.202   7.929  1.00  0.00     0.128 A 
ATOM      6  C   UNL     1      16.840  15.033   7.311  1.00  0.00     0.093 A 
ATOM      7  C   UNL     1      16.070  15.098   6.140  1.00  0.00     0.136 A 
ATOM      8  C   UNL     1      15.751  16.353   5.587  1.00  0.00     0.125 A 
ATOM      9  C   UNL     1      14.993  16.478   4.418  1.00  0.00     0.078 A 
ATOM     10  C   UNL     1      14.709  17.748   3.906  1.00  0.00     0.223 A 
ENDROOT
BRANCH   1  11
ATOM     11  C   UNL     1      14.909  20.260   4.131  1.00  0.00     0.091 A 
ATOM     12  C   UNL     1      15.950  21.022   3.586  1.00  0.00     0.068 A 
ATOM     13  C   UNL     1      15.733  22.335   3.152  1.00  0.00     0.162 A 
ATOM     14  C   UNL     1      13.640  20.842   4.275  1.00  0.00     0.068 A 
ATOM     15  C   UNL     1      14.446  22.909   3.278  1.00  0.00     0.200 A 
ATOM     16  C   UNL     1      13.406  22.153   3.848  1.00  0.00     0.162 A 
BRANCH  13  17
ATOM     17  O   UNL     1      16.819  23.026   2.609  1.00  0.00    -0.504 OA
ATOM     18  H   UNL     1      16.997  23.113   1.619  1.00  0.00     0.293 HD
ENDBRANCH  13  17
BRANCH  15  19
ATOM     19  O   UNL     1      14.167  24.212   2.857  1.00  0.00    -0.502 OA
ATOM     20  H   UNL     1      13.988  24.473   1.900  1.00  0.00     0.293 HD
ENDBRANCH  15  19
BRANCH  16  21
ATOM     21  O   UNL     1      12.127  22.689   4.005  1.00  0.00    -0.504 OA
ATOM     22  H   UNL     1      11.972  23.628   4.353  1.00  0.00     0.293 HD
ENDBRANCH  16  21
ENDBRANCH   1  11
BRANCH  10  23
ATOM     23  O   UNL     1      13.997  17.879   2.714  1.00  0.00    -0.500 OA
ATOM     24  H   UNL     1      14.360  18.415   1.934  1.00  0.00     0.294 HD
ENDBRANCH  10  23
BRANCH   5  25
ATOM     25  O   UNL     1      18.058  16.113   9.090  1.00  0.00    -0.507 OA
ATOM     26  H   UNL     1      19.066  16.224   9.070  1.00  0.00     0.293 HD
ENDBRANCH   5  25
BRANCH   7  27
ATOM     27  O   UNL     1      15.626  13.923   5.532  1.00  0.00    -0.507 OA
ATOM     28  H   UNL     1      14.925  13.334   5.965  1.00  0.00     0.293 HD
ENDBRANCH   7  27
TORSDOF 7
ENDMDL
MODEL 7
REMARK VINA RESULT:    -4.572      7.514     12.013
REMARK INTER + INTRA:          -5.982
REMARK INTER:                  -5.636
REMARK INTRA:                  -0.347
REMARK UNBOUND:                -0.342
REMARK SMILES Oc1cc(O)c2cc(O)c(-c3cc(O)c(O)c(O)c3)[o+]c2c1
REMARK SMILES IDX 10 1 20 2 21 3 22 4 2 5 3 6 4 7 6 8 7 9 8 10 11 11 12 12
REMARK SMILES IDX 13 13 19 14 15 15 17 16 14 17 16 19 18 21 9 23 1 25 5 27
REMARK H PARENT 14 18 16 20 18 22 9 24 1 26 5 28
REMARK Flexibility Score: inf
ROOT
ATOM      1  C   UNL     1      16.882  20.830   6.335  1.00  0.00     0.402 A 
ATOM      2  O   UNL     1      16.003  20.043   5.715  1.00  0.00    -0.202 OA
ATOM      3  C   UNL     1      15.277  20.442   4.675  1.00  0.00     0.368 A 
ATOM      4  C   UNL     1      14.372  19.555   4.082  1.00  0.00     0.162 A 
ATOM      5  C   UNL     1      13.599  19.965   2.988  1.00  0.00     0.128 A 
ATOM      6  C   UNL     1      13.734  21.262   2.486  1.00  0.00     0.093 A 
ATOM      7  C   UNL     1      14.639  22.162   3.067  1.00  0.00     0.136 A 
ATOM      8  C   UNL     1      15.415  21.752   4.168  1.00  0.00     0.125 A 
ATOM      9  C   UNL     1      16.339  22.604   4.784  1.00  0.00     0.078 A 
ATOM     10  C   UNL     1      17.091  22.144   5.871  1.00  0.00     0.223 A 
ENDROOT
BRANCH   1  11
ATOM     11  C   UNL     1      17.625  20.276   7.490  1.00  0.00     0.091 A 
ATOM     12  C   UNL     1      17.025  20.266   8.756  1.00  0.00     0.068 A 
ATOM     13  C   UNL     1      17.704  19.767   9.873  1.00  0.00     0.162 A 
ATOM     14  C   UNL     1      18.941  19.809   7.356  1.00  0.00     0.068 A 
ATOM     15  C   UNL     1      19.024  19.277   9.727  1.00  0.00     0.200 A 
ATOM     16  C   UNL     1      19.636  19.309   8.461  1.00  0.00     0.162 A 
BRANCH  13  17
ATOM     17  O   UNL     1      17.034  19.782  11.099  1.00  0.00    -0.504 OA
ATOM     18  H   UNL     1      16.532  18.993  11.479  1.00  0.00     0.293 HD
ENDBRANCH  13  17
BRANCH  15  19
ATOM     19  O   UNL     1      19.750  18.761  10.804  1.00  0.00    -0.502 OA
ATOM     20  H   UNL     1      20.500  18.093  10.714  1.00  0.00     0.293 HD
ENDBRANCH  15  19
BRANCH  16  21
ATOM     21  O   UNL     1      20.941  18.850   8.280  1.00  0.00    -0.504 OA
ATOM     22  H   UNL     1      21.387  18.215   8.931  1.00  0.00     0.293 HD
ENDBRANCH  16  21
ENDBRANCH   1  11
BRANCH  10  23
ATOM     23  O   UNL     1      18.048  22.971   6.457  1.00  0.00    -0.500 OA
ATOM     24  H   UNL     1      18.756  22.604   7.083  1.00  0.00     0.294 HD
ENDBRANCH  10  23
BRANCH   5  25
ATOM     25  O   UNL     1      12.695  19.088   2.392  1.00  0.00    -0.507 OA
ATOM     26  H   UNL     1      12.449  18.205   2.826  1.00  0.00     0.293 HD
ENDBRANCH   5  25
BRANCH   7  27
ATOM     27  O   UNL     1      14.764  23.455   2.556  1.00  0.00    -0.507 OA
ATOM     28  H   UNL     1      14.893  23.622   1.565  1.00  0.00     0.293 HD
ENDBRANCH   7  27
TORSDOF 7
ENDMDL
MODEL 8
REMARK VINA RESULT:    -4.544      7.545     11.823
REMARK INTER + INTRA:          -5.948
REMARK INTER:                  -5.575
REMARK INTRA:                  -0.373
REMARK UNBOUND:                -0.342
REMARK SMILES Oc1cc(O)c2cc(O)c(-c3cc(O)c(O)c(O)c3)[o+]c2c1
REMARK SMILES IDX 10 1 20 2 21 3 22 4 2 5 3 6 4 7 6 8 7 9 8 10 11 11 12 12
REMARK SMILES IDX 13 13 19 14 15 15 17 16 14 17 16 19 18 21 9 23 1 25 5 27
REMARK H PARENT 14 18 16 20 18 22 9 24 1 26 5 28
REMARK Flexibility Score: inf
ROOT
ATOM      1  C   UNL     1      16.416  19.676   6.586  1.00  0.00     0.402 A 
ATOM      2  O   UNL     1      16.323  20.860   5.982  1.00  0.00    -0.202 OA
ATOM      3  C   UNL     1      15.554  21.075   4.919  1.00  0.00     0.368 A 
ATOM      4  C   UNL     1      15.514  22.348   4.340  1.00  0.00     0.162 A 
ATOM      5  C   UNL     1      14.710  22.586   3.218  1.00  0.00     0.128 A 
ATOM      6  C   UNL     1      13.943  21.550   2.676  1.00  0.00     0.093 A 
ATOM      7  C   UNL     1      13.970  20.269   3.247  1.00  0.00     0.136 A 
ATOM      8  C   UNL     1      14.779  20.029   4.375  1.00  0.00     0.125 A 
ATOM      9  C   UNL     1      14.840  18.774   4.990  1.00  0.00     0.078 A 
ATOM     10  C   UNL     1      15.655  18.589   6.112  1.00  0.00     0.223 A 
ENDROOT
BRANCH   1  11
ATOM     11  C   UNL     1      17.316  19.557   7.757  1.00  0.00     0.091 A 
ATOM     12  C   UNL     1      16.799  19.741   9.046  1.00  0.00     0.068 A 
ATOM     13  C   UNL     1      17.623  19.654  10.173  1.00  0.00     0.162 A 
ATOM     14  C   UNL     1      18.690  19.319   7.601  1.00  0.00     0.068 A 
ATOM     15  C   UNL     1      19.004  19.391  10.011  1.00  0.00     0.200 A 
ATOM     16  C   UNL     1      19.528  19.231   8.715  1.00  0.00     0.162 A 
BRANCH  13  17
ATOM     17  O   UNL     1      17.030  19.839  11.425  1.00  0.00    -0.504 OA
ATOM     18  H   UNL     1      16.100  20.206  11.563  1.00  0.00     0.293 HD
ENDBRANCH  13  17
BRANCH  15  19
ATOM     19  O   UNL     1      19.875  19.287  11.099  1.00  0.00    -0.502 OA
ATOM     20  H   UNL     1      20.856  19.063  11.021  1.00  0.00     0.293 HD
ENDBRANCH  15  19
BRANCH  16  21
ATOM     21  O   UNL     1      20.887  18.986   8.513  1.00  0.00    -0.504 OA
ATOM     22  H   UNL     1      21.544  19.726   8.294  1.00  0.00     0.293 HD
ENDBRANCH  16  21
ENDBRANCH   1  11
BRANCH  10  23
ATOM     23  O   UNL     1      15.682  17.355   6.761  1.00  0.00    -0.500 OA
ATOM     24  H   UNL     1      15.942  16.504   6.275  1.00  0.00     0.294 HD
ENDBRANCH  10  23
BRANCH   5  25
ATOM     25  O   UNL     1      14.665  23.850   2.634  1.00  0.00    -0.507 OA
ATOM     26  H   UNL     1      14.843  23.984   1.644  1.00  0.00     0.293 HD
ENDBRANCH   5  25
BRANCH   7  27
ATOM     27  O   UNL     1      13.199  19.244   2.698  1.00  0.00    -0.507 OA
ATOM     28  H   UNL     1      13.535  18.684   1.924  1.00  0.00     0.293 HD
ENDBRANCH   7  27
TORSDOF 7
ENDMDL
MODEL 9
REMARK VINA RESULT:    -4.532     11.329     13.228
REMARK INTER + INTRA:          -5.934
REMARK INTER:                  -5.669
REMARK INTRA:                  -0.265
REMARK UNBOUND:                -0.342
REMARK SMILES Oc1cc(O)c2cc(O)c(-c3cc(O)c(O)c(O)c3)[o+]c2c1
REMARK SMILES IDX 10 1 20 2 21 3 22 4 2 5 3 6 4 7 6 8 7 9 8 10 11 11 12 12
REMARK SMILES IDX 13 13 19 14 15 15 17 16 14 17 16 19 18 21 9 23 1 25 5 27
REMARK H PARENT 14 18 16 20 18 22 9 24 1 26 5 28
REMARK Flexibility Score: inf
ROOT
ATOM      1  C   UNL     1      15.328  18.014   4.892  1.00  0.00     0.402 A 
ATOM      2  O   UNL     1      15.732  17.100   4.011  1.00  0.00    -0.202 OA
ATOM      3  C   UNL     1      15.954  15.829   4.332  1.00  0.00     0.368 A 
ATOM      4  C   UNL     1      16.382  14.932   3.348  1.00  0.00     0.162 A 
ATOM      5  C   UNL     1      16.621  13.590   3.675  1.00  0.00     0.128 A 
ATOM      6  C   UNL     1      16.431  13.147   4.987  1.00  0.00     0.093 A 
ATOM      7  C   UNL     1      15.999  14.034   5.984  1.00  0.00     0.136 A 
ATOM      8  C   UNL     1      15.759  15.383   5.657  1.00  0.00     0.125 A 
ATOM      9  C   UNL     1      15.321  16.311   6.608  1.00  0.00     0.078 A 
ATOM     10  C   UNL     1      15.090  17.638   6.229  1.00  0.00     0.223 A 
ENDROOT
BRANCH   1  11
ATOM     11  C   UNL     1      15.124  19.402   4.417  1.00  0.00     0.091 A 
ATOM     12  C   UNL     1      15.966  20.421   4.883  1.00  0.00     0.068 A 
ATOM     13  C   UNL     1      15.791  21.747   4.470  1.00  0.00     0.162 A 
ATOM     14  C   UNL     1      14.071  19.731   3.551  1.00  0.00     0.068 A 
ATOM     15  C   UNL     1      14.740  22.069   3.578  1.00  0.00     0.200 A 
ATOM     16  C   UNL     1      13.880  21.050   3.129  1.00  0.00     0.162 A 
BRANCH  13  17
ATOM     17  O   UNL     1      16.677  22.704   4.971  1.00  0.00    -0.504 OA
ATOM     18  H   UNL     1      16.400  23.620   5.290  1.00  0.00     0.293 HD
ENDBRANCH  13  17
BRANCH  15  19
ATOM     19  O   UNL     1      14.520  23.372   3.126  1.00  0.00    -0.502 OA
ATOM     20  H   UNL     1      13.925  24.042   3.590  1.00  0.00     0.293 HD
ENDBRANCH  15  19
BRANCH  16  21
ATOM     21  O   UNL     1      12.823  21.329   2.262  1.00  0.00    -0.504 OA
ATOM     22  H   UNL     1      11.863  21.387   2.580  1.00  0.00     0.293 HD
ENDBRANCH  16  21
ENDBRANCH   1  11
BRANCH  10  23
ATOM     23  O   UNL     1      14.605  18.556   7.160  1.00  0.00    -0.500 OA
ATOM     24  H   UNL     1      14.262  19.467   6.879  1.00  0.00     0.294 HD
ENDBRANCH  10  23
BRANCH   5  25
ATOM     25  O   UNL     1      17.049  12.690   2.701  1.00  0.00    -0.507 OA
ATOM     26  H   UNL     1      18.032  12.474   2.575  1.00  0.00     0.293 HD
ENDBRANCH   5  25
BRANCH   7  27
ATOM     27  O   UNL     1      15.811  13.579   7.290  1.00  0.00    -0.507 OA
ATOM     28  H   UNL     1      15.046  12.962   7.531  1.00  0.00     0.293 HD
ENDBRANCH   7  27
TORSDOF 7
ENDMDL
