MODEL 1
REMARK VINA RESULT:    -4.689      0.000      0.000
REMARK INTER + INTRA:         -15.943
REMARK INTER:                 -11.816
REMARK INTRA:                  -4.127
REMARK UNBOUND:                -4.127
REMARK SMILES CCCCCCCCCCCCCCCCCCCCCCCCCCCC(=O)[O-]
REMARK SMILES IDX 15 1 16 2 17 3 18 4 19 5 20 6 21 7 22 8 23 9 24 10 25 11
REMARK SMILES IDX 26 12 27 13 28 14 29 15 30 16 14 17 13 18 12 19 11 20 10 21
REMARK SMILES IDX 9 22 8 23 7 24 6 25 5 26 4 27 3 28 2 29 1 30
REMARK H PARENT
REMARK Flexibility Score: inf
ROOT
ATOM      1  C   UNL     1     -49.664  11.346 -29.255  1.00  0.00     0.000 C 
ENDROOT
BRANCH   1   2
ATOM      2  C   UNL     1     -49.970  10.615 -30.574  1.00  0.00     0.000 C 
BRANCH   2   3
ATOM      3  C   UNL     1     -50.994   9.484 -30.398  1.00  0.00     0.000 C 
BRANCH   3   4
ATOM      4  C   UNL     1     -52.274   9.705 -31.219  1.00  0.00     0.000 C 
BRANCH   4   5
ATOM      5  C   UNL     1     -53.303   8.600 -30.935  1.00  0.00     0.000 C 
BRANCH   5   6
ATOM      6  C   UNL     1     -53.822   7.920 -32.212  1.00  0.00     0.000 C 
BRANCH   6   7
ATOM      7  C   UNL     1     -52.948   8.225 -33.441  1.00  0.00     0.000 C 
BRANCH   7   8
ATOM      8  C   UNL     1     -52.341   6.961 -34.077  1.00  0.00     0.000 C 
BRANCH   8   9
ATOM      9  C   UNL     1     -51.896   5.875 -33.080  1.00  0.00     0.000 C 
BRANCH   9  10
ATOM     10  C   UNL     1     -50.604   6.243 -32.331  1.00  0.00     0.000 C 
BRANCH  10  11
ATOM     11  C   UNL     1     -49.761   7.295 -33.072  1.00  0.00     0.000 C 
BRANCH  11  12
ATOM     12  C   UNL     1     -48.239   7.157 -32.878  1.00  0.00     0.006 C 
BRANCH  12  13
ATOM     13  C   UNL     1     -47.853   6.711 -31.459  1.00  0.00     0.053 C 
BRANCH  13  14
ATOM     14  C   UNL     1     -47.077   7.780 -30.752  1.00  0.00     0.041 C 
ATOM     15  O   UNL     1     -46.642   7.584 -29.584  1.00  0.00    -0.550 OA
ATOM     16  O   UNL     1     -46.842   8.999 -31.376  1.00  0.00    -0.550 OA
ENDBRANCH  13  14
ENDBRANCH  12  13
ENDBRANCH  11  12
ENDBRANCH  10  11
ENDBRANCH   9  10
ENDBRANCH   8   9
ENDBRANCH   7   8
ENDBRANCH   6   7
ENDBRANCH   5   6
ENDBRANCH   4   5
ENDBRANCH   3   4
ENDBRANCH   2   3
ENDBRANCH   1   2
BRANCH   1  17
ATOM     17  C   UNL     1     -49.270  12.819 -29.462  1.00  0.00     0.000 C 
BRANCH  17  18
ATOM     18  C   UNL     1     -49.520  13.335 -30.895  1.00  0.00     0.000 C 
BRANCH  18  19
ATOM     19  C   UNL     1     -50.269  14.676 -30.911  1.00  0.00     0.000 C 
BRANCH  19  20
ATOM     20  C   UNL     1     -51.568  14.572 -31.728  1.00  0.00     0.000 C 
BRANCH  20  21
ATOM     21  C   UNL     1     -52.282  13.222 -31.549  1.00  0.00     0.000 C 
BRANCH  21  22
ATOM     22  C   UNL     1     -53.480  13.306 -30.585  1.00  0.00    -0.000 C 
BRANCH  22  23
ATOM     23  C   UNL     1     -53.073  13.148 -29.109  1.00  0.00    -0.000 C 
BRANCH  23  24
ATOM     24  C   UNL     1     -54.022  13.810 -28.092  1.00  0.00    -0.000 C 
BRANCH  24  25
ATOM     25  C   UNL     1     -54.042  15.345 -28.203  1.00  0.00    -0.000 C 
BRANCH  25  26
ATOM     26  C   UNL     1     -52.635  15.957 -28.339  1.00  0.00    -0.000 C 
BRANCH  26  27
ATOM     27  C   UNL     1     -52.563  17.486 -28.185  1.00  0.00    -0.000 C 
BRANCH  27  28
ATOM     28  C   UNL     1     -53.533  18.231 -29.119  1.00  0.00    -0.000 C 
BRANCH  28  29
ATOM     29  C   UNL     1     -53.167  18.062 -30.602  1.00  0.00    -0.003 C 
ATOM     30  C   UNL     1     -51.730  18.481 -30.913  1.00  0.00     0.004 C 
ENDBRANCH  28  29
ENDBRANCH  27  28
ENDBRANCH  26  27
ENDBRANCH  25  26
ENDBRANCH  24  25
ENDBRANCH  23  24
ENDBRANCH  22  23
ENDBRANCH  21  22
ENDBRANCH  20  21
ENDBRANCH  19  20
ENDBRANCH  18  19
ENDBRANCH  17  18
ENDBRANCH   1  17
TORSDOF 26
ENDMDL
MODEL 2
REMARK VINA RESULT:    -4.579      2.923      8.660
REMARK INTER + INTRA:         -15.667
REMARK INTER:                 -11.734
REMARK INTRA:                  -3.932
REMARK UNBOUND:                -4.127
REMARK SMILES CCCCCCCCCCCCCCCCCCCCCCCCCCCC(=O)[O-]
REMARK SMILES IDX 15 1 16 2 17 3 18 4 19 5 20 6 21 7 22 8 23 9 24 10 25 11
REMARK SMILES IDX 26 12 27 13 28 14 29 15 30 16 14 17 13 18 12 19 11 20 10 21
REMARK SMILES IDX 9 22 8 23 7 24 6 25 5 26 4 27 3 28 2 29 1 30
REMARK H PARENT
REMARK Flexibility Score: inf
ROOT
ATOM      1  C   UNL     1     -47.485  10.100 -29.966  1.00  0.00     0.000 C 
ENDROOT
BRANCH   1   2
ATOM      2  C   UNL     1     -48.761  10.133 -29.107  1.00  0.00     0.000 C 
BRANCH   2   3
ATOM      3  C   UNL     1     -49.151  11.557 -28.683  1.00  0.00     0.000 C 
BRANCH   3   4
ATOM      4  C   UNL     1     -48.801  12.613 -29.742  1.00  0.00     0.000 C 
BRANCH   4   5
ATOM      5  C   UNL     1     -49.958  12.793 -30.737  1.00  0.00     0.000 C 
BRANCH   5   6
ATOM      6  C   UNL     1     -50.905  13.943 -30.355  1.00  0.00     0.000 C 
BRANCH   6   7
ATOM      7  C   UNL     1     -52.354  13.688 -30.801  1.00  0.00     0.000 C 
BRANCH   7   8
ATOM      8  C   UNL     1     -53.118  12.743 -29.855  1.00  0.00     0.000 C 
BRANCH   8   9
ATOM      9  C   UNL     1     -53.350  13.288 -28.433  1.00  0.00     0.000 C 
BRANCH   9  10
ATOM     10  C   UNL     1     -54.125  14.616 -28.419  1.00  0.00     0.000 C 
BRANCH  10  11
ATOM     11  C   UNL     1     -53.392  15.728 -27.647  1.00  0.00     0.000 C 
BRANCH  11  12
ATOM     12  C   UNL     1     -53.556  17.140 -28.237  1.00  0.00     0.006 C 
BRANCH  12  13
ATOM     13  C   UNL     1     -52.216  17.798 -28.600  1.00  0.00     0.053 C 
BRANCH  13  14
ATOM     14  C   UNL     1     -52.032  17.863 -30.085  1.00  0.00     0.041 C 
ATOM     15  O   UNL     1     -53.026  17.764 -30.855  1.00  0.00    -0.550 OA
ATOM     16  O   UNL     1     -50.760  18.022 -30.622  1.00  0.00    -0.550 OA
ENDBRANCH  13  14
ENDBRANCH  12  13
ENDBRANCH  11  12
ENDBRANCH  10  11
ENDBRANCH   9  10
ENDBRANCH   8   9
ENDBRANCH   7   8
ENDBRANCH   6   7
ENDBRANCH   5   6
ENDBRANCH   4   5
ENDBRANCH   3   4
ENDBRANCH   2   3
ENDBRANCH   1   2
BRANCH   1  17
ATOM     17  C   UNL     1     -46.720   8.771 -29.855  1.00  0.00     0.000 C 
BRANCH  17  18
ATOM     18  C   UNL     1     -47.624   7.523 -29.942  1.00  0.00     0.000 C 
BRANCH  18  19
ATOM     19  C   UNL     1     -47.009   6.415 -30.811  1.00  0.00     0.000 C 
BRANCH  19  20
ATOM     20  C   UNL     1     -47.665   6.376 -32.200  1.00  0.00     0.000 C 
BRANCH  20  21
ATOM     21  C   UNL     1     -49.126   6.855 -32.187  1.00  0.00     0.000 C 
BRANCH  21  22
ATOM     22  C   UNL     1     -49.409   7.933 -33.250  1.00  0.00    -0.000 C 
BRANCH  22  23
ATOM     23  C   UNL     1     -50.421   8.991 -32.775  1.00  0.00    -0.000 C 
BRANCH  23  24
ATOM     24  C   UNL     1     -50.828   8.890 -31.292  1.00  0.00    -0.000 C 
BRANCH  24  25
ATOM     25  C   UNL     1     -52.191   9.541 -31.000  1.00  0.00    -0.000 C 
BRANCH  25  26
ATOM     26  C   UNL     1     -53.380   8.605 -31.292  1.00  0.00    -0.000 C 
BRANCH  26  27
ATOM     27  C   UNL     1     -53.106   7.105 -31.084  1.00  0.00    -0.000 C 
BRANCH  27  28
ATOM     28  C   UNL     1     -53.630   6.233 -32.238  1.00  0.00    -0.000 C 
BRANCH  28  29
ATOM     29  C   UNL     1     -52.671   6.206 -33.439  1.00  0.00    -0.003 C 
ATOM     30  C   UNL     1     -53.110   7.133 -34.572  1.00  0.00     0.004 C 
ENDBRANCH  28  29
ENDBRANCH  27  28
ENDBRANCH  26  27
ENDBRANCH  25  26
ENDBRANCH  24  25
ENDBRANCH  23  24
ENDBRANCH  22  23
ENDBRANCH  21  22
ENDBRANCH  20  21
ENDBRANCH  19  20
ENDBRANCH  18  19
ENDBRANCH  17  18
ENDBRANCH   1  17
TORSDOF 26
ENDMDL
MODEL 3
REMARK VINA RESULT:    -4.556      1.951      3.661
REMARK INTER + INTRA:         -15.608
REMARK INTER:                 -11.219
REMARK INTRA:                  -4.389
REMARK UNBOUND:                -4.127
REMARK SMILES CCCCCCCCCCCCCCCCCCCCCCCCCCCC(=O)[O-]
REMARK SMILES IDX 15 1 16 2 17 3 18 4 19 5 20 6 21 7 22 8 23 9 24 10 25 11
REMARK SMILES IDX 26 12 27 13 28 14 29 15 30 16 14 17 13 18 12 19 11 20 10 21
REMARK SMILES IDX 9 22 8 23 7 24 6 25 5 26 4 27 3 28 2 29 1 30
REMARK H PARENT
REMARK Flexibility Score: inf
ROOT
ATOM      1  C   UNL     1     -49.218  10.748 -28.798  1.00  0.00     0.000 C 
ENDROOT
BRANCH   1   2
ATOM      2  C   UNL     1     -48.749   9.406 -29.387  1.00  0.00     0.000 C 
BRANCH   2   3
ATOM      3  C   UNL     1     -47.284   9.443 -29.849  1.00  0.00     0.000 C 
BRANCH   3   4
ATOM      4  C   UNL     1     -46.665   8.043 -29.981  1.00  0.00     0.000 C 
BRANCH   4   5
ATOM      5  C   UNL     1     -47.757   6.964 -30.023  1.00  0.00     0.000 C 
BRANCH   5   6
ATOM      6  C   UNL     1     -47.545   5.939 -31.149  1.00  0.00     0.000 C 
BRANCH   6   7
ATOM      7  C   UNL     1     -47.671   6.564 -32.548  1.00  0.00     0.000 C 
BRANCH   7   8
ATOM      8  C   UNL     1     -48.951   7.402 -32.720  1.00  0.00     0.000 C 
BRANCH   8   9
ATOM      9  C   UNL     1     -48.728   8.846 -33.206  1.00  0.00     0.000 C 
BRANCH   9  10
ATOM     10  C   UNL     1     -49.876   9.793 -32.821  1.00  0.00     0.000 C 
BRANCH  10  11
ATOM     11  C   UNL     1     -51.008   9.082 -32.059  1.00  0.00     0.000 C 
BRANCH  11  12
ATOM     12  C   UNL     1     -52.240   8.730 -32.914  1.00  0.00     0.006 C 
BRANCH  12  13
ATOM     13  C   UNL     1     -53.255   7.850 -32.169  1.00  0.00     0.053 C 
BRANCH  13  14
ATOM     14  C   UNL     1     -52.707   7.393 -30.851  1.00  0.00     0.041 C 
ATOM     15  O   UNL     1     -52.037   6.327 -30.774  1.00  0.00    -0.550 OA
ATOM     16  O   UNL     1     -52.945   8.139 -29.702  1.00  0.00    -0.550 OA
ENDBRANCH  13  14
ENDBRANCH  12  13
ENDBRANCH  11  12
ENDBRANCH  10  11
ENDBRANCH   9  10
ENDBRANCH   8   9
ENDBRANCH   7   8
ENDBRANCH   6   7
ENDBRANCH   5   6
ENDBRANCH   4   5
ENDBRANCH   3   4
ENDBRANCH   2   3
ENDBRANCH   1   2
BRANCH   1  17
ATOM     17  C   UNL     1     -48.354  11.938 -29.249  1.00  0.00     0.000 C 
BRANCH  17  18
ATOM     18  C   UNL     1     -49.172  13.176 -29.672  1.00  0.00     0.000 C 
BRANCH  18  19
ATOM     19  C   UNL     1     -49.729  13.048 -31.098  1.00  0.00     0.000 C 
BRANCH  19  20
ATOM     20  C   UNL     1     -51.094  13.743 -31.222  1.00  0.00     0.000 C 
BRANCH  20  21
ATOM     21  C   UNL     1     -52.167  12.848 -31.863  1.00  0.00     0.000 C 
BRANCH  21  22
ATOM     22  C   UNL     1     -53.253  12.409 -30.863  1.00  0.00    -0.000 C 
BRANCH  22  23
ATOM     23  C   UNL     1     -52.674  11.708 -29.621  1.00  0.00    -0.000 C 
BRANCH  23  24
ATOM     24  C   UNL     1     -53.017  12.370 -28.274  1.00  0.00    -0.000 C 
BRANCH  24  25
ATOM     25  C   UNL     1     -54.125  13.431 -28.393  1.00  0.00    -0.000 C 
BRANCH  25  26
ATOM     26  C   UNL     1     -53.703  14.806 -27.841  1.00  0.00    -0.000 C 
BRANCH  26  27
ATOM     27  C   UNL     1     -52.525  15.477 -28.570  1.00  0.00    -0.000 C 
BRANCH  27  28
ATOM     28  C   UNL     1     -52.974  16.379 -29.733  1.00  0.00    -0.000 C 
BRANCH  28  29
ATOM     29  C   UNL     1     -52.425  17.810 -29.615  1.00  0.00    -0.003 C 
ATOM     30  C   UNL     1     -51.154  18.029 -30.435  1.00  0.00     0.004 C 
ENDBRANCH  28  29
ENDBRANCH  27  28
ENDBRANCH  26  27
ENDBRANCH  25  26
ENDBRANCH  24  25
ENDBRANCH  23  24
ENDBRANCH  22  23
ENDBRANCH  21  22
ENDBRANCH  20  21
ENDBRANCH  19  20
ENDBRANCH  18  19
ENDBRANCH  17  18
ENDBRANCH   1  17
TORSDOF 26
ENDMDL
MODEL 4
REMARK VINA RESULT:    -4.520      2.341      5.455
REMARK INTER + INTRA:         -15.518
REMARK INTER:                 -12.011
REMARK INTRA:                  -3.506
REMARK UNBOUND:                -4.127
REMARK SMILES CCCCCCCCCCCCCCCCCCCCCCCCCCCC(=O)[O-]
REMARK SMILES IDX 15 1 16 2 17 3 18 4 19 5 20 6 21 7 22 8 23 9 24 10 25 11
REMARK SMILES IDX 26 12 27 13 28 14 29 15 30 16 14 17 13 18 12 19 11 20 10 21
REMARK SMILES IDX 9 22 8 23 7 24 6 25 5 26 4 27 3 28 2 29 1 30
REMARK H PARENT
REMARK Flexibility Score: inf
ROOT
ATOM      1  C   UNL     1     -50.440   6.773 -33.365  1.00  0.00     0.000 C 
ENDROOT
BRANCH   1   2
ATOM      2  C   UNL     1     -49.538   7.996 -33.124  1.00  0.00     0.000 C 
BRANCH   2   3
ATOM      3  C   UNL     1     -48.043   7.643 -33.151  1.00  0.00     0.000 C 
BRANCH   3   4
ATOM      4  C   UNL     1     -47.764   6.196 -32.715  1.00  0.00     0.000 C 
BRANCH   4   5
ATOM      5  C   UNL     1     -46.907   6.165 -31.441  1.00  0.00     0.000 C 
BRANCH   5   6
ATOM      6  C   UNL     1     -47.538   6.942 -30.273  1.00  0.00     0.000 C 
BRANCH   6   7
ATOM      7  C   UNL     1     -46.548   7.913 -29.607  1.00  0.00     0.000 C 
BRANCH   7   8
ATOM      8  C   UNL     1     -46.747   9.374 -30.051  1.00  0.00     0.000 C 
BRANCH   8   9
ATOM      9  C   UNL     1     -48.212   9.803 -30.255  1.00  0.00     0.000 C 
BRANCH   9  10
ATOM     10  C   UNL     1     -48.837  10.422 -28.993  1.00  0.00     0.000 C 
BRANCH  10  11
ATOM     11  C   UNL     1     -48.715  11.955 -28.956  1.00  0.00     0.000 C 
BRANCH  11  12
ATOM     12  C   UNL     1     -49.188  12.672 -30.234  1.00  0.00     0.006 C 
BRANCH  12  13
ATOM     13  C   UNL     1     -50.193  13.800 -29.953  1.00  0.00     0.053 C 
BRANCH  13  14
ATOM     14  C   UNL     1     -50.808  14.303 -31.223  1.00  0.00     0.041 C 
ATOM     15  O   UNL     1     -51.936  13.879 -31.596  1.00  0.00    -0.550 OA
ATOM     16  O   UNL     1     -50.131  15.233 -32.003  1.00  0.00    -0.550 OA
ENDBRANCH  13  14
ENDBRANCH  12  13
ENDBRANCH  11  12
ENDBRANCH  10  11
ENDBRANCH   9  10
ENDBRANCH   8   9
ENDBRANCH   7   8
ENDBRANCH   6   7
ENDBRANCH   5   6
ENDBRANCH   4   5
ENDBRANCH   3   4
ENDBRANCH   2   3
ENDBRANCH   1   2
BRANCH   1  17
ATOM     17  C   UNL     1     -51.916   7.038 -33.023  1.00  0.00     0.000 C 
BRANCH  17  18
ATOM     18  C   UNL     1     -52.264   6.795 -31.539  1.00  0.00     0.000 C 
BRANCH  18  19
ATOM     19  C   UNL     1     -51.912   8.000 -30.652  1.00  0.00     0.000 C 
BRANCH  19  20
ATOM     20  C   UNL     1     -52.529   9.293 -31.209  1.00  0.00     0.000 C 
BRANCH  20  21
ATOM     21  C   UNL     1     -52.105  10.545 -30.424  1.00  0.00     0.000 C 
BRANCH  21  22
ATOM     22  C   UNL     1     -53.303  11.309 -29.828  1.00  0.00    -0.000 C 
BRANCH  22  23
ATOM     23  C   UNL     1     -52.931  12.121 -28.575  1.00  0.00    -0.000 C 
BRANCH  23  24
ATOM     24  C   UNL     1     -53.952  13.199 -28.165  1.00  0.00    -0.000 C 
BRANCH  24  25
ATOM     25  C   UNL     1     -53.528  14.616 -28.587  1.00  0.00    -0.000 C 
BRANCH  25  26
ATOM     26  C   UNL     1     -53.387  15.582 -27.396  1.00  0.00    -0.000 C 
BRANCH  26  27
ATOM     27  C   UNL     1     -53.503  17.078 -27.740  1.00  0.00    -0.000 C 
BRANCH  27  28
ATOM     28  C   UNL     1     -53.237  17.374 -29.226  1.00  0.00    -0.000 C 
BRANCH  28  29
ATOM     29  C   UNL     1     -51.825  17.929 -29.473  1.00  0.00    -0.003 C 
ATOM     30  C   UNL     1     -51.574  18.287 -30.938  1.00  0.00     0.004 C 
ENDBRANCH  28  29
ENDBRANCH  27  28
ENDBRANCH  26  27
ENDBRANCH  25  26
ENDBRANCH  24  25
ENDBRANCH  23  24
ENDBRANCH  22  23
ENDBRANCH  21  22
ENDBRANCH  20  21
ENDBRANCH  19  20
ENDBRANCH  18  19
ENDBRANCH  17  18
ENDBRANCH   1  17
TORSDOF 26
ENDMDL
MODEL 5
REMARK VINA RESULT:    -4.487      1.134      2.199
REMARK INTER + INTRA:         -15.434
REMARK INTER:                 -11.637
REMARK INTRA:                  -3.797
REMARK UNBOUND:                -4.127
REMARK SMILES CCCCCCCCCCCCCCCCCCCCCCCCCCCC(=O)[O-]
REMARK SMILES IDX 15 1 16 2 17 3 18 4 19 5 20 6 21 7 22 8 23 9 24 10 25 11
REMARK SMILES IDX 26 12 27 13 28 14 29 15 30 16 14 17 13 18 12 19 11 20 10 21
REMARK SMILES IDX 9 22 8 23 7 24 6 25 5 26 4 27 3 28 2 29 1 30
REMARK H PARENT
REMARK Flexibility Score: inf
ROOT
ATOM      1  C   UNL     1     -50.220  10.572 -31.225  1.00  0.00     0.000 C 
ENDROOT
BRANCH   1   2
ATOM      2  C   UNL     1     -51.266  10.023 -32.212  1.00  0.00     0.000 C 
BRANCH   2   3
ATOM      3  C   UNL     1     -52.616   9.730 -31.540  1.00  0.00     0.000 C 
BRANCH   3   4
ATOM      4  C   UNL     1     -52.655   8.355 -30.854  1.00  0.00     0.000 C 
BRANCH   4   5
ATOM      5  C   UNL     1     -53.946   7.603 -31.212  1.00  0.00     0.000 C 
BRANCH   5   6
ATOM      6  C   UNL     1     -53.696   6.364 -32.088  1.00  0.00     0.000 C 
BRANCH   6   7
ATOM      7  C   UNL     1     -53.810   6.671 -33.591  1.00  0.00     0.000 C 
BRANCH   7   8
ATOM      8  C   UNL     1     -52.460   7.038 -34.234  1.00  0.00     0.000 C 
BRANCH   8   9
ATOM      9  C   UNL     1     -51.258   6.201 -33.757  1.00  0.00     0.000 C 
BRANCH   9  10
ATOM     10  C   UNL     1     -50.087   7.064 -33.257  1.00  0.00     0.000 C 
BRANCH  10  11
ATOM     11  C   UNL     1     -49.592   6.647 -31.861  1.00  0.00     0.000 C 
BRANCH  11  12
ATOM     12  C   UNL     1     -48.113   6.221 -31.801  1.00  0.00     0.006 C 
BRANCH  12  13
ATOM     13  C   UNL     1     -47.399   6.710 -30.531  1.00  0.00     0.053 C 
BRANCH  13  14
ATOM     14  C   UNL     1     -47.144   8.186 -30.591  1.00  0.00     0.041 C 
ATOM     15  O   UNL     1     -47.247   8.893 -29.552  1.00  0.00    -0.550 OA
ATOM     16  O   UNL     1     -46.802   8.784 -31.798  1.00  0.00    -0.550 OA
ENDBRANCH  13  14
ENDBRANCH  12  13
ENDBRANCH  11  12
ENDBRANCH  10  11
ENDBRANCH   9  10
ENDBRANCH   8   9
ENDBRANCH   7   8
ENDBRANCH   6   7
ENDBRANCH   5   6
ENDBRANCH   4   5
ENDBRANCH   3   4
ENDBRANCH   2   3
ENDBRANCH   1   2
BRANCH   1  17
ATOM     17  C   UNL     1     -50.534  12.001 -30.750  1.00  0.00     0.000 C 
BRANCH  17  18
ATOM     18  C   UNL     1     -50.798  12.108 -29.233  1.00  0.00     0.000 C 
BRANCH  18  19
ATOM     19  C   UNL     1     -52.120  11.441 -28.823  1.00  0.00     0.000 C 
BRANCH  19  20
ATOM     20  C   UNL     1     -53.157  12.491 -28.393  1.00  0.00     0.000 C 
BRANCH  20  21
ATOM     21  C   UNL     1     -53.801  13.220 -29.584  1.00  0.00     0.000 C 
BRANCH  21  22
ATOM     22  C   UNL     1     -53.874  14.745 -29.380  1.00  0.00    -0.000 C 
BRANCH  22  23
ATOM     23  C   UNL     1     -52.967  15.240 -28.240  1.00  0.00    -0.000 C 
BRANCH  23  24
ATOM     24  C   UNL     1     -53.471  16.493 -27.498  1.00  0.00    -0.000 C 
BRANCH  24  25
ATOM     25  C   UNL     1     -52.811  17.790 -27.998  1.00  0.00    -0.000 C 
BRANCH  25  26
ATOM     26  C   UNL     1     -53.639  18.508 -29.080  1.00  0.00    -0.000 C 
BRANCH  26  27
ATOM     27  C   UNL     1     -53.099  18.385 -30.516  1.00  0.00    -0.000 C 
BRANCH  27  28
ATOM     28  C   UNL     1     -51.679  17.795 -30.575  1.00  0.00    -0.000 C 
BRANCH  28  29
ATOM     29  C   UNL     1     -51.580  16.595 -31.529  1.00  0.00    -0.003 C 
ATOM     30  C   UNL     1     -50.408  15.669 -31.201  1.00  0.00     0.004 C 
ENDBRANCH  28  29
ENDBRANCH  27  28
ENDBRANCH  26  27
ENDBRANCH  25  26
ENDBRANCH  24  25
ENDBRANCH  23  24
ENDBRANCH  22  23
ENDBRANCH  21  22
ENDBRANCH  20  21
ENDBRANCH  19  20
ENDBRANCH  18  19
ENDBRANCH  17  18
ENDBRANCH   1  17
TORSDOF 26
ENDMDL
MODEL 6
REMARK VINA RESULT:    -4.483      1.177      7.455
REMARK INTER + INTRA:         -15.423
REMARK INTER:                 -11.560
REMARK INTRA:                  -3.863
REMARK UNBOUND:                -4.127
REMARK SMILES CCCCCCCCCCCCCCCCCCCCCCCCCCCC(=O)[O-]
REMARK SMILES IDX 15 1 16 2 17 3 18 4 19 5 20 6 21 7 22 8 23 9 24 10 25 11
REMARK SMILES IDX 26 12 27 13 28 14 29 15 30 16 14 17 13 18 12 19 11 20 10 21
REMARK SMILES IDX 9 22 8 23 7 24 6 25 5 26 4 27 3 28 2 29 1 30
REMARK H PARENT
REMARK Flexibility Score: inf
ROOT
ATOM      1  C   UNL     1     -53.114  15.585 -27.763  1.00  0.00     0.000 C 
ENDROOT
BRANCH   1   2
ATOM      2  C   UNL     1     -53.890  16.828 -28.232  1.00  0.00     0.000 C 
BRANCH   2   3
ATOM      3  C   UNL     1     -52.966  17.954 -28.717  1.00  0.00     0.000 C 
BRANCH   3   4
ATOM      4  C   UNL     1     -52.695  17.895 -30.228  1.00  0.00     0.000 C 
BRANCH   4   5
ATOM      5  C   UNL     1     -51.351  17.210 -30.516  1.00  0.00     0.000 C 
BRANCH   5   6
ATOM      6  C   UNL     1     -51.396  16.292 -31.749  1.00  0.00     0.000 C 
BRANCH   6   7
ATOM      7  C   UNL     1     -50.335  15.179 -31.695  1.00  0.00     0.000 C 
BRANCH   7   8
ATOM      8  C   UNL     1     -50.366  14.380 -30.379  1.00  0.00     0.000 C 
BRANCH   8   9
ATOM      9  C   UNL     1     -49.239  13.345 -30.215  1.00  0.00     0.000 C 
BRANCH   9  10
ATOM     10  C   UNL     1     -49.466  12.393 -29.028  1.00  0.00     0.000 C 
BRANCH  10  11
ATOM     11  C   UNL     1     -48.528  11.174 -29.052  1.00  0.00     0.000 C 
BRANCH  11  12
ATOM     12  C   UNL     1     -48.886  10.102 -30.098  1.00  0.00     0.006 C 
BRANCH  12  13
ATOM     13  C   UNL     1     -48.440   8.691 -29.688  1.00  0.00     0.053 C 
BRANCH  13  14
ATOM     14  C   UNL     1     -46.996   8.464 -30.019  1.00  0.00     0.041 C 
ATOM     15  O   UNL     1     -46.476   9.031 -31.018  1.00  0.00    -0.550 OA
ATOM     16  O   UNL     1     -46.226   7.618 -29.231  1.00  0.00    -0.550 OA
ENDBRANCH  13  14
ENDBRANCH  12  13
ENDBRANCH  11  12
ENDBRANCH  10  11
ENDBRANCH   9  10
ENDBRANCH   8   9
ENDBRANCH   7   8
ENDBRANCH   6   7
ENDBRANCH   5   6
ENDBRANCH   4   5
ENDBRANCH   3   4
ENDBRANCH   2   3
ENDBRANCH   1   2
BRANCH   1  17
ATOM     17  C   UNL     1     -53.666  14.275 -28.350  1.00  0.00     0.000 C 
BRANCH  17  18
ATOM     18  C   UNL     1     -53.944  14.341 -29.867  1.00  0.00     0.000 C 
BRANCH  18  19
ATOM     19  C   UNL     1     -53.886  12.956 -30.531  1.00  0.00     0.000 C 
BRANCH  19  20
ATOM     20  C   UNL     1     -53.098  11.961 -29.664  1.00  0.00     0.000 C 
BRANCH  20  21
ATOM     21  C   UNL     1     -52.415  10.858 -30.489  1.00  0.00     0.000 C 
BRANCH  21  22
ATOM     22  C   UNL     1     -53.343   9.660 -30.765  1.00  0.00    -0.000 C 
BRANCH  22  23
ATOM     23  C   UNL     1     -52.840   8.354 -30.126  1.00  0.00    -0.000 C 
BRANCH  23  24
ATOM     24  C   UNL     1     -53.468   7.064 -30.688  1.00  0.00    -0.000 C 
BRANCH  24  25
ATOM     25  C   UNL     1     -52.442   6.151 -31.380  1.00  0.00    -0.000 C 
BRANCH  25  26
ATOM     26  C   UNL     1     -52.620   6.095 -32.909  1.00  0.00    -0.000 C 
BRANCH  26  27
ATOM     27  C   UNL     1     -51.434   6.629 -33.732  1.00  0.00    -0.000 C 
BRANCH  27  28
ATOM     28  C   UNL     1     -50.493   7.530 -32.914  1.00  0.00    -0.000 C 
BRANCH  28  29
ATOM     29  C   UNL     1     -49.069   6.959 -32.816  1.00  0.00    -0.003 C 
ATOM     30  C   UNL     1     -48.036   7.805 -33.561  1.00  0.00     0.004 C 
ENDBRANCH  28  29
ENDBRANCH  27  28
ENDBRANCH  26  27
ENDBRANCH  25  26
ENDBRANCH  24  25
ENDBRANCH  23  24
ENDBRANCH  22  23
ENDBRANCH  21  22
ENDBRANCH  20  21
ENDBRANCH  19  20
ENDBRANCH  18  19
ENDBRANCH  17  18
ENDBRANCH   1  17
TORSDOF 26
ENDMDL
MODEL 7
REMARK VINA RESULT:    -4.466      2.244      9.135
REMARK INTER + INTRA:         -15.381
REMARK INTER:                 -12.325
REMARK INTRA:                  -3.056
REMARK UNBOUND:                -4.127
REMARK SMILES CCCCCCCCCCCCCCCCCCCCCCCCCCCC(=O)[O-]
REMARK SMILES IDX 15 1 16 2 17 3 18 4 19 5 20 6 21 7 22 8 23 9 24 10 25 11
REMARK SMILES IDX 26 12 27 13 28 14 29 15 30 16 14 17 13 18 12 19 11 20 10 21
REMARK SMILES IDX 9 22 8 23 7 24 6 25 5 26 4 27 3 28 2 29 1 30
REMARK H PARENT
REMARK Flexibility Score: inf
ROOT
ATOM      1  C   UNL     1     -49.353  13.384 -30.710  1.00  0.00     0.000 C 
ENDROOT
BRANCH   1   2
ATOM      2  C   UNL     1     -49.386  14.895 -31.003  1.00  0.00     0.000 C 
BRANCH   2   3
ATOM      3  C   UNL     1     -50.576  15.300 -31.886  1.00  0.00     0.000 C 
BRANCH   3   4
ATOM      4  C   UNL     1     -51.647  16.090 -31.118  1.00  0.00     0.000 C 
BRANCH   4   5
ATOM      5  C   UNL     1     -51.120  17.475 -30.715  1.00  0.00     0.000 C 
BRANCH   5   6
ATOM      6  C   UNL     1     -52.161  18.591 -30.902  1.00  0.00     0.000 C 
BRANCH   6   7
ATOM      7  C   UNL     1     -53.560  18.182 -30.412  1.00  0.00     0.000 C 
BRANCH   7   8
ATOM      8  C   UNL     1     -53.877  18.698 -28.996  1.00  0.00     0.000 C 
BRANCH   8   9
ATOM      9  C   UNL     1     -53.275  17.868 -27.847  1.00  0.00     0.000 C 
BRANCH   9  10
ATOM     10  C   UNL     1     -53.978  16.513 -27.654  1.00  0.00     0.000 C 
BRANCH  10  11
ATOM     11  C   UNL     1     -53.050  15.315 -27.923  1.00  0.00     0.000 C 
BRANCH  11  12
ATOM     12  C   UNL     1     -53.775  14.009 -28.298  1.00  0.00     0.006 C 
BRANCH  12  13
ATOM     13  C   UNL     1     -54.044  13.884 -29.805  1.00  0.00     0.053 C 
BRANCH  13  14
ATOM     14  C   UNL     1     -53.444  12.626 -30.357  1.00  0.00     0.041 C 
ATOM     15  O   UNL     1     -53.571  11.535 -29.737  1.00  0.00    -0.550 OA
ATOM     16  O   UNL     1     -52.735  12.659 -31.551  1.00  0.00    -0.550 OA
ENDBRANCH  13  14
ENDBRANCH  12  13
ENDBRANCH  11  12
ENDBRANCH  10  11
ENDBRANCH   9  10
ENDBRANCH   8   9
ENDBRANCH   7   8
ENDBRANCH   6   7
ENDBRANCH   5   6
ENDBRANCH   4   5
ENDBRANCH   3   4
ENDBRANCH   2   3
ENDBRANCH   1   2
BRANCH   1  17
ATOM     17  C   UNL     1     -49.922  13.027 -29.327  1.00  0.00     0.000 C 
BRANCH  17  18
ATOM     18  C   UNL     1     -50.047  11.508 -29.078  1.00  0.00     0.000 C 
BRANCH  18  19
ATOM     19  C   UNL     1     -48.682  10.840 -28.849  1.00  0.00     0.000 C 
BRANCH  19  20
ATOM     20  C   UNL     1     -48.618   9.467 -29.536  1.00  0.00     0.000 C 
BRANCH  20  21
ATOM     21  C   UNL     1     -47.188   8.911 -29.633  1.00  0.00     0.000 C 
BRANCH  21  22
ATOM     22  C   UNL     1     -46.658   8.879 -31.078  1.00  0.00    -0.000 C 
BRANCH  22  23
ATOM     23  C   UNL     1     -47.415   7.881 -31.972  1.00  0.00    -0.000 C 
BRANCH  23  24
ATOM     24  C   UNL     1     -47.522   6.450 -31.413  1.00  0.00    -0.000 C 
BRANCH  24  25
ATOM     25  C   UNL     1     -48.947   5.876 -31.507  1.00  0.00    -0.000 C 
BRANCH  25  26
ATOM     26  C   UNL     1     -49.984   6.913 -31.976  1.00  0.00    -0.000 C 
BRANCH  26  27
ATOM     27  C   UNL     1     -50.379   6.828 -33.461  1.00  0.00    -0.000 C 
BRANCH  27  28
ATOM     28  C   UNL     1     -51.790   6.254 -33.675  1.00  0.00    -0.000 C 
BRANCH  28  29
ATOM     29  C   UNL     1     -52.831   7.345 -33.970  1.00  0.00    -0.003 C 
ATOM     30  C   UNL     1     -53.433   7.953 -32.702  1.00  0.00     0.004 C 
ENDBRANCH  28  29
ENDBRANCH  27  28
ENDBRANCH  26  27
ENDBRANCH  25  26
ENDBRANCH  24  25
ENDBRANCH  23  24
ENDBRANCH  22  23
ENDBRANCH  21  22
ENDBRANCH  20  21
ENDBRANCH  19  20
ENDBRANCH  18  19
ENDBRANCH  17  18
ENDBRANCH   1  17
TORSDOF 26
ENDMDL
MODEL 8
REMARK VINA RESULT:    -4.435      2.132      5.264
REMARK INTER + INTRA:         -15.303
REMARK INTER:                 -11.181
REMARK INTRA:                  -4.122
REMARK UNBOUND:                -4.127
REMARK SMILES CCCCCCCCCCCCCCCCCCCCCCCCCCCC(=O)[O-]
REMARK SMILES IDX 15 1 16 2 17 3 18 4 19 5 20 6 21 7 22 8 23 9 24 10 25 11
REMARK SMILES IDX 26 12 27 13 28 14 29 15 30 16 14 17 13 18 12 19 11 20 10 21
REMARK SMILES IDX 9 22 8 23 7 24 6 25 5 26 4 27 3 28 2 29 1 30
REMARK H PARENT
REMARK Flexibility Score: inf
ROOT
ATOM      1  C   UNL     1     -50.107  15.234 -31.750  1.00  0.00     0.000 C 
ENDROOT
BRANCH   1   2
ATOM      2  C   UNL     1     -50.415  13.869 -31.110  1.00  0.00     0.000 C 
BRANCH   2   3
ATOM      3  C   UNL     1     -50.444  13.929 -29.575  1.00  0.00     0.000 C 
BRANCH   3   4
ATOM      4  C   UNL     1     -49.943  12.634 -28.918  1.00  0.00     0.000 C 
BRANCH   4   5
ATOM      5  C   UNL     1     -48.919  11.926 -29.818  1.00  0.00     0.000 C 
BRANCH   5   6
ATOM      6  C   UNL     1     -48.134  10.826 -29.084  1.00  0.00     0.000 C 
BRANCH   6   7
ATOM      7  C   UNL     1     -48.354   9.433 -29.699  1.00  0.00     0.000 C 
BRANCH   7   8
ATOM      8  C   UNL     1     -47.112   8.896 -30.433  1.00  0.00     0.000 C 
BRANCH   8   9
ATOM      9  C   UNL     1     -47.326   8.563 -31.922  1.00  0.00     0.000 C 
BRANCH   9  10
ATOM     10  C   UNL     1     -47.225   7.058 -32.220  1.00  0.00     0.000 C 
BRANCH  10  11
ATOM     11  C   UNL     1     -48.332   6.560 -33.166  1.00  0.00     0.000 C 
BRANCH  11  12
ATOM     12  C   UNL     1     -49.766   6.730 -32.629  1.00  0.00     0.006 C 
BRANCH  12  13
ATOM     13  C   UNL     1     -50.829   6.700 -33.737  1.00  0.00     0.053 C 
BRANCH  13  14
ATOM     14  C   UNL     1     -52.188   6.417 -33.173  1.00  0.00     0.041 C 
ATOM     15  O   UNL     1     -53.173   6.241 -33.940  1.00  0.00    -0.550 OA
ATOM     16  O   UNL     1     -52.371   6.356 -31.796  1.00  0.00    -0.550 OA
ENDBRANCH  13  14
ENDBRANCH  12  13
ENDBRANCH  11  12
ENDBRANCH  10  11
ENDBRANCH   9  10
ENDBRANCH   8   9
ENDBRANCH   7   8
ENDBRANCH   6   7
ENDBRANCH   5   6
ENDBRANCH   4   5
ENDBRANCH   3   4
ENDBRANCH   2   3
ENDBRANCH   1   2
BRANCH   1  17
ATOM     17  C   UNL     1     -50.903  16.388 -31.118  1.00  0.00     0.000 C 
BRANCH  17  18
ATOM     18  C   UNL     1     -52.411  16.359 -31.449  1.00  0.00     0.000 C 
BRANCH  18  19
ATOM     19  C   UNL     1     -53.170  17.535 -30.816  1.00  0.00     0.000 C 
BRANCH  19  20
ATOM     20  C   UNL     1     -52.559  17.918 -29.458  1.00  0.00     0.000 C 
BRANCH  20  21
ATOM     21  C   UNL     1     -53.621  18.228 -28.390  1.00  0.00     0.000 C 
BRANCH  21  22
ATOM     22  C   UNL     1     -53.648  17.185 -27.257  1.00  0.00    -0.000 C 
BRANCH  22  23
ATOM     23  C   UNL     1     -53.017  15.842 -27.665  1.00  0.00    -0.000 C 
BRANCH  23  24
ATOM     24  C   UNL     1     -54.015  14.693 -27.901  1.00  0.00    -0.000 C 
BRANCH  24  25
ATOM     25  C   UNL     1     -53.821  14.001 -29.261  1.00  0.00    -0.000 C 
BRANCH  25  26
ATOM     26  C   UNL     1     -54.063  12.481 -29.204  1.00  0.00    -0.000 C 
BRANCH  26  27
ATOM     27  C   UNL     1     -53.357  11.658 -30.296  1.00  0.00    -0.000 C 
BRANCH  27  28
ATOM     28  C   UNL     1     -52.546  10.480 -29.729  1.00  0.00    -0.000 C 
BRANCH  28  29
ATOM     29  C   UNL     1     -51.896   9.628 -30.832  1.00  0.00    -0.003 C 
ATOM     30  C   UNL     1     -51.467  10.453 -32.045  1.00  0.00     0.004 C 
ENDBRANCH  28  29
ENDBRANCH  27  28
ENDBRANCH  26  27
ENDBRANCH  25  26
ENDBRANCH  24  25
ENDBRANCH  23  24
ENDBRANCH  22  23
ENDBRANCH  21  22
ENDBRANCH  20  21
ENDBRANCH  19  20
ENDBRANCH  18  19
ENDBRANCH  17  18
ENDBRANCH   1  17
TORSDOF 26
ENDMDL
MODEL 9
REMARK VINA RESULT:    -4.433      2.864      9.005
REMARK INTER + INTRA:         -15.298
REMARK INTER:                 -11.795
REMARK INTRA:                  -3.503
REMARK UNBOUND:                -4.127
REMARK SMILES CCCCCCCCCCCCCCCCCCCCCCCCCCCC(=O)[O-]
REMARK SMILES IDX 15 1 16 2 17 3 18 4 19 5 20 6 21 7 22 8 23 9 24 10 25 11
REMARK SMILES IDX 26 12 27 13 28 14 29 15 30 16 14 17 13 18 12 19 11 20 10 21
REMARK SMILES IDX 9 22 8 23 7 24 6 25 5 26 4 27 3 28 2 29 1 30
REMARK H PARENT
REMARK Flexibility Score: inf
ROOT
ATOM      1  C   UNL     1     -49.909  10.709 -30.306  1.00  0.00     0.000 C 
ENDROOT
BRANCH   1   2
ATOM      2  C   UNL     1     -49.668  11.626 -29.094  1.00  0.00     0.000 C 
BRANCH   2   3
ATOM      3  C   UNL     1     -49.930  13.106 -29.411  1.00  0.00     0.000 C 
BRANCH   3   4
ATOM      4  C   UNL     1     -49.879  13.412 -30.916  1.00  0.00     0.000 C 
BRANCH   4   5
ATOM      5  C   UNL     1     -51.185  14.071 -31.383  1.00  0.00     0.000 C 
BRANCH   5   6
ATOM      6  C   UNL     1     -52.283  13.052 -31.729  1.00  0.00     0.000 C 
BRANCH   6   7
ATOM      7  C   UNL     1     -53.444  13.068 -30.721  1.00  0.00     0.000 C 
BRANCH   7   8
ATOM      8  C   UNL     1     -53.588  14.416 -29.990  1.00  0.00     0.000 C 
BRANCH   8   9
ATOM      9  C   UNL     1     -53.747  14.318 -28.461  1.00  0.00     0.000 C 
BRANCH   9  10
ATOM     10  C   UNL     1     -52.999  15.431 -27.708  1.00  0.00     0.000 C 
BRANCH  10  11
ATOM     11  C   UNL     1     -53.781  16.756 -27.669  1.00  0.00     0.000 C 
BRANCH  11  12
ATOM     12  C   UNL     1     -53.017  17.974 -28.220  1.00  0.00     0.006 C 
BRANCH  12  13
ATOM     13  C   UNL     1     -53.369  18.291 -29.682  1.00  0.00     0.053 C 
BRANCH  13  14
ATOM     14  C   UNL     1     -52.139  18.335 -30.536  1.00  0.00     0.041 C 
ATOM     15  O   UNL     1     -51.229  17.474 -30.386  1.00  0.00    -0.550 OA
ATOM     16  O   UNL     1     -51.990  19.332 -31.491  1.00  0.00    -0.550 OA
ENDBRANCH  13  14
ENDBRANCH  12  13
ENDBRANCH  11  12
ENDBRANCH  10  11
ENDBRANCH   9  10
ENDBRANCH   8   9
ENDBRANCH   7   8
ENDBRANCH   6   7
ENDBRANCH   5   6
ENDBRANCH   4   5
ENDBRANCH   3   4
ENDBRANCH   2   3
ENDBRANCH   1   2
BRANCH   1  17
ATOM     17  C   UNL     1     -50.968   9.626 -30.039  1.00  0.00     0.000 C 
BRANCH  17  18
ATOM     18  C   UNL     1     -51.939   9.400 -31.218  1.00  0.00     0.000 C 
BRANCH  18  19
ATOM     19  C   UNL     1     -53.399   9.275 -30.756  1.00  0.00     0.000 C 
BRANCH  19  20
ATOM     20  C   UNL     1     -53.706   7.845 -30.281  1.00  0.00     0.000 C 
BRANCH  20  21
ATOM     21  C   UNL     1     -53.138   6.768 -31.219  1.00  0.00     0.000 C 
BRANCH  21  22
ATOM     22  C   UNL     1     -53.957   6.615 -32.515  1.00  0.00    -0.000 C 
BRANCH  22  23
ATOM     23  C   UNL     1     -53.084   6.280 -33.738  1.00  0.00    -0.000 C 
BRANCH  23  24
ATOM     24  C   UNL     1     -51.824   7.150 -33.904  1.00  0.00    -0.000 C 
BRANCH  24  25
ATOM     25  C   UNL     1     -50.598   6.573 -33.176  1.00  0.00    -0.000 C 
BRANCH  25  26
ATOM     26  C   UNL     1     -49.365   7.493 -33.252  1.00  0.00    -0.000 C 
BRANCH  26  27
ATOM     27  C   UNL     1     -48.004   6.788 -33.105  1.00  0.00    -0.000 C 
BRANCH  27  28
ATOM     28  C   UNL     1     -47.314   7.087 -31.763  1.00  0.00    -0.000 C 
BRANCH  28  29
ATOM     29  C   UNL     1     -47.118   8.593 -31.525  1.00  0.00    -0.003 C 
ATOM     30  C   UNL     1     -46.637   8.914 -30.110  1.00  0.00     0.004 C 
ENDBRANCH  28  29
ENDBRANCH  27  28
ENDBRANCH  26  27
ENDBRANCH  25  26
ENDBRANCH  24  25
ENDBRANCH  23  24
ENDBRANCH  22  23
ENDBRANCH  21  22
ENDBRANCH  20  21
ENDBRANCH  19  20
ENDBRANCH  18  19
ENDBRANCH  17  18
ENDBRANCH   1  17
TORSDOF 26
ENDMDL
