MODEL 1
REMARK VINA RESULT:    -3.846      0.000      0.000
REMARK INTER + INTRA:          -7.344
REMARK INTER:                  -6.095
REMARK INTRA:                  -1.249
REMARK UNBOUND:                -1.249
REMARK SMILES CCCCCCCCCCCC(=O)[O-]
REMARK SMILES IDX 7 1 8 2 9 3 10 4 11 5 12 6 13 7 14 8 6 9 5 10 4 11 3 12 2 13
REMARK SMILES IDX 1 14
REMARK H PARENT
REMARK Flexibility Score: inf
ROOT
ATOM      1  C   UNL     1       1.121  -3.154  -5.704  1.00  0.00     0.000 C 
ENDROOT
BRANCH   1   2
ATOM      2  C   UNL     1       1.975  -2.044  -6.335  1.00  0.00     0.000 C 
BRANCH   2   3
ATOM      3  C   UNL     1       1.123  -0.808  -6.653  1.00  0.00     0.000 C 
BRANCH   3   4
ATOM      4  C   UNL     1       0.082  -1.122  -7.739  1.00  0.00     0.006 C 
BRANCH   4   5
ATOM      5  C   UNL     1       0.718  -1.270  -9.127  1.00  0.00     0.053 C 
BRANCH   5   6
ATOM      6  C   UNL     1       1.496  -0.049  -9.515  1.00  0.00     0.041 C 
ATOM      7  O   UNL     1       2.731  -0.131  -9.743  1.00  0.00    -0.550 OA
ATOM      8  O   UNL     1       0.862   1.185  -9.593  1.00  0.00    -0.550 OA
ENDBRANCH   5   6
ENDBRANCH   4   5
ENDBRANCH   3   4
ENDBRANCH   2   3
ENDBRANCH   1   2
BRANCH   1   9
ATOM      9  C   UNL     1       1.333  -4.526  -6.369  1.00  0.00     0.000 C 
BRANCH   9  10
ATOM     10  C   UNL     1       2.523  -4.606  -7.341  1.00  0.00    -0.000 C 
BRANCH  10  11
ATOM     11  C   UNL     1       2.089  -4.768  -8.808  1.00  0.00    -0.000 C 
BRANCH  11  12
ATOM     12  C   UNL     1       0.578  -5.009  -8.953  1.00  0.00    -0.000 C 
BRANCH  12  13
ATOM     13  C   UNL     1       0.247  -6.448  -9.381  1.00  0.00    -0.003 C 
ATOM     14  C   UNL     1      -1.061  -6.920  -8.751  1.00  0.00     0.004 C 
ENDBRANCH  12  13
ENDBRANCH  11  12
ENDBRANCH  10  11
ENDBRANCH   9  10
ENDBRANCH   1   9
TORSDOF 10
ENDMDL
MODEL 2
REMARK VINA RESULT:    -3.836      3.038      5.200
REMARK INTER + INTRA:          -7.328
REMARK INTER:                  -5.913
REMARK INTRA:                  -1.415
REMARK UNBOUND:                -1.249
REMARK SMILES CCCCCCCCCCCC(=O)[O-]
REMARK SMILES IDX 7 1 8 2 9 3 10 4 11 5 12 6 13 7 14 8 6 9 5 10 4 11 3 12 2 13
REMARK SMILES IDX 1 14
REMARK H PARENT
REMARK Flexibility Score: inf
ROOT
ATOM      1  C   UNL     1       1.388  -2.739  -5.886  1.00  0.00     0.000 C 
ENDROOT
BRANCH   1   2
ATOM      2  C   UNL     1       2.630  -3.497  -6.379  1.00  0.00     0.000 C 
BRANCH   2   3
ATOM      3  C   UNL     1       2.236  -4.812  -7.065  1.00  0.00     0.000 C 
BRANCH   3   4
ATOM      4  C   UNL     1       0.755  -4.799  -7.470  1.00  0.00     0.006 C 
BRANCH   4   5
ATOM      5  C   UNL     1       0.561  -5.034  -8.973  1.00  0.00     0.053 C 
BRANCH   5   6
ATOM      6  C   UNL     1       0.618  -6.491  -9.320  1.00  0.00     0.041 C 
ATOM      7  O   UNL     1      -0.403  -7.214  -9.182  1.00  0.00    -0.550 OA
ATOM      8  O   UNL     1       1.807  -7.055  -9.764  1.00  0.00    -0.550 OA
ENDBRANCH   5   6
ENDBRANCH   4   5
ENDBRANCH   3   4
ENDBRANCH   2   3
ENDBRANCH   1   2
BRANCH   1   9
ATOM      9  C   UNL     1       1.317  -1.295  -6.413  1.00  0.00     0.000 C 
BRANCH   9  10
ATOM     10  C   UNL     1       0.228  -1.036  -7.469  1.00  0.00    -0.000 C 
BRANCH  10  11
ATOM     11  C   UNL     1       0.795  -0.511  -8.799  1.00  0.00    -0.000 C 
BRANCH  11  12
ATOM     12  C   UNL     1       1.754  -1.510  -9.466  1.00  0.00    -0.000 C 
BRANCH  12  13
ATOM     13  C   UNL     1       3.124  -0.891  -9.787  1.00  0.00    -0.003 C 
ATOM     14  C   UNL     1       4.223  -1.522  -8.936  1.00  0.00     0.004 C 
ENDBRANCH  12  13
ENDBRANCH  11  12
ENDBRANCH  10  11
ENDBRANCH   9  10
ENDBRANCH   1   9
TORSDOF 10
ENDMDL
MODEL 3
REMARK VINA RESULT:    -3.800      1.744      2.804
REMARK INTER + INTRA:          -7.271
REMARK INTER:                  -6.103
REMARK INTRA:                  -1.168
REMARK UNBOUND:                -1.249
REMARK SMILES CCCCCCCCCCCC(=O)[O-]
REMARK SMILES IDX 7 1 8 2 9 3 10 4 11 5 12 6 13 7 14 8 6 9 5 10 4 11 3 12 2 13
REMARK SMILES IDX 1 14
REMARK H PARENT
REMARK Flexibility Score: inf
ROOT
ATOM      1  C   UNL     1       1.070  -0.742  -6.634  1.00  0.00     0.000 C 
ENDROOT
BRANCH   1   2
ATOM      2  C   UNL     1       0.171  -1.206  -7.789  1.00  0.00     0.000 C 
BRANCH   2   3
ATOM      3  C   UNL     1       0.655  -0.633  -9.127  1.00  0.00     0.000 C 
BRANCH   3   4
ATOM      4  C   UNL     1       1.797  -1.481  -9.708  1.00  0.00     0.006 C 
BRANCH   4   5
ATOM      5  C   UNL     1       3.130  -0.724  -9.728  1.00  0.00     0.053 C 
BRANCH   5   6
ATOM      6  C   UNL     1       4.244  -1.544  -9.151  1.00  0.00     0.041 C 
ATOM      7  O   UNL     1       4.008  -2.684  -8.673  1.00  0.00    -0.550 OA
ATOM      8  O   UNL     1       5.537  -1.036  -9.113  1.00  0.00    -0.550 OA
ENDBRANCH   5   6
ENDBRANCH   4   5
ENDBRANCH   3   4
ENDBRANCH   2   3
ENDBRANCH   1   2
BRANCH   1   9
ATOM      9  C   UNL     1       1.899  -1.884  -6.021  1.00  0.00     0.000 C 
BRANCH   9  10
ATOM     10  C   UNL     1       1.139  -3.207  -5.813  1.00  0.00    -0.000 C 
BRANCH  10  11
ATOM     11  C   UNL     1       2.006  -4.446  -6.094  1.00  0.00    -0.000 C 
BRANCH  11  12
ATOM     12  C   UNL     1       1.912  -4.912  -7.556  1.00  0.00    -0.000 C 
BRANCH  12  13
ATOM     13  C   UNL     1       0.474  -4.874  -8.098  1.00  0.00    -0.003 C 
ATOM     14  C   UNL     1       0.186  -6.091  -8.972  1.00  0.00     0.004 C 
ENDBRANCH  12  13
ENDBRANCH  11  12
ENDBRANCH  10  11
ENDBRANCH   9  10
ENDBRANCH   1   9
TORSDOF 10
ENDMDL
MODEL 4
REMARK VINA RESULT:    -3.739      2.775      3.942
REMARK INTER + INTRA:          -7.173
REMARK INTER:                  -6.294
REMARK INTRA:                  -0.879
REMARK UNBOUND:                -1.249
REMARK SMILES CCCCCCCCCCCC(=O)[O-]
REMARK SMILES IDX 7 1 8 2 9 3 10 4 11 5 12 6 13 7 14 8 6 9 5 10 4 11 3 12 2 13
REMARK SMILES IDX 1 14
REMARK H PARENT
REMARK Flexibility Score: inf
ROOT
ATOM      1  C   UNL     1       0.315  -0.790  -7.080  1.00  0.00     0.000 C 
ENDROOT
BRANCH   1   2
ATOM      2  C   UNL     1       0.585  -1.341  -8.488  1.00  0.00     0.000 C 
BRANCH   2   3
ATOM      3  C   UNL     1      -0.719  -1.475  -9.285  1.00  0.00     0.000 C 
BRANCH   3   4
ATOM      4  C   UNL     1      -1.732  -0.397  -8.870  1.00  0.00     0.006 C 
BRANCH   4   5
ATOM      5  C   UNL     1      -3.151  -0.715  -9.358  1.00  0.00     0.053 C 
BRANCH   5   6
ATOM      6  C   UNL     1      -4.114   0.382  -9.016  1.00  0.00     0.041 C 
ATOM      7  O   UNL     1      -5.350   0.147  -8.972  1.00  0.00    -0.550 OA
ATOM      8  O   UNL     1      -3.649   1.669  -8.779  1.00  0.00    -0.550 OA
ENDBRANCH   5   6
ENDBRANCH   4   5
ENDBRANCH   3   4
ENDBRANCH   2   3
ENDBRANCH   1   2
BRANCH   1   9
ATOM      9  C   UNL     1       1.453  -1.091  -6.088  1.00  0.00     0.000 C 
BRANCH   9  10
ATOM     10  C   UNL     1       2.358  -2.277  -6.470  1.00  0.00    -0.000 C 
BRANCH  10  11
ATOM     11  C   UNL     1       1.910  -3.602  -5.831  1.00  0.00    -0.000 C 
BRANCH  11  12
ATOM     12  C   UNL     1       2.500  -4.830  -6.543  1.00  0.00    -0.000 C 
BRANCH  12  13
ATOM     13  C   UNL     1       2.088  -4.911  -8.021  1.00  0.00    -0.003 C 
ATOM     14  C   UNL     1       0.573  -5.047  -8.161  1.00  0.00     0.004 C 
ENDBRANCH  12  13
ENDBRANCH  11  12
ENDBRANCH  10  11
ENDBRANCH   9  10
ENDBRANCH   1   9
TORSDOF 10
ENDMDL
MODEL 5
REMARK VINA RESULT:    -3.709      3.662      5.571
REMARK INTER + INTRA:          -7.126
REMARK INTER:                  -6.024
REMARK INTRA:                  -1.102
REMARK UNBOUND:                -1.249
REMARK SMILES CCCCCCCCCCCC(=O)[O-]
REMARK SMILES IDX 7 1 8 2 9 3 10 4 11 5 12 6 13 7 14 8 6 9 5 10 4 11 3 12 2 13
REMARK SMILES IDX 1 14
REMARK H PARENT
REMARK Flexibility Score: inf
ROOT
ATOM      1  C   UNL     1       1.714  -4.450  -6.128  1.00  0.00     0.000 C 
ENDROOT
BRANCH   1   2
ATOM      2  C   UNL     1       0.786  -4.982  -7.230  1.00  0.00     0.000 C 
BRANCH   2   3
ATOM      3  C   UNL     1       1.569  -5.273  -8.516  1.00  0.00     0.000 C 
BRANCH   3   4
ATOM      4  C   UNL     1       0.782  -6.214  -9.440  1.00  0.00     0.006 C 
BRANCH   4   5
ATOM      5  C   UNL     1      -0.730  -6.140  -9.193  1.00  0.00     0.053 C 
BRANCH   5   6
ATOM      6  C   UNL     1      -1.340  -7.503  -9.063  1.00  0.00     0.041 C 
ATOM      7  O   UNL     1      -2.511  -7.633  -8.622  1.00  0.00    -0.550 OA
ATOM      8  O   UNL     1      -0.600  -8.631  -9.397  1.00  0.00    -0.550 OA
ENDBRANCH   5   6
ENDBRANCH   4   5
ENDBRANCH   3   4
ENDBRANCH   2   3
ENDBRANCH   1   2
BRANCH   1   9
ATOM      9  C   UNL     1       1.386  -3.005  -5.712  1.00  0.00     0.000 C 
BRANCH   9  10
ATOM     10  C   UNL     1       2.218  -1.916  -6.415  1.00  0.00    -0.000 C 
BRANCH  10  11
ATOM     11  C   UNL     1       1.596  -1.451  -7.743  1.00  0.00    -0.000 C 
BRANCH  11  12
ATOM     12  C   UNL     1       0.169  -0.905  -7.567  1.00  0.00    -0.000 C 
BRANCH  12  13
ATOM     13  C   UNL     1      -0.648  -0.958  -8.868  1.00  0.00    -0.003 C 
ATOM     14  C   UNL     1      -0.547  -2.334  -9.522  1.00  0.00     0.004 C 
ENDBRANCH  12  13
ENDBRANCH  11  12
ENDBRANCH  10  11
ENDBRANCH   9  10
ENDBRANCH   1   9
TORSDOF 10
ENDMDL
MODEL 6
REMARK VINA RESULT:    -3.700      1.235      2.552
REMARK INTER + INTRA:          -7.111
REMARK INTER:                  -6.273
REMARK INTRA:                  -0.839
REMARK UNBOUND:                -1.249
REMARK SMILES CCCCCCCCCCCC(=O)[O-]
REMARK SMILES IDX 7 1 8 2 9 3 10 4 11 5 12 6 13 7 14 8 6 9 5 10 4 11 3 12 2 13
REMARK SMILES IDX 1 14
REMARK H PARENT
REMARK Flexibility Score: inf
ROOT
ATOM      1  C   UNL     1       2.062  -4.874  -7.526  1.00  0.00     0.000 C 
ENDROOT
BRANCH   1   2
ATOM      2  C   UNL     1       2.261  -4.465  -6.059  1.00  0.00     0.000 C 
BRANCH   2   3
ATOM      3  C   UNL     1       1.322  -3.313  -5.677  1.00  0.00     0.000 C 
BRANCH   3   4
ATOM      4  C   UNL     1       1.877  -1.966  -6.165  1.00  0.00     0.006 C 
BRANCH   4   5
ATOM      5  C   UNL     1       0.798  -1.101  -6.828  1.00  0.00     0.053 C 
BRANCH   5   6
ATOM      6  C   UNL     1       0.948  -1.073  -8.320  1.00  0.00     0.041 C 
ATOM      7  O   UNL     1      -0.033  -1.350  -9.059  1.00  0.00    -0.550 OA
ATOM      8  O   UNL     1       2.178  -0.774  -8.891  1.00  0.00    -0.550 OA
ENDBRANCH   5   6
ENDBRANCH   4   5
ENDBRANCH   3   4
ENDBRANCH   2   3
ENDBRANCH   1   2
BRANCH   1   9
ATOM      9  C   UNL     1       0.582  -4.908  -7.946  1.00  0.00     0.000 C 
BRANCH   9  10
ATOM     10  C   UNL     1       0.329  -4.817  -9.462  1.00  0.00    -0.000 C 
BRANCH  10  11
ATOM     11  C   UNL     1      -0.568  -5.949  -9.989  1.00  0.00    -0.000 C 
BRANCH  11  12
ATOM     12  C   UNL     1      -0.742  -7.087  -8.969  1.00  0.00    -0.000 C 
BRANCH  12  13
ATOM     13  C   UNL     1      -1.933  -8.000  -9.300  1.00  0.00    -0.003 C 
ATOM     14  C   UNL     1      -3.215  -7.486  -8.649  1.00  0.00     0.004 C 
ENDBRANCH  12  13
ENDBRANCH  11  12
ENDBRANCH  10  11
ENDBRANCH   9  10
ENDBRANCH   1   9
TORSDOF 10
ENDMDL
MODEL 7
REMARK VINA RESULT:    -3.666     16.677     18.657
REMARK INTER + INTRA:          -7.057
REMARK INTER:                  -6.470
REMARK INTRA:                  -0.587
REMARK UNBOUND:                -1.249
REMARK SMILES CCCCCCCCCCCC(=O)[O-]
REMARK SMILES IDX 7 1 8 2 9 3 10 4 11 5 12 6 13 7 14 8 6 9 5 10 4 11 3 12 2 13
REMARK SMILES IDX 1 14
REMARK H PARENT
REMARK Flexibility Score: inf
ROOT
ATOM      1  C   UNL     1       7.655   3.316   4.892  1.00  0.00     0.000 C 
ENDROOT
BRANCH   1   2
ATOM      2  C   UNL     1       7.496   2.626   6.255  1.00  0.00     0.000 C 
BRANCH   2   3
ATOM      3  C   UNL     1       8.863   2.364   6.901  1.00  0.00     0.000 C 
BRANCH   3   4
ATOM      4  C   UNL     1       8.728   2.181   8.420  1.00  0.00     0.006 C 
BRANCH   4   5
ATOM      5  C   UNL     1       8.701   0.703   8.827  1.00  0.00     0.053 C 
BRANCH   5   6
ATOM      6  C   UNL     1       7.347   0.284   9.314  1.00  0.00     0.041 C 
ATOM      7  O   UNL     1       6.422   1.131   9.418  1.00  0.00    -0.550 OA
ATOM      8  O   UNL     1       7.117  -1.035   9.684  1.00  0.00    -0.550 OA
ENDBRANCH   5   6
ENDBRANCH   4   5
ENDBRANCH   3   4
ENDBRANCH   2   3
ENDBRANCH   1   2
BRANCH   1   9
ATOM      9  C   UNL     1       9.082   3.212   4.327  1.00  0.00     0.000 C 
BRANCH   9  10
ATOM     10  C   UNL     1       9.718   4.548   3.901  1.00  0.00    -0.000 C 
BRANCH  10  11
ATOM     11  C   UNL     1       9.021   5.769   4.526  1.00  0.00    -0.000 C 
BRANCH  11  12
ATOM     12  C   UNL     1       9.525   7.099   3.943  1.00  0.00    -0.000 C 
BRANCH  12  13
ATOM     13  C   UNL     1       8.831   8.319   4.567  1.00  0.00    -0.003 C 
ATOM     14  C   UNL     1       9.737   9.001   5.589  1.00  0.00     0.004 C 
ENDBRANCH  12  13
ENDBRANCH  11  12
ENDBRANCH  10  11
ENDBRANCH   9  10
ENDBRANCH   1   9
TORSDOF 10
ENDMDL
MODEL 8
REMARK VINA RESULT:    -3.662      2.638      4.252
REMARK INTER + INTRA:          -7.051
REMARK INTER:                  -5.751
REMARK INTRA:                  -1.301
REMARK UNBOUND:                -1.249
REMARK SMILES CCCCCCCCCCCC(=O)[O-]
REMARK SMILES IDX 7 1 8 2 9 3 10 4 11 5 12 6 13 7 14 8 6 9 5 10 4 11 3 12 2 13
REMARK SMILES IDX 1 14
REMARK H PARENT
REMARK Flexibility Score: inf
ROOT
ATOM      1  C   UNL     1       0.666  -1.250  -9.280  1.00  0.00     0.000 C 
ENDROOT
BRANCH   1   2
ATOM      2  C   UNL     1       2.061  -0.684  -9.587  1.00  0.00     0.000 C 
BRANCH   2   3
ATOM      3  C   UNL     1       3.083  -1.812  -9.773  1.00  0.00     0.000 C 
BRANCH   3   4
ATOM      4  C   UNL     1       4.376  -1.518  -8.997  1.00  0.00     0.006 C 
BRANCH   4   5
ATOM      5  C   UNL     1       5.553  -1.199  -9.928  1.00  0.00     0.053 C 
BRANCH   5   6
ATOM      6  C   UNL     1       6.303   0.018  -9.478  1.00  0.00     0.041 C 
ATOM      7  O   UNL     1       5.869   1.167  -9.752  1.00  0.00    -0.550 OA
ATOM      8  O   UNL     1       7.499  -0.119  -8.784  1.00  0.00    -0.550 OA
ENDBRANCH   5   6
ENDBRANCH   4   5
ENDBRANCH   3   4
ENDBRANCH   2   3
ENDBRANCH   1   2
BRANCH   1   9
ATOM      9  C   UNL     1       0.135  -0.824  -7.900  1.00  0.00     0.000 C 
BRANCH   9  10
ATOM     10  C   UNL     1       1.054  -1.162  -6.711  1.00  0.00    -0.000 C 
BRANCH  10  11
ATOM     11  C   UNL     1       1.075  -2.664  -6.379  1.00  0.00    -0.000 C 
BRANCH  11  12
ATOM     12  C   UNL     1       2.503  -3.224  -6.267  1.00  0.00    -0.000 C 
BRANCH  12  13
ATOM     13  C   UNL     1       2.638  -4.626  -6.880  1.00  0.00    -0.003 C 
ATOM     14  C   UNL     1       1.540  -4.882  -7.909  1.00  0.00     0.004 C 
ENDBRANCH  12  13
ENDBRANCH  11  12
ENDBRANCH  10  11
ENDBRANCH   9  10
ENDBRANCH   1   9
TORSDOF 10
ENDMDL
MODEL 9
REMARK VINA RESULT:    -3.625      2.980      4.826
REMARK INTER + INTRA:          -6.994
REMARK INTER:                  -5.467
REMARK INTRA:                  -1.527
REMARK UNBOUND:                -1.249
REMARK SMILES CCCCCCCCCCCC(=O)[O-]
REMARK SMILES IDX 7 1 8 2 9 3 10 4 11 5 12 6 13 7 14 8 6 9 5 10 4 11 3 12 2 13
REMARK SMILES IDX 1 14
REMARK H PARENT
REMARK Flexibility Score: inf
ROOT
ATOM      1  C   UNL     1       0.802  -4.126  -6.371  1.00  0.00     0.000 C 
ENDROOT
BRANCH   1   2
ATOM      2  C   UNL     1       0.748  -5.135  -7.528  1.00  0.00     0.000 C 
BRANCH   2   3
ATOM      3  C   UNL     1       0.354  -4.446  -8.841  1.00  0.00     0.000 C 
BRANCH   3   4
ATOM      4  C   UNL     1       1.246  -4.917  -9.999  1.00  0.00     0.006 C 
BRANCH   4   5
ATOM      5  C   UNL     1       2.727  -4.600  -9.758  1.00  0.00     0.053 C 
BRANCH   5   6
ATOM      6  C   UNL     1       3.577  -5.833  -9.823  1.00  0.00     0.041 C 
ATOM      7  O   UNL     1       3.040  -6.972  -9.843  1.00  0.00    -0.550 OA
ATOM      8  O   UNL     1       4.962  -5.725  -9.829  1.00  0.00    -0.550 OA
ENDBRANCH   5   6
ENDBRANCH   4   5
ENDBRANCH   3   4
ENDBRANCH   2   3
ENDBRANCH   1   2
BRANCH   1   9
ATOM      9  C   UNL     1       2.189  -3.479  -6.201  1.00  0.00     0.000 C 
BRANCH   9  10
ATOM     10  C   UNL     1       2.244  -1.965  -6.476  1.00  0.00    -0.000 C 
BRANCH  10  11
ATOM     11  C   UNL     1       2.755  -1.631  -7.888  1.00  0.00    -0.000 C 
BRANCH  11  12
ATOM     12  C   UNL     1       1.656  -1.047  -8.791  1.00  0.00    -0.000 C 
BRANCH  12  13
ATOM     13  C   UNL     1       0.355  -0.757  -8.027  1.00  0.00    -0.003 C 
ATOM     14  C   UNL     1      -0.863  -0.939  -8.929  1.00  0.00     0.004 C 
ENDBRANCH  12  13
ENDBRANCH  11  12
ENDBRANCH  10  11
ENDBRANCH   9  10
ENDBRANCH   1   9
TORSDOF 10
ENDMDL
