MODEL 1
REMARK VINA RESULT:    35.126      0.000      0.000
REMARK INTER + INTRA:          42.108
REMARK INTER:                  42.313
REMARK INTRA:                  -0.205
REMARK UNBOUND:                -0.205
REMARK SMILES Oc1cc(O)c2cc(O)c(-c3ccc(O)c(O)c3)[o+]c2c1.[Cl-]
REMARK SMILES IDX 10 1 19 2 20 3 21 4 2 5 3 6 4 7 6 8 7 9 8 10 11 11 12 12
REMARK SMILES IDX 13 13 14 14 18 15 16 16 15 17 17 19 9 21 1 23 5 25
REMARK H PARENT 15 18 17 20 9 22 1 24 5 26
REMARK Flexibility Score: inf
ROOT
ATOM      1  C   UNL     1      -2.872  16.518 -19.376  1.00  0.00     0.402 A 
ATOM      2  O   UNL     1      -2.510  15.816 -20.447  1.00  0.00    -0.202 OA
ATOM      3  C   UNL     1      -1.273  15.373 -20.645  1.00  0.00     0.368 A 
ATOM      4  C   UNL     1      -0.990  14.640 -21.801  1.00  0.00     0.162 A 
ATOM      5  C   UNL     1       0.299  14.159 -22.033  1.00  0.00     0.128 A 
ATOM      6  C   UNL     1       1.315  14.412 -21.104  1.00  0.00     0.093 A 
ATOM      7  C   UNL     1       1.057  15.143 -19.938  1.00  0.00     0.136 A 
ATOM      8  C   UNL     1      -0.252  15.636 -19.699  1.00  0.00     0.125 A 
ATOM      9  C   UNL     1      -0.599  16.388 -18.566  1.00  0.00     0.078 A 
ATOM     10  C   UNL     1      -1.911  16.845 -18.402  1.00  0.00     0.223 A 
ENDROOT
BRANCH   1  11
ATOM     11  C   UNL     1      -4.284  16.947 -19.266  1.00  0.00     0.087 A 
ATOM     12  C   UNL     1      -5.101  16.514 -18.206  1.00  0.00     0.022 A 
ATOM     13  C   UNL     1      -6.437  16.914 -18.136  1.00  0.00     0.051 A 
ATOM     14  C   UNL     1      -6.982  17.741 -19.126  1.00  0.00     0.157 A 
ATOM     15  C   UNL     1      -4.841  17.759 -20.268  1.00  0.00     0.068 A 
ATOM     16  C   UNL     1      -6.180  18.162 -20.199  1.00  0.00     0.158 A 
BRANCH  14  17
ATOM     17  O   UNL     1      -8.316  18.140 -19.052  1.00  0.00    -0.504 OA
ATOM     18  H   UNL     1      -8.768  18.317 -18.162  1.00  0.00     0.293 HD
ENDBRANCH  14  17
BRANCH  16  19
ATOM     19  O   UNL     1      -6.693  18.978 -21.207  1.00  0.00    -0.504 OA
ATOM     20  H   UNL     1      -6.963  18.610 -22.112  1.00  0.00     0.293 HD
ENDBRANCH  16  19
ENDBRANCH   1  11
BRANCH  10  21
ATOM     21  O   UNL     1      -2.244  17.636 -17.301  1.00  0.00    -0.500 OA
ATOM     22  H   UNL     1      -1.734  17.575 -16.429  1.00  0.00     0.294 HD
ENDBRANCH  10  21
BRANCH   5  23
ATOM     23  O   UNL     1       0.561  13.431 -23.191  1.00  0.00    -0.507 OA
ATOM     24  H   UNL     1       0.810  12.449 -23.155  1.00  0.00     0.293 HD
ENDBRANCH   5  23
BRANCH   7  25
ATOM     25  O   UNL     1       2.124  15.349 -19.058  1.00  0.00    -0.507 OA
ATOM     26  H   UNL     1       2.815  16.079 -19.160  1.00  0.00     0.293 HD
ENDBRANCH   7  25
TORSDOF 6
ENDMDL
MODEL 2
REMARK VINA RESULT:    37.748      7.711     12.395
REMARK INTER + INTRA:          45.266
REMARK INTER:                  45.613
REMARK INTRA:                  -0.346
REMARK UNBOUND:                -0.205
REMARK SMILES Oc1cc(O)c2cc(O)c(-c3ccc(O)c(O)c3)[o+]c2c1.[Cl-]
REMARK SMILES IDX 10 1 19 2 20 3 21 4 2 5 3 6 4 7 6 8 7 9 8 10 11 11 12 12
REMARK SMILES IDX 13 13 14 14 18 15 16 16 15 17 17 19 9 21 1 23 5 25
REMARK H PARENT 15 18 17 20 9 22 1 24 5 26
REMARK Flexibility Score: inf
ROOT
ATOM      1  C   UNL     1      -9.663  23.500 -22.502  1.00  0.00     0.402 A 
ATOM      2  O   UNL     1      -9.111  24.422 -23.287  1.00  0.00    -0.202 OA
ATOM      3  C   UNL     1      -9.755  25.507 -23.702  1.00  0.00     0.368 A 
ATOM      4  C   UNL     1      -9.089  26.422 -24.523  1.00  0.00     0.162 A 
ATOM      5  C   UNL     1      -9.740  27.571 -24.972  1.00  0.00     0.128 A 
ATOM      6  C   UNL     1     -11.068  27.811 -24.598  1.00  0.00     0.093 A 
ATOM      7  C   UNL     1     -11.757  26.911 -23.776  1.00  0.00     0.136 A 
ATOM      8  C   UNL     1     -11.099  25.740 -23.319  1.00  0.00     0.125 A 
ATOM      9  C   UNL     1     -11.715  24.776 -22.504  1.00  0.00     0.078 A 
ATOM     10  C   UNL     1     -11.003  23.642 -22.098  1.00  0.00     0.223 A 
ENDROOT
BRANCH   1  11
ATOM     11  C   UNL     1      -8.837  22.339 -22.099  1.00  0.00     0.087 A 
ATOM     12  C   UNL     1      -8.764  21.181 -22.891  1.00  0.00     0.022 A 
ATOM     13  C   UNL     1      -7.996  20.089 -22.478  1.00  0.00     0.051 A 
ATOM     14  C   UNL     1      -7.300  20.133 -21.264  1.00  0.00     0.157 A 
ATOM     15  C   UNL     1      -8.154  22.369 -20.871  1.00  0.00     0.068 A 
ATOM     16  C   UNL     1      -7.383  21.278 -20.455  1.00  0.00     0.158 A 
BRANCH  14  17
ATOM     17  O   UNL     1      -6.534  19.043 -20.856  1.00  0.00    -0.504 OA
ATOM     18  H   UNL     1      -6.881  18.373 -20.178  1.00  0.00     0.293 HD
ENDBRANCH  14  17
BRANCH  16  19
ATOM     19  O   UNL     1      -6.710  21.351 -19.236  1.00  0.00    -0.504 OA
ATOM     20  H   UNL     1      -7.031  21.944 -18.479  1.00  0.00     0.293 HD
ENDBRANCH  16  19
ENDBRANCH   1  11
BRANCH  10  21
ATOM     21  O   UNL     1     -11.630  22.661 -21.330  1.00  0.00    -0.500 OA
ATOM     22  H   UNL     1     -11.210  22.299 -20.483  1.00  0.00     0.294 HD
ENDBRANCH  10  21
BRANCH   5  23
ATOM     23  O   UNL     1      -9.060  28.470 -25.789  1.00  0.00    -0.507 OA
ATOM     24  H   UNL     1      -8.503  29.223 -25.401  1.00  0.00     0.293 HD
ENDBRANCH   5  23
BRANCH   7  25
ATOM     25  O   UNL     1     -13.078  27.225 -23.444  1.00  0.00    -0.507 OA
ATOM     26  H   UNL     1     -13.871  27.066 -24.049  1.00  0.00     0.293 HD
ENDBRANCH   7  25
TORSDOF 6
ENDMDL
