MODEL 1
REMARK VINA RESULT:    -4.421      0.000      0.000
REMARK INTER + INTRA:         -10.329
REMARK INTER:                  -8.299
REMARK INTRA:                  -2.030
REMARK UNBOUND:                -2.030
REMARK SMILES CCCCCCCCC=CCCCCCCCC(=O)[O-]
REMARK SMILES IDX 10 1 9 2 11 3 12 4 13 5 14 6 15 7 16 8 17 9 18 10 19 11
REMARK SMILES IDX 20 12 8 13 7 14 6 15 5 16 4 17 3 18 2 19 1 20
REMARK H PARENT
REMARK Flexibility Score: inf
ROOT
ATOM      1  C   UNL     1       5.138  -0.313 400.094  1.00  0.00    -0.031 C 
ATOM      2  C   UNL     1       3.917  -0.863 400.181  1.00  0.00    -0.031 C 
ENDROOT
BRANCH   1   3
ATOM      3  C   UNL     1       5.371   1.142 400.397  1.00  0.00     0.027 C 
BRANCH   3   4
ATOM      4  C   UNL     1       4.046   1.896 400.568  1.00  0.00     0.004 C 
BRANCH   4   5
ATOM      5  C   UNL     1       4.037   2.700 401.877  1.00  0.00     0.000 C 
BRANCH   5   6
ATOM      6  C   UNL     1       5.131   2.245 402.858  1.00  0.00     0.000 C 
BRANCH   6   7
ATOM      7  C   UNL     1       4.576   1.351 403.981  1.00  0.00     0.000 C 
BRANCH   7   8
ATOM      8  C   UNL     1       4.985  -0.122 403.820  1.00  0.00     0.006 C 
BRANCH   8   9
ATOM      9  C   UNL     1       3.875  -1.095 404.243  1.00  0.00     0.053 C 
BRANCH   9  10
ATOM     10  C   UNL     1       4.229  -1.762 405.534  1.00  0.00     0.041 C 
ATOM     11  O   UNL     1       5.400  -2.184 405.729  1.00  0.00    -0.550 OA
ATOM     12  O   UNL     1       3.257  -1.954 406.508  1.00  0.00    -0.550 OA
ENDBRANCH   9  10
ENDBRANCH   8   9
ENDBRANCH   7   8
ENDBRANCH   6   7
ENDBRANCH   5   6
ENDBRANCH   4   5
ENDBRANCH   3   4
ENDBRANCH   1   3
BRANCH   2  13
ATOM     13  C   UNL     1       3.681  -2.316 399.866  1.00  0.00     0.027 C 
BRANCH  13  14
ATOM     14  C   UNL     1       3.396  -3.155 401.124  1.00  0.00     0.004 C 
BRANCH  14  15
ATOM     15  C   UNL     1       4.545  -4.092 401.538  1.00  0.00     0.000 C 
BRANCH  15  16
ATOM     16  C   UNL     1       4.416  -4.587 402.990  1.00  0.00     0.000 C 
BRANCH  16  17
ATOM     17  C   UNL     1       4.491  -6.119 403.100  1.00  0.00    -0.000 C 
BRANCH  17  18
ATOM     18  C   UNL     1       3.787  -6.831 401.933  1.00  0.00    -0.000 C 
BRANCH  18  19
ATOM     19  C   UNL     1       4.617  -7.993 401.365  1.00  0.00    -0.003 C 
ATOM     20  C   UNL     1       6.121  -7.788 401.537  1.00  0.00     0.004 C 
ENDBRANCH  18  19
ENDBRANCH  17  18
ENDBRANCH  16  17
ENDBRANCH  15  16
ENDBRANCH  14  15
ENDBRANCH  13  14
ENDBRANCH   2  13
TORSDOF 15
ENDMDL
MODEL 2
REMARK VINA RESULT:    -4.272      3.549      5.209
REMARK INTER + INTRA:         -10.049
REMARK INTER:                  -7.367
REMARK INTRA:                  -2.682
REMARK UNBOUND:                -2.030
REMARK SMILES CCCCCCCCC=CCCCCCCCC(=O)[O-]
REMARK SMILES IDX 10 1 9 2 11 3 12 4 13 5 14 6 15 7 16 8 17 9 18 10 19 11
REMARK SMILES IDX 20 12 8 13 7 14 6 15 5 16 4 17 3 18 2 19 1 20
REMARK H PARENT
REMARK Flexibility Score: inf
ROOT
ATOM      1  C   UNL     1       3.592   0.016 400.759  1.00  0.00    -0.031 C 
ATOM      2  C   UNL     1       3.803  -0.865 399.769  1.00  0.00    -0.031 C 
ENDROOT
BRANCH   1   3
ATOM      3  C   UNL     1       3.694   1.499 400.528  1.00  0.00     0.027 C 
BRANCH   3   4
ATOM      4  C   UNL     1       4.216   2.223 401.776  1.00  0.00     0.004 C 
BRANCH   4   5
ATOM      5  C   UNL     1       5.329   1.411 402.455  1.00  0.00     0.000 C 
BRANCH   5   6
ATOM      6  C   UNL     1       6.638   1.414 401.648  1.00  0.00     0.000 C 
BRANCH   6   7
ATOM      7  C   UNL     1       7.205  -0.003 401.445  1.00  0.00     0.000 C 
BRANCH   7   8
ATOM      8  C   UNL     1       7.429  -0.343 399.962  1.00  0.00     0.006 C 
BRANCH   8   9
ATOM      9  C   UNL     1       7.100   0.830 399.029  1.00  0.00     0.053 C 
BRANCH   9  10
ATOM     10  C   UNL     1       8.320   1.252 398.272  1.00  0.00     0.041 C 
ATOM     11  O   UNL     1       8.255   2.196 397.440  1.00  0.00    -0.550 OA
ATOM     12  O   UNL     1       9.520   0.577 398.455  1.00  0.00    -0.550 OA
ENDBRANCH   9  10
ENDBRANCH   8   9
ENDBRANCH   7   8
ENDBRANCH   6   7
ENDBRANCH   5   6
ENDBRANCH   4   5
ENDBRANCH   3   4
ENDBRANCH   1   3
BRANCH   2  13
ATOM     13  C   UNL     1       3.713  -2.350 400.001  1.00  0.00     0.027 C 
BRANCH  13  14
ATOM     14  C   UNL     1       5.020  -2.942 400.556  1.00  0.00     0.004 C 
BRANCH  14  15
ATOM     15  C   UNL     1       4.821  -4.086 401.568  1.00  0.00     0.000 C 
BRANCH  15  16
ATOM     16  C   UNL     1       4.181  -3.610 402.885  1.00  0.00     0.000 C 
BRANCH  16  17
ATOM     17  C   UNL     1       4.878  -2.367 403.463  1.00  0.00    -0.000 C 
BRANCH  17  18
ATOM     18  C   UNL     1       3.900  -1.421 404.181  1.00  0.00    -0.000 C 
BRANCH  18  19
ATOM     19  C   UNL     1       2.872  -2.177 405.039  1.00  0.00    -0.003 C 
ATOM     20  C   UNL     1       3.341  -2.391 406.477  1.00  0.00     0.004 C 
ENDBRANCH  18  19
ENDBRANCH  17  18
ENDBRANCH  16  17
ENDBRANCH  15  16
ENDBRANCH  14  15
ENDBRANCH  13  14
ENDBRANCH   2  13
TORSDOF 15
ENDMDL
MODEL 3
REMARK VINA RESULT:    -4.260      1.785      5.239
REMARK INTER + INTRA:         -10.026
REMARK INTER:                  -7.117
REMARK INTRA:                  -2.909
REMARK UNBOUND:                -2.030
REMARK SMILES CCCCCCCCC=CCCCCCCCC(=O)[O-]
REMARK SMILES IDX 10 1 9 2 11 3 12 4 13 5 14 6 15 7 16 8 17 9 18 10 19 11
REMARK SMILES IDX 20 12 8 13 7 14 6 15 5 16 4 17 3 18 2 19 1 20
REMARK H PARENT
REMARK Flexibility Score: inf
ROOT
ATOM      1  C   UNL     1       3.773  -1.023 400.789  1.00  0.00    -0.031 C 
ATOM      2  C   UNL     1       3.644   0.064 400.013  1.00  0.00    -0.031 C 
ENDROOT
BRANCH   1   3
ATOM      3  C   UNL     1       3.768  -2.411 400.208  1.00  0.00     0.027 C 
BRANCH   3   4
ATOM      4  C   UNL     1       4.806  -3.307 400.896  1.00  0.00     0.004 C 
BRANCH   4   5
ATOM      5  C   UNL     1       4.124  -4.477 401.623  1.00  0.00     0.000 C 
BRANCH   5   6
ATOM      6  C   UNL     1       3.982  -4.231 403.134  1.00  0.00     0.000 C 
BRANCH   6   7
ATOM      7  C   UNL     1       4.874  -3.079 403.628  1.00  0.00     0.000 C 
BRANCH   7   8
ATOM      8  C   UNL     1       4.073  -1.970 404.329  1.00  0.00     0.006 C 
BRANCH   8   9
ATOM      9  C   UNL     1       2.872  -2.512 405.116  1.00  0.00     0.053 C 
BRANCH   9  10
ATOM     10  C   UNL     1       3.281  -2.873 406.510  1.00  0.00     0.041 C 
ATOM     11  O   UNL     1       3.204  -2.020 407.434  1.00  0.00    -0.550 OA
ATOM     12  O   UNL     1       3.786  -4.138 406.781  1.00  0.00    -0.550 OA
ENDBRANCH   9  10
ENDBRANCH   8   9
ENDBRANCH   7   8
ENDBRANCH   6   7
ENDBRANCH   5   6
ENDBRANCH   4   5
ENDBRANCH   3   4
ENDBRANCH   1   3
BRANCH   2  13
ATOM     13  C   UNL     1       3.637   1.453 400.593  1.00  0.00     0.027 C 
BRANCH  13  14
ATOM     14  C   UNL     1       3.739   1.452 402.129  1.00  0.00     0.004 C 
BRANCH  14  15
ATOM     15  C   UNL     1       5.077   1.981 402.677  1.00  0.00     0.000 C 
BRANCH  15  16
ATOM     16  C   UNL     1       6.094   0.858 402.949  1.00  0.00     0.000 C 
BRANCH  16  17
ATOM     17  C   UNL     1       7.228   0.826 401.910  1.00  0.00    -0.000 C 
BRANCH  17  18
ATOM     18  C   UNL     1       7.436  -0.572 401.305  1.00  0.00    -0.000 C 
BRANCH  18  19
ATOM     19  C   UNL     1       7.278  -0.582 399.776  1.00  0.00    -0.003 C 
ATOM     20  C   UNL     1       7.108   0.818 399.188  1.00  0.00     0.004 C 
ENDBRANCH  18  19
ENDBRANCH  17  18
ENDBRANCH  16  17
ENDBRANCH  15  16
ENDBRANCH  14  15
ENDBRANCH  13  14
ENDBRANCH   2  13
TORSDOF 15
ENDMDL
MODEL 4
REMARK VINA RESULT:    -4.243      2.620      4.419
REMARK INTER + INTRA:          -9.994
REMARK INTER:                  -6.948
REMARK INTRA:                  -3.046
REMARK UNBOUND:                -2.030
REMARK SMILES CCCCCCCCC=CCCCCCCCC(=O)[O-]
REMARK SMILES IDX 10 1 9 2 11 3 12 4 13 5 14 6 15 7 16 8 17 9 18 10 19 11
REMARK SMILES IDX 20 12 8 13 7 14 6 15 5 16 4 17 3 18 2 19 1 20
REMARK H PARENT
REMARK Flexibility Score: inf
ROOT
ATOM      1  C   UNL     1       4.404   1.448 400.786  1.00  0.00    -0.031 C 
ATOM      2  C   UNL     1       3.611   0.368 400.712  1.00  0.00    -0.031 C 
ENDROOT
BRANCH   1   3
ATOM      3  C   UNL     1       4.067   2.614 401.676  1.00  0.00     0.027 C 
BRANCH   3   4
ATOM      4  C   UNL     1       4.626   2.416 403.090  1.00  0.00     0.004 C 
BRANCH   4   5
ATOM      5  C   UNL     1       6.100   1.986 403.041  1.00  0.00     0.000 C 
BRANCH   5   6
ATOM      6  C   UNL     1       6.495   1.094 404.230  1.00  0.00     0.000 C 
BRANCH   6   7
ATOM      7  C   UNL     1       6.116  -0.381 404.009  1.00  0.00     0.000 C 
BRANCH   7   8
ATOM      8  C   UNL     1       5.003  -0.853 404.959  1.00  0.00     0.006 C 
BRANCH   8   9
ATOM      9  C   UNL     1       3.709  -1.222 404.221  1.00  0.00     0.053 C 
BRANCH   9  10
ATOM     10  C   UNL     1       3.439  -2.689 404.342  1.00  0.00     0.041 C 
ATOM     11  O   UNL     1       4.383  -3.518 404.242  1.00  0.00    -0.550 OA
ATOM     12  O   UNL     1       2.140  -3.145 404.524  1.00  0.00    -0.550 OA
ENDBRANCH   9  10
ENDBRANCH   8   9
ENDBRANCH   7   8
ENDBRANCH   6   7
ENDBRANCH   5   6
ENDBRANCH   4   5
ENDBRANCH   3   4
ENDBRANCH   1   3
BRANCH   2  13
ATOM     13  C   UNL     1       3.941  -0.793 399.813  1.00  0.00     0.027 C 
BRANCH  13  14
ATOM     14  C   UNL     1       4.210  -2.091 400.597  1.00  0.00     0.004 C 
BRANCH  14  15
ATOM     15  C   UNL     1       5.666  -2.260 401.067  1.00  0.00     0.000 C 
BRANCH  15  16
ATOM     16  C   UNL     1       6.679  -1.605 400.110  1.00  0.00     0.000 C 
BRANCH  16  17
ATOM     17  C   UNL     1       7.637  -0.643 400.834  1.00  0.00    -0.000 C 
BRANCH  17  18
ATOM     18  C   UNL     1       7.979   0.596 399.989  1.00  0.00    -0.000 C 
BRANCH  18  19
ATOM     19  C   UNL     1       7.174   0.658 398.681  1.00  0.00    -0.003 C 
ATOM     20  C   UNL     1       8.040   0.995 397.468  1.00  0.00     0.004 C 
ENDBRANCH  18  19
ENDBRANCH  17  18
ENDBRANCH  16  17
ENDBRANCH  15  16
ENDBRANCH  14  15
ENDBRANCH  13  14
ENDBRANCH   2  13
TORSDOF 15
ENDMDL
MODEL 5
REMARK VINA RESULT:    -4.230      1.584      2.637
REMARK INTER + INTRA:          -9.971
REMARK INTER:                  -6.999
REMARK INTRA:                  -2.971
REMARK UNBOUND:                -2.030
REMARK SMILES CCCCCCCCC=CCCCCCCCC(=O)[O-]
REMARK SMILES IDX 10 1 9 2 11 3 12 4 13 5 14 6 15 7 16 8 17 9 18 10 19 11
REMARK SMILES IDX 20 12 8 13 7 14 6 15 5 16 4 17 3 18 2 19 1 20
REMARK H PARENT
REMARK Flexibility Score: inf
ROOT
ATOM      1  C   UNL     1       4.634   0.045 400.158  1.00  0.00    -0.031 C 
ATOM      2  C   UNL     1       3.965  -0.955 400.753  1.00  0.00    -0.031 C 
ENDROOT
BRANCH   1   3
ATOM      3  C   UNL     1       4.775   1.395 400.808  1.00  0.00     0.027 C 
BRANCH   3   4
ATOM      4  C   UNL     1       6.023   1.459 401.698  1.00  0.00     0.004 C 
BRANCH   4   5
ATOM      5  C   UNL     1       5.711   2.159 403.029  1.00  0.00     0.000 C 
BRANCH   5   6
ATOM      6  C   UNL     1       4.965   1.246 404.017  1.00  0.00     0.000 C 
BRANCH   6   7
ATOM      7  C   UNL     1       5.837   0.079 404.510  1.00  0.00     0.000 C 
BRANCH   7   8
ATOM      8  C   UNL     1       5.138  -1.283 404.367  1.00  0.00     0.006 C 
BRANCH   8   9
ATOM      9  C   UNL     1       3.610  -1.161 404.301  1.00  0.00     0.053 C 
BRANCH   9  10
ATOM     10  C   UNL     1       2.966  -2.163 405.208  1.00  0.00     0.041 C 
ATOM     11  O   UNL     1       2.122  -2.979 404.754  1.00  0.00    -0.550 OA
ATOM     12  O   UNL     1       3.270  -2.169 406.564  1.00  0.00    -0.550 OA
ENDBRANCH   9  10
ENDBRANCH   8   9
ENDBRANCH   7   8
ENDBRANCH   6   7
ENDBRANCH   5   6
ENDBRANCH   4   5
ENDBRANCH   3   4
ENDBRANCH   1   3
BRANCH   2  13
ATOM     13  C   UNL     1       3.814  -2.302 400.098  1.00  0.00     0.027 C 
BRANCH  13  14
ATOM     14  C   UNL     1       3.193  -3.350 401.039  1.00  0.00     0.004 C 
BRANCH  14  15
ATOM     15  C   UNL     1       4.182  -3.967 402.045  1.00  0.00     0.000 C 
BRANCH  15  16
ATOM     16  C   UNL     1       5.053  -5.073 401.422  1.00  0.00     0.000 C 
BRANCH  16  17
ATOM     17  C   UNL     1       6.540  -4.687 401.357  1.00  0.00    -0.000 C 
BRANCH  17  18
ATOM     18  C   UNL     1       6.941  -4.103 399.992  1.00  0.00    -0.000 C 
BRANCH  18  19
ATOM     19  C   UNL     1       7.480  -2.667 400.100  1.00  0.00    -0.003 C 
ATOM     20  C   UNL     1       7.416  -2.115 401.523  1.00  0.00     0.004 C 
ENDBRANCH  18  19
ENDBRANCH  17  18
ENDBRANCH  16  17
ENDBRANCH  15  16
ENDBRANCH  14  15
ENDBRANCH  13  14
ENDBRANCH   2  13
TORSDOF 15
ENDMDL
MODEL 6
REMARK VINA RESULT:    -4.194      1.890      3.961
REMARK INTER + INTRA:          -9.901
REMARK INTER:                  -7.108
REMARK INTRA:                  -2.794
REMARK UNBOUND:                -2.030
REMARK SMILES CCCCCCCCC=CCCCCCCCC(=O)[O-]
REMARK SMILES IDX 10 1 9 2 11 3 12 4 13 5 14 6 15 7 16 8 17 9 18 10 19 11
REMARK SMILES IDX 20 12 8 13 7 14 6 15 5 16 4 17 3 18 2 19 1 20
REMARK H PARENT
REMARK Flexibility Score: inf
ROOT
ATOM      1  C   UNL     1       5.751   2.368 402.761  1.00  0.00    -0.031 C 
ATOM      2  C   UNL     1       4.444   2.361 402.454  1.00  0.00    -0.031 C 
ENDROOT
BRANCH   1   3
ATOM      3  C   UNL     1       6.238   2.016 404.140  1.00  0.00     0.027 C 
BRANCH   3   4
ATOM      4  C   UNL     1       7.339   0.950 404.088  1.00  0.00     0.004 C 
BRANCH   4   5
ATOM      5  C   UNL     1       7.067  -0.065 402.968  1.00  0.00     0.000 C 
BRANCH   5   6
ATOM      6  C   UNL     1       6.797  -1.481 403.504  1.00  0.00     0.000 C 
BRANCH   6   7
ATOM      7  C   UNL     1       5.790  -1.485 404.668  1.00  0.00     0.000 C 
BRANCH   7   8
ATOM      8  C   UNL     1       4.342  -1.272 404.197  1.00  0.00     0.006 C 
BRANCH   8   9
ATOM      9  C   UNL     1       3.308  -1.741 405.229  1.00  0.00     0.053 C 
BRANCH   9  10
ATOM     10  C   UNL     1       2.855  -3.133 404.920  1.00  0.00     0.041 C 
ATOM     11  O   UNL     1       1.676  -3.344 404.529  1.00  0.00    -0.550 OA
ATOM     12  O   UNL     1       3.722  -4.203 405.100  1.00  0.00    -0.550 OA
ENDBRANCH   9  10
ENDBRANCH   8   9
ENDBRANCH   7   8
ENDBRANCH   6   7
ENDBRANCH   5   6
ENDBRANCH   4   5
ENDBRANCH   3   4
ENDBRANCH   1   3
BRANCH   2  13
ATOM     13  C   UNL     1       3.955   2.724 401.078  1.00  0.00     0.027 C 
BRANCH  13  14
ATOM     14  C   UNL     1       3.237   1.555 400.378  1.00  0.00     0.004 C 
BRANCH  14  15
ATOM     15  C   UNL     1       3.622   0.163 400.910  1.00  0.00     0.000 C 
BRANCH  15  16
ATOM     16  C   UNL     1       4.714  -0.516 400.065  1.00  0.00     0.000 C 
BRANCH  16  17
ATOM     17  C   UNL     1       4.895  -2.002 400.417  1.00  0.00    -0.000 C 
BRANCH  17  18
ATOM     18  C   UNL     1       3.559  -2.709 400.702  1.00  0.00    -0.000 C 
BRANCH  18  19
ATOM     19  C   UNL     1       3.735  -3.985 401.541  1.00  0.00    -0.003 C 
ATOM     20  C   UNL     1       5.201  -4.324 401.805  1.00  0.00     0.004 C 
ENDBRANCH  18  19
ENDBRANCH  17  18
ENDBRANCH  16  17
ENDBRANCH  15  16
ENDBRANCH  14  15
ENDBRANCH  13  14
ENDBRANCH   2  13
TORSDOF 15
ENDMDL
MODEL 7
REMARK VINA RESULT:    -4.191      2.718      6.544
REMARK INTER + INTRA:          -9.897
REMARK INTER:                  -7.927
REMARK INTRA:                  -1.969
REMARK UNBOUND:                -2.030
REMARK SMILES CCCCCCCCC=CCCCCCCCC(=O)[O-]
REMARK SMILES IDX 10 1 9 2 11 3 12 4 13 5 14 6 15 7 16 8 17 9 18 10 19 11
REMARK SMILES IDX 20 12 8 13 7 14 6 15 5 16 4 17 3 18 2 19 1 20
REMARK H PARENT
REMARK Flexibility Score: inf
ROOT
ATOM      1  C   UNL     1       4.326  -1.123 400.677  1.00  0.00    -0.031 C 
ATOM      2  C   UNL     1       3.800  -0.054 400.060  1.00  0.00    -0.031 C 
ENDROOT
BRANCH   1   3
ATOM      3  C   UNL     1       4.108  -2.519 400.160  1.00  0.00     0.027 C 
BRANCH   3   4
ATOM      4  C   UNL     1       3.097  -3.282 401.025  1.00  0.00     0.004 C 
BRANCH   4   5
ATOM      5  C   UNL     1       3.815  -4.143 402.076  1.00  0.00     0.000 C 
BRANCH   5   6
ATOM      6  C   UNL     1       5.148  -4.712 401.564  1.00  0.00     0.000 C 
BRANCH   6   7
ATOM      7  C   UNL     1       5.205  -6.247 401.655  1.00  0.00     0.000 C 
BRANCH   7   8
ATOM      8  C   UNL     1       3.811  -6.884 401.773  1.00  0.00     0.006 C 
BRANCH   8   9
ATOM      9  C   UNL     1       3.797  -8.362 401.360  1.00  0.00     0.053 C 
BRANCH   9  10
ATOM     10  C   UNL     1       4.707  -9.159 402.242  1.00  0.00     0.041 C 
ATOM     11  O   UNL     1       5.586  -9.905 401.736  1.00  0.00    -0.550 OA
ATOM     12  O   UNL     1       4.557  -9.109 403.622  1.00  0.00    -0.550 OA
ENDBRANCH   9  10
ENDBRANCH   8   9
ENDBRANCH   7   8
ENDBRANCH   6   7
ENDBRANCH   5   6
ENDBRANCH   4   5
ENDBRANCH   3   4
ENDBRANCH   1   3
BRANCH   2  13
ATOM     13  C   UNL     1       4.008   1.342 400.584  1.00  0.00     0.027 C 
BRANCH  13  14
ATOM     14  C   UNL     1       3.724   1.457 402.092  1.00  0.00     0.004 C 
BRANCH  14  15
ATOM     15  C   UNL     1       4.801   2.219 402.885  1.00  0.00     0.000 C 
BRANCH  15  16
ATOM     16  C   UNL     1       6.232   1.836 402.465  1.00  0.00     0.000 C 
BRANCH  16  17
ATOM     17  C   UNL     1       6.673   0.481 403.043  1.00  0.00    -0.000 C 
BRANCH  17  18
ATOM     18  C   UNL     1       5.847   0.065 404.272  1.00  0.00    -0.000 C 
BRANCH  18  19
ATOM     19  C   UNL     1       5.271  -1.354 404.142  1.00  0.00    -0.003 C 
ATOM     20  C   UNL     1       3.862  -1.478 404.720  1.00  0.00     0.004 C 
ENDBRANCH  18  19
ENDBRANCH  17  18
ENDBRANCH  16  17
ENDBRANCH  15  16
ENDBRANCH  14  15
ENDBRANCH  13  14
ENDBRANCH   2  13
TORSDOF 15
ENDMDL
MODEL 8
REMARK VINA RESULT:    -4.149      2.524      5.761
REMARK INTER + INTRA:          -9.818
REMARK INTER:                  -7.516
REMARK INTRA:                  -2.303
REMARK UNBOUND:                -2.030
REMARK SMILES CCCCCCCCC=CCCCCCCCC(=O)[O-]
REMARK SMILES IDX 10 1 9 2 11 3 12 4 13 5 14 6 15 7 16 8 17 9 18 10 19 11
REMARK SMILES IDX 20 12 8 13 7 14 6 15 5 16 4 17 3 18 2 19 1 20
REMARK H PARENT
REMARK Flexibility Score: inf
ROOT
ATOM      1  C   UNL     1       3.695   0.285 400.754  1.00  0.00    -0.031 C 
ATOM      2  C   UNL     1       4.279   1.491 400.689  1.00  0.00    -0.031 C 
ENDROOT
BRANCH   1   3
ATOM      3  C   UNL     1       3.999  -0.793 399.749  1.00  0.00     0.027 C 
BRANCH   3   4
ATOM      4  C   UNL     1       4.451  -2.087 400.438  1.00  0.00     0.004 C 
BRANCH   4   5
ATOM      5  C   UNL     1       3.244  -2.964 400.805  1.00  0.00     0.000 C 
BRANCH   5   6
ATOM      6  C   UNL     1       3.654  -4.272 401.502  1.00  0.00     0.000 C 
BRANCH   6   7
ATOM      7  C   UNL     1       5.096  -4.226 402.035  1.00  0.00     0.000 C 
BRANCH   7   8
ATOM      8  C   UNL     1       5.697  -5.627 402.236  1.00  0.00     0.006 C 
BRANCH   8   9
ATOM      9  C   UNL     1       4.906  -6.473 403.243  1.00  0.00     0.053 C 
BRANCH   9  10
ATOM     10  C   UNL     1       4.483  -7.766 402.620  1.00  0.00     0.041 C 
ATOM     11  O   UNL     1       4.522  -8.834 403.287  1.00  0.00    -0.550 OA
ATOM     12  O   UNL     1       4.083  -7.799 401.291  1.00  0.00    -0.550 OA
ENDBRANCH   9  10
ENDBRANCH   8   9
ENDBRANCH   7   8
ENDBRANCH   6   7
ENDBRANCH   5   6
ENDBRANCH   4   5
ENDBRANCH   3   4
ENDBRANCH   1   3
BRANCH   2  13
ATOM     13  C   UNL     1       3.967   2.574 401.687  1.00  0.00     0.027 C 
BRANCH  13  14
ATOM     14  C   UNL     1       4.983   2.625 402.841  1.00  0.00     0.004 C 
BRANCH  14  15
ATOM     15  C   UNL     1       4.727   1.598 403.960  1.00  0.00     0.000 C 
BRANCH  15  16
ATOM     16  C   UNL     1       5.903   0.624 404.152  1.00  0.00     0.000 C 
BRANCH  16  17
ATOM     17  C   UNL     1       5.551  -0.815 403.739  1.00  0.00    -0.000 C 
BRANCH  17  18
ATOM     18  C   UNL     1       4.751  -1.562 404.819  1.00  0.00    -0.000 C 
BRANCH  18  19
ATOM     19  C   UNL     1       3.297  -1.829 404.396  1.00  0.00    -0.003 C 
ATOM     20  C   UNL     1       2.747  -3.139 404.958  1.00  0.00     0.004 C 
ENDBRANCH  18  19
ENDBRANCH  17  18
ENDBRANCH  16  17
ENDBRANCH  15  16
ENDBRANCH  14  15
ENDBRANCH  13  14
ENDBRANCH   2  13
TORSDOF 15
ENDMDL
MODEL 9
REMARK VINA RESULT:    -4.137      4.848     10.044
REMARK INTER + INTRA:          -9.796
REMARK INTER:                  -8.001
REMARK INTRA:                  -1.795
REMARK UNBOUND:                -2.030
REMARK SMILES CCCCCCCCC=CCCCCCCCC(=O)[O-]
REMARK SMILES IDX 10 1 9 2 11 3 12 4 13 5 14 6 15 7 16 8 17 9 18 10 19 11
REMARK SMILES IDX 20 12 8 13 7 14 6 15 5 16 4 17 3 18 2 19 1 20
REMARK H PARENT
REMARK Flexibility Score: inf
ROOT
ATOM      1  C   UNL     1       7.032   5.287 403.872  1.00  0.00    -0.031 C 
ATOM      2  C   UNL     1       6.199   6.317 404.087  1.00  0.00    -0.031 C 
ENDROOT
BRANCH   1   3
ATOM      3  C   UNL     1       6.900   3.995 404.632  1.00  0.00     0.027 C 
BRANCH   3   4
ATOM      4  C   UNL     1       6.749   2.801 403.681  1.00  0.00     0.004 C 
BRANCH   4   5
ATOM      5  C   UNL     1       5.733   1.789 404.231  1.00  0.00     0.000 C 
BRANCH   5   6
ATOM      6  C   UNL     1       4.380   1.853 403.501  1.00  0.00     0.000 C 
BRANCH   6   7
ATOM      7  C   UNL     1       4.459   2.651 402.189  1.00  0.00     0.000 C 
BRANCH   7   8
ATOM      8  C   UNL     1       3.914   1.865 400.985  1.00  0.00     0.006 C 
BRANCH   8   9
ATOM      9  C   UNL     1       4.851   0.733 400.542  1.00  0.00     0.053 C 
BRANCH   9  10
ATOM     10  C   UNL     1       4.174  -0.593 400.690  1.00  0.00     0.041 C 
ATOM     11  O   UNL     1       4.062  -1.124 401.827  1.00  0.00    -0.550 OA
ATOM     12  O   UNL     1       3.702  -1.262 399.568  1.00  0.00    -0.550 OA
ENDBRANCH   9  10
ENDBRANCH   8   9
ENDBRANCH   7   8
ENDBRANCH   6   7
ENDBRANCH   5   6
ENDBRANCH   4   5
ENDBRANCH   3   4
ENDBRANCH   1   3
BRANCH   2  13
ATOM     13  C   UNL     1       6.337   7.614 403.336  1.00  0.00     0.027 C 
BRANCH  13  14
ATOM     14  C   UNL     1       5.058   7.992 402.567  1.00  0.00     0.004 C 
BRANCH  14  15
ATOM     15  C   UNL     1       3.781   7.299 403.078  1.00  0.00     0.000 C 
BRANCH  15  16
ATOM     16  C   UNL     1       2.853   8.256 403.849  1.00  0.00     0.000 C 
BRANCH  16  17
ATOM     17  C   UNL     1       3.214   8.354 405.341  1.00  0.00    -0.000 C 
BRANCH  17  18
ATOM     18  C   UNL     1       3.585   9.784 405.767  1.00  0.00    -0.000 C 
BRANCH  18  19
ATOM     19  C   UNL     1       5.099  10.042 405.710  1.00  0.00    -0.003 C 
ATOM     20  C   UNL     1       5.890   9.145 406.662  1.00  0.00     0.004 C 
ENDBRANCH  18  19
ENDBRANCH  17  18
ENDBRANCH  16  17
ENDBRANCH  15  16
ENDBRANCH  14  15
ENDBRANCH  13  14
ENDBRANCH   2  13
TORSDOF 15
ENDMDL
