MODEL 1
REMARK VINA RESULT:    -1.562      0.000      0.000
REMARK INTER + INTRA:          -4.554
REMARK INTER:                  -3.024
REMARK INTRA:                  -1.531
REMARK UNBOUND:                -1.531
REMARK SMILES CCCCCCCCCCCCCCCCCC(=O)[O-]
REMARK SMILES IDX 10 1 11 2 12 3 13 4 14 5 15 6 16 7 17 8 18 9 19 10 20 11
REMARK SMILES IDX 9 12 8 13 7 14 6 15 5 16 4 17 3 18 2 19 1 20
REMARK H PARENT
REMARK Flexibility Score: inf
ROOT
ATOM      1  C   UNL     1       2.610  10.203 -13.417  1.00  0.00     0.000 C 
ENDROOT
BRANCH   1   2
ATOM      2  C   UNL     1       1.888  10.772 -12.182  1.00  0.00     0.000 C 
BRANCH   2   3
ATOM      3  C   UNL     1       2.153  10.007 -10.869  1.00  0.00     0.000 C 
BRANCH   3   4
ATOM      4  C   UNL     1       2.241   8.475 -11.009  1.00  0.00     0.000 C 
BRANCH   4   5
ATOM      5  C   UNL     1       3.631   7.875 -10.727  1.00  0.00     0.000 C 
BRANCH   5   6
ATOM      6  C   UNL     1       4.582   8.869 -10.045  1.00  0.00     0.000 C 
BRANCH   6   7
ATOM      7  C   UNL     1       5.807   9.151 -10.929  1.00  0.00     0.006 C 
BRANCH   7   8
ATOM      8  C   UNL     1       5.927   8.157 -12.091  1.00  0.00     0.053 C 
BRANCH   8   9
ATOM      9  C   UNL     1       5.941   8.852 -13.418  1.00  0.00     0.041 C 
ATOM     10  O   UNL     1       6.365  10.035 -13.509  1.00  0.00    -0.550 OA
ATOM     11  O   UNL     1       5.458   8.205 -14.549  1.00  0.00    -0.550 OA
ENDBRANCH   8   9
ENDBRANCH   7   8
ENDBRANCH   6   7
ENDBRANCH   5   6
ENDBRANCH   4   5
ENDBRANCH   3   4
ENDBRANCH   2   3
ENDBRANCH   1   2
BRANCH   1  12
ATOM     12  C   UNL     1       1.976  10.666 -14.740  1.00  0.00     0.000 C 
BRANCH  12  13
ATOM     13  C   UNL     1       3.006  10.803 -15.875  1.00  0.00    -0.000 C 
BRANCH  13  14
ATOM     14  C   UNL     1       4.117  11.813 -15.542  1.00  0.00    -0.000 C 
BRANCH  14  15
ATOM     15  C   UNL     1       3.843  13.216 -16.114  1.00  0.00    -0.000 C 
BRANCH  15  16
ATOM     16  C   UNL     1       3.134  14.191 -15.156  1.00  0.00    -0.000 C 
BRANCH  16  17
ATOM     17  C   UNL     1       2.021  15.002 -15.842  1.00  0.00    -0.000 C 
BRANCH  17  18
ATOM     18  C   UNL     1       1.884  16.420 -15.263  1.00  0.00    -0.000 C 
BRANCH  18  19
ATOM     19  C   UNL     1       2.737  17.452 -16.016  1.00  0.00    -0.003 C 
ATOM     20  C   UNL     1       2.148  18.853 -15.882  1.00  0.00     0.004 C 
ENDBRANCH  18  19
ENDBRANCH  17  18
ENDBRANCH  16  17
ENDBRANCH  15  16
ENDBRANCH  14  15
ENDBRANCH  13  14
ENDBRANCH  12  13
ENDBRANCH   1  12
TORSDOF 16
ENDMDL
MODEL 2
REMARK VINA RESULT:     0.298     14.353     16.337
REMARK INTER + INTRA:          -0.954
REMARK INTER:                  -1.300
REMARK INTRA:                   0.346
REMARK UNBOUND:                -1.531
REMARK SMILES CCCCCCCCCCCCCCCCCC(=O)[O-]
REMARK SMILES IDX 10 1 11 2 12 3 13 4 14 5 15 6 16 7 17 8 18 9 19 10 20 11
REMARK SMILES IDX 9 12 8 13 7 14 6 15 5 16 4 17 3 18 2 19 1 20
REMARK H PARENT
REMARK Flexibility Score: inf
ROOT
ATOM      1  C   UNL     1      18.862  11.308 -13.603  1.00  0.00     0.000 C 
ENDROOT
BRANCH   1   2
ATOM      2  C   UNL     1      20.064  10.388 -13.881  1.00  0.00     0.000 C 
BRANCH   2   3
ATOM      3  C   UNL     1      20.420  10.219 -15.372  1.00  0.00     0.000 C 
BRANCH   3   4
ATOM      4  C   UNL     1      20.719   8.773 -15.816  1.00  0.00     0.000 C 
BRANCH   4   5
ATOM      5  C   UNL     1      19.477   7.908 -16.096  1.00  0.00     0.000 C 
BRANCH   5   6
ATOM      6  C   UNL     1      18.322   8.190 -15.124  1.00  0.00     0.000 C 
BRANCH   6   7
ATOM      7  C   UNL     1      17.063   8.638 -15.882  1.00  0.00     0.006 C 
BRANCH   7   8
ATOM      8  C   UNL     1      15.811   7.875 -15.431  1.00  0.00     0.053 C 
BRANCH   8   9
ATOM      9  C   UNL     1      15.163   8.522 -14.245  1.00  0.00     0.041 C 
ATOM     10  O   UNL     1      14.080   8.068 -13.789  1.00  0.00    -0.550 OA
ATOM     11  O   UNL     1      15.737   9.646 -13.663  1.00  0.00    -0.550 OA
ENDBRANCH   8   9
ENDBRANCH   7   8
ENDBRANCH   6   7
ENDBRANCH   5   6
ENDBRANCH   4   5
ENDBRANCH   3   4
ENDBRANCH   2   3
ENDBRANCH   1   2
BRANCH   1  12
ATOM     12  C   UNL     1      18.374  12.044 -14.864  1.00  0.00     0.000 C 
BRANCH  12  13
ATOM     13  C   UNL     1      19.166  13.332 -15.143  1.00  0.00    -0.000 C 
BRANCH  13  14
ATOM     14  C   UNL     1      20.663  13.064 -15.374  1.00  0.00    -0.000 C 
BRANCH  14  15
ATOM     15  C   UNL     1      21.566  13.772 -14.346  1.00  0.00    -0.000 C 
BRANCH  15  16
ATOM     16  C   UNL     1      22.067  15.168 -14.762  1.00  0.00    -0.000 C 
BRANCH  16  17
ATOM     17  C   UNL     1      21.508  15.626 -16.120  1.00  0.00    -0.000 C 
BRANCH  17  18
ATOM     18  C   UNL     1      21.073  17.100 -16.111  1.00  0.00    -0.000 C 
BRANCH  18  19
ATOM     19  C   UNL     1      22.077  18.009 -15.386  1.00  0.00    -0.003 C 
ATOM     20  C   UNL     1      21.930  19.459 -15.837  1.00  0.00     0.004 C 
ENDBRANCH  18  19
ENDBRANCH  17  18
ENDBRANCH  16  17
ENDBRANCH  15  16
ENDBRANCH  14  15
ENDBRANCH  13  14
ENDBRANCH  12  13
ENDBRANCH   1  12
TORSDOF 16
ENDMDL
