MODEL 1
REMARK VINA RESULT:    -5.662      0.000      0.000
REMARK INTER + INTRA:         -13.069
REMARK INTER:                 -10.628
REMARK INTRA:                  -2.442
REMARK UNBOUND:                -2.442
REMARK SMILES CCCCCCCCC=CCCCCCCCC(=O)[O-]
REMARK SMILES IDX 10 1 9 2 11 3 12 4 13 5 14 6 15 7 16 8 17 9 18 10 19 11
REMARK SMILES IDX 20 12 8 13 7 14 6 15 5 16 4 17 3 18 2 19 1 20
REMARK H PARENT
REMARK Flexibility Score: inf
ROOT
ATOM      1  C   UNL     1      21.300   5.673  23.524  1.00  0.00    -0.031 C 
ATOM      2  C   UNL     1      22.273   6.357  22.903  1.00  0.00    -0.031 C 
ENDROOT
BRANCH   1   3
ATOM      3  C   UNL     1      19.878   5.703  23.033  1.00  0.00     0.027 C 
BRANCH   3   4
ATOM      4  C   UNL     1      19.736   6.443  21.694  1.00  0.00     0.004 C 
BRANCH   4   5
ATOM      5  C   UNL     1      19.669   5.473  20.502  1.00  0.00     0.000 C 
BRANCH   5   6
ATOM      6  C   UNL     1      19.347   4.031  20.927  1.00  0.00     0.000 C 
BRANCH   6   7
ATOM      7  C   UNL     1      20.496   3.054  20.622  1.00  0.00     0.000 C 
BRANCH   7   8
ATOM      8  C   UNL     1      21.806   3.773  20.250  1.00  0.00     0.006 C 
BRANCH   8   9
ATOM      9  C   UNL     1      23.082   3.020  20.659  1.00  0.00     0.053 C 
BRANCH   9  10
ATOM     10  C   UNL     1      23.082   1.606  20.165  1.00  0.00     0.041 C 
ATOM     11  O   UNL     1      23.459   1.344  18.993  1.00  0.00    -0.550 OA
ATOM     12  O   UNL     1      22.697   0.574  21.013  1.00  0.00    -0.550 OA
ENDBRANCH   9  10
ENDBRANCH   8   9
ENDBRANCH   7   8
ENDBRANCH   6   7
ENDBRANCH   5   6
ENDBRANCH   4   5
ENDBRANCH   3   4
ENDBRANCH   1   3
BRANCH   2  13
ATOM     13  C   UNL     1      23.696   6.327  23.395  1.00  0.00     0.027 C 
BRANCH  13  14
ATOM     14  C   UNL     1      23.864   7.042  24.744  1.00  0.00     0.004 C 
BRANCH  14  15
ATOM     15  C   UNL     1      23.985   6.050  25.914  1.00  0.00     0.000 C 
BRANCH  15  16
ATOM     16  C   UNL     1      24.550   4.685  25.472  1.00  0.00     0.000 C 
BRANCH  16  17
ATOM     17  C   UNL     1      23.530   3.531  25.541  1.00  0.00    -0.000 C 
BRANCH  17  18
ATOM     18  C   UNL     1      23.516   2.626  24.291  1.00  0.00    -0.000 C 
BRANCH  18  19
ATOM     19  C   UNL     1      22.373   1.595  24.293  1.00  0.00    -0.003 C 
ATOM     20  C   UNL     1      21.408   1.795  25.461  1.00  0.00     0.004 C 
ENDBRANCH  18  19
ENDBRANCH  17  18
ENDBRANCH  16  17
ENDBRANCH  15  16
ENDBRANCH  14  15
ENDBRANCH  13  14
ENDBRANCH   2  13
TORSDOF 15
ENDMDL
MODEL 2
REMARK VINA RESULT:    -5.436      2.336      4.869
REMARK INTER + INTRA:         -12.645
REMARK INTER:                 -10.776
REMARK INTRA:                  -1.869
REMARK UNBOUND:                -2.442
REMARK SMILES CCCCCCCCC=CCCCCCCCC(=O)[O-]
REMARK SMILES IDX 10 1 9 2 11 3 12 4 13 5 14 6 15 7 16 8 17 9 18 10 19 11
REMARK SMILES IDX 20 12 8 13 7 14 6 15 5 16 4 17 3 18 2 19 1 20
REMARK H PARENT
REMARK Flexibility Score: inf
ROOT
ATOM      1  C   UNL     1      23.292   0.987  23.238  1.00  0.00    -0.031 C 
ATOM      2  C   UNL     1      22.208   1.243  23.988  1.00  0.00    -0.031 C 
ENDROOT
BRANCH   1   3
ATOM      3  C   UNL     1      23.189   0.244  21.933  1.00  0.00     0.027 C 
BRANCH   3   4
ATOM      4  C   UNL     1      22.643   1.125  20.799  1.00  0.00     0.004 C 
BRANCH   4   5
ATOM      5  C   UNL     1      23.484   2.398  20.600  1.00  0.00     0.000 C 
BRANCH   5   6
ATOM      6  C   UNL     1      22.639   3.680  20.645  1.00  0.00     0.000 C 
BRANCH   6   7
ATOM      7  C   UNL     1      21.295   3.529  19.910  1.00  0.00     0.000 C 
BRANCH   7   8
ATOM      8  C   UNL     1      20.088   3.545  20.866  1.00  0.00     0.006 C 
BRANCH   8   9
ATOM      9  C   UNL     1      19.369   4.900  20.958  1.00  0.00     0.053 C 
BRANCH   9  10
ATOM     10  C   UNL     1      19.735   5.646  22.204  1.00  0.00     0.041 C 
ATOM     11  O   UNL     1      19.234   5.318  23.310  1.00  0.00    -0.550 OA
ATOM     12  O   UNL     1      20.657   6.685  22.145  1.00  0.00    -0.550 OA
ENDBRANCH   9  10
ENDBRANCH   8   9
ENDBRANCH   7   8
ENDBRANCH   6   7
ENDBRANCH   5   6
ENDBRANCH   4   5
ENDBRANCH   3   4
ENDBRANCH   1   3
BRANCH   2  13
ATOM     13  C   UNL     1      22.311   1.986  25.294  1.00  0.00     0.027 C 
BRANCH  13  14
ATOM     14  C   UNL     1      23.243   3.204  25.204  1.00  0.00     0.004 C 
BRANCH  14  15
ATOM     15  C   UNL     1      22.735   4.248  24.195  1.00  0.00     0.000 C 
BRANCH  15  16
ATOM     16  C   UNL     1      23.628   5.504  24.147  1.00  0.00     0.000 C 
BRANCH  16  17
ATOM     17  C   UNL     1      23.044   6.719  24.894  1.00  0.00    -0.000 C 
BRANCH  17  18
ATOM     18  C   UNL     1      23.587   6.900  26.327  1.00  0.00    -0.000 C 
BRANCH  18  19
ATOM     19  C   UNL     1      24.998   6.316  26.526  1.00  0.00    -0.003 C 
ATOM     20  C   UNL     1      25.296   6.002  27.992  1.00  0.00     0.004 C 
ENDBRANCH  18  19
ENDBRANCH  17  18
ENDBRANCH  16  17
ENDBRANCH  15  16
ENDBRANCH  14  15
ENDBRANCH  13  14
ENDBRANCH   2  13
TORSDOF 15
ENDMDL
MODEL 3
REMARK VINA RESULT:    -5.401      2.306      5.549
REMARK INTER + INTRA:         -12.578
REMARK INTER:                 -10.300
REMARK INTRA:                  -2.279
REMARK UNBOUND:                -2.442
REMARK SMILES CCCCCCCCC=CCCCCCCCC(=O)[O-]
REMARK SMILES IDX 10 1 9 2 11 3 12 4 13 5 14 6 15 7 16 8 17 9 18 10 19 11
REMARK SMILES IDX 20 12 8 13 7 14 6 15 5 16 4 17 3 18 2 19 1 20
REMARK H PARENT
REMARK Flexibility Score: inf
ROOT
ATOM      1  C   UNL     1      23.661   3.363  25.049  1.00  0.00    -0.031 C 
ATOM      2  C   UNL     1      22.576   2.733  25.527  1.00  0.00    -0.031 C 
ENDROOT
BRANCH   1   3
ATOM      3  C   UNL     1      24.239   4.569  25.738  1.00  0.00     0.027 C 
BRANCH   3   4
ATOM      4  C   UNL     1      24.574   5.701  24.755  1.00  0.00     0.004 C 
BRANCH   4   5
ATOM      5  C   UNL     1      23.365   6.615  24.492  1.00  0.00     0.000 C 
BRANCH   5   6
ATOM      6  C   UNL     1      23.025   6.734  22.998  1.00  0.00     0.000 C 
BRANCH   6   7
ATOM      7  C   UNL     1      22.388   5.452  22.433  1.00  0.00     0.000 C 
BRANCH   7   8
ATOM      8  C   UNL     1      21.066   5.086  23.131  1.00  0.00     0.006 C 
BRANCH   8   9
ATOM      9  C   UNL     1      19.875   5.977  22.743  1.00  0.00     0.053 C 
BRANCH   9  10
ATOM     10  C   UNL     1      19.609   5.948  21.269  1.00  0.00     0.041 C 
ATOM     11  O   UNL     1      19.198   4.893  20.720  1.00  0.00    -0.550 OA
ATOM     12  O   UNL     1      19.785   7.098  20.508  1.00  0.00    -0.550 OA
ENDBRANCH   9  10
ENDBRANCH   8   9
ENDBRANCH   7   8
ENDBRANCH   6   7
ENDBRANCH   5   6
ENDBRANCH   4   5
ENDBRANCH   3   4
ENDBRANCH   1   3
BRANCH   2  13
ATOM     13  C   UNL     1      21.997   1.526  24.837  1.00  0.00     0.027 C 
BRANCH  13  14
ATOM     14  C   UNL     1      22.912   0.991  23.725  1.00  0.00     0.004 C 
BRANCH  14  15
ATOM     15  C   UNL     1      22.161   0.809  22.395  1.00  0.00     0.000 C 
BRANCH  15  16
ATOM     16  C   UNL     1      22.170   2.087  21.532  1.00  0.00     0.000 C 
BRANCH  16  17
ATOM     17  C   UNL     1      22.268   1.822  20.017  1.00  0.00    -0.000 C 
BRANCH  17  18
ATOM     18  C   UNL     1      21.643   2.929  19.142  1.00  0.00    -0.000 C 
BRANCH  18  19
ATOM     19  C   UNL     1      22.551   4.160  18.967  1.00  0.00    -0.003 C 
ATOM     20  C   UNL     1      21.830   5.325  18.290  1.00  0.00     0.004 C 
ENDBRANCH  18  19
ENDBRANCH  17  18
ENDBRANCH  16  17
ENDBRANCH  15  16
ENDBRANCH  14  15
ENDBRANCH  13  14
ENDBRANCH   2  13
TORSDOF 15
ENDMDL
MODEL 4
REMARK VINA RESULT:    -5.397      1.470      3.861
REMARK INTER + INTRA:         -12.571
REMARK INTER:                  -9.990
REMARK INTRA:                  -2.581
REMARK UNBOUND:                -2.442
REMARK SMILES CCCCCCCCC=CCCCCCCCC(=O)[O-]
REMARK SMILES IDX 10 1 9 2 11 3 12 4 13 5 14 6 15 7 16 8 17 9 18 10 19 11
REMARK SMILES IDX 20 12 8 13 7 14 6 15 5 16 4 17 3 18 2 19 1 20
REMARK H PARENT
REMARK Flexibility Score: inf
ROOT
ATOM      1  C   UNL     1      22.629   2.693  25.502  1.00  0.00    -0.031 C 
ATOM      2  C   UNL     1      23.624   3.445  25.007  1.00  0.00    -0.031 C 
ENDROOT
BRANCH   1   3
ATOM      3  C   UNL     1      22.098   1.498  24.756  1.00  0.00     0.027 C 
BRANCH   3   4
ATOM      4  C   UNL     1      22.761   1.323  23.382  1.00  0.00     0.004 C 
BRANCH   4   5
ATOM      5  C   UNL     1      21.751   1.470  22.230  1.00  0.00     0.000 C 
BRANCH   5   6
ATOM      6  C   UNL     1      22.426   1.805  20.890  1.00  0.00     0.000 C 
BRANCH   6   7
ATOM      7  C   UNL     1      21.452   2.440  19.881  1.00  0.00     0.000 C 
BRANCH   7   8
ATOM      8  C   UNL     1      22.155   3.387  18.891  1.00  0.00     0.006 C 
BRANCH   8   9
ATOM      9  C   UNL     1      23.689   3.368  18.974  1.00  0.00     0.053 C 
BRANCH   9  10
ATOM     10  C   UNL     1      24.303   2.595  17.848  1.00  0.00     0.041 C 
ATOM     11  O   UNL     1      24.573   1.374  17.989  1.00  0.00    -0.550 OA
ATOM     12  O   UNL     1      24.545   3.217  16.628  1.00  0.00    -0.550 OA
ENDBRANCH   9  10
ENDBRANCH   8   9
ENDBRANCH   7   8
ENDBRANCH   6   7
ENDBRANCH   5   6
ENDBRANCH   4   5
ENDBRANCH   3   4
ENDBRANCH   1   3
BRANCH   2  13
ATOM     13  C   UNL     1      24.155   4.641  25.752  1.00  0.00     0.027 C 
BRANCH  13  14
ATOM     14  C   UNL     1      24.480   5.816  24.818  1.00  0.00     0.004 C 
BRANCH  14  15
ATOM     15  C   UNL     1      23.217   6.407  24.170  1.00  0.00     0.000 C 
BRANCH  15  16
ATOM     16  C   UNL     1      23.201   6.228  22.638  1.00  0.00     0.000 C 
BRANCH  16  17
ATOM     17  C   UNL     1      22.099   5.278  22.128  1.00  0.00    -0.000 C 
BRANCH  17  18
ATOM     18  C   UNL     1      20.913   5.108  23.101  1.00  0.00    -0.000 C 
BRANCH  18  19
ATOM     19  C   UNL     1      19.539   5.263  22.426  1.00  0.00    -0.003 C 
ATOM     20  C   UNL     1      19.653   5.562  20.931  1.00  0.00     0.004 C 
ENDBRANCH  18  19
ENDBRANCH  17  18
ENDBRANCH  16  17
ENDBRANCH  15  16
ENDBRANCH  14  15
ENDBRANCH  13  14
ENDBRANCH   2  13
TORSDOF 15
ENDMDL
MODEL 5
REMARK VINA RESULT:    -5.390      2.322      4.384
REMARK INTER + INTRA:         -12.558
REMARK INTER:                  -9.514
REMARK INTRA:                  -3.044
REMARK UNBOUND:                -2.442
REMARK SMILES CCCCCCCCC=CCCCCCCCC(=O)[O-]
REMARK SMILES IDX 10 1 9 2 11 3 12 4 13 5 14 6 15 7 16 8 17 9 18 10 19 11
REMARK SMILES IDX 20 12 8 13 7 14 6 15 5 16 4 17 3 18 2 19 1 20
REMARK H PARENT
REMARK Flexibility Score: inf
ROOT
ATOM      1  C   UNL     1      20.341   3.549  20.964  1.00  0.00    -0.031 C 
ATOM      2  C   UNL     1      21.096   3.250  19.896  1.00  0.00    -0.031 C 
ENDROOT
BRANCH   1   3
ATOM      3  C   UNL     1      19.395   4.720  20.958  1.00  0.00     0.027 C 
BRANCH   3   4
ATOM      4  C   UNL     1      19.519   5.580  22.225  1.00  0.00     0.004 C 
BRANCH   4   5
ATOM      5  C   UNL     1      20.706   5.148  23.103  1.00  0.00     0.000 C 
BRANCH   5   6
ATOM      6  C   UNL     1      21.864   6.160  23.074  1.00  0.00     0.000 C 
BRANCH   6   7
ATOM      7  C   UNL     1      23.014   5.716  22.153  1.00  0.00     0.000 C 
BRANCH   7   8
ATOM      8  C   UNL     1      23.343   6.756  21.067  1.00  0.00     0.006 C 
BRANCH   8   9
ATOM      9  C   UNL     1      23.256   6.222  19.629  1.00  0.00     0.053 C 
BRANCH   9  10
ATOM     10  C   UNL     1      21.969   6.603  18.965  1.00  0.00     0.041 C 
ATOM     11  O   UNL     1      21.199   7.439  19.506  1.00  0.00    -0.550 OA
ATOM     12  O   UNL     1      21.636   6.058  17.730  1.00  0.00    -0.550 OA
ENDBRANCH   9  10
ENDBRANCH   8   9
ENDBRANCH   7   8
ENDBRANCH   6   7
ENDBRANCH   5   6
ENDBRANCH   4   5
ENDBRANCH   3   4
ENDBRANCH   1   3
BRANCH   2  13
ATOM     13  C   UNL     1      22.043   2.079  19.902  1.00  0.00     0.027 C 
BRANCH  13  14
ATOM     14  C   UNL     1      23.028   2.128  21.079  1.00  0.00     0.004 C 
BRANCH  14  15
ATOM     15  C   UNL     1      23.382   0.724  21.597  1.00  0.00     0.000 C 
BRANCH  15  16
ATOM     16  C   UNL     1      23.174   0.588  23.120  1.00  0.00     0.000 C 
BRANCH  16  17
ATOM     17  C   UNL     1      22.078   1.509  23.689  1.00  0.00    -0.000 C 
BRANCH  17  18
ATOM     18  C   UNL     1      22.512   2.311  24.934  1.00  0.00    -0.000 C 
BRANCH  18  19
ATOM     19  C   UNL     1      23.729   3.220  24.684  1.00  0.00    -0.003 C 
ATOM     20  C   UNL     1      23.785   4.399  25.657  1.00  0.00     0.004 C 
ENDBRANCH  18  19
ENDBRANCH  17  18
ENDBRANCH  16  17
ENDBRANCH  15  16
ENDBRANCH  14  15
ENDBRANCH  13  14
ENDBRANCH   2  13
TORSDOF 15
ENDMDL
MODEL 6
REMARK VINA RESULT:    -5.371      1.613      2.205
REMARK INTER + INTRA:         -12.523
REMARK INTER:                  -9.995
REMARK INTRA:                  -2.527
REMARK UNBOUND:                -2.442
REMARK SMILES CCCCCCCCC=CCCCCCCCC(=O)[O-]
REMARK SMILES IDX 10 1 9 2 11 3 12 4 13 5 14 6 15 7 16 8 17 9 18 10 19 11
REMARK SMILES IDX 20 12 8 13 7 14 6 15 5 16 4 17 3 18 2 19 1 20
REMARK H PARENT
REMARK Flexibility Score: inf
ROOT
ATOM      1  C   UNL     1      21.071   5.720  23.543  1.00  0.00    -0.031 C 
ATOM      2  C   UNL     1      22.178   6.327  23.087  1.00  0.00    -0.031 C 
ENDROOT
BRANCH   1   3
ATOM      3  C   UNL     1      19.740   5.890  22.860  1.00  0.00     0.027 C 
BRANCH   3   4
ATOM      4  C   UNL     1      19.872   6.536  21.472  1.00  0.00     0.004 C 
BRANCH   4   5
ATOM      5  C   UNL     1      19.686   5.513  20.339  1.00  0.00     0.000 C 
BRANCH   5   6
ATOM      6  C   UNL     1      19.262   4.128  20.854  1.00  0.00     0.000 C 
BRANCH   6   7
ATOM      7  C   UNL     1      20.317   3.043  20.571  1.00  0.00     0.000 C 
BRANCH   7   8
ATOM      8  C   UNL     1      21.496   3.564  19.729  1.00  0.00     0.006 C 
BRANCH   8   9
ATOM      9  C   UNL     1      22.808   3.733  20.511  1.00  0.00     0.053 C 
BRANCH   9  10
ATOM     10  C   UNL     1      23.805   4.562  19.761  1.00  0.00     0.041 C 
ATOM     11  O   UNL     1      24.314   4.132  18.693  1.00  0.00    -0.550 OA
ATOM     12  O   UNL     1      24.145   5.827  20.226  1.00  0.00    -0.550 OA
ENDBRANCH   9  10
ENDBRANCH   8   9
ENDBRANCH   7   8
ENDBRANCH   6   7
ENDBRANCH   5   6
ENDBRANCH   4   5
ENDBRANCH   3   4
ENDBRANCH   1   3
BRANCH   2  13
ATOM     13  C   UNL     1      23.509   6.157  23.770  1.00  0.00     0.027 C 
BRANCH  13  14
ATOM     14  C   UNL     1      23.385   5.443  25.125  1.00  0.00     0.004 C 
BRANCH  14  15
ATOM     15  C   UNL     1      24.010   4.038  25.097  1.00  0.00     0.000 C 
BRANCH  15  16
ATOM     16  C   UNL     1      22.999   2.935  25.473  1.00  0.00     0.000 C 
BRANCH  16  17
ATOM     17  C   UNL     1      22.252   2.331  24.268  1.00  0.00    -0.000 C 
BRANCH  17  18
ATOM     18  C   UNL     1      23.074   1.299  23.468  1.00  0.00    -0.000 C 
BRANCH  18  19
ATOM     19  C   UNL     1      22.235   0.495  22.459  1.00  0.00    -0.003 C 
ATOM     20  C   UNL     1      23.067  -0.545  21.708  1.00  0.00     0.004 C 
ENDBRANCH  18  19
ENDBRANCH  17  18
ENDBRANCH  16  17
ENDBRANCH  15  16
ENDBRANCH  14  15
ENDBRANCH  13  14
ENDBRANCH   2  13
TORSDOF 15
ENDMDL
MODEL 7
REMARK VINA RESULT:    -5.367      1.518      4.763
REMARK INTER + INTRA:         -12.515
REMARK INTER:                  -9.604
REMARK INTRA:                  -2.912
REMARK UNBOUND:                -2.442
REMARK SMILES CCCCCCCCC=CCCCCCCCC(=O)[O-]
REMARK SMILES IDX 10 1 9 2 11 3 12 4 13 5 14 6 15 7 16 8 17 9 18 10 19 11
REMARK SMILES IDX 20 12 8 13 7 14 6 15 5 16 4 17 3 18 2 19 1 20
REMARK H PARENT
REMARK Flexibility Score: inf
ROOT
ATOM      1  C   UNL     1      21.549   5.769  23.412  1.00  0.00    -0.031 C 
ATOM      2  C   UNL     1      20.484   4.970  23.238  1.00  0.00    -0.031 C 
ENDROOT
BRANCH   1   3
ATOM      3  C   UNL     1      22.630   5.437  24.404  1.00  0.00     0.027 C 
BRANCH   3   4
ATOM      4  C   UNL     1      23.260   4.060  24.145  1.00  0.00     0.004 C 
BRANCH   4   5
ATOM      5  C   UNL     1      23.179   3.145  25.379  1.00  0.00     0.000 C 
BRANCH   5   6
ATOM      6  C   UNL     1      22.303   1.905  25.141  1.00  0.00     0.000 C 
BRANCH   6   7
ATOM      7  C   UNL     1      22.134   1.579  23.647  1.00  0.00     0.000 C 
BRANCH   7   8
ATOM      8  C   UNL     1      23.172   0.561  23.138  1.00  0.00     0.006 C 
BRANCH   8   9
ATOM      9  C   UNL     1      22.731  -0.228  21.895  1.00  0.00     0.053 C 
BRANCH   9  10
ATOM     10  C   UNL     1      23.538   0.132  20.686  1.00  0.00     0.041 C 
ATOM     11  O   UNL     1      23.043   0.018  19.535  1.00  0.00    -0.550 OA
ATOM     12  O   UNL     1      24.830   0.625  20.835  1.00  0.00    -0.550 OA
ENDBRANCH   9  10
ENDBRANCH   8   9
ENDBRANCH   7   8
ENDBRANCH   6   7
ENDBRANCH   5   6
ENDBRANCH   4   5
ENDBRANCH   3   4
ENDBRANCH   1   3
BRANCH   2  13
ATOM     13  C   UNL     1      19.402   5.303  22.246  1.00  0.00     0.027 C 
BRANCH  13  14
ATOM     14  C   UNL     1      19.728   4.800  20.832  1.00  0.00     0.004 C 
BRANCH  14  15
ATOM     15  C   UNL     1      20.355   3.395  20.847  1.00  0.00     0.000 C 
BRANCH  15  16
ATOM     16  C   UNL     1      21.580   3.287  19.916  1.00  0.00     0.000 C 
BRANCH  16  17
ATOM     17  C   UNL     1      22.914   3.672  20.585  1.00  0.00    -0.000 C 
BRANCH  17  18
ATOM     18  C   UNL     1      23.644   4.849  19.905  1.00  0.00    -0.000 C 
BRANCH  18  19
ATOM     19  C   UNL     1      23.198   6.229  20.421  1.00  0.00    -0.003 C 
ATOM     20  C   UNL     1      24.321   6.973  21.143  1.00  0.00     0.004 C 
ENDBRANCH  18  19
ENDBRANCH  17  18
ENDBRANCH  16  17
ENDBRANCH  15  16
ENDBRANCH  14  15
ENDBRANCH  13  14
ENDBRANCH   2  13
TORSDOF 15
ENDMDL
MODEL 8
REMARK VINA RESULT:    -5.363      2.229      4.875
REMARK INTER + INTRA:         -12.508
REMARK INTER:                 -10.373
REMARK INTRA:                  -2.135
REMARK UNBOUND:                -2.442
REMARK SMILES CCCCCCCCC=CCCCCCCCC(=O)[O-]
REMARK SMILES IDX 10 1 9 2 11 3 12 4 13 5 14 6 15 7 16 8 17 9 18 10 19 11
REMARK SMILES IDX 20 12 8 13 7 14 6 15 5 16 4 17 3 18 2 19 1 20
REMARK H PARENT
REMARK Flexibility Score: inf
ROOT
ATOM      1  C   UNL     1      22.606   0.357  22.400  1.00  0.00    -0.031 C 
ATOM      2  C   UNL     1      23.004   1.051  23.477  1.00  0.00    -0.031 C 
ENDROOT
BRANCH   1   3
ATOM      3  C   UNL     1      23.581  -0.086  21.342  1.00  0.00     0.027 C 
BRANCH   3   4
ATOM      4  C   UNL     1      23.251   0.498  19.960  1.00  0.00     0.004 C 
BRANCH   4   5
ATOM      5  C   UNL     1      23.899   1.877  19.745  1.00  0.00     0.000 C 
BRANCH   5   6
ATOM      6  C   UNL     1      22.906   3.034  19.936  1.00  0.00     0.000 C 
BRANCH   6   7
ATOM      7  C   UNL     1      21.481   2.672  19.480  1.00  0.00     0.000 C 
BRANCH   7   8
ATOM      8  C   UNL     1      20.437   2.839  20.599  1.00  0.00     0.006 C 
BRANCH   8   9
ATOM      9  C   UNL     1      20.836   3.839  21.696  1.00  0.00     0.053 C 
BRANCH   9  10
ATOM     10  C   UNL     1      19.848   4.958  21.821  1.00  0.00     0.041 C 
ATOM     11  O   UNL     1      19.285   5.425  20.797  1.00  0.00    -0.550 OA
ATOM     12  O   UNL     1      19.524   5.462  23.075  1.00  0.00    -0.550 OA
ENDBRANCH   9  10
ENDBRANCH   8   9
ENDBRANCH   7   8
ENDBRANCH   6   7
ENDBRANCH   5   6
ENDBRANCH   4   5
ENDBRANCH   3   4
ENDBRANCH   1   3
BRANCH   2  13
ATOM     13  C   UNL     1      22.029   1.494  24.535  1.00  0.00     0.027 C 
BRANCH  13  14
ATOM     14  C   UNL     1      22.632   2.538  25.488  1.00  0.00     0.004 C 
BRANCH  14  15
ATOM     15  C   UNL     1      23.690   3.412  24.793  1.00  0.00     0.000 C 
BRANCH  15  16
ATOM     16  C   UNL     1      24.101   4.630  25.647  1.00  0.00     0.000 C 
BRANCH  16  17
ATOM     17  C   UNL     1      23.463   5.958  25.195  1.00  0.00    -0.000 C 
BRANCH  17  18
ATOM     18  C   UNL     1      24.476   7.001  24.680  1.00  0.00    -0.000 C 
BRANCH  18  19
ATOM     19  C   UNL     1      24.436   7.193  23.153  1.00  0.00    -0.003 C 
ATOM     20  C   UNL     1      23.182   6.589  22.522  1.00  0.00     0.004 C 
ENDBRANCH  18  19
ENDBRANCH  17  18
ENDBRANCH  16  17
ENDBRANCH  15  16
ENDBRANCH  14  15
ENDBRANCH  13  14
ENDBRANCH   2  13
TORSDOF 15
ENDMDL
MODEL 9
REMARK VINA RESULT:    -5.310      1.672      4.738
REMARK INTER + INTRA:         -12.409
REMARK INTER:                  -9.788
REMARK INTRA:                  -2.621
REMARK UNBOUND:                -2.442
REMARK SMILES CCCCCCCCC=CCCCCCCCC(=O)[O-]
REMARK SMILES IDX 10 1 9 2 11 3 12 4 13 5 14 6 15 7 16 8 17 9 18 10 19 11
REMARK SMILES IDX 20 12 8 13 7 14 6 15 5 16 4 17 3 18 2 19 1 20
REMARK H PARENT
REMARK Flexibility Score: inf
ROOT
ATOM      1  C   UNL     1      23.557   4.357  24.183  1.00  0.00    -0.031 C 
ATOM      2  C   UNL     1      22.774   4.917  23.248  1.00  0.00    -0.031 C 
ENDROOT
BRANCH   1   3
ATOM      3  C   UNL     1      23.003   3.405  25.208  1.00  0.00     0.027 C 
BRANCH   3   4
ATOM      4  C   UNL     1      23.025   1.947  24.726  1.00  0.00     0.004 C 
BRANCH   4   5
ATOM      5  C   UNL     1      21.677   1.516  24.124  1.00  0.00     0.000 C 
BRANCH   5   6
ATOM      6  C   UNL     1      21.834   0.789  22.779  1.00  0.00     0.000 C 
BRANCH   6   7
ATOM      7  C   UNL     1      23.302   0.461  22.452  1.00  0.00     0.000 C 
BRANCH   7   8
ATOM      8  C   UNL     1      23.446  -0.478  21.240  1.00  0.00     0.006 C 
BRANCH   8   9
ATOM      9  C   UNL     1      23.203   0.197  19.881  1.00  0.00     0.053 C 
BRANCH   9  10
ATOM     10  C   UNL     1      23.361  -0.763  18.742  1.00  0.00     0.041 C 
ATOM     11  O   UNL     1      22.545  -1.709  18.592  1.00  0.00    -0.550 OA
ATOM     12  O   UNL     1      24.392  -0.591  17.826  1.00  0.00    -0.550 OA
ENDBRANCH   9  10
ENDBRANCH   8   9
ENDBRANCH   7   8
ENDBRANCH   6   7
ENDBRANCH   5   6
ENDBRANCH   4   5
ENDBRANCH   3   4
ENDBRANCH   1   3
BRANCH   2  13
ATOM     13  C   UNL     1      23.329   5.870  22.222  1.00  0.00     0.027 C 
BRANCH  13  14
ATOM     14  C   UNL     1      23.354   5.263  20.811  1.00  0.00     0.004 C 
BRANCH  14  15
ATOM     15  C   UNL     1      22.815   3.823  20.791  1.00  0.00     0.000 C 
BRANCH  15  16
ATOM     16  C   UNL     1      21.611   3.657  19.842  1.00  0.00     0.000 C 
BRANCH  16  17
ATOM     17  C   UNL     1      20.295   3.288  20.554  1.00  0.00    -0.000 C 
BRANCH  17  18
ATOM     18  C   UNL     1      19.592   4.481  21.236  1.00  0.00    -0.000 C 
BRANCH  18  19
ATOM     19  C   UNL     1      19.605   5.767  20.390  1.00  0.00    -0.003 C 
ATOM     20  C   UNL     1      19.959   7.004  21.215  1.00  0.00     0.004 C 
ENDBRANCH  18  19
ENDBRANCH  17  18
ENDBRANCH  16  17
ENDBRANCH  15  16
ENDBRANCH  14  15
ENDBRANCH  13  14
ENDBRANCH   2  13
TORSDOF 15
ENDMDL
