MODEL 1
REMARK VINA RESULT:    -4.629      0.000      0.000
REMARK INTER + INTRA:          -5.166
REMARK INTER:                  -5.305
REMARK INTRA:                   0.139
REMARK UNBOUND:                 0.139
REMARK SMILES O=C([O-])C=Cc1ccc(O)cc1
REMARK SMILES IDX 6 1 7 2 12 3 8 4 11 5 9 6 5 7 4 8 2 9 1 10 3 11 10 12
REMARK H PARENT 10 13
REMARK Flexibility Score: inf
ROOT
ATOM      1  C   UNL     1      79.742  15.791   2.336  1.00  0.00    -0.025 A 
ATOM      2  C   UNL     1      80.263  17.075   2.550  1.00  0.00     0.012 A 
ATOM      3  C   UNL     1      78.698  15.618   1.410  1.00  0.00     0.012 A 
ATOM      4  C   UNL     1      79.715  18.179   1.888  1.00  0.00     0.047 A 
ATOM      5  C   UNL     1      78.152  16.722   0.749  1.00  0.00     0.047 A 
ATOM      6  C   UNL     1      78.657  18.006   0.989  1.00  0.00     0.115 A 
ENDROOT
BRANCH   1   7
ATOM      7  C   UNL     1      80.371  14.634   3.006  1.00  0.00     0.010 C 
ATOM      8  C   UNL     1      80.134  14.242   4.268  1.00  0.00     0.025 C 
BRANCH   8   9
ATOM      9  C   UNL     1      79.349  14.989   5.270  1.00  0.00     0.064 C 
ATOM     10  O   UNL     1      78.312  15.628   4.952  1.00  0.00    -0.545 OA
ATOM     11  O   UNL     1      79.804  15.044   6.581  1.00  0.00    -0.545 OA
ENDBRANCH   8   9
ENDBRANCH   1   7
BRANCH   6  12
ATOM     12  O   UNL     1      78.120  19.114   0.338  1.00  0.00    -0.508 OA
ATOM     13  H   UNL     1      78.530  19.478  -0.514  1.00  0.00     0.293 HD
ENDBRANCH   6  12
TORSDOF 3
ENDMDL
MODEL 2
REMARK VINA RESULT:    -4.556      1.134      4.624
REMARK INTER + INTRA:          -5.082
REMARK INTER:                  -5.082
REMARK INTRA:                   0.001
REMARK UNBOUND:                 0.139
REMARK SMILES O=C([O-])C=Cc1ccc(O)cc1
REMARK SMILES IDX 6 1 7 2 12 3 8 4 11 5 9 6 5 7 4 8 2 9 1 10 3 11 10 12
REMARK H PARENT 10 13
REMARK Flexibility Score: inf
ROOT
ATOM      1  C   UNL     1      79.025  15.269   2.467  1.00  0.00    -0.025 A 
ATOM      2  C   UNL     1      80.187  14.570   2.827  1.00  0.00     0.012 A 
ATOM      3  C   UNL     1      78.250  15.876   3.471  1.00  0.00     0.012 A 
ATOM      4  C   UNL     1      80.541  14.435   4.173  1.00  0.00     0.047 A 
ATOM      5  C   UNL     1      78.606  15.741   4.816  1.00  0.00     0.047 A 
ATOM      6  C   UNL     1      79.751  15.016   5.170  1.00  0.00     0.115 A 
ENDROOT
BRANCH   1   7
ATOM      7  C   UNL     1      78.699  15.443   1.037  1.00  0.00     0.010 C 
ATOM      8  C   UNL     1      78.666  16.614   0.382  1.00  0.00     0.025 C 
BRANCH   8   9
ATOM      9  C   UNL     1      78.768  17.950   1.001  1.00  0.00     0.064 C 
ATOM     10  O   UNL     1      77.803  18.758   0.989  1.00  0.00    -0.545 OA
ATOM     11  O   UNL     1      79.980  18.350   1.549  1.00  0.00    -0.545 OA
ENDBRANCH   8   9
ENDBRANCH   1   7
BRANCH   6  12
ATOM     12  O   UNL     1      80.116  14.873   6.507  1.00  0.00    -0.508 OA
ATOM     13  H   UNL     1      79.455  14.550   7.204  1.00  0.00     0.293 HD
ENDBRANCH   6  12
TORSDOF 3
ENDMDL
MODEL 3
REMARK VINA RESULT:    -4.219      1.823      4.789
REMARK INTER + INTRA:          -4.696
REMARK INTER:                  -5.074
REMARK INTRA:                   0.378
REMARK UNBOUND:                 0.139
REMARK SMILES O=C([O-])C=Cc1ccc(O)cc1
REMARK SMILES IDX 6 1 7 2 12 3 8 4 11 5 9 6 5 7 4 8 2 9 1 10 3 11 10 12
REMARK H PARENT 10 13
REMARK Flexibility Score: inf
ROOT
ATOM      1  C   UNL     1      79.321  16.150   3.148  1.00  0.00    -0.025 A 
ATOM      2  C   UNL     1      78.788  16.416   4.417  1.00  0.00     0.012 A 
ATOM      3  C   UNL     1      80.223  15.082   2.991  1.00  0.00     0.012 A 
ATOM      4  C   UNL     1      79.189  15.661   5.524  1.00  0.00     0.047 A 
ATOM      5  C   UNL     1      80.622  14.328   4.099  1.00  0.00     0.047 A 
ATOM      6  C   UNL     1      80.108  14.618   5.369  1.00  0.00     0.115 A 
ENDROOT
BRANCH   1   7
ATOM      7  C   UNL     1      78.845  16.926   1.985  1.00  0.00     0.010 C 
ATOM      8  C   UNL     1      79.434  18.024   1.487  1.00  0.00     0.025 C 
BRANCH   8   9
ATOM      9  C   UNL     1      80.553  18.759   2.108  1.00  0.00     0.064 C 
ATOM     10  O   UNL     1      81.331  19.476   1.426  1.00  0.00    -0.545 OA
ATOM     11  O   UNL     1      80.793  18.602   3.467  1.00  0.00    -0.545 OA
ENDBRANCH   8   9
ENDBRANCH   1   7
BRANCH   6  12
ATOM     12  O   UNL     1      80.499  13.875   6.481  1.00  0.00    -0.508 OA
ATOM     13  H   UNL     1      79.964  13.075   6.798  1.00  0.00     0.293 HD
ENDBRANCH   6  12
TORSDOF 3
ENDMDL
MODEL 4
REMARK VINA RESULT:    -4.075     18.480     19.820
REMARK INTER + INTRA:          -4.531
REMARK INTER:                  -4.913
REMARK INTRA:                   0.382
REMARK UNBOUND:                 0.139
REMARK SMILES O=C([O-])C=Cc1ccc(O)cc1
REMARK SMILES IDX 6 1 7 2 12 3 8 4 11 5 9 6 5 7 4 8 2 9 1 10 3 11 10 12
REMARK H PARENT 10 13
REMARK Flexibility Score: inf
ROOT
ATOM      1  C   UNL     1      90.063  27.338  15.573  1.00  0.00    -0.025 A 
ATOM      2  C   UNL     1      89.837  27.352  16.957  1.00  0.00     0.012 A 
ATOM      3  C   UNL     1      89.183  26.625  14.740  1.00  0.00     0.012 A 
ATOM      4  C   UNL     1      88.778  26.621  17.507  1.00  0.00     0.047 A 
ATOM      5  C   UNL     1      88.125  25.896  15.292  1.00  0.00     0.047 A 
ATOM      6  C   UNL     1      87.922  25.889  16.677  1.00  0.00     0.115 A 
ENDROOT
BRANCH   1   7
ATOM      7  C   UNL     1      91.155  28.158  15.011  1.00  0.00     0.010 C 
ATOM      8  C   UNL     1      91.973  27.787  14.013  1.00  0.00     0.025 C 
BRANCH   8   9
ATOM      9  C   UNL     1      92.053  26.438  13.421  1.00  0.00     0.064 C 
ATOM     10  O   UNL     1      92.120  25.406  14.138  1.00  0.00    -0.545 OA
ATOM     11  O   UNL     1      92.125  26.308  12.040  1.00  0.00    -0.545 OA
ENDBRANCH   8   9
ENDBRANCH   1   7
BRANCH   6  12
ATOM     12  O   UNL     1      86.873  25.166  17.239  1.00  0.00    -0.508 OA
ATOM     13  H   UNL     1      86.275  24.574  16.673  1.00  0.00     0.293 HD
ENDBRANCH   6  12
TORSDOF 3
ENDMDL
MODEL 5
REMARK VINA RESULT:    -3.694      2.079      4.468
REMARK INTER + INTRA:          -4.094
REMARK INTER:                  -3.995
REMARK INTRA:                  -0.099
REMARK UNBOUND:                 0.139
REMARK SMILES O=C([O-])C=Cc1ccc(O)cc1
REMARK SMILES IDX 6 1 7 2 12 3 8 4 11 5 9 6 5 7 4 8 2 9 1 10 3 11 10 12
REMARK H PARENT 10 13
REMARK Flexibility Score: inf
ROOT
ATOM      1  C   UNL     1      79.916  14.635   3.468  1.00  0.00    -0.025 A 
ATOM      2  C   UNL     1      79.947  13.958   4.696  1.00  0.00     0.012 A 
ATOM      3  C   UNL     1      79.790  16.035   3.458  1.00  0.00     0.012 A 
ATOM      4  C   UNL     1      79.802  14.664   5.895  1.00  0.00     0.047 A 
ATOM      5  C   UNL     1      79.645  16.739   4.657  1.00  0.00     0.047 A 
ATOM      6  C   UNL     1      79.647  16.054   5.879  1.00  0.00     0.115 A 
ENDROOT
BRANCH   1   7
ATOM      7  C   UNL     1      80.123  13.875   2.218  1.00  0.00     0.010 C 
ATOM      8  C   UNL     1      79.308  13.892   1.152  1.00  0.00     0.025 C 
BRANCH   8   9
ATOM      9  C   UNL     1      77.973  14.520   1.098  1.00  0.00     0.064 C 
ATOM     10  O   UNL     1      76.953  13.940   1.552  1.00  0.00    -0.545 OA
ATOM     11  O   UNL     1      77.831  15.750   0.470  1.00  0.00    -0.545 OA
ENDBRANCH   8   9
ENDBRANCH   1   7
BRANCH   6  12
ATOM     12  O   UNL     1      79.503  16.744   7.080  1.00  0.00    -0.508 OA
ATOM     13  H   UNL     1      79.446  17.755   7.107  1.00  0.00     0.293 HD
ENDBRANCH   6  12
TORSDOF 3
ENDMDL
MODEL 6
REMARK VINA RESULT:    -3.401      2.131      3.395
REMARK INTER + INTRA:          -3.759
REMARK INTER:                  -4.395
REMARK INTRA:                   0.636
REMARK UNBOUND:                 0.139
REMARK SMILES O=C([O-])C=Cc1ccc(O)cc1
REMARK SMILES IDX 6 1 7 2 12 3 8 4 11 5 9 6 5 7 4 8 2 9 1 10 3 11 10 12
REMARK H PARENT 10 13
REMARK Flexibility Score: inf
ROOT
ATOM      1  C   UNL     1      79.608  14.645   5.431  1.00  0.00    -0.025 A 
ATOM      2  C   UNL     1      80.596  14.289   4.501  1.00  0.00     0.012 A 
ATOM      3  C   UNL     1      78.629  15.587   5.067  1.00  0.00     0.012 A 
ATOM      4  C   UNL     1      80.637  14.902   3.245  1.00  0.00     0.047 A 
ATOM      5  C   UNL     1      78.672  16.199   3.811  1.00  0.00     0.047 A 
ATOM      6  C   UNL     1      79.679  15.860   2.898  1.00  0.00     0.115 A 
ENDROOT
BRANCH   1   7
ATOM      7  C   UNL     1      79.552  13.946   6.731  1.00  0.00     0.010 C 
ATOM      8  C   UNL     1      79.730  14.520   7.932  1.00  0.00     0.025 C 
BRANCH   8   9
ATOM      9  C   UNL     1      80.189  15.903   8.167  1.00  0.00     0.064 C 
ATOM     10  O   UNL     1      79.943  16.827   7.348  1.00  0.00    -0.545 OA
ATOM     11  O   UNL     1      80.967  16.176   9.283  1.00  0.00    -0.545 OA
ENDBRANCH   8   9
ENDBRANCH   1   7
BRANCH   6  12
ATOM     12  O   UNL     1      79.733  16.464   1.644  1.00  0.00    -0.508 OA
ATOM     13  H   UNL     1      79.650  17.468   1.535  1.00  0.00     0.293 HD
ENDBRANCH   6  12
TORSDOF 3
ENDMDL
MODEL 7
REMARK VINA RESULT:    -3.384      1.545      4.708
REMARK INTER + INTRA:          -3.739
REMARK INTER:                  -4.517
REMARK INTRA:                   0.778
REMARK UNBOUND:                 0.139
REMARK SMILES O=C([O-])C=Cc1ccc(O)cc1
REMARK SMILES IDX 6 1 7 2 12 3 8 4 11 5 9 6 5 7 4 8 2 9 1 10 3 11 10 12
REMARK H PARENT 10 13
REMARK Flexibility Score: inf
ROOT
ATOM      1  C   UNL     1      79.725  14.887   3.731  1.00  0.00    -0.025 A 
ATOM      2  C   UNL     1      79.182  16.066   4.260  1.00  0.00     0.012 A 
ATOM      3  C   UNL     1      80.181  13.886   4.608  1.00  0.00     0.012 A 
ATOM      4  C   UNL     1      79.141  16.267   5.644  1.00  0.00     0.047 A 
ATOM      5  C   UNL     1      80.139  14.088   5.991  1.00  0.00     0.047 A 
ATOM      6  C   UNL     1      79.622  15.281   6.512  1.00  0.00     0.115 A 
ENDROOT
BRANCH   1   7
ATOM      7  C   UNL     1      79.710  14.675   2.269  1.00  0.00     0.010 C 
ATOM      8  C   UNL     1      79.536  15.633   1.345  1.00  0.00     0.025 C 
BRANCH   8   9
ATOM      9  C   UNL     1      79.150  17.032   1.616  1.00  0.00     0.064 C 
ATOM     10  O   UNL     1      77.947  17.401   1.588  1.00  0.00    -0.545 OA
ATOM     11  O   UNL     1      80.144  17.976   1.841  1.00  0.00    -0.545 OA
ENDBRANCH   8   9
ENDBRANCH   1   7
BRANCH   6  12
ATOM     12  O   UNL     1      79.577  15.494   7.888  1.00  0.00    -0.508 OA
ATOM     13  H   UNL     1      80.416  15.689   8.421  1.00  0.00     0.293 HD
ENDBRANCH   6  12
TORSDOF 3
ENDMDL
MODEL 8
REMARK VINA RESULT:    -3.384     18.743     19.491
REMARK INTER + INTRA:          -3.739
REMARK INTER:                  -4.262
REMARK INTRA:                   0.524
REMARK UNBOUND:                 0.139
REMARK SMILES O=C([O-])C=Cc1ccc(O)cc1
REMARK SMILES IDX 6 1 7 2 12 3 8 4 11 5 9 6 5 7 4 8 2 9 1 10 3 11 10 12
REMARK H PARENT 10 13
REMARK Flexibility Score: inf
ROOT
ATOM      1  C   UNL     1      90.438  27.176  15.656  1.00  0.00    -0.025 A 
ATOM      2  C   UNL     1      91.542  26.317  15.556  1.00  0.00     0.012 A 
ATOM      3  C   UNL     1      89.869  27.703  14.483  1.00  0.00     0.012 A 
ATOM      4  C   UNL     1      92.104  26.032  14.307  1.00  0.00     0.047 A 
ATOM      5  C   UNL     1      90.432  27.417  13.235  1.00  0.00     0.047 A 
ATOM      6  C   UNL     1      91.553  26.583  13.145  1.00  0.00     0.115 A 
ENDROOT
BRANCH   1   7
ATOM      7  C   UNL     1      89.830  27.421  16.979  1.00  0.00     0.010 C 
ATOM      8  C   UNL     1      88.800  26.736  17.502  1.00  0.00     0.025 C 
BRANCH   8   9
ATOM      9  C   UNL     1      87.974  25.743  16.789  1.00  0.00     0.064 C 
ATOM     10  O   UNL     1      87.955  25.683  15.531  1.00  0.00    -0.545 OA
ATOM     11  O   UNL     1      87.147  24.901  17.520  1.00  0.00    -0.545 OA
ENDBRANCH   8   9
ENDBRANCH   1   7
BRANCH   6  12
ATOM     12  O   UNL     1      92.124  26.291  11.908  1.00  0.00    -0.508 OA
ATOM     13  H   UNL     1      92.068  25.363  11.505  1.00  0.00     0.293 HD
ENDBRANCH   6  12
TORSDOF 3
ENDMDL
MODEL 9
REMARK VINA RESULT:    -3.310      2.346      5.509
REMARK INTER + INTRA:          -3.654
REMARK INTER:                  -4.402
REMARK INTRA:                   0.748
REMARK UNBOUND:                 0.139
REMARK SMILES O=C([O-])C=Cc1ccc(O)cc1
REMARK SMILES IDX 6 1 7 2 12 3 8 4 11 5 9 6 5 7 4 8 2 9 1 10 3 11 10 12
REMARK H PARENT 10 13
REMARK Flexibility Score: inf
ROOT
ATOM      1  C   UNL     1      79.763  14.646   5.982  1.00  0.00    -0.025 A 
ATOM      2  C   UNL     1      80.125  13.875   7.096  1.00  0.00     0.012 A 
ATOM      3  C   UNL     1      79.602  16.035   6.129  1.00  0.00     0.012 A 
ATOM      4  C   UNL     1      80.272  14.475   8.351  1.00  0.00     0.047 A 
ATOM      5  C   UNL     1      79.750  16.632   7.385  1.00  0.00     0.047 A 
ATOM      6  C   UNL     1      80.082  15.853   8.500  1.00  0.00     0.115 A 
ENDROOT
BRANCH   1   7
ATOM      7  C   UNL     1      79.664  14.000   4.657  1.00  0.00     0.010 C 
ATOM      8  C   UNL     1      79.435  14.634   3.496  1.00  0.00     0.025 C 
BRANCH   8   9
ATOM      9  C   UNL     1      79.062  16.054   3.350  1.00  0.00     0.064 C 
ATOM     10  O   UNL     1      77.875  16.443   3.507  1.00  0.00    -0.545 OA
ATOM     11  O   UNL     1      80.030  16.971   2.962  1.00  0.00    -0.545 OA
ENDBRANCH   8   9
ENDBRANCH   1   7
BRANCH   6  12
ATOM     12  O   UNL     1      80.231  16.436   9.756  1.00  0.00    -0.508 OA
ATOM     13  H   UNL     1      81.085  16.912  10.021  1.00  0.00     0.293 HD
ENDBRANCH   6  12
TORSDOF 3
ENDMDL
