MODEL 1
REMARK VINA RESULT:    -3.257      0.000      0.000
REMARK INTER + INTRA:         -11.069
REMARK INTER:                  -7.064
REMARK INTRA:                  -4.005
REMARK UNBOUND:                -4.005
REMARK SMILES CCCCCCCCCCCCCCCCCCCCCC(=O)[O-]
REMARK SMILES IDX 12 1 11 2 10 3 9 4 8 5 7 6 6 7 5 8 4 9 3 10 2 11 1 12 13 13
REMARK SMILES IDX 14 14 15 15 16 16 17 17 18 18 19 19 20 20 21 21 22 22 23 23
REMARK SMILES IDX 24 24
REMARK H PARENT
REMARK Flexibility Score: inf
ROOT
ATOM      1  C   UNL     1      -5.348  -3.252  35.800  1.00  0.00     0.000 C 
ENDROOT
BRANCH   1   2
ATOM      2  C   UNL     1      -4.845  -2.516  34.543  1.00  0.00     0.000 C 
BRANCH   2   3
ATOM      3  C   UNL     1      -3.388  -2.859  34.184  1.00  0.00     0.000 C 
BRANCH   3   4
ATOM      4  C   UNL     1      -2.506  -3.062  35.428  1.00  0.00    -0.000 C 
BRANCH   4   5
ATOM      5  C   UNL     1      -1.296  -2.112  35.533  1.00  0.00    -0.000 C 
BRANCH   5   6
ATOM      6  C   UNL     1      -1.127  -1.415  36.898  1.00  0.00    -0.000 C 
BRANCH   6   7
ATOM      7  C   UNL     1      -2.063  -0.214  37.137  1.00  0.00    -0.000 C 
BRANCH   7   8
ATOM      8  C   UNL     1      -2.107   0.819  35.991  1.00  0.00    -0.000 C 
BRANCH   8   9
ATOM      9  C   UNL     1      -3.356   0.740  35.094  1.00  0.00    -0.000 C 
BRANCH   9  10
ATOM     10  C   UNL     1      -3.055   1.069  33.625  1.00  0.00    -0.000 C 
BRANCH  10  11
ATOM     11  C   UNL     1      -1.549   0.996  33.345  1.00  0.00    -0.003 C 
ATOM     12  C   UNL     1      -1.225  -0.127  32.363  1.00  0.00     0.004 C 
ENDBRANCH  10  11
ENDBRANCH   9  10
ENDBRANCH   8   9
ENDBRANCH   7   8
ENDBRANCH   6   7
ENDBRANCH   5   6
ENDBRANCH   4   5
ENDBRANCH   3   4
ENDBRANCH   2   3
ENDBRANCH   1   2
BRANCH   1  13
ATOM     13  C   UNL     1      -6.026  -2.362  36.858  1.00  0.00     0.000 C 
BRANCH  13  14
ATOM     14  C   UNL     1      -5.079  -1.759  37.914  1.00  0.00     0.000 C 
BRANCH  14  15
ATOM     15  C   UNL     1      -5.713  -0.625  38.747  1.00  0.00     0.000 C 
BRANCH  15  16
ATOM     16  C   UNL     1      -6.756   0.179  37.952  1.00  0.00     0.000 C 
BRANCH  16  17
ATOM     17  C   UNL     1      -6.119   1.274  37.080  1.00  0.00     0.000 C 
BRANCH  17  18
ATOM     18  C   UNL     1      -7.050   1.740  35.950  1.00  0.00     0.000 C 
BRANCH  18  19
ATOM     19  C   UNL     1      -7.614   0.541  35.173  1.00  0.00     0.000 C 
BRANCH  19  20
ATOM     20  C   UNL     1      -6.957   0.366  33.792  1.00  0.00     0.006 C 
BRANCH  20  21
ATOM     21  C   UNL     1      -6.669   1.686  33.060  1.00  0.00     0.053 C 
BRANCH  21  22
ATOM     22  C   UNL     1      -7.656   1.948  31.965  1.00  0.00     0.041 C 
ATOM     23  O   UNL     1      -7.274   2.440  30.871  1.00  0.00    -0.550 OA
ATOM     24  O   UNL     1      -9.005   1.686  32.165  1.00  0.00    -0.550 OA
ENDBRANCH  21  22
ENDBRANCH  20  21
ENDBRANCH  19  20
ENDBRANCH  18  19
ENDBRANCH  17  18
ENDBRANCH  16  17
ENDBRANCH  15  16
ENDBRANCH  14  15
ENDBRANCH  13  14
ENDBRANCH   1  13
TORSDOF 20
ENDMDL
MODEL 2
REMARK VINA RESULT:    -3.248      1.549      2.543
REMARK INTER + INTRA:         -11.049
REMARK INTER:                  -7.151
REMARK INTRA:                  -3.899
REMARK UNBOUND:                -4.005
REMARK SMILES CCCCCCCCCCCCCCCCCCCCCC(=O)[O-]
REMARK SMILES IDX 12 1 11 2 10 3 9 4 8 5 7 6 6 7 5 8 4 9 3 10 2 11 1 12 13 13
REMARK SMILES IDX 14 14 15 15 16 16 17 17 18 18 19 19 20 20 21 21 22 22 23 23
REMARK SMILES IDX 24 24
REMARK H PARENT
REMARK Flexibility Score: inf
ROOT
ATOM      1  C   UNL     1      -4.933  -2.561  34.336  1.00  0.00     0.000 C 
ENDROOT
BRANCH   1   2
ATOM      2  C   UNL     1      -3.479  -2.847  33.914  1.00  0.00     0.000 C 
BRANCH   2   3
ATOM      3  C   UNL     1      -2.443  -2.080  34.756  1.00  0.00     0.000 C 
BRANCH   3   4
ATOM      4  C   UNL     1      -1.768  -2.969  35.816  1.00  0.00    -0.000 C 
BRANCH   4   5
ATOM      5  C   UNL     1      -0.526  -2.352  36.490  1.00  0.00    -0.000 C 
BRANCH   5   6
ATOM      6  C   UNL     1       0.808  -2.605  35.758  1.00  0.00    -0.000 C 
BRANCH   6   7
ATOM      7  C   UNL     1       1.416  -1.370  35.064  1.00  0.00    -0.000 C 
BRANCH   7   8
ATOM      8  C   UNL     1       0.700  -0.035  35.360  1.00  0.00    -0.000 C 
BRANCH   8   9
ATOM      9  C   UNL     1       0.373   0.815  34.119  1.00  0.00    -0.000 C 
BRANCH   9  10
ATOM     10  C   UNL     1      -1.080   1.310  34.102  1.00  0.00    -0.000 C 
BRANCH  10  11
ATOM     11  C   UNL     1      -1.769   0.941  32.783  1.00  0.00    -0.003 C 
ATOM     12  C   UNL     1      -0.914  -0.022  31.966  1.00  0.00     0.004 C 
ENDBRANCH  10  11
ENDBRANCH   9  10
ENDBRANCH   8   9
ENDBRANCH   7   8
ENDBRANCH   6   7
ENDBRANCH   5   6
ENDBRANCH   4   5
ENDBRANCH   3   4
ENDBRANCH   2   3
ENDBRANCH   1   2
BRANCH   1  13
ATOM     13  C   UNL     1      -5.380  -3.227  35.650  1.00  0.00     0.000 C 
BRANCH  13  14
ATOM     14  C   UNL     1      -5.844  -2.257  36.754  1.00  0.00     0.000 C 
BRANCH  14  15
ATOM     15  C   UNL     1      -4.959  -2.279  38.018  1.00  0.00     0.000 C 
BRANCH  15  16
ATOM     16  C   UNL     1      -4.614  -0.868  38.522  1.00  0.00     0.000 C 
BRANCH  16  17
ATOM     17  C   UNL     1      -3.238  -0.384  38.034  1.00  0.00     0.000 C 
BRANCH  17  18
ATOM     18  C   UNL     1      -3.302   1.002  37.375  1.00  0.00     0.000 C 
BRANCH  18  19
ATOM     19  C   UNL     1      -4.651   1.213  36.671  1.00  0.00     0.000 C 
BRANCH  19  20
ATOM     20  C   UNL     1      -4.582   0.930  35.159  1.00  0.00     0.006 C 
BRANCH  20  21
ATOM     21  C   UNL     1      -5.560   1.766  34.318  1.00  0.00     0.053 C 
BRANCH  21  22
ATOM     22  C   UNL     1      -6.394   0.912  33.414  1.00  0.00     0.041 C 
ATOM     23  O   UNL     1      -7.260   0.134  33.896  1.00  0.00    -0.550 OA
ATOM     24  O   UNL     1      -6.190   0.945  32.041  1.00  0.00    -0.550 OA
ENDBRANCH  21  22
ENDBRANCH  20  21
ENDBRANCH  19  20
ENDBRANCH  18  19
ENDBRANCH  17  18
ENDBRANCH  16  17
ENDBRANCH  15  16
ENDBRANCH  14  15
ENDBRANCH  13  14
ENDBRANCH   1  13
TORSDOF 20
ENDMDL
MODEL 3
REMARK VINA RESULT:    -3.231      1.898      3.554
REMARK INTER + INTRA:         -11.012
REMARK INTER:                  -6.512
REMARK INTRA:                  -4.500
REMARK UNBOUND:                -4.005
REMARK SMILES CCCCCCCCCCCCCCCCCCCCCC(=O)[O-]
REMARK SMILES IDX 12 1 11 2 10 3 9 4 8 5 7 6 6 7 5 8 4 9 3 10 2 11 1 12 13 13
REMARK SMILES IDX 14 14 15 15 16 16 17 17 18 18 19 19 20 20 21 21 22 22 23 23
REMARK SMILES IDX 24 24
REMARK H PARENT
REMARK Flexibility Score: inf
ROOT
ATOM      1  C   UNL     1      -2.305  -2.137  34.577  1.00  0.00     0.000 C 
ENDROOT
BRANCH   1   2
ATOM      2  C   UNL     1      -1.562  -2.695  35.806  1.00  0.00     0.000 C 
BRANCH   2   3
ATOM      3  C   UNL     1      -1.258  -1.621  36.866  1.00  0.00     0.000 C 
BRANCH   3   4
ATOM      4  C   UNL     1      -2.045  -0.320  36.631  1.00  0.00    -0.000 C 
BRANCH   4   5
ATOM      5  C   UNL     1      -1.291   0.975  36.998  1.00  0.00    -0.000 C 
BRANCH   5   6
ATOM      6  C   UNL     1      -1.074   1.958  35.830  1.00  0.00    -0.000 C 
BRANCH   6   7
ATOM      7  C   UNL     1      -1.158   1.330  34.425  1.00  0.00    -0.000 C 
BRANCH   7   8
ATOM      8  C   UNL     1       0.202   1.066  33.743  1.00  0.00    -0.000 C 
BRANCH   8   9
ATOM      9  C   UNL     1       0.906  -0.231  34.180  1.00  0.00    -0.000 C 
BRANCH   9  10
ATOM     10  C   UNL     1       1.928  -0.004  35.303  1.00  0.00    -0.000 C 
BRANCH  10  11
ATOM     11  C   UNL     1       2.343  -1.334  35.943  1.00  0.00    -0.003 C 
ATOM     12  C   UNL     1       2.038  -2.509  35.018  1.00  0.00     0.004 C 
ENDBRANCH  10  11
ENDBRANCH   9  10
ENDBRANCH   8   9
ENDBRANCH   7   8
ENDBRANCH   6   7
ENDBRANCH   5   6
ENDBRANCH   4   5
ENDBRANCH   3   4
ENDBRANCH   2   3
ENDBRANCH   1   2
BRANCH   1  13
ATOM     13  C   UNL     1      -3.645  -2.821  34.251  1.00  0.00     0.000 C 
BRANCH  13  14
ATOM     14  C   UNL     1      -4.290  -3.593  35.419  1.00  0.00     0.000 C 
BRANCH  14  15
ATOM     15  C   UNL     1      -5.365  -2.791  36.180  1.00  0.00     0.000 C 
BRANCH  15  16
ATOM     16  C   UNL     1      -4.960  -2.489  37.633  1.00  0.00     0.000 C 
BRANCH  16  17
ATOM     17  C   UNL     1      -5.237  -1.031  38.034  1.00  0.00     0.000 C 
BRANCH  17  18
ATOM     18  C   UNL     1      -5.886  -0.222  36.900  1.00  0.00     0.000 C 
BRANCH  18  19
ATOM     19  C   UNL     1      -5.281   1.187  36.815  1.00  0.00     0.000 C 
BRANCH  19  20
ATOM     20  C   UNL     1      -5.153   1.691  35.366  1.00  0.00     0.006 C 
BRANCH  20  21
ATOM     21  C   UNL     1      -4.867   0.585  34.338  1.00  0.00     0.053 C 
BRANCH  21  22
ATOM     22  C   UNL     1      -5.960   0.468  33.321  1.00  0.00     0.041 C 
ATOM     23  O   UNL     1      -6.948  -0.283  33.535  1.00  0.00    -0.550 OA
ATOM     24  O   UNL     1      -5.870   1.156  32.119  1.00  0.00    -0.550 OA
ENDBRANCH  21  22
ENDBRANCH  20  21
ENDBRANCH  19  20
ENDBRANCH  18  19
ENDBRANCH  17  18
ENDBRANCH  16  17
ENDBRANCH  15  16
ENDBRANCH  14  15
ENDBRANCH  13  14
ENDBRANCH   1  13
TORSDOF 20
ENDMDL
MODEL 4
REMARK VINA RESULT:    -3.214      1.013      2.401
REMARK INTER + INTRA:         -10.977
REMARK INTER:                  -6.724
REMARK INTRA:                  -4.253
REMARK UNBOUND:                -4.005
REMARK SMILES CCCCCCCCCCCCCCCCCCCCCC(=O)[O-]
REMARK SMILES IDX 12 1 11 2 10 3 9 4 8 5 7 6 6 7 5 8 4 9 3 10 2 11 1 12 13 13
REMARK SMILES IDX 14 14 15 15 16 16 17 17 18 18 19 19 20 20 21 21 22 22 23 23
REMARK SMILES IDX 24 24
REMARK H PARENT
REMARK Flexibility Score: inf
ROOT
ATOM      1  C   UNL     1      -3.094  -2.497  34.287  1.00  0.00     0.000 C 
ENDROOT
BRANCH   1   2
ATOM      2  C   UNL     1      -2.271  -2.882  35.532  1.00  0.00     0.000 C 
BRANCH   2   3
ATOM      3  C   UNL     1      -0.800  -2.434  35.446  1.00  0.00     0.000 C 
BRANCH   3   4
ATOM      4  C   UNL     1      -0.481  -1.269  36.399  1.00  0.00    -0.000 C 
BRANCH   4   5
ATOM      5  C   UNL     1      -1.661  -0.802  37.276  1.00  0.00    -0.000 C 
BRANCH   5   6
ATOM      6  C   UNL     1      -2.169   0.624  36.983  1.00  0.00    -0.000 C 
BRANCH   6   7
ATOM      7  C   UNL     1      -3.395   0.701  36.052  1.00  0.00    -0.000 C 
BRANCH   7   8
ATOM      8  C   UNL     1      -3.254   1.676  34.864  1.00  0.00    -0.000 C 
BRANCH   8   9
ATOM      9  C   UNL     1      -3.520   1.055  33.481  1.00  0.00    -0.000 C 
BRANCH   9  10
ATOM     10  C   UNL     1      -2.341   1.227  32.514  1.00  0.00    -0.000 C 
BRANCH  10  11
ATOM     11  C   UNL     1      -1.204   0.258  32.860  1.00  0.00    -0.003 C 
ATOM     12  C   UNL     1      -0.057   0.982  33.560  1.00  0.00     0.004 C 
ENDBRANCH  10  11
ENDBRANCH   9  10
ENDBRANCH   8   9
ENDBRANCH   7   8
ENDBRANCH   6   7
ENDBRANCH   5   6
ENDBRANCH   4   5
ENDBRANCH   3   4
ENDBRANCH   2   3
ENDBRANCH   1   2
BRANCH   1  13
ATOM     13  C   UNL     1      -4.622  -2.559  34.463  1.00  0.00     0.000 C 
BRANCH  13  14
ATOM     14  C   UNL     1      -5.109  -3.327  35.707  1.00  0.00     0.000 C 
BRANCH  14  15
ATOM     15  C   UNL     1      -5.878  -2.452  36.720  1.00  0.00     0.000 C 
BRANCH  15  16
ATOM     16  C   UNL     1      -5.044  -2.126  37.971  1.00  0.00     0.000 C 
BRANCH  16  17
ATOM     17  C   UNL     1      -5.479  -0.815  38.647  1.00  0.00     0.000 C 
BRANCH  17  18
ATOM     18  C   UNL     1      -6.830  -0.303  38.122  1.00  0.00     0.000 C 
BRANCH  18  19
ATOM     19  C   UNL     1      -6.683   1.093  37.500  1.00  0.00     0.000 C 
BRANCH  19  20
ATOM     20  C   UNL     1      -7.488   1.250  36.197  1.00  0.00     0.006 C 
BRANCH  20  21
ATOM     21  C   UNL     1      -6.850   0.567  34.977  1.00  0.00     0.053 C 
BRANCH  21  22
ATOM     22  C   UNL     1      -7.692   0.710  33.748  1.00  0.00     0.041 C 
ATOM     23  O   UNL     1      -7.170   1.067  32.659  1.00  0.00    -0.550 OA
ATOM     24  O   UNL     1      -9.062   0.489  33.812  1.00  0.00    -0.550 OA
ENDBRANCH  21  22
ENDBRANCH  20  21
ENDBRANCH  19  20
ENDBRANCH  18  19
ENDBRANCH  17  18
ENDBRANCH  16  17
ENDBRANCH  15  16
ENDBRANCH  14  15
ENDBRANCH  13  14
ENDBRANCH   1  13
TORSDOF 20
ENDMDL
MODEL 5
REMARK VINA RESULT:    -3.194      3.484      6.084
REMARK INTER + INTRA:         -10.932
REMARK INTER:                  -7.007
REMARK INTRA:                  -3.925
REMARK UNBOUND:                -4.005
REMARK SMILES CCCCCCCCCCCCCCCCCCCCCC(=O)[O-]
REMARK SMILES IDX 12 1 11 2 10 3 9 4 8 5 7 6 6 7 5 8 4 9 3 10 2 11 1 12 13 13
REMARK SMILES IDX 14 14 15 15 16 16 17 17 18 18 19 19 20 20 21 21 22 22 23 23
REMARK SMILES IDX 24 24
REMARK H PARENT
REMARK Flexibility Score: inf
ROOT
ATOM      1  C   UNL     1      -5.027  -2.949  35.128  1.00  0.00     0.000 C 
ENDROOT
BRANCH   1   2
ATOM      2  C   UNL     1      -5.369  -1.699  34.295  1.00  0.00     0.000 C 
BRANCH   2   3
ATOM      3  C   UNL     1      -4.206  -0.695  34.206  1.00  0.00     0.000 C 
BRANCH   3   4
ATOM      4  C   UNL     1      -4.671   0.764  34.356  1.00  0.00    -0.000 C 
BRANCH   4   5
ATOM      5  C   UNL     1      -4.046   1.755  33.354  1.00  0.00    -0.000 C 
BRANCH   5   6
ATOM      6  C   UNL     1      -4.999   2.260  32.252  1.00  0.00    -0.000 C 
BRANCH   6   7
ATOM      7  C   UNL     1      -6.161   1.308  31.909  1.00  0.00    -0.000 C 
BRANCH   7   8
ATOM      8  C   UNL     1      -7.553   1.971  31.844  1.00  0.00    -0.000 C 
BRANCH   8   9
ATOM      9  C   UNL     1      -8.295   2.055  33.190  1.00  0.00    -0.000 C 
BRANCH   9  10
ATOM     10  C   UNL     1      -8.390   0.699  33.903  1.00  0.00    -0.000 C 
BRANCH  10  11
ATOM     11  C   UNL     1      -8.244   0.867  35.420  1.00  0.00    -0.003 C 
ATOM     12  C   UNL     1      -7.707   2.251  35.772  1.00  0.00     0.004 C 
ENDBRANCH  10  11
ENDBRANCH   9  10
ENDBRANCH   8   9
ENDBRANCH   7   8
ENDBRANCH   6   7
ENDBRANCH   5   6
ENDBRANCH   4   5
ENDBRANCH   3   4
ENDBRANCH   2   3
ENDBRANCH   1   2
BRANCH   1  13
ATOM     13  C   UNL     1      -5.290  -2.825  36.640  1.00  0.00     0.000 C 
BRANCH  13  14
ATOM     14  C   UNL     1      -6.355  -1.785  37.039  1.00  0.00     0.000 C 
BRANCH  14  15
ATOM     15  C   UNL     1      -5.858  -0.742  38.061  1.00  0.00     0.000 C 
BRANCH  15  16
ATOM     16  C   UNL     1      -4.815  -1.318  39.033  1.00  0.00     0.000 C 
BRANCH  16  17
ATOM     17  C   UNL     1      -3.484  -0.548  38.997  1.00  0.00     0.000 C 
BRANCH  17  18
ATOM     18  C   UNL     1      -3.358   0.351  37.758  1.00  0.00     0.000 C 
BRANCH  18  19
ATOM     19  C   UNL     1      -2.049   0.069  37.006  1.00  0.00     0.000 C 
BRANCH  19  20
ATOM     20  C   UNL     1      -1.725  -1.434  36.920  1.00  0.00     0.006 C 
BRANCH  20  21
ATOM     21  C   UNL     1      -0.954  -1.840  35.654  1.00  0.00     0.053 C 
BRANCH  21  22
ATOM     22  C   UNL     1       0.515  -1.980  35.911  1.00  0.00     0.041 C 
ATOM     23  O   UNL     1       1.076  -3.100  35.791  1.00  0.00    -0.550 OA
ATOM     24  O   UNL     1       1.257  -0.881  36.324  1.00  0.00    -0.550 OA
ENDBRANCH  21  22
ENDBRANCH  20  21
ENDBRANCH  19  20
ENDBRANCH  18  19
ENDBRANCH  17  18
ENDBRANCH  16  17
ENDBRANCH  15  16
ENDBRANCH  14  15
ENDBRANCH  13  14
ENDBRANCH   1  13
TORSDOF 20
ENDMDL
MODEL 6
REMARK VINA RESULT:    -3.161      1.840      3.083
REMARK INTER + INTRA:         -10.862
REMARK INTER:                  -6.947
REMARK INTRA:                  -3.915
REMARK UNBOUND:                -4.005
REMARK SMILES CCCCCCCCCCCCCCCCCCCCCC(=O)[O-]
REMARK SMILES IDX 12 1 11 2 10 3 9 4 8 5 7 6 6 7 5 8 4 9 3 10 2 11 1 12 13 13
REMARK SMILES IDX 14 14 15 15 16 16 17 17 18 18 19 19 20 20 21 21 22 22 23 23
REMARK SMILES IDX 24 24
REMARK H PARENT
REMARK Flexibility Score: inf
ROOT
ATOM      1  C   UNL     1      -3.193  -2.634  33.931  1.00  0.00     0.000 C 
ENDROOT
BRANCH   1   2
ATOM      2  C   UNL     1      -2.261  -1.909  34.921  1.00  0.00     0.000 C 
BRANCH   2   3
ATOM      3  C   UNL     1      -1.637  -2.852  35.966  1.00  0.00     0.000 C 
BRANCH   3   4
ATOM      4  C   UNL     1      -0.314  -2.311  36.535  1.00  0.00    -0.000 C 
BRANCH   4   5
ATOM      5  C   UNL     1       0.901  -2.433  35.593  1.00  0.00    -0.000 C 
BRANCH   5   6
ATOM      6  C   UNL     1       2.024  -1.404  35.836  1.00  0.00    -0.000 C 
BRANCH   6   7
ATOM      7  C   UNL     1       1.989  -0.171  34.912  1.00  0.00    -0.000 C 
BRANCH   7   8
ATOM      8  C   UNL     1       1.068  -0.302  33.680  1.00  0.00    -0.000 C 
BRANCH   8   9
ATOM      9  C   UNL     1      -0.099   0.701  33.634  1.00  0.00    -0.000 C 
BRANCH   9  10
ATOM     10  C   UNL     1      -0.047   1.727  34.774  1.00  0.00    -0.000 C 
BRANCH  10  11
ATOM     11  C   UNL     1      -1.253   1.571  35.708  1.00  0.00    -0.003 C 
ATOM     12  C   UNL     1      -0.807   1.297  37.141  1.00  0.00     0.004 C 
ENDBRANCH  10  11
ENDBRANCH   9  10
ENDBRANCH   8   9
ENDBRANCH   7   8
ENDBRANCH   6   7
ENDBRANCH   5   6
ENDBRANCH   4   5
ENDBRANCH   3   4
ENDBRANCH   2   3
ENDBRANCH   1   2
BRANCH   1  13
ATOM     13  C   UNL     1      -4.693  -2.569  34.270  1.00  0.00     0.000 C 
BRANCH  13  14
ATOM     14  C   UNL     1      -5.148  -3.489  35.420  1.00  0.00     0.000 C 
BRANCH  14  15
ATOM     15  C   UNL     1      -5.841  -2.745  36.579  1.00  0.00     0.000 C 
BRANCH  15  16
ATOM     16  C   UNL     1      -4.850  -2.278  37.659  1.00  0.00     0.000 C 
BRANCH  16  17
ATOM     17  C   UNL     1      -5.031  -0.795  38.027  1.00  0.00     0.000 C 
BRANCH  17  18
ATOM     18  C   UNL     1      -4.405   0.148  36.988  1.00  0.00     0.000 C 
BRANCH  18  19
ATOM     19  C   UNL     1      -5.483   0.997  36.297  1.00  0.00     0.000 C 
BRANCH  19  20
ATOM     20  C   UNL     1      -4.936   1.788  35.095  1.00  0.00     0.006 C 
BRANCH  20  21
ATOM     21  C   UNL     1      -4.658   0.930  33.851  1.00  0.00     0.053 C 
BRANCH  21  22
ATOM     22  C   UNL     1      -5.881   0.758  33.003  1.00  0.00     0.041 C 
ATOM     23  O   UNL     1      -5.943   1.290  31.864  1.00  0.00    -0.550 OA
ATOM     24  O   UNL     1      -6.969   0.043  33.487  1.00  0.00    -0.550 OA
ENDBRANCH  21  22
ENDBRANCH  20  21
ENDBRANCH  19  20
ENDBRANCH  18  19
ENDBRANCH  17  18
ENDBRANCH  16  17
ENDBRANCH  15  16
ENDBRANCH  14  15
ENDBRANCH  13  14
ENDBRANCH   1  13
TORSDOF 20
ENDMDL
MODEL 7
REMARK VINA RESULT:    -3.148      1.694      2.893
REMARK INTER + INTRA:         -10.834
REMARK INTER:                  -7.290
REMARK INTRA:                  -3.544
REMARK UNBOUND:                -4.005
REMARK SMILES CCCCCCCCCCCCCCCCCCCCCC(=O)[O-]
REMARK SMILES IDX 12 1 11 2 10 3 9 4 8 5 7 6 6 7 5 8 4 9 3 10 2 11 1 12 13 13
REMARK SMILES IDX 14 14 15 15 16 16 17 17 18 18 19 19 20 20 21 21 22 22 23 23
REMARK SMILES IDX 24 24
REMARK H PARENT
REMARK Flexibility Score: inf
ROOT
ATOM      1  C   UNL     1      -3.935  -1.654  33.975  1.00  0.00     0.000 C 
ENDROOT
BRANCH   1   2
ATOM      2  C   UNL     1      -2.552  -1.043  34.274  1.00  0.00     0.000 C 
BRANCH   2   3
ATOM      3  C   UNL     1      -2.430  -0.494  35.707  1.00  0.00     0.000 C 
BRANCH   3   4
ATOM      4  C   UNL     1      -1.559  -1.387  36.608  1.00  0.00    -0.000 C 
BRANCH   4   5
ATOM      5  C   UNL     1      -0.826  -2.532  35.881  1.00  0.00    -0.000 C 
BRANCH   5   6
ATOM      6  C   UNL     1       0.681  -2.645  36.190  1.00  0.00    -0.000 C 
BRANCH   6   7
ATOM      7  C   UNL     1       1.543  -1.479  35.669  1.00  0.00    -0.000 C 
BRANCH   7   8
ATOM      8  C   UNL     1       1.266  -1.062  34.209  1.00  0.00    -0.000 C 
BRANCH   8   9
ATOM      9  C   UNL     1       0.829   0.402  34.024  1.00  0.00    -0.000 C 
BRANCH   9  10
ATOM     10  C   UNL     1       1.190   0.960  32.640  1.00  0.00    -0.000 C 
BRANCH  10  11
ATOM     11  C   UNL     1       0.701   0.024  31.528  1.00  0.00    -0.003 C 
ATOM     12  C   UNL     1      -0.800   0.179  31.299  1.00  0.00     0.004 C 
ENDBRANCH  10  11
ENDBRANCH   9  10
ENDBRANCH   8   9
ENDBRANCH   7   8
ENDBRANCH   6   7
ENDBRANCH   5   6
ENDBRANCH   4   5
ENDBRANCH   3   4
ENDBRANCH   2   3
ENDBRANCH   1   2
BRANCH   1  13
ATOM     13  C   UNL     1      -3.997  -3.191  34.014  1.00  0.00     0.000 C 
BRANCH  13  14
ATOM     14  C   UNL     1      -4.290  -3.803  35.398  1.00  0.00     0.000 C 
BRANCH  14  15
ATOM     15  C   UNL     1      -5.426  -3.094  36.166  1.00  0.00     0.000 C 
BRANCH  15  16
ATOM     16  C   UNL     1      -4.954  -2.506  37.507  1.00  0.00     0.000 C 
BRANCH  16  17
ATOM     17  C   UNL     1      -5.561  -1.121  37.791  1.00  0.00     0.000 C 
BRANCH  17  18
ATOM     18  C   UNL     1      -6.549  -0.678  36.701  1.00  0.00     0.000 C 
BRANCH  18  19
ATOM     19  C   UNL     1      -6.048   0.587  35.987  1.00  0.00     0.000 C 
BRANCH  19  20
ATOM     20  C   UNL     1      -7.015   1.074  34.893  1.00  0.00     0.006 C 
BRANCH  20  21
ATOM     21  C   UNL     1      -6.922   0.288  33.576  1.00  0.00     0.053 C 
BRANCH  21  22
ATOM     22  C   UNL     1      -6.356   1.118  32.466  1.00  0.00     0.041 C 
ATOM     23  O   UNL     1      -5.120   1.353  32.416  1.00  0.00    -0.550 OA
ATOM     24  O   UNL     1      -7.197   1.667  31.507  1.00  0.00    -0.550 OA
ENDBRANCH  21  22
ENDBRANCH  20  21
ENDBRANCH  19  20
ENDBRANCH  18  19
ENDBRANCH  17  18
ENDBRANCH  16  17
ENDBRANCH  15  16
ENDBRANCH  14  15
ENDBRANCH  13  14
ENDBRANCH   1  13
TORSDOF 20
ENDMDL
MODEL 8
REMARK VINA RESULT:    -3.144      1.567      2.510
REMARK INTER + INTRA:         -10.824
REMARK INTER:                  -7.459
REMARK INTRA:                  -3.365
REMARK UNBOUND:                -4.005
REMARK SMILES CCCCCCCCCCCCCCCCCCCCCC(=O)[O-]
REMARK SMILES IDX 12 1 11 2 10 3 9 4 8 5 7 6 6 7 5 8 4 9 3 10 2 11 1 12 13 13
REMARK SMILES IDX 14 14 15 15 16 16 17 17 18 18 19 19 20 20 21 21 22 22 23 23
REMARK SMILES IDX 24 24
REMARK H PARENT
REMARK Flexibility Score: inf
ROOT
ATOM      1  C   UNL     1      -4.032  -3.662  35.383  1.00  0.00     0.000 C 
ENDROOT
BRANCH   1   2
ATOM      2  C   UNL     1      -3.717  -2.897  34.083  1.00  0.00     0.000 C 
BRANCH   2   3
ATOM      3  C   UNL     1      -4.562  -1.621  33.914  1.00  0.00     0.000 C 
BRANCH   3   4
ATOM      4  C   UNL     1      -3.742  -0.337  34.129  1.00  0.00    -0.000 C 
BRANCH   4   5
ATOM      5  C   UNL     1      -2.306  -0.558  34.647  1.00  0.00    -0.000 C 
BRANCH   5   6
ATOM      6  C   UNL     1      -2.057  -0.100  36.098  1.00  0.00    -0.000 C 
BRANCH   6   7
ATOM      7  C   UNL     1      -1.053  -0.960  36.890  1.00  0.00    -0.000 C 
BRANCH   7   8
ATOM      8  C   UNL     1      -0.805  -2.371  36.316  1.00  0.00    -0.000 C 
BRANCH   8   9
ATOM      9  C   UNL     1       0.641  -2.641  35.860  1.00  0.00    -0.000 C 
BRANCH   9  10
ATOM     10  C   UNL     1       1.518  -1.381  35.887  1.00  0.00    -0.000 C 
BRANCH  10  11
ATOM     11  C   UNL     1       1.817  -0.892  34.465  1.00  0.00    -0.003 C 
ATOM     12  C   UNL     1       1.223   0.493  34.223  1.00  0.00     0.004 C 
ENDBRANCH  10  11
ENDBRANCH   9  10
ENDBRANCH   8   9
ENDBRANCH   7   8
ENDBRANCH   6   7
ENDBRANCH   5   6
ENDBRANCH   4   5
ENDBRANCH   3   4
ENDBRANCH   2   3
ENDBRANCH   1   2
BRANCH   1  13
ATOM     13  C   UNL     1      -5.267  -3.165  36.157  1.00  0.00     0.000 C 
BRANCH  13  14
ATOM     14  C   UNL     1      -4.967  -2.492  37.510  1.00  0.00     0.000 C 
BRANCH  14  15
ATOM     15  C   UNL     1      -5.186  -0.965  37.510  1.00  0.00     0.000 C 
BRANCH  15  16
ATOM     16  C   UNL     1      -6.436  -0.547  38.304  1.00  0.00     0.000 C 
BRANCH  16  17
ATOM     17  C   UNL     1      -7.640  -0.246  37.395  1.00  0.00     0.000 C 
BRANCH  17  18
ATOM     18  C   UNL     1      -7.218   0.254  36.006  1.00  0.00     0.000 C 
BRANCH  18  19
ATOM     19  C   UNL     1      -8.176   1.343  35.500  1.00  0.00     0.000 C 
BRANCH  19  20
ATOM     20  C   UNL     1      -7.754   1.918  34.136  1.00  0.00     0.006 C 
BRANCH  20  21
ATOM     21  C   UNL     1      -7.103   0.892  33.195  1.00  0.00     0.053 C 
BRANCH  21  22
ATOM     22  C   UNL     1      -6.627   1.521  31.921  1.00  0.00     0.041 C 
ATOM     23  O   UNL     1      -5.399   1.734  31.739  1.00  0.00    -0.550 OA
ATOM     24  O   UNL     1      -7.542   1.909  30.952  1.00  0.00    -0.550 OA
ENDBRANCH  21  22
ENDBRANCH  20  21
ENDBRANCH  19  20
ENDBRANCH  18  19
ENDBRANCH  17  18
ENDBRANCH  16  17
ENDBRANCH  15  16
ENDBRANCH  14  15
ENDBRANCH  13  14
ENDBRANCH   1  13
TORSDOF 20
ENDMDL
MODEL 9
REMARK VINA RESULT:    -3.083      1.498      2.779
REMARK INTER + INTRA:         -10.692
REMARK INTER:                  -6.617
REMARK INTRA:                  -4.075
REMARK UNBOUND:                -4.005
REMARK SMILES CCCCCCCCCCCCCCCCCCCCCC(=O)[O-]
REMARK SMILES IDX 12 1 11 2 10 3 9 4 8 5 7 6 6 7 5 8 4 9 3 10 2 11 1 12 13 13
REMARK SMILES IDX 14 14 15 15 16 16 17 17 18 18 19 19 20 20 21 21 22 22 23 23
REMARK SMILES IDX 24 24
REMARK H PARENT
REMARK Flexibility Score: inf
ROOT
ATOM      1  C   UNL     1      -3.159  -2.856  34.279  1.00  0.00     0.000 C 
ENDROOT
BRANCH   1   2
ATOM      2  C   UNL     1      -1.864  -2.119  34.671  1.00  0.00     0.000 C 
BRANCH   2   3
ATOM      3  C   UNL     1      -1.221  -2.671  35.956  1.00  0.00     0.000 C 
BRANCH   3   4
ATOM      4  C   UNL     1      -0.114  -1.753  36.504  1.00  0.00    -0.000 C 
BRANCH   4   5
ATOM      5  C   UNL     1       0.545  -0.829  35.459  1.00  0.00    -0.000 C 
BRANCH   5   6
ATOM      6  C   UNL     1       0.681   0.647  35.885  1.00  0.00    -0.000 C 
BRANCH   6   7
ATOM      7  C   UNL     1      -0.361   1.602  35.269  1.00  0.00    -0.000 C 
BRANCH   7   8
ATOM      8  C   UNL     1      -0.262   1.779  33.739  1.00  0.00    -0.000 C 
BRANCH   8   9
ATOM      9  C   UNL     1      -1.471   1.252  32.945  1.00  0.00    -0.000 C 
BRANCH   9  10
ATOM     10  C   UNL     1      -1.102   0.114  31.984  1.00  0.00    -0.000 C 
BRANCH  10  11
ATOM     11  C   UNL     1       0.413   0.064  31.751  1.00  0.00    -0.003 C 
ATOM     12  C   UNL     1       0.740   0.047  30.261  1.00  0.00     0.004 C 
ENDBRANCH  10  11
ENDBRANCH   9  10
ENDBRANCH   8   9
ENDBRANCH   7   8
ENDBRANCH   6   7
ENDBRANCH   5   6
ENDBRANCH   4   5
ENDBRANCH   3   4
ENDBRANCH   2   3
ENDBRANCH   1   2
BRANCH   1  13
ATOM     13  C   UNL     1      -3.874  -3.589  35.429  1.00  0.00     0.000 C 
BRANCH  13  14
ATOM     14  C   UNL     1      -5.383  -3.305  35.552  1.00  0.00     0.000 C 
BRANCH  14  15
ATOM     15  C   UNL     1      -5.768  -2.508  36.816  1.00  0.00     0.000 C 
BRANCH  15  16
ATOM     16  C   UNL     1      -4.540  -1.989  37.584  1.00  0.00     0.000 C 
BRANCH  16  17
ATOM     17  C   UNL     1      -4.535  -0.457  37.725  1.00  0.00     0.000 C 
BRANCH  17  18
ATOM     18  C   UNL     1      -3.462   0.210  36.851  1.00  0.00     0.000 C 
BRANCH  18  19
ATOM     19  C   UNL     1      -4.104   1.119  35.792  1.00  0.00     0.000 C 
BRANCH  19  20
ATOM     20  C   UNL     1      -4.697   0.328  34.612  1.00  0.00     0.006 C 
BRANCH  20  21
ATOM     21  C   UNL     1      -6.211   0.517  34.426  1.00  0.00     0.053 C 
BRANCH  21  22
ATOM     22  C   UNL     1      -6.554   0.983  33.045  1.00  0.00     0.041 C 
ATOM     23  O   UNL     1      -5.642   1.211  32.207  1.00  0.00    -0.550 OA
ATOM     24  O   UNL     1      -7.879   1.205  32.694  1.00  0.00    -0.550 OA
ENDBRANCH  21  22
ENDBRANCH  20  21
ENDBRANCH  19  20
ENDBRANCH  18  19
ENDBRANCH  17  18
ENDBRANCH  16  17
ENDBRANCH  15  16
ENDBRANCH  14  15
ENDBRANCH  13  14
ENDBRANCH   1  13
TORSDOF 20
ENDMDL
