MODEL 1
REMARK VINA RESULT:    -4.644      0.000      0.000
REMARK INTER + INTRA:          -8.720
REMARK INTER:                  -7.901
REMARK INTRA:                  -0.819
REMARK UNBOUND:                -0.819
REMARK SMILES CCCCCCCCCCCCCC(=O)[O-]
REMARK SMILES IDX 8 1 9 2 10 3 11 4 12 5 13 6 14 7 15 8 16 9 7 10 6 11 5 12
REMARK SMILES IDX 4 13 3 14 2 15 1 16
REMARK H PARENT
REMARK Flexibility Score: inf
ROOT
ATOM      1  C   UNL     1      -7.561  -2.731 -13.896  1.00  0.00     0.000 C 
ENDROOT
BRANCH   1   2
ATOM      2  C   UNL     1      -8.299  -2.135 -12.688  1.00  0.00     0.000 C 
BRANCH   2   3
ATOM      3  C   UNL     1      -7.395  -2.109 -11.450  1.00  0.00     0.000 C 
BRANCH   3   4
ATOM      4  C   UNL     1      -7.049  -0.670 -11.051  1.00  0.00     0.000 C 
BRANCH   4   5
ATOM      5  C   UNL     1      -6.575  -0.602  -9.591  1.00  0.00     0.006 C 
BRANCH   5   6
ATOM      6  C   UNL     1      -7.295   0.496  -8.797  1.00  0.00     0.053 C 
BRANCH   6   7
ATOM      7  C   UNL     1      -6.702   1.847  -9.055  1.00  0.00     0.041 C 
ATOM      8  O   UNL     1      -5.456   2.017  -8.981  1.00  0.00    -0.550 OA
ATOM      9  O   UNL     1      -7.528   2.924  -9.346  1.00  0.00    -0.550 OA
ENDBRANCH   6   7
ENDBRANCH   5   6
ENDBRANCH   4   5
ENDBRANCH   3   4
ENDBRANCH   2   3
ENDBRANCH   1   2
BRANCH   1  10
ATOM     10  C   UNL     1      -7.802  -4.240 -14.051  1.00  0.00     0.000 C 
BRANCH  10  11
ATOM     11  C   UNL     1      -8.364  -4.611 -15.436  1.00  0.00    -0.000 C 
BRANCH  11  12
ATOM     12  C   UNL     1      -9.558  -3.732 -15.840  1.00  0.00    -0.000 C 
BRANCH  12  13
ATOM     13  C   UNL     1     -10.851  -4.119 -15.099  1.00  0.00    -0.000 C 
BRANCH  13  14
ATOM     14  C   UNL     1     -11.211  -5.607 -15.264  1.00  0.00    -0.000 C 
BRANCH  14  15
ATOM     15  C   UNL     1     -11.199  -6.421 -13.957  1.00  0.00    -0.003 C 
ATOM     16  C   UNL     1     -10.524  -7.783 -14.109  1.00  0.00     0.004 C 
ENDBRANCH  14  15
ENDBRANCH  13  14
ENDBRANCH  12  13
ENDBRANCH  11  12
ENDBRANCH  10  11
ENDBRANCH   1  10
TORSDOF 12
ENDMDL
MODEL 2
REMARK VINA RESULT:    -4.627      1.248      1.827
REMARK INTER + INTRA:          -8.692
REMARK INTER:                  -7.954
REMARK INTRA:                  -0.738
REMARK UNBOUND:                -0.819
REMARK SMILES CCCCCCCCCCCCCC(=O)[O-]
REMARK SMILES IDX 8 1 9 2 10 3 11 4 12 5 13 6 14 7 15 8 16 9 7 10 6 11 5 12
REMARK SMILES IDX 4 13 3 14 2 15 1 16
REMARK H PARENT
REMARK Flexibility Score: inf
ROOT
ATOM      1  C   UNL     1      -7.161  -2.449 -13.775  1.00  0.00     0.000 C 
ENDROOT
BRANCH   1   2
ATOM      2  C   UNL     1      -8.118  -2.051 -12.642  1.00  0.00     0.000 C 
BRANCH   2   3
ATOM      3  C   UNL     1      -7.458  -2.245 -11.272  1.00  0.00     0.000 C 
BRANCH   3   4
ATOM      4  C   UNL     1      -6.130  -1.484 -11.189  1.00  0.00     0.000 C 
BRANCH   4   5
ATOM      5  C   UNL     1      -6.001  -0.747  -9.846  1.00  0.00     0.006 C 
BRANCH   5   6
ATOM      6  C   UNL     1      -6.978   0.431  -9.734  1.00  0.00     0.053 C 
BRANCH   6   7
ATOM      7  C   UNL     1      -6.312   1.736 -10.046  1.00  0.00     0.041 C 
ATOM      8  O   UNL     1      -6.671   2.407 -11.049  1.00  0.00    -0.550 OA
ATOM      9  O   UNL     1      -5.273   2.194  -9.246  1.00  0.00    -0.550 OA
ENDBRANCH   6   7
ENDBRANCH   5   6
ENDBRANCH   4   5
ENDBRANCH   3   4
ENDBRANCH   2   3
ENDBRANCH   1   2
BRANCH   1  10
ATOM     10  C   UNL     1      -7.708  -3.598 -14.636  1.00  0.00     0.000 C 
BRANCH  10  11
ATOM     11  C   UNL     1      -9.247  -3.611 -14.697  1.00  0.00    -0.000 C 
BRANCH  11  12
ATOM     12  C   UNL     1      -9.777  -3.925 -16.104  1.00  0.00    -0.000 C 
BRANCH  12  13
ATOM     13  C   UNL     1     -11.073  -4.755 -16.073  1.00  0.00    -0.000 C 
BRANCH  13  14
ATOM     14  C   UNL     1     -11.467  -5.193 -14.650  1.00  0.00    -0.000 C 
BRANCH  14  15
ATOM     15  C   UNL     1     -12.754  -4.544 -14.110  1.00  0.00    -0.003 C 
ATOM     16  C   UNL     1     -13.533  -3.779 -15.180  1.00  0.00     0.004 C 
ENDBRANCH  14  15
ENDBRANCH  13  14
ENDBRANCH  12  13
ENDBRANCH  11  12
ENDBRANCH  10  11
ENDBRANCH   1  10
TORSDOF 12
ENDMDL
MODEL 3
REMARK VINA RESULT:    -4.599      3.952      7.974
REMARK INTER + INTRA:          -8.645
REMARK INTER:                  -7.350
REMARK INTRA:                  -1.295
REMARK UNBOUND:                -0.819
REMARK SMILES CCCCCCCCCCCCCC(=O)[O-]
REMARK SMILES IDX 8 1 9 2 10 3 11 4 12 5 13 6 14 7 15 8 16 9 7 10 6 11 5 12
REMARK SMILES IDX 4 13 3 14 2 15 1 16
REMARK H PARENT
REMARK Flexibility Score: inf
ROOT
ATOM      1  C   UNL     1      -6.552  -2.194 -10.752  1.00  0.00     0.000 C 
ENDROOT
BRANCH   1   2
ATOM      2  C   UNL     1      -7.374  -1.255 -11.646  1.00  0.00     0.000 C 
BRANCH   2   3
ATOM      3  C   UNL     1      -8.280  -2.052 -12.592  1.00  0.00     0.000 C 
BRANCH   3   4
ATOM      4  C   UNL     1      -7.473  -3.091 -13.381  1.00  0.00     0.000 C 
BRANCH   4   5
ATOM      5  C   UNL     1      -8.168  -3.435 -14.708  1.00  0.00     0.006 C 
BRANCH   5   6
ATOM      6  C   UNL     1      -9.633  -3.846 -14.506  1.00  0.00     0.053 C 
BRANCH   6   7
ATOM      7  C   UNL     1     -10.357  -3.975 -15.811  1.00  0.00     0.041 C 
ATOM      8  O   UNL     1     -11.239  -4.862 -15.961  1.00  0.00    -0.550 OA
ATOM      9  O   UNL     1     -10.036  -3.138 -16.871  1.00  0.00    -0.550 OA
ENDBRANCH   6   7
ENDBRANCH   5   6
ENDBRANCH   4   5
ENDBRANCH   3   4
ENDBRANCH   2   3
ENDBRANCH   1   2
BRANCH   1  10
ATOM     10  C   UNL     1      -5.161  -1.629 -10.422  1.00  0.00     0.000 C 
BRANCH  10  11
ATOM     11  C   UNL     1      -4.770  -0.451 -11.333  1.00  0.00    -0.000 C 
BRANCH  11  12
ATOM     12  C   UNL     1      -4.494   0.837 -10.543  1.00  0.00    -0.000 C 
BRANCH  12  13
ATOM     13  C   UNL     1      -5.435   1.987 -10.944  1.00  0.00    -0.000 C 
BRANCH  13  14
ATOM     14  C   UNL     1      -6.409   2.381  -9.818  1.00  0.00    -0.000 C 
BRANCH  14  15
ATOM     15  C   UNL     1      -6.355   1.477  -8.573  1.00  0.00    -0.003 C 
ATOM     16  C   UNL     1      -7.567   0.554  -8.452  1.00  0.00     0.004 C 
ENDBRANCH  14  15
ENDBRANCH  13  14
ENDBRANCH  12  13
ENDBRANCH  11  12
ENDBRANCH  10  11
ENDBRANCH   1  10
TORSDOF 12
ENDMDL
MODEL 4
REMARK VINA RESULT:    -4.585      4.010      8.373
REMARK INTER + INTRA:          -8.621
REMARK INTER:                  -8.087
REMARK INTRA:                  -0.534
REMARK UNBOUND:                -0.819
REMARK SMILES CCCCCCCCCCCCCC(=O)[O-]
REMARK SMILES IDX 8 1 9 2 10 3 11 4 12 5 13 6 14 7 15 8 16 9 7 10 6 11 5 12
REMARK SMILES IDX 4 13 3 14 2 15 1 16
REMARK H PARENT
REMARK Flexibility Score: inf
ROOT
ATOM      1  C   UNL     1      -7.625  -3.167 -12.946  1.00  0.00     0.000 C 
ENDROOT
BRANCH   1   2
ATOM      2  C   UNL     1      -8.747  -3.363 -13.975  1.00  0.00     0.000 C 
BRANCH   2   3
ATOM      3  C   UNL     1      -8.554  -4.668 -14.756  1.00  0.00     0.000 C 
BRANCH   3   4
ATOM      4  C   UNL     1      -9.023  -4.515 -16.208  1.00  0.00     0.000 C 
BRANCH   4   5
ATOM      5  C   UNL     1     -10.392  -3.820 -16.273  1.00  0.00     0.006 C 
BRANCH   5   6
ATOM      6  C   UNL     1     -11.554  -4.814 -16.148  1.00  0.00     0.053 C 
BRANCH   6   7
ATOM      7  C   UNL     1     -12.573  -4.353 -15.151  1.00  0.00     0.041 C 
ATOM      8  O   UNL     1     -12.478  -4.697 -13.943  1.00  0.00    -0.550 OA
ATOM      9  O   UNL     1     -13.645  -3.573 -15.562  1.00  0.00    -0.550 OA
ENDBRANCH   6   7
ENDBRANCH   5   6
ENDBRANCH   4   5
ENDBRANCH   3   4
ENDBRANCH   2   3
ENDBRANCH   1   2
BRANCH   1  10
ATOM     10  C   UNL     1      -7.740  -1.832 -12.192  1.00  0.00     0.000 C 
BRANCH  10  11
ATOM     11  C   UNL     1      -6.856  -1.787 -10.932  1.00  0.00    -0.000 C 
BRANCH  11  12
ATOM     12  C   UNL     1      -7.070  -0.507 -10.110  1.00  0.00    -0.000 C 
BRANCH  12  13
ATOM     13  C   UNL     1      -5.965   0.538 -10.348  1.00  0.00    -0.000 C 
BRANCH  13  14
ATOM     14  C   UNL     1      -5.988   1.678  -9.314  1.00  0.00    -0.000 C 
BRANCH  14  15
ATOM     15  C   UNL     1      -6.959   2.826  -9.642  1.00  0.00    -0.003 C 
ATOM     16  C   UNL     1      -7.020   3.149 -11.134  1.00  0.00     0.004 C 
ENDBRANCH  14  15
ENDBRANCH  13  14
ENDBRANCH  12  13
ENDBRANCH  11  12
ENDBRANCH  10  11
ENDBRANCH   1  10
TORSDOF 12
ENDMDL
MODEL 5
REMARK VINA RESULT:    -4.551      6.081      8.278
REMARK INTER + INTRA:          -8.563
REMARK INTER:                  -8.001
REMARK INTRA:                  -0.562
REMARK UNBOUND:                -0.819
REMARK SMILES CCCCCCCCCCCCCC(=O)[O-]
REMARK SMILES IDX 8 1 9 2 10 3 11 4 12 5 13 6 14 7 15 8 16 9 7 10 6 11 5 12
REMARK SMILES IDX 4 13 3 14 2 15 1 16
REMARK H PARENT
REMARK Flexibility Score: inf
ROOT
ATOM      1  C   UNL     1      -4.348  -2.272 -13.931  1.00  0.00     0.000 C 
ENDROOT
BRANCH   1   2
ATOM      2  C   UNL     1      -5.667  -2.970 -14.293  1.00  0.00     0.000 C 
BRANCH   2   3
ATOM      3  C   UNL     1      -6.617  -3.006 -13.089  1.00  0.00     0.000 C 
BRANCH   3   4
ATOM      4  C   UNL     1      -8.066  -2.758 -13.524  1.00  0.00     0.000 C 
BRANCH   4   5
ATOM      5  C   UNL     1      -8.427  -3.615 -14.747  1.00  0.00     0.006 C 
BRANCH   5   6
ATOM      6  C   UNL     1      -9.877  -4.116 -14.696  1.00  0.00     0.053 C 
BRANCH   6   7
ATOM      7  C   UNL     1     -10.527  -4.073 -16.045  1.00  0.00     0.041 C 
ATOM      8  O   UNL     1     -11.367  -4.953 -16.372  1.00  0.00    -0.550 OA
ATOM      9  O   UNL     1     -10.180  -3.080 -16.952  1.00  0.00    -0.550 OA
ENDBRANCH   6   7
ENDBRANCH   5   6
ENDBRANCH   4   5
ENDBRANCH   3   4
ENDBRANCH   2   3
ENDBRANCH   1   2
BRANCH   1  10
ATOM     10  C   UNL     1      -3.308  -2.350 -15.060  1.00  0.00     0.000 C 
BRANCH  10  11
ATOM     11  C   UNL     1      -3.953  -2.540 -16.446  1.00  0.00    -0.000 C 
BRANCH  11  12
ATOM     12  C   UNL     1      -3.659  -1.369 -17.396  1.00  0.00    -0.000 C 
BRANCH  12  13
ATOM     13  C   UNL     1      -2.879  -1.808 -18.648  1.00  0.00    -0.000 C 
BRANCH  13  14
ATOM     14  C   UNL     1      -1.402  -1.374 -18.614  1.00  0.00    -0.000 C 
BRANCH  14  15
ATOM     15  C   UNL     1      -0.515  -2.026 -19.690  1.00  0.00    -0.003 C 
ATOM     16  C   UNL     1      -0.073  -3.442 -19.321  1.00  0.00     0.004 C 
ENDBRANCH  14  15
ENDBRANCH  13  14
ENDBRANCH  12  13
ENDBRANCH  11  12
ENDBRANCH  10  11
ENDBRANCH   1  10
TORSDOF 12
ENDMDL
MODEL 6
REMARK VINA RESULT:    -4.538      5.411      8.148
REMARK INTER + INTRA:          -8.541
REMARK INTER:                  -7.827
REMARK INTRA:                  -0.714
REMARK UNBOUND:                -0.819
REMARK SMILES CCCCCCCCCCCCCC(=O)[O-]
REMARK SMILES IDX 8 1 9 2 10 3 11 4 12 5 13 6 14 7 15 8 16 9 7 10 6 11 5 12
REMARK SMILES IDX 4 13 3 14 2 15 1 16
REMARK H PARENT
REMARK Flexibility Score: inf
ROOT
ATOM      1  C   UNL     1      -6.960  -3.044 -14.013  1.00  0.00     0.000 C 
ENDROOT
BRANCH   1   2
ATOM      2  C   UNL     1      -8.304  -3.454 -14.633  1.00  0.00     0.000 C 
BRANCH   2   3
ATOM      3  C   UNL     1      -8.099  -4.455 -15.776  1.00  0.00     0.000 C 
BRANCH   3   4
ATOM      4  C   UNL     1      -8.798  -5.786 -15.473  1.00  0.00     0.000 C 
BRANCH   4   5
ATOM      5  C   UNL     1      -9.705  -5.662 -14.239  1.00  0.00     0.006 C 
BRANCH   5   6
ATOM      6  C   UNL     1     -11.166  -6.011 -14.555  1.00  0.00     0.053 C 
BRANCH   6   7
ATOM      7  C   UNL     1     -11.978  -4.786 -14.845  1.00  0.00     0.041 C 
ATOM      8  O   UNL     1     -11.730  -4.088 -15.864  1.00  0.00    -0.550 OA
ATOM      9  O   UNL     1     -12.987  -4.398 -13.973  1.00  0.00    -0.550 OA
ENDBRANCH   6   7
ENDBRANCH   5   6
ENDBRANCH   4   5
ENDBRANCH   3   4
ENDBRANCH   2   3
ENDBRANCH   1   2
BRANCH   1  10
ATOM     10  C   UNL     1      -5.759  -3.459 -14.877  1.00  0.00     0.000 C 
BRANCH  10  11
ATOM     11  C   UNL     1      -4.881  -2.262 -15.283  1.00  0.00    -0.000 C 
BRANCH  11  12
ATOM     12  C   UNL     1      -3.810  -2.642 -16.317  1.00  0.00    -0.000 C 
BRANCH  12  13
ATOM     13  C   UNL     1      -3.549  -1.517 -17.336  1.00  0.00    -0.000 C 
BRANCH  13  14
ATOM     14  C   UNL     1      -3.133  -2.050 -18.719  1.00  0.00    -0.000 C 
BRANCH  14  15
ATOM     15  C   UNL     1      -1.744  -1.588 -19.196  1.00  0.00    -0.003 C 
ATOM     16  C   UNL     1      -0.751  -2.739 -19.348  1.00  0.00     0.004 C 
ENDBRANCH  14  15
ENDBRANCH  13  14
ENDBRANCH  12  13
ENDBRANCH  11  12
ENDBRANCH  10  11
ENDBRANCH   1  10
TORSDOF 12
ENDMDL
MODEL 7
REMARK VINA RESULT:    -4.522      1.114      1.943
REMARK INTER + INTRA:          -8.514
REMARK INTER:                  -7.816
REMARK INTRA:                  -0.697
REMARK UNBOUND:                -0.819
REMARK SMILES CCCCCCCCCCCCCC(=O)[O-]
REMARK SMILES IDX 8 1 9 2 10 3 11 4 12 5 13 6 14 7 15 8 16 9 7 10 6 11 5 12
REMARK SMILES IDX 4 13 3 14 2 15 1 16
REMARK H PARENT
REMARK Flexibility Score: inf
ROOT
ATOM      1  C   UNL     1      -7.772  -2.250 -11.794  1.00  0.00     0.000 C 
ENDROOT
BRANCH   1   2
ATOM      2  C   UNL     1      -7.058  -1.036 -11.182  1.00  0.00     0.000 C 
BRANCH   2   3
ATOM      3  C   UNL     1      -6.084  -1.469 -10.080  1.00  0.00     0.000 C 
BRANCH   3   4
ATOM      4  C   UNL     1      -6.015  -0.422  -8.963  1.00  0.00     0.000 C 
BRANCH   4   5
ATOM      5  C   UNL     1      -7.184   0.571  -9.067  1.00  0.00     0.006 C 
BRANCH   5   6
ATOM      6  C   UNL     1      -6.722   2.028  -8.928  1.00  0.00     0.053 C 
BRANCH   6   7
ATOM      7  C   UNL     1      -6.630   2.711 -10.258  1.00  0.00     0.041 C 
ATOM      8  O   UNL     1      -5.766   2.347 -11.099  1.00  0.00    -0.550 OA
ATOM      9  O   UNL     1      -7.477   3.771 -10.554  1.00  0.00    -0.550 OA
ENDBRANCH   6   7
ENDBRANCH   5   6
ENDBRANCH   4   5
ENDBRANCH   3   4
ENDBRANCH   2   3
ENDBRANCH   1   2
BRANCH   1  10
ATOM     10  C   UNL     1      -7.280  -2.571 -13.214  1.00  0.00     0.000 C 
BRANCH  10  11
ATOM     11  C   UNL     1      -7.952  -3.825 -13.803  1.00  0.00    -0.000 C 
BRANCH  11  12
ATOM     12  C   UNL     1      -8.189  -3.710 -15.316  1.00  0.00    -0.000 C 
BRANCH  12  13
ATOM     13  C   UNL     1      -9.311  -4.641 -15.809  1.00  0.00    -0.000 C 
BRANCH  13  14
ATOM     14  C   UNL     1     -10.648  -3.907 -16.016  1.00  0.00    -0.000 C 
BRANCH  14  15
ATOM     15  C   UNL     1     -11.836  -4.500 -15.238  1.00  0.00    -0.003 C 
ATOM     16  C   UNL     1     -11.434  -5.657 -14.324  1.00  0.00     0.004 C 
ENDBRANCH  14  15
ENDBRANCH  13  14
ENDBRANCH  12  13
ENDBRANCH  11  12
ENDBRANCH  10  11
ENDBRANCH   1  10
TORSDOF 12
ENDMDL
MODEL 8
REMARK VINA RESULT:    -4.522      5.155      7.557
REMARK INTER + INTRA:          -8.513
REMARK INTER:                  -7.911
REMARK INTRA:                  -0.602
REMARK UNBOUND:                -0.819
REMARK SMILES CCCCCCCCCCCCCC(=O)[O-]
REMARK SMILES IDX 8 1 9 2 10 3 11 4 12 5 13 6 14 7 15 8 16 9 7 10 6 11 5 12
REMARK SMILES IDX 4 13 3 14 2 15 1 16
REMARK H PARENT
REMARK Flexibility Score: inf
ROOT
ATOM      1  C   UNL     1      -6.711  -3.157 -12.722  1.00  0.00     0.000 C 
ENDROOT
BRANCH   1   2
ATOM      2  C   UNL     1      -7.877  -2.418 -13.395  1.00  0.00     0.000 C 
BRANCH   2   3
ATOM      3  C   UNL     1      -8.799  -3.400 -14.128  1.00  0.00     0.000 C 
BRANCH   3   4
ATOM      4  C   UNL     1      -8.015  -4.233 -15.149  1.00  0.00     0.000 C 
BRANCH   4   5
ATOM      5  C   UNL     1      -8.962  -4.888 -16.167  1.00  0.00     0.006 C 
BRANCH   5   6
ATOM      6  C   UNL     1     -10.277  -4.113 -16.319  1.00  0.00     0.053 C 
BRANCH   6   7
ATOM      7  C   UNL     1     -11.446  -4.897 -15.805  1.00  0.00     0.041 C 
ATOM      8  O   UNL     1     -12.586  -4.365 -15.740  1.00  0.00    -0.550 OA
ATOM      9  O   UNL     1     -11.269  -6.203 -15.368  1.00  0.00    -0.550 OA
ENDBRANCH   6   7
ENDBRANCH   5   6
ENDBRANCH   4   5
ENDBRANCH   3   4
ENDBRANCH   2   3
ENDBRANCH   1   2
BRANCH   1  10
ATOM     10  C   UNL     1      -6.622  -2.874 -11.214  1.00  0.00     0.000 C 
BRANCH  10  11
ATOM     11  C   UNL     1      -6.172  -4.106 -10.407  1.00  0.00    -0.000 C 
BRANCH  11  12
ATOM     12  C   UNL     1      -7.083  -5.322 -10.634  1.00  0.00    -0.000 C 
BRANCH  12  13
ATOM     13  C   UNL     1      -6.740  -6.497  -9.701  1.00  0.00    -0.000 C 
BRANCH  13  14
ATOM     14  C   UNL     1      -6.783  -6.109  -8.211  1.00  0.00    -0.000 C 
BRANCH  14  15
ATOM     15  C   UNL     1      -7.799  -6.900  -7.368  1.00  0.00    -0.003 C 
ATOM     16  C   UNL     1      -7.289  -7.219  -5.963  1.00  0.00     0.004 C 
ENDBRANCH  14  15
ENDBRANCH  13  14
ENDBRANCH  12  13
ENDBRANCH  11  12
ENDBRANCH  10  11
ENDBRANCH   1  10
TORSDOF 12
ENDMDL
MODEL 9
REMARK VINA RESULT:    -4.416      5.382      6.824
REMARK INTER + INTRA:          -8.333
REMARK INTER:                  -7.478
REMARK INTRA:                  -0.855
REMARK UNBOUND:                -0.819
REMARK SMILES CCCCCCCCCCCCCC(=O)[O-]
REMARK SMILES IDX 8 1 9 2 10 3 11 4 12 5 13 6 14 7 15 8 16 9 7 10 6 11 5 12
REMARK SMILES IDX 4 13 3 14 2 15 1 16
REMARK H PARENT
REMARK Flexibility Score: inf
ROOT
ATOM      1  C   UNL     1      -6.055  -2.683 -14.259  1.00  0.00     0.000 C 
ENDROOT
BRANCH   1   2
ATOM      2  C   UNL     1      -4.758  -2.382 -15.024  1.00  0.00     0.000 C 
BRANCH   2   3
ATOM      3  C   UNL     1      -4.174  -3.660 -15.638  1.00  0.00     0.000 C 
BRANCH   3   4
ATOM      4  C   UNL     1      -3.310  -3.336 -16.863  1.00  0.00     0.000 C 
BRANCH   4   5
ATOM      5  C   UNL     1      -3.521  -1.883 -17.316  1.00  0.00     0.006 C 
BRANCH   5   6
ATOM      6  C   UNL     1      -3.107  -1.665 -18.777  1.00  0.00     0.053 C 
BRANCH   6   7
ATOM      7  C   UNL     1      -1.618  -1.626 -18.933  1.00  0.00     0.041 C 
ATOM      8  O   UNL     1      -1.047  -2.391 -19.754  1.00  0.00    -0.550 OA
ATOM      9  O   UNL     1      -0.859  -0.768 -18.148  1.00  0.00    -0.550 OA
ENDBRANCH   6   7
ENDBRANCH   5   6
ENDBRANCH   4   5
ENDBRANCH   3   4
ENDBRANCH   2   3
ENDBRANCH   1   2
BRANCH   1  10
ATOM     10  C   UNL     1      -6.268  -4.187 -14.023  1.00  0.00     0.000 C 
BRANCH  10  11
ATOM     11  C   UNL     1      -7.746  -4.544 -13.780  1.00  0.00    -0.000 C 
BRANCH  11  12
ATOM     12  C   UNL     1      -8.708  -3.501 -14.369  1.00  0.00    -0.000 C 
BRANCH  12  13
ATOM     13  C   UNL     1      -9.219  -3.896 -15.767  1.00  0.00    -0.000 C 
BRANCH  13  14
ATOM     14  C   UNL     1     -10.752  -4.035 -15.823  1.00  0.00    -0.000 C 
BRANCH  14  15
ATOM     15  C   UNL     1     -11.382  -4.721 -14.598  1.00  0.00    -0.003 C 
ATOM     16  C   UNL     1     -11.110  -6.224 -14.549  1.00  0.00     0.004 C 
ENDBRANCH  14  15
ENDBRANCH  13  14
ENDBRANCH  12  13
ENDBRANCH  11  12
ENDBRANCH  10  11
ENDBRANCH   1  10
TORSDOF 12
ENDMDL
