MODEL 1
REMARK VINA RESULT:    -4.790      0.000      0.000
REMARK INTER + INTRA:          -6.090
REMARK INTER:                  -5.770
REMARK INTRA:                  -0.319
REMARK UNBOUND:                -0.319
REMARK SMILES Oc1cc(O)c2cc(O)c(-c3ccc(O)c(O)c3)[o+]c2c1.[Cl-]
REMARK SMILES IDX 10 1 19 2 20 3 21 4 2 5 3 6 4 7 6 8 7 9 8 10 11 11 12 12
REMARK SMILES IDX 13 13 14 14 18 15 16 16 15 17 17 19 9 21 1 23 5 25
REMARK H PARENT 15 18 17 20 9 22 1 24 5 26
REMARK Flexibility Score: inf
ROOT
ATOM      1  C   UNL     1      40.116 -30.486  10.727  1.00  0.00     0.402 A 
ATOM      2  O   UNL     1      39.244 -30.619   9.732  1.00  0.00    -0.202 OA
ATOM      3  C   UNL     1      37.943 -30.378   9.864  1.00  0.00     0.368 A 
ATOM      4  C   UNL     1      37.105 -30.549   8.759  1.00  0.00     0.162 A 
ATOM      5  C   UNL     1      35.735 -30.305   8.869  1.00  0.00     0.128 A 
ATOM      6  C   UNL     1      35.197 -29.890  10.092  1.00  0.00     0.093 A 
ATOM      7  C   UNL     1      36.016 -29.712  11.214  1.00  0.00     0.136 A 
ATOM      8  C   UNL     1      37.410 -29.956  11.106  1.00  0.00     0.125 A 
ATOM      9  C   UNL     1      38.308 -29.791  12.173  1.00  0.00     0.078 A 
ATOM     10  C   UNL     1      39.670 -30.045  11.988  1.00  0.00     0.223 A 
ENDROOT
BRANCH   1  11
ATOM     11  C   UNL     1      41.539 -30.795  10.458  1.00  0.00     0.087 A 
ATOM     12  C   UNL     1      42.429 -29.748  10.170  1.00  0.00     0.022 A 
ATOM     13  C   UNL     1      43.772 -30.017   9.893  1.00  0.00     0.051 A 
ATOM     14  C   UNL     1      44.242 -31.334   9.883  1.00  0.00     0.157 A 
ATOM     15  C   UNL     1      42.008 -32.120  10.426  1.00  0.00     0.068 A 
ATOM     16  C   UNL     1      43.356 -32.392  10.147  1.00  0.00     0.158 A 
BRANCH  14  17
ATOM     17  O   UNL     1      45.588 -31.571   9.606  1.00  0.00    -0.504 OA
ATOM     18  H   UNL     1      45.990 -31.387   8.694  1.00  0.00     0.293 HD
ENDBRANCH  14  17
BRANCH  16  19
ATOM     19  O   UNL     1      43.815 -33.708  10.124  1.00  0.00    -0.504 OA
ATOM     20  H   UNL     1      43.428 -34.394   9.486  1.00  0.00     0.293 HD
ENDBRANCH  16  19
ENDBRANCH   1  11
BRANCH  10  21
ATOM     21  O   UNL     1      40.570 -29.833  13.032  1.00  0.00    -0.500 OA
ATOM     22  H   UNL     1      41.572 -29.831  12.879  1.00  0.00     0.294 HD
ENDBRANCH  10  21
BRANCH   5  23
ATOM     23  O   UNL     1      34.915 -30.481   7.756  1.00  0.00    -0.507 OA
ATOM     24  H   UNL     1      34.715 -29.718   7.120  1.00  0.00     0.293 HD
ENDBRANCH   5  23
BRANCH   7  25
ATOM     25  O   UNL     1      35.402 -29.298  12.399  1.00  0.00    -0.507 OA
ATOM     26  H   UNL     1      34.538 -29.678  12.757  1.00  0.00     0.293 HD
ENDBRANCH   7  25
TORSDOF 6
ENDMDL
MODEL 2
REMARK VINA RESULT:    -4.486      1.951      2.676
REMARK INTER + INTRA:          -5.724
REMARK INTER:                  -5.410
REMARK INTRA:                  -0.313
REMARK UNBOUND:                -0.319
REMARK SMILES Oc1cc(O)c2cc(O)c(-c3ccc(O)c(O)c3)[o+]c2c1.[Cl-]
REMARK SMILES IDX 10 1 19 2 20 3 21 4 2 5 3 6 4 7 6 8 7 9 8 10 11 11 12 12
REMARK SMILES IDX 13 13 14 14 18 15 16 16 15 17 17 19 9 21 1 23 5 25
REMARK H PARENT 15 18 17 20 9 22 1 24 5 26
REMARK Flexibility Score: inf
ROOT
ATOM      1  C   UNL     1      40.776 -30.866  11.262  1.00  0.00     0.402 A 
ATOM      2  O   UNL     1      39.754 -31.328  11.976  1.00  0.00    -0.202 OA
ATOM      3  C   UNL     1      38.487 -31.010  11.730  1.00  0.00     0.368 A 
ATOM      4  C   UNL     1      37.482 -31.544  12.540  1.00  0.00     0.162 A 
ATOM      5  C   UNL     1      36.144 -31.225  12.306  1.00  0.00     0.128 A 
ATOM      6  C   UNL     1      35.806 -30.365  11.256  1.00  0.00     0.093 A 
ATOM      7  C   UNL     1      36.795 -29.816  10.430  1.00  0.00     0.136 A 
ATOM      8  C   UNL     1      38.156 -30.139  10.663  1.00  0.00     0.125 A 
ATOM      9  C   UNL     1      39.212 -29.647   9.879  1.00  0.00     0.078 A 
ATOM     10  C   UNL     1      40.530 -30.015  10.167  1.00  0.00     0.223 A 
ENDROOT
BRANCH   1  11
ATOM     11  C   UNL     1      42.144 -31.286  11.642  1.00  0.00     0.087 A 
ATOM     12  C   UNL     1      42.803 -30.625  12.690  1.00  0.00     0.022 A 
ATOM     13  C   UNL     1      44.101 -30.991  13.052  1.00  0.00     0.051 A 
ATOM     14  C   UNL     1      44.767 -32.010  12.365  1.00  0.00     0.157 A 
ATOM     15  C   UNL     1      42.823 -32.295  10.936  1.00  0.00     0.068 A 
ATOM     16  C   UNL     1      44.127 -32.663  11.298  1.00  0.00     0.158 A 
BRANCH  14  17
ATOM     17  O   UNL     1      46.062 -32.354  12.751  1.00  0.00    -0.504 OA
ATOM     18  H   UNL     1      46.604 -33.052  12.254  1.00  0.00     0.293 HD
ENDBRANCH  14  17
BRANCH  16  19
ATOM     19  O   UNL     1      44.791 -33.670  10.599  1.00  0.00    -0.504 OA
ATOM     20  H   UNL     1      45.746 -33.554  10.280  1.00  0.00     0.293 HD
ENDBRANCH  16  19
ENDBRANCH   1  11
BRANCH  10  21
ATOM     21  O   UNL     1      41.574 -29.567   9.358  1.00  0.00    -0.500 OA
ATOM     22  H   UNL     1      41.563 -29.699   8.353  1.00  0.00     0.294 HD
ENDBRANCH  10  21
BRANCH   5  23
ATOM     23  O   UNL     1      35.155 -31.769  13.125  1.00  0.00    -0.507 OA
ATOM     24  H   UNL     1      34.901 -32.748  13.069  1.00  0.00     0.293 HD
ENDBRANCH   5  23
BRANCH   7  25
ATOM     25  O   UNL     1      36.376 -28.962   9.406  1.00  0.00    -0.507 OA
ATOM     26  H   UNL     1      35.856 -29.259   8.593  1.00  0.00     0.293 HD
ENDBRANCH   7  25
TORSDOF 6
ENDMDL
MODEL 3
REMARK VINA RESULT:    -4.419      2.436      7.216
REMARK INTER + INTRA:          -5.642
REMARK INTER:                  -5.328
REMARK INTRA:                  -0.314
REMARK UNBOUND:                -0.319
REMARK SMILES Oc1cc(O)c2cc(O)c(-c3ccc(O)c(O)c3)[o+]c2c1.[Cl-]
REMARK SMILES IDX 10 1 19 2 20 3 21 4 2 5 3 6 4 7 6 8 7 9 8 10 11 11 12 12
REMARK SMILES IDX 13 13 14 14 18 15 16 16 15 17 17 19 9 21 1 23 5 25
REMARK H PARENT 15 18 17 20 9 22 1 24 5 26
REMARK Flexibility Score: inf
ROOT
ATOM      1  C   UNL     1      41.190 -31.243  11.665  1.00  0.00     0.402 A 
ATOM      2  O   UNL     1      41.543 -32.506  11.890  1.00  0.00    -0.202 OA
ATOM      3  C   UNL     1      42.763 -32.865  12.276  1.00  0.00     0.368 A 
ATOM      4  C   UNL     1      43.040 -34.219  12.484  1.00  0.00     0.162 A 
ATOM      5  C   UNL     1      44.312 -34.625  12.887  1.00  0.00     0.128 A 
ATOM      6  C   UNL     1      45.318 -33.673  13.083  1.00  0.00     0.093 A 
ATOM      7  C   UNL     1      45.067 -32.310  12.881  1.00  0.00     0.136 A 
ATOM      8  C   UNL     1      43.773 -31.893  12.473  1.00  0.00     0.125 A 
ATOM      9  C   UNL     1      43.427 -30.548  12.260  1.00  0.00     0.078 A 
ATOM     10  C   UNL     1      42.129 -30.213  11.864  1.00  0.00     0.223 A 
ENDROOT
BRANCH   1  11
ATOM     11  C   UNL     1      39.802 -30.971  11.229  1.00  0.00     0.087 A 
ATOM     12  C   UNL     1      38.852 -30.547  12.171  1.00  0.00     0.022 A 
ATOM     13  C   UNL     1      37.532 -30.303  11.786  1.00  0.00     0.051 A 
ATOM     14  C   UNL     1      37.135 -30.494  10.459  1.00  0.00     0.157 A 
ATOM     15  C   UNL     1      39.397 -31.184   9.899  1.00  0.00     0.068 A 
ATOM     16  C   UNL     1      38.071 -30.941   9.510  1.00  0.00     0.158 A 
BRANCH  14  17
ATOM     17  O   UNL     1      35.811 -30.241  10.103  1.00  0.00    -0.504 OA
ATOM     18  H   UNL     1      35.032 -30.601  10.640  1.00  0.00     0.293 HD
ENDBRANCH  14  17
BRANCH  16  19
ATOM     19  O   UNL     1      37.679 -31.148   8.189  1.00  0.00    -0.504 OA
ATOM     20  H   UNL     1      37.730 -32.063   7.757  1.00  0.00     0.293 HD
ENDBRANCH  16  19
ENDBRANCH   1  11
BRANCH  10  21
ATOM     21  O   UNL     1      41.770 -28.875  11.701  1.00  0.00    -0.500 OA
ATOM     22  H   UNL     1      41.999 -28.362  10.857  1.00  0.00     0.294 HD
ENDBRANCH  10  21
BRANCH   5  23
ATOM     23  O   UNL     1      44.568 -35.980  13.089  1.00  0.00    -0.507 OA
ATOM     24  H   UNL     1      45.161 -36.507  12.459  1.00  0.00     0.293 HD
ENDBRANCH   5  23
BRANCH   7  25
ATOM     25  O   UNL     1      46.125 -31.422  13.094  1.00  0.00    -0.507 OA
ATOM     26  H   UNL     1      46.828 -31.534  13.810  1.00  0.00     0.293 HD
ENDBRANCH   7  25
TORSDOF 6
ENDMDL
MODEL 4
REMARK VINA RESULT:    -3.762      1.517      6.765
REMARK INTER + INTRA:          -4.851
REMARK INTER:                  -4.929
REMARK INTRA:                   0.079
REMARK UNBOUND:                -0.319
REMARK SMILES Oc1cc(O)c2cc(O)c(-c3ccc(O)c(O)c3)[o+]c2c1.[Cl-]
REMARK SMILES IDX 10 1 19 2 20 3 21 4 2 5 3 6 4 7 6 8 7 9 8 10 11 11 12 12
REMARK SMILES IDX 13 13 14 14 18 15 16 16 15 17 17 19 9 21 1 23 5 25
REMARK H PARENT 15 18 17 20 9 22 1 24 5 26
REMARK Flexibility Score: inf
ROOT
ATOM      1  C   UNL     1      39.124 -30.609  10.854  1.00  0.00     0.402 A 
ATOM      2  O   UNL     1      39.938 -31.514  10.320  1.00  0.00    -0.202 OA
ATOM      3  C   UNL     1      41.198 -31.684  10.706  1.00  0.00     0.368 A 
ATOM      4  C   UNL     1      41.976 -32.661  10.081  1.00  0.00     0.162 A 
ATOM      5  C   UNL     1      43.303 -32.858  10.465  1.00  0.00     0.128 A 
ATOM      6  C   UNL     1      43.859 -32.073  11.481  1.00  0.00     0.093 A 
ATOM      7  C   UNL     1      43.100 -31.087  12.123  1.00  0.00     0.136 A 
ATOM      8  C   UNL     1      41.750 -30.884  11.737  1.00  0.00     0.125 A 
ATOM      9  C   UNL     1      40.911 -29.929  12.334  1.00  0.00     0.078 A 
ATOM     10  C   UNL     1      39.588 -29.791  11.903  1.00  0.00     0.223 A 
ENDROOT
BRANCH   1  11
ATOM     11  C   UNL     1      37.743 -30.510  10.330  1.00  0.00     0.087 A 
ATOM     12  C   UNL     1      36.667 -30.433  11.229  1.00  0.00     0.022 A 
ATOM     13  C   UNL     1      35.355 -30.360  10.757  1.00  0.00     0.051 A 
ATOM     14  C   UNL     1      35.094 -30.378   9.383  1.00  0.00     0.157 A 
ATOM     15  C   UNL     1      37.479 -30.550   8.949  1.00  0.00     0.068 A 
ATOM     16  C   UNL     1      36.161 -30.478   8.474  1.00  0.00     0.158 A 
BRANCH  14  17
ATOM     17  O   UNL     1      33.774 -30.302   8.942  1.00  0.00    -0.504 OA
ATOM     18  H   UNL     1      33.388 -29.454   8.545  1.00  0.00     0.293 HD
ENDBRANCH  14  17
BRANCH  16  19
ATOM     19  O   UNL     1      35.907 -30.512   7.104  1.00  0.00    -0.504 OA
ATOM     20  H   UNL     1      35.948 -31.377   6.577  1.00  0.00     0.293 HD
ENDBRANCH  16  19
ENDBRANCH   1  11
BRANCH  10  21
ATOM     21  O   UNL     1      38.739 -28.878  12.529  1.00  0.00    -0.500 OA
ATOM     22  H   UNL     1      37.984 -29.182  13.133  1.00  0.00     0.294 HD
ENDBRANCH  10  21
BRANCH   5  23
ATOM     23  O   UNL     1      44.063 -33.838   9.829  1.00  0.00    -0.507 OA
ATOM     24  H   UNL     1      44.827 -34.307  10.302  1.00  0.00     0.293 HD
ENDBRANCH   5  23
BRANCH   7  25
ATOM     25  O   UNL     1      43.728 -30.342  13.125  1.00  0.00    -0.507 OA
ATOM     26  H   UNL     1      43.281 -29.611  13.658  1.00  0.00     0.293 HD
ENDBRANCH   7  25
TORSDOF 6
ENDMDL
MODEL 5
REMARK VINA RESULT:    -3.712      2.292      7.256
REMARK INTER + INTRA:          -4.791
REMARK INTER:                  -4.876
REMARK INTRA:                   0.084
REMARK UNBOUND:                -0.319
REMARK SMILES Oc1cc(O)c2cc(O)c(-c3ccc(O)c(O)c3)[o+]c2c1.[Cl-]
REMARK SMILES IDX 10 1 19 2 20 3 21 4 2 5 3 6 4 7 6 8 7 9 8 10 11 11 12 12
REMARK SMILES IDX 13 13 14 14 18 15 16 16 15 17 17 19 9 21 1 23 5 25
REMARK H PARENT 15 18 17 20 9 22 1 24 5 26
REMARK Flexibility Score: inf
ROOT
ATOM      1  C   UNL     1      40.756 -30.526  11.143  1.00  0.00     0.402 A 
ATOM      2  O   UNL     1      41.690 -31.171  11.836  1.00  0.00    -0.202 OA
ATOM      3  C   UNL     1      42.968 -31.217  11.473  1.00  0.00     0.368 A 
ATOM      4  C   UNL     1      43.875 -31.924  12.266  1.00  0.00     0.162 A 
ATOM      5  C   UNL     1      45.223 -31.991  11.908  1.00  0.00     0.128 A 
ATOM      6  C   UNL     1      45.668 -31.348  10.748  1.00  0.00     0.093 A 
ATOM      7  C   UNL     1      44.778 -30.633   9.936  1.00  0.00     0.136 A 
ATOM      8  C   UNL     1      43.408 -30.561  10.298  1.00  0.00     0.125 A 
ATOM      9  C   UNL     1      42.448 -29.857   9.552  1.00  0.00     0.078 A 
ATOM     10  C   UNL     1      41.117 -29.826   9.975  1.00  0.00     0.223 A 
ENDROOT
BRANCH   1  11
ATOM     11  C   UNL     1      39.364 -30.557  11.645  1.00  0.00     0.087 A 
ATOM     12  C   UNL     1      38.617 -29.369  11.684  1.00  0.00     0.022 A 
ATOM     13  C   UNL     1      37.309 -29.370  12.173  1.00  0.00     0.051 A 
ATOM     14  C   UNL     1      36.731 -30.553  12.645  1.00  0.00     0.157 A 
ATOM     15  C   UNL     1      38.789 -31.741  12.141  1.00  0.00     0.068 A 
ATOM     16  C   UNL     1      37.476 -31.745  12.633  1.00  0.00     0.158 A 
BRANCH  14  17
ATOM     17  O   UNL     1      35.422 -30.524  13.125  1.00  0.00    -0.504 OA
ATOM     18  H   UNL     1      34.654 -30.948  12.619  1.00  0.00     0.293 HD
ENDBRANCH  14  17
BRANCH  16  19
ATOM     19  O   UNL     1      36.911 -32.924  13.116  1.00  0.00    -0.504 OA
ATOM     20  H   UNL     1      36.841 -33.111  14.109  1.00  0.00     0.293 HD
ENDBRANCH  16  19
ENDBRANCH   1  11
BRANCH  10  21
ATOM     21  O   UNL     1      40.172 -29.086   9.263  1.00  0.00    -0.500 OA
ATOM     22  H   UNL     1      39.383 -29.529   8.808  1.00  0.00     0.294 HD
ENDBRANCH  10  21
BRANCH   5  23
ATOM     23  O   UNL     1      46.112 -32.700  12.713  1.00  0.00    -0.507 OA
ATOM     24  H   UNL     1      46.787 -33.343  12.316  1.00  0.00     0.293 HD
ENDBRANCH   5  23
BRANCH   7  25
ATOM     25  O   UNL     1      45.300 -30.023   8.792  1.00  0.00    -0.507 OA
ATOM     26  H   UNL     1      46.286 -29.915   8.603  1.00  0.00     0.293 HD
ENDBRANCH   7  25
TORSDOF 6
ENDMDL
MODEL 6
REMARK VINA RESULT:    -3.528      1.751      7.355
REMARK INTER + INTRA:          -4.570
REMARK INTER:                  -4.987
REMARK INTRA:                   0.417
REMARK UNBOUND:                -0.319
REMARK SMILES Oc1cc(O)c2cc(O)c(-c3ccc(O)c(O)c3)[o+]c2c1.[Cl-]
REMARK SMILES IDX 10 1 19 2 20 3 21 4 2 5 3 6 4 7 6 8 7 9 8 10 11 11 12 12
REMARK SMILES IDX 13 13 14 14 18 15 16 16 15 17 17 19 9 21 1 23 5 25
REMARK H PARENT 15 18 17 20 9 22 1 24 5 26
REMARK Flexibility Score: inf
ROOT
ATOM      1  C   UNL     1      39.779 -31.207  11.415  1.00  0.00     0.402 A 
ATOM      2  O   UNL     1      40.526 -32.082  12.081  1.00  0.00    -0.202 OA
ATOM      3  C   UNL     1      41.817 -32.279  11.833  1.00  0.00     0.368 A 
ATOM      4  C   UNL     1      42.517 -33.225  12.586  1.00  0.00     0.162 A 
ATOM      5  C   UNL     1      43.873 -33.454  12.346  1.00  0.00     0.128 A 
ATOM      6  C   UNL     1      44.534 -32.735  11.344  1.00  0.00     0.093 A 
ATOM      7  C   UNL     1      43.854 -31.782  10.576  1.00  0.00     0.136 A 
ATOM      8  C   UNL     1      42.477 -31.544  10.818  1.00  0.00     0.125 A 
ATOM      9  C   UNL     1      41.719 -30.600  10.107  1.00  0.00     0.078 A 
ATOM     10  C   UNL     1      40.366 -30.417  10.407  1.00  0.00     0.223 A 
ENDROOT
BRANCH   1  11
ATOM     11  C   UNL     1      38.349 -31.086  11.778  1.00  0.00     0.087 A 
ATOM     12  C   UNL     1      37.818 -31.913  12.780  1.00  0.00     0.022 A 
ATOM     13  C   UNL     1      36.467 -31.831  13.125  1.00  0.00     0.051 A 
ATOM     14  C   UNL     1      35.622 -30.933  12.465  1.00  0.00     0.157 A 
ATOM     15  C   UNL     1      37.493 -30.199  11.100  1.00  0.00     0.068 A 
ATOM     16  C   UNL     1      36.136 -30.115  11.444  1.00  0.00     0.158 A 
BRANCH  14  17
ATOM     17  O   UNL     1      34.279 -30.872  12.833  1.00  0.00    -0.504 OA
ATOM     18  H   UNL     1      33.831 -30.000  13.091  1.00  0.00     0.293 HD
ENDBRANCH  14  17
BRANCH  16  19
ATOM     19  O   UNL     1      35.295 -29.229  10.773  1.00  0.00    -0.504 OA
ATOM     20  H   UNL     1      35.663 -28.501  10.171  1.00  0.00     0.293 HD
ENDBRANCH  16  19
ENDBRANCH   1  11
BRANCH  10  21
ATOM     21  O   UNL     1      39.625 -29.444   9.736  1.00  0.00    -0.500 OA
ATOM     22  H   UNL     1      38.682 -29.204  10.020  1.00  0.00     0.294 HD
ENDBRANCH  10  21
BRANCH   5  23
ATOM     23  O   UNL     1      44.554 -34.402  13.108  1.00  0.00    -0.507 OA
ATOM     24  H   UNL     1      44.216 -35.353  13.197  1.00  0.00     0.293 HD
ENDBRANCH   5  23
BRANCH   7  25
ATOM     25  O   UNL     1      44.585 -31.109   9.593  1.00  0.00    -0.507 OA
ATOM     26  H   UNL     1      45.593 -31.106   9.532  1.00  0.00     0.293 HD
ENDBRANCH   7  25
TORSDOF 6
ENDMDL
MODEL 7
REMARK VINA RESULT:    -2.922      1.666      2.652
REMARK INTER + INTRA:          -3.839
REMARK INTER:                  -3.575
REMARK INTRA:                  -0.264
REMARK UNBOUND:                -0.319
REMARK SMILES Oc1cc(O)c2cc(O)c(-c3ccc(O)c(O)c3)[o+]c2c1.[Cl-]
REMARK SMILES IDX 10 1 19 2 20 3 21 4 2 5 3 6 4 7 6 8 7 9 8 10 11 11 12 12
REMARK SMILES IDX 13 13 14 14 18 15 16 16 15 17 17 19 9 21 1 23 5 25
REMARK H PARENT 15 18 17 20 9 22 1 24 5 26
REMARK Flexibility Score: inf
ROOT
ATOM      1  C   UNL     1      39.042 -30.155  10.647  1.00  0.00     0.402 A 
ATOM      2  O   UNL     1      38.181 -30.724  11.486  1.00  0.00    -0.202 OA
ATOM      3  C   UNL     1      36.861 -30.624  11.357  1.00  0.00     0.368 A 
ATOM      4  C   UNL     1      36.037 -31.254  12.292  1.00  0.00     0.162 A 
ATOM      5  C   UNL     1      34.648 -31.164  12.182  1.00  0.00     0.128 A 
ATOM      6  C   UNL     1      34.078 -30.436  11.132  1.00  0.00     0.093 A 
ATOM      7  C   UNL     1      34.883 -29.795  10.182  1.00  0.00     0.136 A 
ATOM      8  C   UNL     1      36.295 -29.886  10.288  1.00  0.00     0.125 A 
ATOM      9  C   UNL     1      37.179 -29.288   9.376  1.00  0.00     0.078 A 
ATOM     10  C   UNL     1      38.560 -29.427   9.543  1.00  0.00     0.223 A 
ENDROOT
BRANCH   1  11
ATOM     11  C   UNL     1      40.490 -30.332  10.903  1.00  0.00     0.087 A 
ATOM     12  C   UNL     1      41.255 -29.233  11.327  1.00  0.00     0.022 A 
ATOM     13  C   UNL     1      42.626 -29.372  11.555  1.00  0.00     0.051 A 
ATOM     14  C   UNL     1      43.257 -30.602  11.350  1.00  0.00     0.157 A 
ATOM     15  C   UNL     1      41.130 -31.563  10.676  1.00  0.00     0.068 A 
ATOM     16  C   UNL     1      42.507 -31.704  10.904  1.00  0.00     0.158 A 
BRANCH  14  17
ATOM     17  O   UNL     1      44.627 -30.710  11.588  1.00  0.00    -0.504 OA
ATOM     18  H   UNL     1      45.308 -30.665  10.841  1.00  0.00     0.293 HD
ENDBRANCH  14  17
BRANCH  16  19
ATOM     19  O   UNL     1      43.132 -32.929  10.683  1.00  0.00    -0.504 OA
ATOM     20  H   UNL     1      44.110 -32.987  10.423  1.00  0.00     0.293 HD
ENDBRANCH  16  19
ENDBRANCH   1  11
BRANCH  10  21
ATOM     21  O   UNL     1      39.437 -28.875   8.609  1.00  0.00    -0.500 OA
ATOM     22  H   UNL     1      39.353 -27.912   8.305  1.00  0.00     0.294 HD
ENDBRANCH  10  21
BRANCH   5  23
ATOM     23  O   UNL     1      33.843 -31.800  13.125  1.00  0.00    -0.507 OA
ATOM     24  H   UNL     1      32.841 -31.879  12.998  1.00  0.00     0.293 HD
ENDBRANCH   5  23
BRANCH   7  25
ATOM     25  O   UNL     1      34.237 -29.086   9.166  1.00  0.00    -0.507 OA
ATOM     26  H   UNL     1      34.387 -28.107   8.969  1.00  0.00     0.293 HD
ENDBRANCH   7  25
TORSDOF 6
ENDMDL
MODEL 8
REMARK VINA RESULT:    -2.390     16.622     18.505
REMARK INTER + INTRA:          -3.199
REMARK INTER:                  -3.695
REMARK INTRA:                   0.496
REMARK UNBOUND:                -0.319
REMARK SMILES Oc1cc(O)c2cc(O)c(-c3ccc(O)c(O)c3)[o+]c2c1.[Cl-]
REMARK SMILES IDX 10 1 19 2 20 3 21 4 2 5 3 6 4 7 6 8 7 9 8 10 11 11 12 12
REMARK SMILES IDX 13 13 14 14 18 15 16 16 15 17 17 19 9 21 1 23 5 25
REMARK H PARENT 15 18 17 20 9 22 1 24 5 26
REMARK Flexibility Score: inf
ROOT
ATOM      1  C   UNL     1      26.036 -40.092   3.913  1.00  0.00     0.402 A 
ATOM      2  O   UNL     1      26.081 -38.885   3.356  1.00  0.00    -0.202 OA
ATOM      3  C   UNL     1      26.111 -38.688   2.041  1.00  0.00     0.368 A 
ATOM      4  C   UNL     1      26.161 -37.381   1.551  1.00  0.00     0.162 A 
ATOM      5  C   UNL     1      26.196 -37.144   0.176  1.00  0.00     0.128 A 
ATOM      6  C   UNL     1      26.184 -38.222  -0.717  1.00  0.00     0.093 A 
ATOM      7  C   UNL     1      26.134 -39.541  -0.250  1.00  0.00     0.136 A 
ATOM      8  C   UNL     1      26.096 -39.786   1.147  1.00  0.00     0.125 A 
ATOM      9  C   UNL     1      26.033 -41.073   1.704  1.00  0.00     0.078 A 
ATOM     10  C   UNL     1      25.992 -41.235   3.092  1.00  0.00     0.223 A 
ENDROOT
BRANCH   1  11
ATOM     11  C   UNL     1      26.016 -40.181   5.391  1.00  0.00     0.087 A 
ATOM     12  C   UNL     1      25.918 -41.440   6.005  1.00  0.00     0.022 A 
ATOM     13  C   UNL     1      25.877 -41.547   7.397  1.00  0.00     0.051 A 
ATOM     14  C   UNL     1      25.917 -40.400   8.196  1.00  0.00     0.157 A 
ATOM     15  C   UNL     1      26.034 -39.028   6.195  1.00  0.00     0.068 A 
ATOM     16  C   UNL     1      25.992 -39.133   7.593  1.00  0.00     0.158 A 
BRANCH  14  17
ATOM     17  O   UNL     1      25.876 -40.538   9.583  1.00  0.00    -0.504 OA
ATOM     18  H   UNL     1      25.061 -40.281  10.126  1.00  0.00     0.293 HD
ENDBRANCH  14  17
BRANCH  16  19
ATOM     19  O   UNL     1      26.017 -37.985   8.384  1.00  0.00    -0.504 OA
ATOM     20  H   UNL     1      26.807 -37.769   8.980  1.00  0.00     0.293 HD
ENDBRANCH  16  19
ENDBRANCH   1  11
BRANCH  10  21
ATOM     21  O   UNL     1      25.878 -42.511   3.646  1.00  0.00    -0.500 OA
ATOM     22  H   UNL     1      25.629 -42.648   4.618  1.00  0.00     0.294 HD
ENDBRANCH  10  21
BRANCH   5  23
ATOM     23  O   UNL     1      26.245 -35.833  -0.294  1.00  0.00    -0.507 OA
ATOM     24  H   UNL     1      26.584 -35.075   0.287  1.00  0.00     0.293 HD
ENDBRANCH   5  23
BRANCH   7  25
ATOM     25  O   UNL     1      26.129 -40.561  -1.205  1.00  0.00    -0.507 OA
ATOM     26  H   UNL     1      25.799 -40.453  -2.154  1.00  0.00     0.293 HD
ENDBRANCH   7  25
TORSDOF 6
ENDMDL
