MODEL 1
REMARK VINA RESULT:    -3.019      0.000      0.000
REMARK INTER + INTRA:         -11.443
REMARK INTER:                  -6.902
REMARK INTRA:                  -4.541
REMARK UNBOUND:                -4.541
REMARK SMILES CCCCCCCCCCCCCCCCCCCCCCCC(=O)[O-]
REMARK SMILES IDX 13 1 14 2 15 3 16 4 17 5 18 6 19 7 20 8 21 9 22 10 23 11
REMARK SMILES IDX 24 12 25 13 26 14 12 15 11 16 10 17 9 18 8 19 7 20 6 21 5 22
REMARK SMILES IDX 4 23 3 24 2 25 1 26
REMARK H PARENT
REMARK Flexibility Score: inf
ROOT
ATOM      1  C   UNL     1     -97.850  71.662  24.399  1.00  0.00     0.000 C 
ENDROOT
BRANCH   1   2
ATOM      2  C   UNL     1     -97.916  73.190  24.584  1.00  0.00     0.000 C 
BRANCH   2   3
ATOM      3  C   UNL     1     -96.649  73.907  24.085  1.00  0.00     0.000 C 
BRANCH   3   4
ATOM      4  C   UNL     1     -95.686  72.978  23.319  1.00  0.00     0.000 C 
BRANCH   4   5
ATOM      5  C   UNL     1     -95.697  73.130  21.786  1.00  0.00     0.000 C 
BRANCH   5   6
ATOM      6  C   UNL     1     -96.216  71.878  21.057  1.00  0.00     0.000 C 
BRANCH   6   7
ATOM      7  C   UNL     1     -97.716  71.973  20.717  1.00  0.00     0.000 C 
BRANCH   7   8
ATOM      8  C   UNL     1     -98.244  73.412  20.569  1.00  0.00     0.000 C 
BRANCH   8   9
ATOM      9  C   UNL     1     -99.549  73.642  21.349  1.00  0.00     0.000 C 
BRANCH   9  10
ATOM     10  C   UNL     1    -100.631  72.595  21.025  1.00  0.00     0.006 C 
BRANCH  10  11
ATOM     11  C   UNL     1    -101.767  72.520  22.058  1.00  0.00     0.053 C 
BRANCH  11  12
ATOM     12  C   UNL     1    -102.391  71.158  22.111  1.00  0.00     0.041 C 
ATOM     13  O   UNL     1    -103.322  70.917  22.923  1.00  0.00    -0.550 OA
ATOM     14  O   UNL     1    -101.944  70.155  21.260  1.00  0.00    -0.550 OA
ENDBRANCH  11  12
ENDBRANCH  10  11
ENDBRANCH   9  10
ENDBRANCH   8   9
ENDBRANCH   7   8
ENDBRANCH   6   7
ENDBRANCH   5   6
ENDBRANCH   4   5
ENDBRANCH   3   4
ENDBRANCH   2   3
ENDBRANCH   1   2
BRANCH   1  15
ATOM     15  C   UNL     1     -99.193  71.016  23.992  1.00  0.00     0.000 C 
BRANCH  15  16
ATOM     16  C   UNL     1     -99.023  69.631  23.343  1.00  0.00     0.000 C 
BRANCH  16  17
ATOM     17  C   UNL     1     -99.170  68.478  24.354  1.00  0.00     0.000 C 
BRANCH  17  18
ATOM     18  C   UNL     1     -99.837  68.859  25.693  1.00  0.00    -0.000 C 
BRANCH  18  19
ATOM     19  C   UNL     1     -98.885  68.927  26.900  1.00  0.00    -0.000 C 
BRANCH  19  20
ATOM     20  C   UNL     1     -99.625  68.898  28.245  1.00  0.00    -0.000 C 
BRANCH  20  21
ATOM     21  C   UNL     1     -99.139  70.032  29.161  1.00  0.00    -0.000 C 
BRANCH  21  22
ATOM     22  C   UNL     1     -98.117  70.958  28.479  1.00  0.00    -0.000 C 
BRANCH  22  23
ATOM     23  C   UNL     1     -98.657  72.346  28.092  1.00  0.00    -0.000 C 
BRANCH  23  24
ATOM     24  C   UNL     1    -100.189  72.441  28.196  1.00  0.00    -0.000 C 
BRANCH  24  25
ATOM     25  C   UNL     1    -100.864  72.567  26.820  1.00  0.00    -0.003 C 
ATOM     26  C   UNL     1    -102.050  71.618  26.655  1.00  0.00     0.004 C 
ENDBRANCH  24  25
ENDBRANCH  23  24
ENDBRANCH  22  23
ENDBRANCH  21  22
ENDBRANCH  20  21
ENDBRANCH  19  20
ENDBRANCH  18  19
ENDBRANCH  17  18
ENDBRANCH  16  17
ENDBRANCH  15  16
ENDBRANCH   1  15
TORSDOF 22
ENDMDL
MODEL 2
REMARK VINA RESULT:    -2.980      2.660      6.527
REMARK INTER + INTRA:         -11.355
REMARK INTER:                  -6.794
REMARK INTRA:                  -4.560
REMARK UNBOUND:                -4.541
REMARK SMILES CCCCCCCCCCCCCCCCCCCCCCCC(=O)[O-]
REMARK SMILES IDX 13 1 14 2 15 3 16 4 17 5 18 6 19 7 20 8 21 9 22 10 23 11
REMARK SMILES IDX 24 12 25 13 26 14 12 15 11 16 10 17 9 18 8 19 7 20 6 21 5 22
REMARK SMILES IDX 4 23 3 24 2 25 1 26
REMARK H PARENT
REMARK Flexibility Score: inf
ROOT
ATOM      1  C   UNL     1     -99.346  69.317  25.815  1.00  0.00     0.000 C 
ENDROOT
BRANCH   1   2
ATOM      2  C   UNL     1    -100.545  69.145  26.767  1.00  0.00     0.000 C 
BRANCH   2   3
ATOM      3  C   UNL     1    -100.177  68.402  28.063  1.00  0.00     0.000 C 
BRANCH   3   4
ATOM      4  C   UNL     1     -98.767  68.746  28.581  1.00  0.00     0.000 C 
BRANCH   4   5
ATOM      5  C   UNL     1     -98.683  69.975  29.508  1.00  0.00     0.000 C 
BRANCH   5   6
ATOM      6  C   UNL     1     -98.139  71.230  28.802  1.00  0.00     0.000 C 
BRANCH   6   7
ATOM      7  C   UNL     1     -99.096  72.431  28.916  1.00  0.00     0.000 C 
BRANCH   7   8
ATOM      8  C   UNL     1    -100.589  72.052  28.970  1.00  0.00     0.000 C 
BRANCH   8   9
ATOM      9  C   UNL     1    -101.261  72.500  30.277  1.00  0.00     0.000 C 
BRANCH   9  10
ATOM     10  C   UNL     1    -101.678  71.315  31.169  1.00  0.00     0.006 C 
BRANCH  10  11
ATOM     11  C   UNL     1    -102.377  70.172  30.415  1.00  0.00     0.053 C 
BRANCH  11  12
ATOM     12  C   UNL     1    -103.805  70.497  30.097  1.00  0.00     0.041 C 
ATOM     13  O   UNL     1    -104.120  70.933  28.960  1.00  0.00    -0.550 OA
ATOM     14  O   UNL     1    -104.790  70.314  31.060  1.00  0.00    -0.550 OA
ENDBRANCH  11  12
ENDBRANCH  10  11
ENDBRANCH   9  10
ENDBRANCH   8   9
ENDBRANCH   7   8
ENDBRANCH   6   7
ENDBRANCH   5   6
ENDBRANCH   4   5
ENDBRANCH   3   4
ENDBRANCH   2   3
ENDBRANCH   1   2
BRANCH   1  15
ATOM     15  C   UNL     1     -99.385  68.396  24.576  1.00  0.00     0.000 C 
BRANCH  15  16
ATOM     16  C   UNL     1     -99.015  69.125  23.272  1.00  0.00     0.000 C 
BRANCH  16  17
ATOM     17  C   UNL     1    -100.188  69.934  22.688  1.00  0.00     0.000 C 
BRANCH  17  18
ATOM     18  C   UNL     1     -99.785  71.181  21.874  1.00  0.00    -0.000 C 
BRANCH  18  19
ATOM     19  C   UNL     1     -98.273  71.459  21.810  1.00  0.00    -0.000 C 
BRANCH  19  20
ATOM     20  C   UNL     1     -97.856  72.681  22.640  1.00  0.00    -0.000 C 
BRANCH  20  21
ATOM     21  C   UNL     1     -97.272  72.250  23.995  1.00  0.00    -0.000 C 
BRANCH  21  22
ATOM     22  C   UNL     1     -98.159  72.651  25.186  1.00  0.00    -0.000 C 
BRANCH  22  23
ATOM     23  C   UNL     1     -99.487  73.330  24.807  1.00  0.00    -0.000 C 
BRANCH  23  24
ATOM     24  C   UNL     1    -100.701  72.705  25.516  1.00  0.00    -0.000 C 
BRANCH  24  25
ATOM     25  C   UNL     1    -101.932  72.612  24.600  1.00  0.00    -0.003 C 
ATOM     26  C   UNL     1    -102.769  71.360  24.861  1.00  0.00     0.004 C 
ENDBRANCH  24  25
ENDBRANCH  23  24
ENDBRANCH  22  23
ENDBRANCH  21  22
ENDBRANCH  20  21
ENDBRANCH  19  20
ENDBRANCH  18  19
ENDBRANCH  17  18
ENDBRANCH  16  17
ENDBRANCH  15  16
ENDBRANCH   1  15
TORSDOF 22
ENDMDL
MODEL 3
REMARK VINA RESULT:    -2.975      1.679      3.279
REMARK INTER + INTRA:         -11.343
REMARK INTER:                  -6.332
REMARK INTRA:                  -5.011
REMARK UNBOUND:                -4.541
REMARK SMILES CCCCCCCCCCCCCCCCCCCCCCCC(=O)[O-]
REMARK SMILES IDX 13 1 14 2 15 3 16 4 17 5 18 6 19 7 20 8 21 9 22 10 23 11
REMARK SMILES IDX 24 12 25 13 26 14 12 15 11 16 10 17 9 18 8 19 7 20 6 21 5 22
REMARK SMILES IDX 4 23 3 24 2 25 1 26
REMARK H PARENT
REMARK Flexibility Score: inf
ROOT
ATOM      1  C   UNL     1     -99.032  69.229  26.342  1.00  0.00     0.000 C 
ENDROOT
BRANCH   1   2
ATOM      2  C   UNL     1     -98.629  70.716  26.312  1.00  0.00     0.000 C 
BRANCH   2   3
ATOM      3  C   UNL     1     -99.826  71.653  26.071  1.00  0.00     0.000 C 
BRANCH   3   4
ATOM      4  C   UNL     1     -99.438  72.963  25.356  1.00  0.00     0.000 C 
BRANCH   4   5
ATOM      5  C   UNL     1     -97.940  73.119  25.028  1.00  0.00     0.000 C 
BRANCH   5   6
ATOM      6  C   UNL     1     -97.659  73.227  23.518  1.00  0.00     0.000 C 
BRANCH   6   7
ATOM      7  C   UNL     1     -97.151  71.902  22.918  1.00  0.00     0.000 C 
BRANCH   7   8
ATOM      8  C   UNL     1     -98.166  71.187  22.006  1.00  0.00     0.000 C 
BRANCH   8   9
ATOM      9  C   UNL     1     -98.910  70.054  22.730  1.00  0.00     0.000 C 
BRANCH   9  10
ATOM     10  C   UNL     1    -100.427  70.068  22.459  1.00  0.00     0.006 C 
BRANCH  10  11
ATOM     11  C   UNL     1    -101.040  71.475  22.376  1.00  0.00     0.053 C 
BRANCH  11  12
ATOM     12  C   UNL     1    -102.187  71.648  23.326  1.00  0.00     0.041 C 
ATOM     13  O   UNL     1    -102.610  72.798  23.610  1.00  0.00    -0.550 OA
ATOM     14  O   UNL     1    -102.790  70.533  23.896  1.00  0.00    -0.550 OA
ENDBRANCH  11  12
ENDBRANCH  10  11
ENDBRANCH   9  10
ENDBRANCH   8   9
ENDBRANCH   7   8
ENDBRANCH   6   7
ENDBRANCH   5   6
ENDBRANCH   4   5
ENDBRANCH   3   4
ENDBRANCH   2   3
ENDBRANCH   1   2
BRANCH   1  15
ATOM     15  C   UNL     1    -100.542  68.987  26.560  1.00  0.00     0.000 C 
BRANCH  15  16
ATOM     16  C   UNL     1    -100.920  68.844  28.045  1.00  0.00     0.000 C 
BRANCH  16  17
ATOM     17  C   UNL     1     -99.787  68.236  28.892  1.00  0.00     0.000 C 
BRANCH  17  18
ATOM     18  C   UNL     1     -99.312  69.106  30.075  1.00  0.00    -0.000 C 
BRANCH  18  19
ATOM     19  C   UNL     1     -99.633  70.606  29.952  1.00  0.00    -0.000 C 
BRANCH  19  20
ATOM     20  C   UNL     1     -98.374  71.476  29.829  1.00  0.00    -0.000 C 
BRANCH  20  21
ATOM     21  C   UNL     1     -98.735  72.903  29.386  1.00  0.00    -0.000 C 
BRANCH  21  22
ATOM     22  C   UNL     1    -100.202  73.267  29.672  1.00  0.00    -0.000 C 
BRANCH  22  23
ATOM     23  C   UNL     1    -100.887  74.106  28.580  1.00  0.00    -0.000 C 
BRANCH  23  24
ATOM     24  C   UNL     1    -102.356  73.711  28.356  1.00  0.00    -0.000 C 
BRANCH  24  25
ATOM     25  C   UNL     1    -102.571  72.190  28.426  1.00  0.00    -0.003 C 
ATOM     26  C   UNL     1    -103.259  71.633  27.179  1.00  0.00     0.004 C 
ENDBRANCH  24  25
ENDBRANCH  23  24
ENDBRANCH  22  23
ENDBRANCH  21  22
ENDBRANCH  20  21
ENDBRANCH  19  20
ENDBRANCH  18  19
ENDBRANCH  17  18
ENDBRANCH  16  17
ENDBRANCH  15  16
ENDBRANCH   1  15
TORSDOF 22
ENDMDL
MODEL 4
REMARK VINA RESULT:    -2.963      2.556      7.010
REMARK INTER + INTRA:         -11.314
REMARK INTER:                  -7.207
REMARK INTRA:                  -4.107
REMARK UNBOUND:                -4.541
REMARK SMILES CCCCCCCCCCCCCCCCCCCCCCCC(=O)[O-]
REMARK SMILES IDX 13 1 14 2 15 3 16 4 17 5 18 6 19 7 20 8 21 9 22 10 23 11
REMARK SMILES IDX 24 12 25 13 26 14 12 15 11 16 10 17 9 18 8 19 7 20 6 21 5 22
REMARK SMILES IDX 4 23 3 24 2 25 1 26
REMARK H PARENT
REMARK Flexibility Score: inf
ROOT
ATOM      1  C   UNL     1    -101.141  70.098  22.474  1.00  0.00     0.000 C 
ENDROOT
BRANCH   1   2
ATOM      2  C   UNL     1    -102.202  71.208  22.595  1.00  0.00     0.000 C 
BRANCH   2   3
ATOM      3  C   UNL     1    -103.161  70.991  23.779  1.00  0.00     0.000 C 
BRANCH   3   4
ATOM      4  C   UNL     1    -102.697  71.689  25.072  1.00  0.00     0.000 C 
BRANCH   4   5
ATOM      5  C   UNL     1    -102.270  70.748  26.217  1.00  0.00     0.000 C 
BRANCH   5   6
ATOM      6  C   UNL     1    -100.743  70.649  26.381  1.00  0.00     0.000 C 
BRANCH   6   7
ATOM      7  C   UNL     1    -100.252  69.190  26.452  1.00  0.00     0.000 C 
BRANCH   7   8
ATOM      8  C   UNL     1     -98.753  69.039  26.774  1.00  0.00     0.000 C 
BRANCH   8   9
ATOM      9  C   UNL     1     -98.490  68.876  28.280  1.00  0.00     0.000 C 
BRANCH   9  10
ATOM     10  C   UNL     1     -99.750  68.467  29.065  1.00  0.00     0.006 C 
BRANCH  10  11
ATOM     11  C   UNL     1    -100.046  69.350  30.288  1.00  0.00     0.053 C 
BRANCH  11  12
ATOM     12  C   UNL     1    -101.188  70.290  30.042  1.00  0.00     0.041 C 
ATOM     13  O   UNL     1    -102.291  69.854  29.624  1.00  0.00    -0.550 OA
ATOM     14  O   UNL     1    -101.030  71.650  30.276  1.00  0.00    -0.550 OA
ENDBRANCH  11  12
ENDBRANCH  10  11
ENDBRANCH   9  10
ENDBRANCH   8   9
ENDBRANCH   7   8
ENDBRANCH   6   7
ENDBRANCH   5   6
ENDBRANCH   4   5
ENDBRANCH   3   4
ENDBRANCH   2   3
ENDBRANCH   1   2
BRANCH   1  15
ATOM     15  C   UNL     1     -99.726  70.612  22.125  1.00  0.00     0.000 C 
BRANCH  15  16
ATOM     16  C   UNL     1     -98.673  70.243  23.185  1.00  0.00     0.000 C 
BRANCH  16  17
ATOM     17  C   UNL     1     -98.179  71.464  23.983  1.00  0.00     0.000 C 
BRANCH  17  18
ATOM     18  C   UNL     1     -98.990  72.760  23.771  1.00  0.00    -0.000 C 
BRANCH  18  19
ATOM     19  C   UNL     1     -98.256  74.059  24.148  1.00  0.00    -0.000 C 
BRANCH  19  20
ATOM     20  C   UNL     1     -96.780  73.828  24.501  1.00  0.00    -0.000 C 
BRANCH  20  21
ATOM     21  C   UNL     1     -95.863  74.317  23.369  1.00  0.00    -0.000 C 
BRANCH  21  22
ATOM     22  C   UNL     1     -95.239  73.166  22.562  1.00  0.00    -0.000 C 
BRANCH  22  23
ATOM     23  C   UNL     1     -95.583  73.163  21.062  1.00  0.00    -0.000 C 
BRANCH  23  24
ATOM     24  C   UNL     1     -96.470  71.974  20.656  1.00  0.00    -0.000 C 
BRANCH  24  25
ATOM     25  C   UNL     1     -97.688  72.408  19.824  1.00  0.00    -0.003 C 
ATOM     26  C   UNL     1     -98.295  73.724  20.309  1.00  0.00     0.004 C 
ENDBRANCH  24  25
ENDBRANCH  23  24
ENDBRANCH  22  23
ENDBRANCH  21  22
ENDBRANCH  20  21
ENDBRANCH  19  20
ENDBRANCH  18  19
ENDBRANCH  17  18
ENDBRANCH  16  17
ENDBRANCH  15  16
ENDBRANCH   1  15
TORSDOF 22
ENDMDL
MODEL 5
REMARK VINA RESULT:    -2.945      2.265      5.818
REMARK INTER + INTRA:         -11.273
REMARK INTER:                  -6.804
REMARK INTRA:                  -4.469
REMARK UNBOUND:                -4.541
REMARK SMILES CCCCCCCCCCCCCCCCCCCCCCCC(=O)[O-]
REMARK SMILES IDX 13 1 14 2 15 3 16 4 17 5 18 6 19 7 20 8 21 9 22 10 23 11
REMARK SMILES IDX 24 12 25 13 26 14 12 15 11 16 10 17 9 18 8 19 7 20 6 21 5 22
REMARK SMILES IDX 4 23 3 24 2 25 1 26
REMARK H PARENT
REMARK Flexibility Score: inf
ROOT
ATOM      1  C   UNL     1     -97.044  71.829  21.045  1.00  0.00     0.000 C 
ENDROOT
BRANCH   1   2
ATOM      2  C   UNL     1     -98.508  72.295  20.933  1.00  0.00     0.000 C 
BRANCH   2   3
ATOM      3  C   UNL     1     -99.430  71.625  21.968  1.00  0.00     0.000 C 
BRANCH   3   4
ATOM      4  C   UNL     1     -98.906  70.259  22.454  1.00  0.00     0.000 C 
BRANCH   4   5
ATOM      5  C   UNL     1     -98.642  70.151  23.969  1.00  0.00     0.000 C 
BRANCH   5   6
ATOM      6  C   UNL     1     -99.314  68.926  24.614  1.00  0.00     0.000 C 
BRANCH   6   7
ATOM      7  C   UNL     1     -99.457  69.068  26.141  1.00  0.00     0.000 C 
BRANCH   7   8
ATOM      8  C   UNL     1     -98.506  70.101  26.775  1.00  0.00     0.000 C 
BRANCH   8   9
ATOM      9  C   UNL     1     -98.248  69.825  28.265  1.00  0.00     0.000 C 
BRANCH   9  10
ATOM     10  C   UNL     1     -98.654  71.005  29.169  1.00  0.00     0.006 C 
BRANCH  10  11
ATOM     11  C   UNL     1     -99.706  70.652  30.233  1.00  0.00     0.053 C 
BRANCH  11  12
ATOM     12  C   UNL     1    -101.098  70.670  29.677  1.00  0.00     0.041 C 
ATOM     13  O   UNL     1    -101.843  71.667  29.862  1.00  0.00    -0.550 OA
ATOM     14  O   UNL     1    -101.570  69.584  28.951  1.00  0.00    -0.550 OA
ENDBRANCH  11  12
ENDBRANCH  10  11
ENDBRANCH   9  10
ENDBRANCH   8   9
ENDBRANCH   7   8
ENDBRANCH   6   7
ENDBRANCH   5   6
ENDBRANCH   4   5
ENDBRANCH   3   4
ENDBRANCH   2   3
ENDBRANCH   1   2
BRANCH   1  15
ATOM     15  C   UNL     1     -96.071  72.920  21.544  1.00  0.00     0.000 C 
BRANCH  15  16
ATOM     16  C   UNL     1     -95.566  72.668  22.976  1.00  0.00     0.000 C 
BRANCH  16  17
ATOM     17  C   UNL     1     -95.954  73.796  23.951  1.00  0.00     0.000 C 
BRANCH  17  18
ATOM     18  C   UNL     1     -97.467  74.087  24.051  1.00  0.00    -0.000 C 
BRANCH  18  19
ATOM     19  C   UNL     1     -98.166  73.488  25.285  1.00  0.00    -0.000 C 
BRANCH  19  20
ATOM     20  C   UNL     1     -99.696  73.488  25.161  1.00  0.00    -0.000 C 
BRANCH  20  21
ATOM     21  C   UNL     1    -100.353  73.122  26.501  1.00  0.00    -0.000 C 
BRANCH  21  22
ATOM     22  C   UNL     1    -101.547  72.165  26.343  1.00  0.00    -0.000 C 
BRANCH  22  23
ATOM     23  C   UNL     1    -102.213  72.182  24.955  1.00  0.00    -0.000 C 
BRANCH  23  24
ATOM     24  C   UNL     1    -102.299  70.786  24.318  1.00  0.00    -0.000 C 
BRANCH  24  25
ATOM     25  C   UNL     1    -102.993  70.810  22.945  1.00  0.00    -0.003 C 
ATOM     26  C   UNL     1    -103.033  72.208  22.329  1.00  0.00     0.004 C 
ENDBRANCH  24  25
ENDBRANCH  23  24
ENDBRANCH  22  23
ENDBRANCH  21  22
ENDBRANCH  20  21
ENDBRANCH  19  20
ENDBRANCH  18  19
ENDBRANCH  17  18
ENDBRANCH  16  17
ENDBRANCH  15  16
ENDBRANCH   1  15
TORSDOF 22
ENDMDL
MODEL 6
REMARK VINA RESULT:    -2.941      1.655      3.431
REMARK INTER + INTRA:         -11.265
REMARK INTER:                  -6.493
REMARK INTRA:                  -4.772
REMARK UNBOUND:                -4.541
REMARK SMILES CCCCCCCCCCCCCCCCCCCCCCCC(=O)[O-]
REMARK SMILES IDX 13 1 14 2 15 3 16 4 17 5 18 6 19 7 20 8 21 9 22 10 23 11
REMARK SMILES IDX 24 12 25 13 26 14 12 15 11 16 10 17 9 18 8 19 7 20 6 21 5 22
REMARK SMILES IDX 4 23 3 24 2 25 1 26
REMARK H PARENT
REMARK Flexibility Score: inf
ROOT
ATOM      1  C   UNL     1     -98.677  70.271  22.362  1.00  0.00     0.000 C 
ENDROOT
BRANCH   1   2
ATOM      2  C   UNL     1     -99.087  71.755  22.315  1.00  0.00     0.000 C 
BRANCH   2   3
ATOM      3  C   UNL     1     -98.002  72.692  22.875  1.00  0.00     0.000 C 
BRANCH   3   4
ATOM      4  C   UNL     1     -97.512  72.284  24.279  1.00  0.00     0.000 C 
BRANCH   4   5
ATOM      5  C   UNL     1     -98.599  72.228  25.370  1.00  0.00     0.000 C 
BRANCH   5   6
ATOM      6  C   UNL     1     -98.905  73.603  25.990  1.00  0.00     0.000 C 
BRANCH   6   7
ATOM      7  C   UNL     1    -100.387  73.998  25.847  1.00  0.00     0.000 C 
BRANCH   7   8
ATOM      8  C   UNL     1    -101.223  73.030  24.987  1.00  0.00     0.000 C 
BRANCH   8   9
ATOM      9  C   UNL     1    -102.730  73.320  25.072  1.00  0.00     0.000 C 
BRANCH   9  10
ATOM     10  C   UNL     1    -103.581  72.274  24.327  1.00  0.00     0.006 C 
BRANCH  10  11
ATOM     11  C   UNL     1    -102.767  71.291  23.470  1.00  0.00     0.053 C 
BRANCH  11  12
ATOM     12  C   UNL     1    -103.114  71.391  22.015  1.00  0.00     0.041 C 
ATOM     13  O   UNL     1    -104.158  71.991  21.651  1.00  0.00    -0.550 OA
ATOM     14  O   UNL     1    -102.279  70.821  21.062  1.00  0.00    -0.550 OA
ENDBRANCH  11  12
ENDBRANCH  10  11
ENDBRANCH   9  10
ENDBRANCH   8   9
ENDBRANCH   7   8
ENDBRANCH   6   7
ENDBRANCH   5   6
ENDBRANCH   4   5
ENDBRANCH   3   4
ENDBRANCH   2   3
ENDBRANCH   1   2
BRANCH   1  15
ATOM     15  C   UNL     1     -99.709  69.352  23.052  1.00  0.00     0.000 C 
BRANCH  15  16
ATOM     16  C   UNL     1     -99.068  68.364  24.043  1.00  0.00     0.000 C 
BRANCH  16  17
ATOM     17  C   UNL     1     -99.441  68.663  25.507  1.00  0.00     0.000 C 
BRANCH  17  18
ATOM     18  C   UNL     1    -100.684  69.559  25.699  1.00  0.00    -0.000 C 
BRANCH  18  19
ATOM     19  C   UNL     1    -101.531  69.242  26.944  1.00  0.00    -0.000 C 
BRANCH  19  20
ATOM     20  C   UNL     1    -102.356  70.444  27.425  1.00  0.00    -0.000 C 
BRANCH  20  21
ATOM     21  C   UNL     1    -101.850  70.947  28.785  1.00  0.00    -0.000 C 
BRANCH  21  22
ATOM     22  C   UNL     1    -100.533  71.735  28.682  1.00  0.00    -0.000 C 
BRANCH  22  23
ATOM     23  C   UNL     1     -99.365  71.158  29.503  1.00  0.00    -0.000 C 
BRANCH  23  24
ATOM     24  C   UNL     1     -98.308  70.462  28.629  1.00  0.00    -0.000 C 
BRANCH  24  25
ATOM     25  C   UNL     1     -98.352  68.931  28.764  1.00  0.00    -0.003 C 
ATOM     26  C   UNL     1     -99.124  68.469  30.000  1.00  0.00     0.004 C 
ENDBRANCH  24  25
ENDBRANCH  23  24
ENDBRANCH  22  23
ENDBRANCH  21  22
ENDBRANCH  20  21
ENDBRANCH  19  20
ENDBRANCH  18  19
ENDBRANCH  17  18
ENDBRANCH  16  17
ENDBRANCH  15  16
ENDBRANCH   1  15
TORSDOF 22
ENDMDL
MODEL 7
REMARK VINA RESULT:    -2.939      1.251      2.724
REMARK INTER + INTRA:         -11.260
REMARK INTER:                  -7.109
REMARK INTRA:                  -4.151
REMARK UNBOUND:                -4.541
REMARK SMILES CCCCCCCCCCCCCCCCCCCCCCCC(=O)[O-]
REMARK SMILES IDX 13 1 14 2 15 3 16 4 17 5 18 6 19 7 20 8 21 9 22 10 23 11
REMARK SMILES IDX 24 12 25 13 26 14 12 15 11 16 10 17 9 18 8 19 7 20 6 21 5 22
REMARK SMILES IDX 4 23 3 24 2 25 1 26
REMARK H PARENT
REMARK Flexibility Score: inf
ROOT
ATOM      1  C   UNL     1     -98.073  72.948  24.760  1.00  0.00     0.000 C 
ENDROOT
BRANCH   1   2
ATOM      2  C   UNL     1     -97.315  74.251  25.080  1.00  0.00     0.000 C 
BRANCH   2   3
ATOM      3  C   UNL     1     -95.982  74.369  24.319  1.00  0.00     0.000 C 
BRANCH   3   4
ATOM      4  C   UNL     1     -95.614  73.093  23.536  1.00  0.00     0.000 C 
BRANCH   4   5
ATOM      5  C   UNL     1     -95.226  73.309  22.060  1.00  0.00     0.000 C 
BRANCH   5   6
ATOM      6  C   UNL     1     -96.348  72.926  21.078  1.00  0.00     0.000 C 
BRANCH   6   7
ATOM      7  C   UNL     1     -96.843  71.481  21.282  1.00  0.00     0.000 C 
BRANCH   7   8
ATOM      8  C   UNL     1     -98.337  71.365  21.639  1.00  0.00     0.000 C 
BRANCH   8   9
ATOM      9  C   UNL     1     -98.650  70.099  22.453  1.00  0.00     0.000 C 
BRANCH   9  10
ATOM     10  C   UNL     1    -100.040  70.144  23.115  1.00  0.00     0.006 C 
BRANCH  10  11
ATOM     11  C   UNL     1    -100.907  71.337  22.683  1.00  0.00     0.053 C 
BRANCH  11  12
ATOM     12  C   UNL     1    -102.220  70.901  22.105  1.00  0.00     0.041 C 
ATOM     13  O   UNL     1    -103.181  70.608  22.862  1.00  0.00    -0.550 OA
ATOM     14  O   UNL     1    -102.380  70.820  20.728  1.00  0.00    -0.550 OA
ENDBRANCH  11  12
ENDBRANCH  10  11
ENDBRANCH   9  10
ENDBRANCH   8   9
ENDBRANCH   7   8
ENDBRANCH   6   7
ENDBRANCH   5   6
ENDBRANCH   4   5
ENDBRANCH   3   4
ENDBRANCH   2   3
ENDBRANCH   1   2
BRANCH   1  15
ATOM     15  C   UNL     1     -99.078  72.518  25.851  1.00  0.00     0.000 C 
BRANCH  15  16
ATOM     16  C   UNL     1     -98.645  72.936  27.268  1.00  0.00     0.000 C 
BRANCH  16  17
ATOM     17  C   UNL     1     -99.753  72.725  28.316  1.00  0.00     0.000 C 
BRANCH  17  18
ATOM     18  C   UNL     1     -99.404  71.741  29.452  1.00  0.00    -0.000 C 
BRANCH  18  19
ATOM     19  C   UNL     1     -98.301  70.722  29.117  1.00  0.00    -0.000 C 
BRANCH  19  20
ATOM     20  C   UNL     1     -98.861  69.358  28.686  1.00  0.00    -0.000 C 
BRANCH  20  21
ATOM     21  C   UNL     1     -98.613  69.114  27.189  1.00  0.00    -0.000 C 
BRANCH  21  22
ATOM     22  C   UNL     1     -99.910  68.870  26.398  1.00  0.00    -0.000 C 
BRANCH  22  23
ATOM     23  C   UNL     1    -101.196  69.344  27.098  1.00  0.00    -0.000 C 
BRANCH  23  24
ATOM     24  C   UNL     1    -102.066  70.242  26.202  1.00  0.00    -0.000 C 
BRANCH  24  25
ATOM     25  C   UNL     1    -102.811  71.323  27.002  1.00  0.00    -0.003 C 
ATOM     26  C   UNL     1    -103.001  72.617  26.211  1.00  0.00     0.004 C 
ENDBRANCH  24  25
ENDBRANCH  23  24
ENDBRANCH  22  23
ENDBRANCH  21  22
ENDBRANCH  20  21
ENDBRANCH  19  20
ENDBRANCH  18  19
ENDBRANCH  17  18
ENDBRANCH  16  17
ENDBRANCH  15  16
ENDBRANCH   1  15
TORSDOF 22
ENDMDL
MODEL 8
REMARK VINA RESULT:    -2.917      3.518      7.832
REMARK INTER + INTRA:         -11.209
REMARK INTER:                  -6.882
REMARK INTRA:                  -4.326
REMARK UNBOUND:                -4.541
REMARK SMILES CCCCCCCCCCCCCCCCCCCCCCCC(=O)[O-]
REMARK SMILES IDX 13 1 14 2 15 3 16 4 17 5 18 6 19 7 20 8 21 9 22 10 23 11
REMARK SMILES IDX 24 12 25 13 26 14 12 15 11 16 10 17 9 18 8 19 7 20 6 21 5 22
REMARK SMILES IDX 4 23 3 24 2 25 1 26
REMARK H PARENT
REMARK Flexibility Score: inf
ROOT
ATOM      1  C   UNL     1     -98.621  70.858  27.244  1.00  0.00     0.000 C 
ENDROOT
BRANCH   1   2
ATOM      2  C   UNL     1     -98.629  69.317  27.252  1.00  0.00     0.000 C 
BRANCH   2   3
ATOM      3  C   UNL     1     -99.876  68.730  27.938  1.00  0.00     0.000 C 
BRANCH   3   4
ATOM      4  C   UNL     1    -101.195  69.132  27.249  1.00  0.00     0.000 C 
BRANCH   4   5
ATOM      5  C   UNL     1    -102.164  69.967  28.110  1.00  0.00     0.000 C 
BRANCH   5   6
ATOM      6  C   UNL     1    -102.326  71.413  27.609  1.00  0.00     0.000 C 
BRANCH   6   7
ATOM      7  C   UNL     1    -101.939  72.453  28.679  1.00  0.00     0.000 C 
BRANCH   7   8
ATOM      8  C   UNL     1    -101.416  71.847  29.995  1.00  0.00     0.000 C 
BRANCH   8   9
ATOM      9  C   UNL     1     -99.953  72.229  30.276  1.00  0.00     0.000 C 
BRANCH   9  10
ATOM     10  C   UNL     1     -99.168  71.104  30.977  1.00  0.00     0.006 C 
BRANCH  10  11
ATOM     11  C   UNL     1    -100.007  69.858  31.307  1.00  0.00     0.053 C 
BRANCH  11  12
ATOM     12  C   UNL     1    -100.214  69.693  32.782  1.00  0.00     0.041 C 
ATOM     13  O   UNL     1     -99.264  69.324  33.520  1.00  0.00    -0.550 OA
ATOM     14  O   UNL     1    -101.460  69.948  33.341  1.00  0.00    -0.550 OA
ENDBRANCH  11  12
ENDBRANCH  10  11
ENDBRANCH   9  10
ENDBRANCH   8   9
ENDBRANCH   7   8
ENDBRANCH   6   7
ENDBRANCH   5   6
ENDBRANCH   4   5
ENDBRANCH   3   4
ENDBRANCH   2   3
ENDBRANCH   1   2
BRANCH   1  15
ATOM     15  C   UNL     1     -98.464  71.482  25.839  1.00  0.00     0.000 C 
BRANCH  15  16
ATOM     16  C   UNL     1     -99.620  72.427  25.467  1.00  0.00     0.000 C 
BRANCH  16  17
ATOM     17  C   UNL     1     -99.130  73.760  24.869  1.00  0.00     0.000 C 
BRANCH  17  18
ATOM     18  C   UNL     1     -97.606  73.992  24.941  1.00  0.00    -0.000 C 
BRANCH  18  19
ATOM     19  C   UNL     1     -96.894  74.072  23.579  1.00  0.00    -0.000 C 
BRANCH  19  20
ATOM     20  C   UNL     1     -96.010  72.849  23.296  1.00  0.00    -0.000 C 
BRANCH  20  21
ATOM     21  C   UNL     1     -96.514  72.083  22.064  1.00  0.00    -0.000 C 
BRANCH  21  22
ATOM     22  C   UNL     1     -97.901  72.552  21.591  1.00  0.00    -0.000 C 
BRANCH  22  23
ATOM     23  C   UNL     1     -99.036  71.533  21.798  1.00  0.00    -0.000 C 
BRANCH  23  24
ATOM     24  C   UNL     1     -98.549  70.218  22.429  1.00  0.00    -0.000 C 
BRANCH  24  25
ATOM     25  C   UNL     1     -99.674  69.469  23.163  1.00  0.00    -0.003 C 
ATOM     26  C   UNL     1     -99.168  68.242  23.923  1.00  0.00     0.004 C 
ENDBRANCH  24  25
ENDBRANCH  23  24
ENDBRANCH  22  23
ENDBRANCH  21  22
ENDBRANCH  20  21
ENDBRANCH  19  20
ENDBRANCH  18  19
ENDBRANCH  17  18
ENDBRANCH  16  17
ENDBRANCH  15  16
ENDBRANCH   1  15
TORSDOF 22
ENDMDL
MODEL 9
REMARK VINA RESULT:    -2.909      2.702      4.707
REMARK INTER + INTRA:         -11.191
REMARK INTER:                  -6.721
REMARK INTRA:                  -4.470
REMARK UNBOUND:                -4.541
REMARK SMILES CCCCCCCCCCCCCCCCCCCCCCCC(=O)[O-]
REMARK SMILES IDX 13 1 14 2 15 3 16 4 17 5 18 6 19 7 20 8 21 9 22 10 23 11
REMARK SMILES IDX 24 12 25 13 26 14 12 15 11 16 10 17 9 18 8 19 7 20 6 21 5 22
REMARK SMILES IDX 4 23 3 24 2 25 1 26
REMARK H PARENT
REMARK Flexibility Score: inf
ROOT
ATOM      1  C   UNL     1     -98.457  72.121  21.020  1.00  0.00     0.000 C 
ENDROOT
BRANCH   1   2
ATOM      2  C   UNL     1     -96.953  71.855  21.224  1.00  0.00     0.000 C 
BRANCH   2   3
ATOM      3  C   UNL     1     -96.188  73.097  21.716  1.00  0.00     0.000 C 
BRANCH   3   4
ATOM      4  C   UNL     1     -95.610  72.931  23.135  1.00  0.00     0.000 C 
BRANCH   4   5
ATOM      5  C   UNL     1     -96.183  73.887  24.200  1.00  0.00     0.000 C 
BRANCH   5   6
ATOM      6  C   UNL     1     -97.560  74.461  23.820  1.00  0.00     0.000 C 
BRANCH   6   7
ATOM      7  C   UNL     1     -98.696  73.889  24.690  1.00  0.00     0.000 C 
BRANCH   7   8
ATOM      8  C   UNL     1     -98.238  72.854  25.735  1.00  0.00     0.000 C 
BRANCH   8   9
ATOM      9  C   UNL     1     -99.096  72.885  27.010  1.00  0.00     0.000 C 
BRANCH   9  10
ATOM     10  C   UNL     1     -98.273  72.648  28.290  1.00  0.00     0.006 C 
BRANCH  10  11
ATOM     11  C   UNL     1     -97.847  71.187  28.505  1.00  0.00     0.053 C 
BRANCH  11  12
ATOM     12  C   UNL     1     -98.799  70.448  29.397  1.00  0.00     0.041 C 
ATOM     13  O   UNL     1     -99.709  71.067  30.007  1.00  0.00    -0.550 OA
ATOM     14  O   UNL     1     -98.681  69.072  29.550  1.00  0.00    -0.550 OA
ENDBRANCH  11  12
ENDBRANCH  10  11
ENDBRANCH   9  10
ENDBRANCH   8   9
ENDBRANCH   7   8
ENDBRANCH   6   7
ENDBRANCH   5   6
ENDBRANCH   4   5
ENDBRANCH   3   4
ENDBRANCH   2   3
ENDBRANCH   1   2
BRANCH   1  15
ATOM     15  C   UNL     1     -99.369  71.408  22.044  1.00  0.00     0.000 C 
BRANCH  15  16
ATOM     16  C   UNL     1     -98.612  70.395  22.921  1.00  0.00     0.000 C 
BRANCH  16  17
ATOM     17  C   UNL     1     -99.394  69.085  23.128  1.00  0.00     0.000 C 
BRANCH  17  18
ATOM     18  C   UNL     1     -99.150  68.380  24.480  1.00  0.00    -0.000 C 
BRANCH  18  19
ATOM     19  C   UNL     1     -99.304  69.278  25.720  1.00  0.00    -0.000 C 
BRANCH  19  20
ATOM     20  C   UNL     1    -100.626  69.044  26.465  1.00  0.00    -0.000 C 
BRANCH  20  21
ATOM     21  C   UNL     1    -101.426  70.350  26.583  1.00  0.00    -0.000 C 
BRANCH  21  22
ATOM     22  C   UNL     1    -102.299  70.633  25.348  1.00  0.00    -0.000 C 
BRANCH  22  23
ATOM     23  C   UNL     1    -101.835  71.819  24.485  1.00  0.00    -0.000 C 
BRANCH  23  24
ATOM     24  C   UNL     1    -102.673  73.088  24.715  1.00  0.00    -0.000 C 
BRANCH  24  25
ATOM     25  C   UNL     1    -102.479  73.671  26.125  1.00  0.00    -0.003 C 
ATOM     26  C   UNL     1    -102.008  75.125  26.103  1.00  0.00     0.004 C 
ENDBRANCH  24  25
ENDBRANCH  23  24
ENDBRANCH  22  23
ENDBRANCH  21  22
ENDBRANCH  20  21
ENDBRANCH  19  20
ENDBRANCH  18  19
ENDBRANCH  17  18
ENDBRANCH  16  17
ENDBRANCH  15  16
ENDBRANCH   1  15
TORSDOF 22
ENDMDL
