MODEL 1
REMARK VINA RESULT:    -6.425      0.000      0.000
REMARK INTER + INTRA:          -8.063
REMARK INTER:                  -7.740
REMARK INTRA:                  -0.323
REMARK UNBOUND:                -0.323
REMARK SMILES O=c1c(O)c(-c2ccc(O)c(O)c2)oc2cc(O)cc(O)c12
REMARK SMILES IDX 5 1 3 2 2 3 1 4 22 5 20 6 19 7 17 8 16 9 15 10 14 11 6 12
REMARK SMILES IDX 7 13 8 14 9 15 13 16 11 17 10 18 12 20 4 22 21 24 18 26
REMARK H PARENT 10 19 12 21 4 23 21 25 18 27
REMARK Flexibility Score: inf
ROOT
ATOM      1  C   UNL     1      -0.418  16.325  13.318  1.00  0.00     0.180 A 
ATOM      2  C   UNL     1      -1.061  16.284  12.070  1.00  0.00     0.208 A 
ATOM      3  C   UNL     1      -2.215  17.058  11.871  1.00  0.00     0.238 A 
ATOM      4  O   UNL     1      -2.755  17.058  10.734  1.00  0.00    -0.285 OA
ATOM      5  C   UNL     1      -2.721  17.852  12.928  1.00  0.00     0.111 A 
ATOM      6  C   UNL     1      -3.905  18.645  12.851  1.00  0.00     0.134 A 
ATOM      7  C   UNL     1      -4.239  19.492  13.915  1.00  0.00     0.093 A 
ATOM      8  C   UNL     1      -3.468  19.526  15.078  1.00  0.00     0.123 A 
ATOM      9  C   UNL     1      -2.343  18.711  15.187  1.00  0.00     0.094 A 
ATOM     10  C   UNL     1      -1.963  17.883  14.128  1.00  0.00     0.146 A 
ATOM     11  O   UNL     1      -0.879  17.130  14.269  1.00  0.00    -0.452 OA
ENDROOT
BRANCH   1  12
ATOM     12  C   UNL     1       0.788  15.518  13.612  1.00  0.00     0.025 A 
ATOM     13  C   UNL     1       0.643  14.206  14.090  1.00  0.00     0.016 A 
ATOM     14  C   UNL     1       1.768  13.420  14.353  1.00  0.00     0.051 A 
ATOM     15  C   UNL     1       3.054  13.929  14.127  1.00  0.00     0.157 A 
ATOM     16  C   UNL     1       2.081  16.018  13.366  1.00  0.00     0.062 A 
ATOM     17  C   UNL     1       3.210  15.229  13.629  1.00  0.00     0.158 A 
BRANCH  15  18
ATOM     18  O   UNL     1       4.178  13.149  14.390  1.00  0.00    -0.504 OA
ATOM     19  H   UNL     1       4.101  12.158  14.589  1.00  0.00     0.293 HD
ENDBRANCH  15  18
BRANCH  17  20
ATOM     20  O   UNL     1       4.489  15.727  13.392  1.00  0.00    -0.504 OA
ATOM     21  H   UNL     1       4.913  15.687  12.472  1.00  0.00     0.293 HD
ENDBRANCH  17  20
ENDBRANCH   1  12
BRANCH   2  22
ATOM     22  O   UNL     1      -0.532  15.509  11.032  1.00  0.00    -0.502 OA
ATOM     23  H   UNL     1      -0.188  15.916  10.171  1.00  0.00     0.293 HD
ENDBRANCH   2  22
BRANCH   6  24
ATOM     24  O   UNL     1      -4.795  18.617  11.772  1.00  0.00    -0.507 OA
ATOM     25  H   UNL     1      -5.399  17.841  11.547  1.00  0.00     0.293 HD
ENDBRANCH   6  24
BRANCH   8  26
ATOM     26  O   UNL     1      -3.816  20.361  16.138  1.00  0.00    -0.508 OA
ATOM     27  H   UNL     1      -3.177  21.063  16.493  1.00  0.00     0.293 HD
ENDBRANCH   8  26
TORSDOF 6
ENDMDL
MODEL 2
REMARK VINA RESULT:    -6.396      1.658      7.145
REMARK INTER + INTRA:          -8.028
REMARK INTER:                  -7.742
REMARK INTRA:                  -0.286
REMARK UNBOUND:                -0.323
REMARK SMILES O=c1c(O)c(-c2ccc(O)c(O)c2)oc2cc(O)cc(O)c12
REMARK SMILES IDX 5 1 3 2 2 3 1 4 22 5 20 6 19 7 17 8 16 9 15 10 14 11 6 12
REMARK SMILES IDX 7 13 8 14 9 15 13 16 11 17 10 18 12 20 4 22 21 24 18 26
REMARK H PARENT 10 19 12 21 4 23 21 25 18 27
REMARK Flexibility Score: inf
ROOT
ATOM      1  C   UNL     1       0.618  15.970  13.342  1.00  0.00     0.180 A 
ATOM      2  C   UNL     1       0.685  14.601  13.655  1.00  0.00     0.208 A 
ATOM      3  C   UNL     1       1.938  13.969  13.686  1.00  0.00     0.238 A 
ATOM      4  O   UNL     1       1.996  12.757  14.020  1.00  0.00    -0.285 OA
ATOM      5  C   UNL     1       3.108  14.710  13.390  1.00  0.00     0.111 A 
ATOM      6  C   UNL     1       4.426  14.162  13.353  1.00  0.00     0.134 A 
ATOM      7  C   UNL     1       5.523  15.015  13.177  1.00  0.00     0.093 A 
ATOM      8  C   UNL     1       5.345  16.385  12.971  1.00  0.00     0.123 A 
ATOM      9  C   UNL     1       4.058  16.919  12.946  1.00  0.00     0.094 A 
ATOM     10  C   UNL     1       2.946  16.100  13.155  1.00  0.00     0.146 A 
ATOM     11  O   UNL     1       1.739  16.652  13.133  1.00  0.00    -0.452 OA
ENDROOT
BRANCH   1  12
ATOM     12  C   UNL     1      -0.667  16.699  13.265  1.00  0.00     0.025 A 
ATOM     13  C   UNL     1      -1.479  16.551  12.129  1.00  0.00     0.016 A 
ATOM     14  C   UNL     1      -2.706  17.214  12.045  1.00  0.00     0.051 A 
ATOM     15  C   UNL     1      -3.146  18.023  13.101  1.00  0.00     0.157 A 
ATOM     16  C   UNL     1      -1.123  17.496  14.333  1.00  0.00     0.062 A 
ATOM     17  C   UNL     1      -2.355  18.160  14.248  1.00  0.00     0.158 A 
BRANCH  15  18
ATOM     18  O   UNL     1      -4.368  18.687  13.020  1.00  0.00    -0.504 OA
ATOM     19  H   UNL     1      -5.240  18.182  12.907  1.00  0.00     0.293 HD
ENDBRANCH  15  18
BRANCH  17  20
ATOM     20  O   UNL     1      -2.801  18.954  15.304  1.00  0.00    -0.504 OA
ATOM     21  H   UNL     1      -2.795  18.618  16.260  1.00  0.00     0.293 HD
ENDBRANCH  17  20
ENDBRANCH   1  12
BRANCH   2  22
ATOM     22  O   UNL     1      -0.480  13.894  13.966  1.00  0.00    -0.502 OA
ATOM     23  H   UNL     1      -0.651  12.954  13.632  1.00  0.00     0.293 HD
ENDBRANCH   2  22
BRANCH   6  24
ATOM     24  O   UNL     1       4.707  12.797  13.457  1.00  0.00    -0.507 OA
ATOM     25  H   UNL     1       5.601  12.377  13.247  1.00  0.00     0.293 HD
ENDBRANCH   6  24
BRANCH   8  26
ATOM     26  O   UNL     1       6.441  17.223  12.780  1.00  0.00    -0.508 OA
ATOM     27  H   UNL     1       6.533  18.098  13.284  1.00  0.00     0.293 HD
ENDBRANCH   8  26
TORSDOF 6
ENDMDL
MODEL 3
REMARK VINA RESULT:    -6.094      5.614      7.810
REMARK INTER + INTRA:          -7.664
REMARK INTER:                  -8.157
REMARK INTRA:                   0.493
REMARK UNBOUND:                -0.323
REMARK SMILES O=c1c(O)c(-c2ccc(O)c(O)c2)oc2cc(O)cc(O)c12
REMARK SMILES IDX 5 1 3 2 2 3 1 4 22 5 20 6 19 7 17 8 16 9 15 10 14 11 6 12
REMARK SMILES IDX 7 13 8 14 9 15 13 16 11 17 10 18 12 20 4 22 21 24 18 26
REMARK H PARENT 10 19 12 21 4 23 21 25 18 27
REMARK Flexibility Score: inf
ROOT
ATOM      1  C   UNL     1       5.402  15.139  12.387  1.00  0.00     0.180 A 
ATOM      2  C   UNL     1       5.812  14.011  11.655  1.00  0.00     0.208 A 
ATOM      3  C   UNL     1       5.134  12.796  11.838  1.00  0.00     0.238 A 
ATOM      4  O   UNL     1       5.471  11.804  11.140  1.00  0.00    -0.285 OA
ATOM      5  C   UNL     1       4.062  12.719  12.760  1.00  0.00     0.111 A 
ATOM      6  C   UNL     1       3.330  11.530  13.054  1.00  0.00     0.134 A 
ATOM      7  C   UNL     1       2.206  11.599  13.886  1.00  0.00     0.093 A 
ATOM      8  C   UNL     1       1.828  12.802  14.487  1.00  0.00     0.123 A 
ATOM      9  C   UNL     1       2.572  13.956  14.254  1.00  0.00     0.094 A 
ATOM     10  C   UNL     1       3.677  13.926  13.399  1.00  0.00     0.146 A 
ATOM     11  O   UNL     1       4.352  15.051  13.196  1.00  0.00    -0.452 OA
ENDROOT
BRANCH   1  12
ATOM     12  C   UNL     1       6.084  16.447  12.268  1.00  0.00     0.025 A 
ATOM     13  C   UNL     1       6.959  16.676  11.194  1.00  0.00     0.016 A 
ATOM     14  C   UNL     1       7.596  17.911  11.051  1.00  0.00     0.051 A 
ATOM     15  C   UNL     1       7.357  18.940  11.971  1.00  0.00     0.157 A 
ATOM     16  C   UNL     1       5.830  17.491  13.178  1.00  0.00     0.062 A 
ATOM     17  C   UNL     1       6.469  18.730  13.033  1.00  0.00     0.158 A 
BRANCH  15  18
ATOM     18  O   UNL     1       7.992  20.172  11.833  1.00  0.00    -0.504 OA
ATOM     19  H   UNL     1       8.966  20.299  12.085  1.00  0.00     0.293 HD
ENDBRANCH  15  18
BRANCH  17  20
ATOM     20  O   UNL     1       6.222  19.761  13.939  1.00  0.00    -0.504 OA
ATOM     21  H   UNL     1       6.977  20.258  14.397  1.00  0.00     0.293 HD
ENDBRANCH  17  20
ENDBRANCH   1  12
BRANCH   2  22
ATOM     22  O   UNL     1       6.858  14.115  10.733  1.00  0.00    -0.502 OA
ATOM     23  H   UNL     1       7.809  14.326  11.011  1.00  0.00     0.293 HD
ENDBRANCH   2  22
BRANCH   6  24
ATOM     24  O   UNL     1       3.678  10.261  12.579  1.00  0.00    -0.507 OA
ATOM     25  H   UNL     1       3.118   9.431  12.698  1.00  0.00     0.293 HD
ENDBRANCH   6  24
BRANCH   8  26
ATOM     26  O   UNL     1       0.717  12.859  15.327  1.00  0.00    -0.508 OA
ATOM     27  H   UNL     1       0.127  12.050  15.481  1.00  0.00     0.293 HD
ENDBRANCH   8  26
TORSDOF 6
ENDMDL
MODEL 4
REMARK VINA RESULT:    -6.092      1.761      3.539
REMARK INTER + INTRA:          -7.662
REMARK INTER:                  -7.926
REMARK INTRA:                   0.264
REMARK UNBOUND:                -0.323
REMARK SMILES O=c1c(O)c(-c2ccc(O)c(O)c2)oc2cc(O)cc(O)c12
REMARK SMILES IDX 5 1 3 2 2 3 1 4 22 5 20 6 19 7 17 8 16 9 15 10 14 11 6 12
REMARK SMILES IDX 7 13 8 14 9 15 13 16 11 17 10 18 12 20 4 22 21 24 18 26
REMARK H PARENT 10 19 12 21 4 23 21 25 18 27
REMARK Flexibility Score: inf
ROOT
ATOM      1  C   UNL     1      -2.022  17.473  13.077  1.00  0.00     0.180 A 
ATOM      2  C   UNL     1      -2.293  18.063  14.323  1.00  0.00     0.208 A 
ATOM      3  C   UNL     1      -3.286  19.052  14.408  1.00  0.00     0.238 A 
ATOM      4  O   UNL     1      -3.560  19.537  15.537  1.00  0.00    -0.285 OA
ATOM      5  C   UNL     1      -3.986  19.450  13.244  1.00  0.00     0.111 A 
ATOM      6  C   UNL     1      -4.983  20.469  13.206  1.00  0.00     0.134 A 
ATOM      7  C   UNL     1      -5.702  20.689  12.024  1.00  0.00     0.093 A 
ATOM      8  C   UNL     1      -5.414  19.970  10.862  1.00  0.00     0.123 A 
ATOM      9  C   UNL     1      -4.401  19.014  10.873  1.00  0.00     0.094 A 
ATOM     10  C   UNL     1      -3.691  18.747  12.046  1.00  0.00     0.146 A 
ATOM     11  O   UNL     1      -2.741  17.820  12.015  1.00  0.00    -0.452 OA
ENDROOT
BRANCH   1  12
ATOM     12  C   UNL     1      -0.974  16.442  12.903  1.00  0.00     0.025 A 
ATOM     13  C   UNL     1      -1.081  15.516  11.854  1.00  0.00     0.016 A 
ATOM     14  C   UNL     1      -0.092  14.548  11.659  1.00  0.00     0.051 A 
ATOM     15  C   UNL     1       1.026  14.503  12.502  1.00  0.00     0.157 A 
ATOM     16  C   UNL     1       0.163  16.406  13.734  1.00  0.00     0.062 A 
ATOM     17  C   UNL     1       1.156  15.436  13.537  1.00  0.00     0.158 A 
BRANCH  15  18
ATOM     18  O   UNL     1       2.014  13.539  12.312  1.00  0.00    -0.504 OA
ATOM     19  H   UNL     1       2.923  13.777  11.933  1.00  0.00     0.293 HD
ENDBRANCH  15  18
BRANCH  17  20
ATOM     20  O   UNL     1       2.277  15.398  14.365  1.00  0.00    -0.504 OA
ATOM     21  H   UNL     1       2.210  15.121  15.338  1.00  0.00     0.293 HD
ENDBRANCH  17  20
ENDBRANCH   1  12
BRANCH   2  22
ATOM     22  O   UNL     1      -1.605  17.640  15.465  1.00  0.00    -0.502 OA
ATOM     23  H   UNL     1      -0.595  17.656  15.528  1.00  0.00     0.293 HD
ENDBRANCH   2  22
BRANCH   6  24
ATOM     24  O   UNL     1      -5.285  21.306  14.285  1.00  0.00    -0.507 OA
ATOM     25  H   UNL     1      -4.844  22.196  14.462  1.00  0.00     0.293 HD
ENDBRANCH   6  24
BRANCH   8  26
ATOM     26  O   UNL     1      -6.123  20.206   9.686  1.00  0.00    -0.508 OA
ATOM     27  H   UNL     1      -7.068  19.862   9.559  1.00  0.00     0.293 HD
ENDBRANCH   8  26
TORSDOF 6
ENDMDL
MODEL 5
REMARK VINA RESULT:    -5.969      2.766      7.614
REMARK INTER + INTRA:          -7.513
REMARK INTER:                  -7.232
REMARK INTRA:                  -0.281
REMARK UNBOUND:                -0.323
REMARK SMILES O=c1c(O)c(-c2ccc(O)c(O)c2)oc2cc(O)cc(O)c12
REMARK SMILES IDX 5 1 3 2 2 3 1 4 22 5 20 6 19 7 17 8 16 9 15 10 14 11 6 12
REMARK SMILES IDX 7 13 8 14 9 15 13 16 11 17 10 18 12 20 4 22 21 24 18 26
REMARK H PARENT 10 19 12 21 4 23 21 25 18 27
REMARK Flexibility Score: inf
ROOT
ATOM      1  C   UNL     1       2.639  16.044  13.503  1.00  0.00     0.180 A 
ATOM      2  C   UNL     1       3.197  15.375  14.605  1.00  0.00     0.208 A 
ATOM      3  C   UNL     1       4.557  15.565  14.901  1.00  0.00     0.238 A 
ATOM      4  O   UNL     1       5.037  15.006  15.921  1.00  0.00    -0.285 OA
ATOM      5  C   UNL     1       5.344  16.411  14.083  1.00  0.00     0.111 A 
ATOM      6  C   UNL     1       6.740  16.645  14.267  1.00  0.00     0.134 A 
ATOM      7  C   UNL     1       7.389  17.602  13.476  1.00  0.00     0.093 A 
ATOM      8  C   UNL     1       6.708  18.284  12.466  1.00  0.00     0.123 A 
ATOM      9  C   UNL     1       5.359  18.019  12.240  1.00  0.00     0.094 A 
ATOM     10  C   UNL     1       4.675  17.097  13.036  1.00  0.00     0.146 A 
ATOM     11  O   UNL     1       3.387  16.881  12.793  1.00  0.00    -0.452 OA
ENDROOT
BRANCH   1  12
ATOM     12  C   UNL     1       1.221  15.874  13.113  1.00  0.00     0.025 A 
ATOM     13  C   UNL     1       0.224  16.579  13.806  1.00  0.00     0.016 A 
ATOM     14  C   UNL     1      -1.119  16.450  13.440  1.00  0.00     0.051 A 
ATOM     15  C   UNL     1      -1.482  15.625  12.367  1.00  0.00     0.157 A 
ATOM     16  C   UNL     1       0.853  15.064  12.022  1.00  0.00     0.062 A 
ATOM     17  C   UNL     1      -0.494  14.935  11.655  1.00  0.00     0.158 A 
BRANCH  15  18
ATOM     18  O   UNL     1      -2.820  15.492  12.001  1.00  0.00    -0.504 OA
ATOM     19  H   UNL     1      -3.415  16.300  11.863  1.00  0.00     0.293 HD
ENDBRANCH  15  18
BRANCH  17  20
ATOM     20  O   UNL     1      -0.856  14.127  10.578  1.00  0.00    -0.504 OA
ATOM     21  H   UNL     1      -0.238  13.985   9.788  1.00  0.00     0.293 HD
ENDBRANCH  17  20
ENDBRANCH   1  12
BRANCH   2  22
ATOM     22  O   UNL     1       2.396  14.562  15.413  1.00  0.00    -0.502 OA
ATOM     23  H   UNL     1       2.101  13.636  15.129  1.00  0.00     0.293 HD
ENDBRANCH   2  22
BRANCH   6  24
ATOM     24  O   UNL     1       7.534  15.951  15.185  1.00  0.00    -0.507 OA
ATOM     25  H   UNL     1       7.273  15.084  15.629  1.00  0.00     0.293 HD
ENDBRANCH   6  24
BRANCH   8  26
ATOM     26  O   UNL     1       7.365  19.223  11.673  1.00  0.00    -0.508 OA
ATOM     27  H   UNL     1       8.179  19.724  12.010  1.00  0.00     0.293 HD
ENDBRANCH   8  26
TORSDOF 6
ENDMDL
MODEL 6
REMARK VINA RESULT:    -5.908      1.380      6.778
REMARK INTER + INTRA:          -7.440
REMARK INTER:                  -7.896
REMARK INTRA:                   0.455
REMARK UNBOUND:                -0.323
REMARK SMILES O=c1c(O)c(-c2ccc(O)c(O)c2)oc2cc(O)cc(O)c12
REMARK SMILES IDX 5 1 3 2 2 3 1 4 22 5 20 6 19 7 17 8 16 9 15 10 14 11 6 12
REMARK SMILES IDX 7 13 8 14 9 15 13 16 11 17 10 18 12 20 4 22 21 24 18 26
REMARK H PARENT 10 19 12 21 4 23 21 25 18 27
REMARK Flexibility Score: inf
ROOT
ATOM      1  C   UNL     1      -0.699  16.261  13.267  1.00  0.00     0.180 A 
ATOM      2  C   UNL     1      -0.726  15.476  12.103  1.00  0.00     0.208 A 
ATOM      3  C   UNL     1       0.355  14.621  11.831  1.00  0.00     0.238 A 
ATOM      4  O   UNL     1       0.299  13.881  10.815  1.00  0.00    -0.285 OA
ATOM      5  C   UNL     1       1.456  14.574  12.720  1.00  0.00     0.111 A 
ATOM      6  C   UNL     1       2.622  13.775  12.523  1.00  0.00     0.134 A 
ATOM      7  C   UNL     1       3.591  13.708  13.532  1.00  0.00     0.093 A 
ATOM      8  C   UNL     1       3.467  14.462  14.701  1.00  0.00     0.123 A 
ATOM      9  C   UNL     1       2.361  15.291  14.876  1.00  0.00     0.094 A 
ATOM     10  C   UNL     1       1.360  15.351  13.904  1.00  0.00     0.146 A 
ATOM     11  O   UNL     1       0.318  16.146  14.115  1.00  0.00    -0.452 OA
ENDROOT
BRANCH   1  12
ATOM     12  C   UNL     1      -1.788  17.204  13.609  1.00  0.00     0.025 A 
ATOM     13  C   UNL     1      -1.744  17.900  14.827  1.00  0.00     0.016 A 
ATOM     14  C   UNL     1      -2.751  18.810  15.159  1.00  0.00     0.051 A 
ATOM     15  C   UNL     1      -3.809  19.048  14.272  1.00  0.00     0.157 A 
ATOM     16  C   UNL     1      -2.842  17.462  12.711  1.00  0.00     0.062 A 
ATOM     17  C   UNL     1      -3.851  18.376  13.044  1.00  0.00     0.158 A 
BRANCH  15  18
ATOM     18  O   UNL     1      -4.816  19.953  14.600  1.00  0.00    -0.504 OA
ATOM     19  H   UNL     1      -4.767  20.519  15.440  1.00  0.00     0.293 HD
ENDBRANCH  15  18
BRANCH  17  20
ATOM     20  O   UNL     1      -4.897  18.625  12.157  1.00  0.00    -0.504 OA
ATOM     21  H   UNL     1      -4.789  18.493  11.158  1.00  0.00     0.293 HD
ENDBRANCH  17  20
ENDBRANCH   1  12
BRANCH   2  22
ATOM     22  O   UNL     1      -1.833  15.521  11.250  1.00  0.00    -0.502 OA
ATOM     23  H   UNL     1      -1.915  16.198  10.501  1.00  0.00     0.293 HD
ENDBRANCH   2  22
BRANCH   6  24
ATOM     24  O   UNL     1       2.887  13.055  11.354  1.00  0.00    -0.507 OA
ATOM     25  H   UNL     1       2.439  12.188  11.100  1.00  0.00     0.293 HD
ENDBRANCH   6  24
BRANCH   8  26
ATOM     26  O   UNL     1       4.444  14.401  15.693  1.00  0.00    -0.508 OA
ATOM     27  H   UNL     1       4.216  14.143  16.646  1.00  0.00     0.293 HD
ENDBRANCH   8  26
TORSDOF 6
ENDMDL
MODEL 7
REMARK VINA RESULT:    -5.333      5.401      8.056
REMARK INTER + INTRA:          -6.747
REMARK INTER:                  -7.069
REMARK INTRA:                   0.322
REMARK UNBOUND:                -0.323
REMARK SMILES O=c1c(O)c(-c2ccc(O)c(O)c2)oc2cc(O)cc(O)c12
REMARK SMILES IDX 5 1 3 2 2 3 1 4 22 5 20 6 19 7 17 8 16 9 15 10 14 11 6 12
REMARK SMILES IDX 7 13 8 14 9 15 13 16 11 17 10 18 12 20 4 22 21 24 18 26
REMARK H PARENT 10 19 12 21 4 23 21 25 18 27
REMARK Flexibility Score: inf
ROOT
ATOM      1  C   UNL     1       4.891  15.467  12.836  1.00  0.00     0.180 A 
ATOM      2  C   UNL     1       3.670  15.599  13.518  1.00  0.00     0.208 A 
ATOM      3  C   UNL     1       2.894  14.453  13.754  1.00  0.00     0.238 A 
ATOM      4  O   UNL     1       1.828  14.569  14.413  1.00  0.00    -0.285 OA
ATOM      5  C   UNL     1       3.341  13.191  13.292  1.00  0.00     0.111 A 
ATOM      6  C   UNL     1       2.617  11.971  13.440  1.00  0.00     0.134 A 
ATOM      7  C   UNL     1       3.215  10.763  13.060  1.00  0.00     0.093 A 
ATOM      8  C   UNL     1       4.484  10.739  12.477  1.00  0.00     0.123 A 
ATOM      9  C   UNL     1       5.174  11.932  12.274  1.00  0.00     0.094 A 
ATOM     10  C   UNL     1       4.619  13.150  12.676  1.00  0.00     0.146 A 
ATOM     11  O   UNL     1       5.315  14.262  12.473  1.00  0.00    -0.452 OA
ENDROOT
BRANCH   1  12
ATOM     12  C   UNL     1       5.752  16.632  12.528  1.00  0.00     0.025 A 
ATOM     13  C   UNL     1       6.565  16.608  11.384  1.00  0.00     0.016 A 
ATOM     14  C   UNL     1       7.369  17.704  11.063  1.00  0.00     0.051 A 
ATOM     15  C   UNL     1       7.360  18.847  11.874  1.00  0.00     0.157 A 
ATOM     16  C   UNL     1       5.731  17.790  13.328  1.00  0.00     0.062 A 
ATOM     17  C   UNL     1       6.536  18.891  13.005  1.00  0.00     0.158 A 
BRANCH  15  18
ATOM     18  O   UNL     1       8.162  19.942  11.558  1.00  0.00    -0.504 OA
ATOM     19  H   UNL     1       8.843  20.307  12.214  1.00  0.00     0.293 HD
ENDBRANCH  15  18
BRANCH  17  20
ATOM     20  O   UNL     1       6.519  20.035  13.802  1.00  0.00    -0.504 OA
ATOM     21  H   UNL     1       6.032  20.875  13.514  1.00  0.00     0.293 HD
ENDBRANCH  17  20
ENDBRANCH   1  12
BRANCH   2  22
ATOM     22  O   UNL     1       3.257  16.850  13.986  1.00  0.00    -0.502 OA
ATOM     23  H   UNL     1       2.926  17.580  13.366  1.00  0.00     0.293 HD
ENDBRANCH   2  22
BRANCH   6  24
ATOM     24  O   UNL     1       1.308  11.893  13.926  1.00  0.00    -0.507 OA
ATOM     25  H   UNL     1       0.604  12.603  13.793  1.00  0.00     0.293 HD
ENDBRANCH   6  24
BRANCH   8  26
ATOM     26  O   UNL     1       5.065   9.535  12.087  1.00  0.00    -0.508 OA
ATOM     27  H   UNL     1       5.664   9.474  11.272  1.00  0.00     0.293 HD
ENDBRANCH   8  26
TORSDOF 6
ENDMDL
MODEL 8
REMARK VINA RESULT:    -4.699      2.427      4.229
REMARK INTER + INTRA:          -5.984
REMARK INTER:                  -5.661
REMARK INTRA:                  -0.322
REMARK UNBOUND:                -0.323
REMARK SMILES O=c1c(O)c(-c2ccc(O)c(O)c2)oc2cc(O)cc(O)c12
REMARK SMILES IDX 5 1 3 2 2 3 1 4 22 5 20 6 19 7 17 8 16 9 15 10 14 11 6 12
REMARK SMILES IDX 7 13 8 14 9 15 13 16 11 17 10 18 12 20 4 22 21 24 18 26
REMARK H PARENT 10 19 12 21 4 23 21 25 18 27
REMARK Flexibility Score: inf
ROOT
ATOM      1  C   UNL     1       2.825  15.442  13.783  1.00  0.00     0.180 A 
ATOM      2  C   UNL     1       2.756  14.471  12.771  1.00  0.00     0.208 A 
ATOM      3  C   UNL     1       1.549  14.298  12.073  1.00  0.00     0.238 A 
ATOM      4  O   UNL     1       1.510  13.464  11.131  1.00  0.00    -0.285 OA
ATOM      5  C   UNL     1       0.423  15.089  12.406  1.00  0.00     0.111 A 
ATOM      6  C   UNL     1      -0.859  14.972  11.792  1.00  0.00     0.134 A 
ATOM      7  C   UNL     1      -1.864  15.894  12.110  1.00  0.00     0.093 A 
ATOM      8  C   UNL     1      -1.652  16.889  13.068  1.00  0.00     0.123 A 
ATOM      9  C   UNL     1      -0.422  16.974  13.716  1.00  0.00     0.094 A 
ATOM     10  C   UNL     1       0.612  16.091  13.394  1.00  0.00     0.146 A 
ATOM     11  O   UNL     1       1.772  16.214  14.028  1.00  0.00    -0.452 OA
ENDROOT
BRANCH   1  12
ATOM     12  C   UNL     1       4.053  15.665  14.579  1.00  0.00     0.025 A 
ATOM     13  C   UNL     1       4.258  14.928  15.757  1.00  0.00     0.016 A 
ATOM     14  C   UNL     1       5.420  15.107  16.512  1.00  0.00     0.051 A 
ATOM     15  C   UNL     1       6.401  16.016  16.093  1.00  0.00     0.157 A 
ATOM     16  C   UNL     1       5.051  16.561  14.151  1.00  0.00     0.062 A 
ATOM     17  C   UNL     1       6.218  16.740  14.909  1.00  0.00     0.158 A 
BRANCH  15  18
ATOM     18  O   UNL     1       7.560  16.199  16.844  1.00  0.00    -0.504 OA
ATOM     19  H   UNL     1       8.396  16.602  16.439  1.00  0.00     0.293 HD
ENDBRANCH  15  18
BRANCH  17  20
ATOM     20  O   UNL     1       7.202  17.632  14.486  1.00  0.00    -0.504 OA
ATOM     21  H   UNL     1       7.918  17.359  13.823  1.00  0.00     0.293 HD
ENDBRANCH  17  20
ENDBRANCH   1  12
BRANCH   2  22
ATOM     22  O   UNL     1       3.886  13.716  12.443  1.00  0.00    -0.502 OA
ATOM     23  H   UNL     1       4.361  13.808  11.553  1.00  0.00     0.293 HD
ENDBRANCH   2  22
BRANCH   6  24
ATOM     24  O   UNL     1      -1.204  13.960  10.891  1.00  0.00    -0.507 OA
ATOM     25  H   UNL     1      -2.099  13.881  10.431  1.00  0.00     0.293 HD
ENDBRANCH   6  24
BRANCH   8  26
ATOM     26  O   UNL     1      -2.662  17.793  13.390  1.00  0.00    -0.508 OA
ATOM     27  H   UNL     1      -3.398  18.022  12.732  1.00  0.00     0.293 HD
ENDBRANCH   8  26
TORSDOF 6
ENDMDL
MODEL 9
REMARK VINA RESULT:    -4.561      3.340      6.447
REMARK INTER + INTRA:          -5.817
REMARK INTER:                  -5.494
REMARK INTRA:                  -0.323
REMARK UNBOUND:                -0.323
REMARK SMILES O=c1c(O)c(-c2ccc(O)c(O)c2)oc2cc(O)cc(O)c12
REMARK SMILES IDX 5 1 3 2 2 3 1 4 22 5 20 6 19 7 17 8 16 9 15 10 14 11 6 12
REMARK SMILES IDX 7 13 8 14 9 15 13 16 11 17 10 18 12 20 4 22 21 24 18 26
REMARK H PARENT 10 19 12 21 4 23 21 25 18 27
REMARK Flexibility Score: inf
ROOT
ATOM      1  C   UNL     1       4.270  16.444  13.276  1.00  0.00     0.180 A 
ATOM      2  C   UNL     1       4.556  15.396  14.167  1.00  0.00     0.208 A 
ATOM      3  C   UNL     1       3.520  14.535  14.562  1.00  0.00     0.238 A 
ATOM      4  O   UNL     1       3.795  13.566  15.317  1.00  0.00    -0.285 OA
ATOM      5  C   UNL     1       2.207  14.741  14.074  1.00  0.00     0.111 A 
ATOM      6  C   UNL     1       1.075  13.954  14.438  1.00  0.00     0.134 A 
ATOM      7  C   UNL     1      -0.150  14.166  13.793  1.00  0.00     0.093 A 
ATOM      8  C   UNL     1      -0.298  15.180  12.844  1.00  0.00     0.123 A 
ATOM      9  C   UNL     1       0.788  15.993  12.524  1.00  0.00     0.094 A 
ATOM     10  C   UNL     1       2.032  15.781  13.124  1.00  0.00     0.146 A 
ATOM     11  O   UNL     1       3.042  16.572  12.784  1.00  0.00    -0.452 OA
ENDROOT
BRANCH   1  12
ATOM     12  C   UNL     1       5.303  17.407  12.833  1.00  0.00     0.025 A 
ATOM     13  C   UNL     1       5.549  18.558  13.599  1.00  0.00     0.016 A 
ATOM     14  C   UNL     1       6.534  19.470  13.211  1.00  0.00     0.051 A 
ATOM     15  C   UNL     1       7.298  19.237  12.060  1.00  0.00     0.157 A 
ATOM     16  C   UNL     1       6.087  17.167  11.689  1.00  0.00     0.062 A 
ATOM     17  C   UNL     1       7.076  18.081  11.301  1.00  0.00     0.158 A 
BRANCH  15  18
ATOM     18  O   UNL     1       8.279  20.144  11.668  1.00  0.00    -0.504 OA
ATOM     19  H   UNL     1       8.188  21.137  11.852  1.00  0.00     0.293 HD
ENDBRANCH  15  18
BRANCH  17  20
ATOM     20  O   UNL     1       7.848  17.844  10.164  1.00  0.00    -0.504 OA
ATOM     21  H   UNL     1       7.590  18.221   9.259  1.00  0.00     0.293 HD
ENDBRANCH  17  20
ENDBRANCH   1  12
BRANCH   2  22
ATOM     22  O   UNL     1       5.864  15.197  14.620  1.00  0.00    -0.502 OA
ATOM     23  H   UNL     1       6.260  14.274  14.748  1.00  0.00     0.293 HD
ENDBRANCH   2  22
BRANCH   6  24
ATOM     24  O   UNL     1       1.091  12.978  15.439  1.00  0.00    -0.507 OA
ATOM     25  H   UNL     1       1.912  12.699  15.955  1.00  0.00     0.293 HD
ENDBRANCH   6  24
BRANCH   8  26
ATOM     26  O   UNL     1      -1.524  15.395  12.218  1.00  0.00    -0.508 OA
ATOM     27  H   UNL     1      -1.584  15.623  11.232  1.00  0.00     0.293 HD
ENDBRANCH   8  26
TORSDOF 6
ENDMDL
