MODEL 1
REMARK VINA RESULT:    -6.917      0.000      0.000
REMARK INTER + INTRA:          -8.433
REMARK INTER:                  -8.130
REMARK INTRA:                  -0.304
REMARK UNBOUND:                -0.304
REMARK SMILES O=c1cc(-c2ccc(O)c(O)c2)oc2cc(O)cc(O)c12
REMARK SMILES IDX 4 1 3 2 2 3 1 4 21 5 19 6 18 7 16 8 15 9 14 10 13 11 5 12
REMARK SMILES IDX 6 13 7 14 8 15 12 16 10 17 9 18 11 20 20 22 17 24
REMARK H PARENT 9 19 11 21 20 23 17 25
REMARK Flexibility Score: inf
ROOT
ATOM      1  C   UNL     1      13.427  10.032  12.937  1.00  0.00     0.138 A 
ATOM      2  C   UNL     1      13.395  10.717  14.159  1.00  0.00     0.100 A 
ATOM      3  C   UNL     1      12.186  10.855  14.841  1.00  0.00     0.197 A 
ATOM      4  O   UNL     1      12.179  11.521  15.909  1.00  0.00    -0.289 OA
ATOM      5  C   UNL     1      11.008  10.273  14.312  1.00  0.00     0.107 A 
ATOM      6  C   UNL     1       9.725  10.320  14.937  1.00  0.00     0.134 A 
ATOM      7  C   UNL     1       8.613   9.792  14.268  1.00  0.00     0.093 A 
ATOM      8  C   UNL     1       8.747   9.168  13.025  1.00  0.00     0.123 A 
ATOM      9  C   UNL     1      10.003   9.074  12.431  1.00  0.00     0.094 A 
ATOM     10  C   UNL     1      11.127   9.621  13.055  1.00  0.00     0.146 A 
ATOM     11  O   UNL     1      12.303   9.523  12.445  1.00  0.00    -0.456 OA
ENDROOT
BRANCH   1  12
ATOM     12  C   UNL     1      14.686   9.853  12.170  1.00  0.00     0.021 A 
ATOM     13  C   UNL     1      15.699  10.833  12.168  1.00  0.00     0.016 A 
ATOM     14  C   UNL     1      16.869  10.641  11.430  1.00  0.00     0.051 A 
ATOM     15  C   UNL     1      17.046   9.474  10.675  1.00  0.00     0.157 A 
ATOM     16  C   UNL     1      14.867   8.691  11.399  1.00  0.00     0.062 A 
ATOM     17  C   UNL     1      16.042   8.499  10.658  1.00  0.00     0.158 A 
BRANCH  15  18
ATOM     18  O   UNL     1      18.212   9.280   9.938  1.00  0.00    -0.504 OA
ATOM     19  H   UNL     1      18.236   8.662   9.136  1.00  0.00     0.293 HD
ENDBRANCH  15  18
BRANCH  17  20
ATOM     20  O   UNL     1      16.219   7.341   9.904  1.00  0.00    -0.504 OA
ATOM     21  H   UNL     1      17.027   6.742  10.032  1.00  0.00     0.293 HD
ENDBRANCH  17  20
ENDBRANCH   1  12
BRANCH   6  22
ATOM     22  O   UNL     1       9.491  10.847  16.210  1.00  0.00    -0.507 OA
ATOM     23  H   UNL     1       8.594  11.152  16.555  1.00  0.00     0.293 HD
ENDBRANCH   6  22
BRANCH   8  24
ATOM     24  O   UNL     1       7.637   8.634  12.375  1.00  0.00    -0.508 OA
ATOM     25  H   UNL     1       7.406   8.891  11.422  1.00  0.00     0.293 HD
ENDBRANCH   8  24
TORSDOF 5
ENDMDL
MODEL 2
REMARK VINA RESULT:    -6.796      1.634      7.102
REMARK INTER + INTRA:          -8.292
REMARK INTER:                  -8.027
REMARK INTRA:                  -0.265
REMARK UNBOUND:                -0.304
REMARK SMILES O=c1cc(-c2ccc(O)c(O)c2)oc2cc(O)cc(O)c12
REMARK SMILES IDX 4 1 3 2 2 3 1 4 21 5 19 6 18 7 16 8 15 9 14 10 13 11 5 12
REMARK SMILES IDX 6 13 7 14 8 15 12 16 10 17 9 18 11 20 20 22 17 24
REMARK H PARENT 9 19 11 21 20 23 17 25
REMARK Flexibility Score: inf
ROOT
ATOM      1  C   UNL     1      12.225  10.401  12.445  1.00  0.00     0.138 A 
ATOM      2  C   UNL     1      12.573  11.696  12.039  1.00  0.00     0.100 A 
ATOM      3  C   UNL     1      13.814  11.924  11.446  1.00  0.00     0.197 A 
ATOM      4  O   UNL     1      14.119  13.107  11.142  1.00  0.00    -0.289 OA
ATOM      5  C   UNL     1      14.699  10.841  11.225  1.00  0.00     0.107 A 
ATOM      6  C   UNL     1      15.977  10.947  10.598  1.00  0.00     0.134 A 
ATOM      7  C   UNL     1      16.806   9.820  10.524  1.00  0.00     0.093 A 
ATOM      8  C   UNL     1      16.379   8.579  11.002  1.00  0.00     0.123 A 
ATOM      9  C   UNL     1      15.114   8.454  11.572  1.00  0.00     0.094 A 
ATOM     10  C   UNL     1      14.277   9.566  11.691  1.00  0.00     0.146 A 
ATOM     11  O   UNL     1      13.085   9.406  12.256  1.00  0.00    -0.456 OA
ENDROOT
BRANCH   1  12
ATOM     12  C   UNL     1      10.916  10.101  13.079  1.00  0.00     0.021 A 
ATOM     13  C   UNL     1       9.999   9.202  12.497  1.00  0.00     0.016 A 
ATOM     14  C   UNL     1       8.771   8.947  13.112  1.00  0.00     0.051 A 
ATOM     15  C   UNL     1       8.433   9.589  14.310  1.00  0.00     0.157 A 
ATOM     16  C   UNL     1      10.562  10.750  14.275  1.00  0.00     0.062 A 
ATOM     17  C   UNL     1       9.329  10.493  14.891  1.00  0.00     0.158 A 
BRANCH  15  18
ATOM     18  O   UNL     1       7.208   9.335  14.925  1.00  0.00    -0.504 OA
ATOM     19  H   UNL     1       6.349   9.276  14.391  1.00  0.00     0.293 HD
ENDBRANCH  15  18
BRANCH  17  20
ATOM     20  O   UNL     1       8.988  11.133  16.081  1.00  0.00    -0.504 OA
ATOM     21  H   UNL     1       8.176  11.736  16.146  1.00  0.00     0.293 HD
ENDBRANCH  17  20
ENDBRANCH   1  12
BRANCH   6  22
ATOM     22  O   UNL     1      16.469  12.118  10.015  1.00  0.00    -0.507 OA
ATOM     23  H   UNL     1      16.137  13.049  10.215  1.00  0.00     0.293 HD
ENDBRANCH   6  22
BRANCH   8  24
ATOM     24  O   UNL     1      17.204   7.460  10.912  1.00  0.00    -0.508 OA
ATOM     25  H   UNL     1      17.768   7.152  11.696  1.00  0.00     0.293 HD
ENDBRANCH   8  24
TORSDOF 5
ENDMDL
MODEL 3
REMARK VINA RESULT:    -6.564      1.741      7.261
REMARK INTER + INTRA:          -8.019
REMARK INTER:                  -7.725
REMARK INTRA:                  -0.294
REMARK UNBOUND:                -0.304
REMARK SMILES O=c1cc(-c2ccc(O)c(O)c2)oc2cc(O)cc(O)c12
REMARK SMILES IDX 4 1 3 2 2 3 1 4 21 5 19 6 18 7 16 8 15 9 14 10 13 11 5 12
REMARK SMILES IDX 6 13 7 14 8 15 12 16 10 17 9 18 11 20 20 22 17 24
REMARK H PARENT 9 19 11 21 20 23 17 25
REMARK Flexibility Score: inf
ROOT
ATOM      1  C   UNL     1      13.649  10.302  12.927  1.00  0.00     0.138 A 
ATOM      2  C   UNL     1      14.061   8.973  12.757  1.00  0.00     0.100 A 
ATOM      3  C   UNL     1      15.222   8.697  12.035  1.00  0.00     0.197 A 
ATOM      4  O   UNL     1      15.535   7.492  11.854  1.00  0.00    -0.289 OA
ATOM      5  C   UNL     1      15.995   9.761  11.509  1.00  0.00     0.107 A 
ATOM      6  C   UNL     1      17.215   9.601  10.785  1.00  0.00     0.134 A 
ATOM      7  C   UNL     1      17.839  10.725  10.229  1.00  0.00     0.093 A 
ATOM      8  C   UNL     1      17.319  12.008  10.420  1.00  0.00     0.123 A 
ATOM      9  C   UNL     1      16.156  12.178  11.167  1.00  0.00     0.094 A 
ATOM     10  C   UNL     1      15.490  11.075  11.706  1.00  0.00     0.146 A 
ATOM     11  O   UNL     1      14.375  11.281  12.397  1.00  0.00    -0.456 OA
ENDROOT
BRANCH   1  12
ATOM     12  C   UNL     1      12.424  10.654  13.689  1.00  0.00     0.021 A 
ATOM     13  C   UNL     1      12.121  11.987  14.031  1.00  0.00     0.016 A 
ATOM     14  C   UNL     1      10.966  12.286  14.756  1.00  0.00     0.051 A 
ATOM     15  C   UNL     1      10.099  11.263  15.161  1.00  0.00     0.157 A 
ATOM     16  C   UNL     1      11.555   9.633  14.110  1.00  0.00     0.062 A 
ATOM     17  C   UNL     1      10.396   9.934  14.839  1.00  0.00     0.158 A 
BRANCH  15  18
ATOM     18  O   UNL     1       8.946  11.560  15.884  1.00  0.00    -0.504 OA
ATOM     19  H   UNL     1       8.161  12.039  15.458  1.00  0.00     0.293 HD
ENDBRANCH  15  18
BRANCH  17  20
ATOM     20  O   UNL     1       9.533   8.917  15.245  1.00  0.00    -0.504 OA
ATOM     21  H   UNL     1       8.568   9.107  15.490  1.00  0.00     0.293 HD
ENDBRANCH  17  20
ENDBRANCH   1  12
BRANCH   6  22
ATOM     22  O   UNL     1      17.864   8.377  10.604  1.00  0.00    -0.507 OA
ATOM     23  H   UNL     1      17.405   7.501  10.408  1.00  0.00     0.293 HD
ENDBRANCH   6  22
BRANCH   8  24
ATOM     24  O   UNL     1      17.955  13.121   9.875  1.00  0.00    -0.508 OA
ATOM     25  H   UNL     1      17.989  14.006  10.368  1.00  0.00     0.293 HD
ENDBRANCH   8  24
TORSDOF 5
ENDMDL
MODEL 4
REMARK VINA RESULT:    -6.533      1.751      3.162
REMARK INTER + INTRA:          -7.982
REMARK INTER:                  -7.713
REMARK INTRA:                  -0.269
REMARK UNBOUND:                -0.304
REMARK SMILES O=c1cc(-c2ccc(O)c(O)c2)oc2cc(O)cc(O)c12
REMARK SMILES IDX 4 1 3 2 2 3 1 4 21 5 19 6 18 7 16 8 15 9 14 10 13 11 5 12
REMARK SMILES IDX 6 13 7 14 8 15 12 16 10 17 9 18 11 20 20 22 17 24
REMARK H PARENT 9 19 11 21 20 23 17 25
REMARK Flexibility Score: inf
ROOT
ATOM      1  C   UNL     1      12.832  10.680  12.218  1.00  0.00     0.138 A 
ATOM      2  C   UNL     1      11.982  10.011  11.326  1.00  0.00     0.100 A 
ATOM      3  C   UNL     1      10.778   9.480  11.788  1.00  0.00     0.197 A 
ATOM      4  O   UNL     1      10.062   8.838  10.974  1.00  0.00    -0.289 OA
ATOM      5  C   UNL     1      10.406   9.649  13.143  1.00  0.00     0.107 A 
ATOM      6  C   UNL     1       9.186   9.179  13.719  1.00  0.00     0.134 A 
ATOM      7  C   UNL     1       8.974   9.321  15.096  1.00  0.00     0.093 A 
ATOM      8  C   UNL     1       9.911   9.965  15.908  1.00  0.00     0.123 A 
ATOM      9  C   UNL     1      11.081  10.470  15.347  1.00  0.00     0.094 A 
ATOM     10  C   UNL     1      11.339  10.316  13.983  1.00  0.00     0.146 A 
ATOM     11  O   UNL     1      12.475  10.798  13.493  1.00  0.00    -0.456 OA
ENDROOT
BRANCH   1  12
ATOM     12  C   UNL     1      14.123  11.268  11.781  1.00  0.00     0.021 A 
ATOM     13  C   UNL     1      14.177  12.434  10.992  1.00  0.00     0.016 A 
ATOM     14  C   UNL     1      15.407  12.959  10.588  1.00  0.00     0.051 A 
ATOM     15  C   UNL     1      16.602  12.326  10.955  1.00  0.00     0.157 A 
ATOM     16  C   UNL     1      15.327  10.633  12.134  1.00  0.00     0.062 A 
ATOM     17  C   UNL     1      16.561  11.160  11.728  1.00  0.00     0.158 A 
BRANCH  15  18
ATOM     18  O   UNL     1      17.829  12.849  10.554  1.00  0.00    -0.504 OA
ATOM     19  H   UNL     1      18.567  12.254  10.196  1.00  0.00     0.293 HD
ENDBRANCH  15  18
BRANCH  17  20
ATOM     20  O   UNL     1      17.751  10.531  12.089  1.00  0.00    -0.504 OA
ATOM     21  H   UNL     1      18.304  10.853  12.875  1.00  0.00     0.293 HD
ENDBRANCH  17  20
ENDBRANCH   1  12
BRANCH   6  22
ATOM     22  O   UNL     1       8.149   8.594  12.988  1.00  0.00    -0.507 OA
ATOM     23  H   UNL     1       8.126   7.632  12.683  1.00  0.00     0.293 HD
ENDBRANCH   6  22
BRANCH   8  24
ATOM     24  O   UNL     1       9.684  10.114  17.274  1.00  0.00    -0.508 OA
ATOM     25  H   UNL     1      10.054   9.453  17.948  1.00  0.00     0.293 HD
ENDBRANCH   8  24
TORSDOF 5
ENDMDL
MODEL 5
REMARK VINA RESULT:    -6.281      1.640      6.908
REMARK INTER + INTRA:          -7.686
REMARK INTER:                  -7.368
REMARK INTRA:                  -0.318
REMARK UNBOUND:                -0.304
REMARK SMILES O=c1cc(-c2ccc(O)c(O)c2)oc2cc(O)cc(O)c12
REMARK SMILES IDX 4 1 3 2 2 3 1 4 21 5 19 6 18 7 16 8 15 9 14 10 13 11 5 12
REMARK SMILES IDX 6 13 7 14 8 15 12 16 10 17 9 18 11 20 20 22 17 24
REMARK H PARENT 9 19 11 21 20 23 17 25
REMARK Flexibility Score: inf
ROOT
ATOM      1  C   UNL     1      13.644  10.183  12.822  1.00  0.00     0.138 A 
ATOM      2  C   UNL     1      14.482  11.195  12.336  1.00  0.00     0.100 A 
ATOM      3  C   UNL     1      15.618  10.857  11.600  1.00  0.00     0.197 A 
ATOM      4  O   UNL     1      16.380  11.786  11.225  1.00  0.00    -0.289 OA
ATOM      5  C   UNL     1      15.896   9.498  11.318  1.00  0.00     0.107 A 
ATOM      6  C   UNL     1      17.006   9.036  10.548  1.00  0.00     0.134 A 
ATOM      7  C   UNL     1      17.232   7.660  10.420  1.00  0.00     0.093 A 
ATOM      8  C   UNL     1      16.356   6.729  10.985  1.00  0.00     0.123 A 
ATOM      9  C   UNL     1      15.243   7.170  11.696  1.00  0.00     0.094 A 
ATOM     10  C   UNL     1      15.008   8.536  11.871  1.00  0.00     0.146 A 
ATOM     11  O   UNL     1      13.944   8.913  12.571  1.00  0.00    -0.456 OA
ENDROOT
BRANCH   1  12
ATOM     12  C   UNL     1      12.421  10.485  13.608  1.00  0.00     0.021 A 
ATOM     13  C   UNL     1      12.098  11.800  14.000  1.00  0.00     0.016 A 
ATOM     14  C   UNL     1      10.945  12.053  14.747  1.00  0.00     0.051 A 
ATOM     15  C   UNL     1      10.101  11.000  15.124  1.00  0.00     0.157 A 
ATOM     16  C   UNL     1      11.574   9.434  14.002  1.00  0.00     0.062 A 
ATOM     17  C   UNL     1      10.418   9.689  14.752  1.00  0.00     0.158 A 
BRANCH  15  18
ATOM     18  O   UNL     1       8.950  11.251  15.869  1.00  0.00    -0.504 OA
ATOM     19  H   UNL     1       8.270  10.524  16.054  1.00  0.00     0.293 HD
ENDBRANCH  15  18
BRANCH  17  20
ATOM     20  O   UNL     1       9.578   8.643  15.131  1.00  0.00    -0.504 OA
ATOM     21  H   UNL     1       9.249   7.957  14.461  1.00  0.00     0.293 HD
ENDBRANCH  17  20
ENDBRANCH   1  12
BRANCH   6  22
ATOM     22  O   UNL     1      17.897   9.876   9.875  1.00  0.00    -0.507 OA
ATOM     23  H   UNL     1      18.616   9.568   9.237  1.00  0.00     0.293 HD
ENDBRANCH   6  22
BRANCH   8  24
ATOM     24  O   UNL     1      16.581   5.362  10.840  1.00  0.00    -0.508 OA
ATOM     25  H   UNL     1      16.303   4.865  10.002  1.00  0.00     0.293 HD
ENDBRANCH   8  24
TORSDOF 5
ENDMDL
MODEL 6
REMARK VINA RESULT:    -6.164      3.098      4.717
REMARK INTER + INTRA:          -7.548
REMARK INTER:                  -7.235
REMARK INTRA:                  -0.314
REMARK UNBOUND:                -0.304
REMARK SMILES O=c1cc(-c2ccc(O)c(O)c2)oc2cc(O)cc(O)c12
REMARK SMILES IDX 4 1 3 2 2 3 1 4 21 5 19 6 18 7 16 8 15 9 14 10 13 11 5 12
REMARK SMILES IDX 6 13 7 14 8 15 12 16 10 17 9 18 11 20 20 22 17 24
REMARK H PARENT 9 19 11 21 20 23 17 25
REMARK Flexibility Score: inf
ROOT
ATOM      1  C   UNL     1      14.832   8.145  12.379  1.00  0.00     0.138 A 
ATOM      2  C   UNL     1      14.470   8.669  11.131  1.00  0.00     0.100 A 
ATOM      3  C   UNL     1      13.723   9.846  11.067  1.00  0.00     0.197 A 
ATOM      4  O   UNL     1      13.368  10.262   9.934  1.00  0.00    -0.289 OA
ATOM      5  C   UNL     1      13.367  10.520  12.260  1.00  0.00     0.107 A 
ATOM      6  C   UNL     1      12.637  11.746  12.317  1.00  0.00     0.134 A 
ATOM      7  C   UNL     1      12.258  12.266  13.560  1.00  0.00     0.093 A 
ATOM      8  C   UNL     1      12.633  11.637  14.751  1.00  0.00     0.123 A 
ATOM      9  C   UNL     1      13.388  10.468  14.706  1.00  0.00     0.094 A 
ATOM     10  C   UNL     1      13.753   9.904  13.481  1.00  0.00     0.146 A 
ATOM     11  O   UNL     1      14.459   8.779  13.485  1.00  0.00    -0.456 OA
ENDROOT
BRANCH   1  12
ATOM     12  C   UNL     1      15.628   6.898  12.505  1.00  0.00     0.021 A 
ATOM     13  C   UNL     1      16.359   6.371  11.421  1.00  0.00     0.016 A 
ATOM     14  C   UNL     1      17.091   5.191  11.568  1.00  0.00     0.051 A 
ATOM     15  C   UNL     1      17.101   4.512  12.792  1.00  0.00     0.157 A 
ATOM     16  C   UNL     1      15.634   6.202  13.727  1.00  0.00     0.062 A 
ATOM     17  C   UNL     1      16.370   5.017  13.873  1.00  0.00     0.158 A 
BRANCH  15  18
ATOM     18  O   UNL     1      17.832   3.334  12.940  1.00  0.00    -0.504 OA
ATOM     19  H   UNL     1      18.845   3.334  12.927  1.00  0.00     0.293 HD
ENDBRANCH  15  18
BRANCH  17  20
ATOM     20  O   UNL     1      16.379   4.337  15.089  1.00  0.00    -0.504 OA
ATOM     21  H   UNL     1      17.080   4.525  15.797  1.00  0.00     0.293 HD
ENDBRANCH  17  20
ENDBRANCH   1  12
BRANCH   6  22
ATOM     22  O   UNL     1      12.280  12.498  11.194  1.00  0.00    -0.507 OA
ATOM     23  H   UNL     1      12.915  13.061  10.648  1.00  0.00     0.293 HD
ENDBRANCH   6  22
BRANCH   8  24
ATOM     24  O   UNL     1      12.264  12.170  15.983  1.00  0.00    -0.508 OA
ATOM     25  H   UNL     1      12.675  11.839  16.849  1.00  0.00     0.293 HD
ENDBRANCH   8  24
TORSDOF 5
ENDMDL
MODEL 7
REMARK VINA RESULT:    -6.093      3.866      5.888
REMARK INTER + INTRA:          -7.466
REMARK INTER:                  -7.152
REMARK INTRA:                  -0.314
REMARK UNBOUND:                -0.304
REMARK SMILES O=c1cc(-c2ccc(O)c(O)c2)oc2cc(O)cc(O)c12
REMARK SMILES IDX 4 1 3 2 2 3 1 4 21 5 19 6 18 7 16 8 15 9 14 10 13 11 5 12
REMARK SMILES IDX 6 13 7 14 8 15 12 16 10 17 9 18 11 20 20 22 17 24
REMARK H PARENT 9 19 11 21 20 23 17 25
REMARK Flexibility Score: inf
ROOT
ATOM      1  C   UNL     1      15.620   6.748  12.584  1.00  0.00     0.138 A 
ATOM      2  C   UNL     1      15.641   7.280  11.287  1.00  0.00     0.100 A 
ATOM      3  C   UNL     1      15.134   8.559  11.059  1.00  0.00     0.197 A 
ATOM      4  O   UNL     1      15.116   8.988   9.875  1.00  0.00    -0.289 OA
ATOM      5  C   UNL     1      14.636   9.324  12.141  1.00  0.00     0.107 A 
ATOM      6  C   UNL     1      14.125  10.653  12.034  1.00  0.00     0.134 A 
ATOM      7  C   UNL     1      13.569  11.272  13.160  1.00  0.00     0.093 A 
ATOM      8  C   UNL     1      13.557  10.632  14.403  1.00  0.00     0.123 A 
ATOM      9  C   UNL     1      14.097   9.355  14.528  1.00  0.00     0.094 A 
ATOM     10  C   UNL     1      14.629   8.697  13.417  1.00  0.00     0.146 A 
ATOM     11  O   UNL     1      15.119   7.472  13.578  1.00  0.00    -0.456 OA
ENDROOT
BRANCH   1  12
ATOM     12  C   UNL     1      16.149   5.393  12.885  1.00  0.00     0.021 A 
ATOM     13  C   UNL     1      16.353   4.435  11.872  1.00  0.00     0.016 A 
ATOM     14  C   UNL     1      16.843   3.165  12.187  1.00  0.00     0.051 A 
ATOM     15  C   UNL     1      17.130   2.827  13.515  1.00  0.00     0.157 A 
ATOM     16  C   UNL     1      16.428   5.040  14.217  1.00  0.00     0.062 A 
ATOM     17  C   UNL     1      16.919   3.765  14.532  1.00  0.00     0.158 A 
BRANCH  15  18
ATOM     18  O   UNL     1      17.619   1.561  13.831  1.00  0.00    -0.504 OA
ATOM     19  H   UNL     1      18.409   1.438  14.454  1.00  0.00     0.293 HD
ENDBRANCH  15  18
BRANCH  17  20
ATOM     20  O   UNL     1      17.203   3.424  15.853  1.00  0.00    -0.504 OA
ATOM     21  H   UNL     1      18.106   3.618  16.269  1.00  0.00     0.293 HD
ENDBRANCH  17  20
ENDBRANCH   1  12
BRANCH   6  22
ATOM     22  O   UNL     1      14.160  11.414  10.862  1.00  0.00    -0.507 OA
ATOM     23  H   UNL     1      14.532  11.100   9.978  1.00  0.00     0.293 HD
ENDBRANCH   6  22
BRANCH   8  24
ATOM     24  O   UNL     1      13.014  11.261  15.521  1.00  0.00    -0.508 OA
ATOM     25  H   UNL     1      12.800  10.746  16.367  1.00  0.00     0.293 HD
ENDBRANCH   8  24
TORSDOF 5
ENDMDL
MODEL 8
REMARK VINA RESULT:    -5.996      4.830      7.779
REMARK INTER + INTRA:          -7.352
REMARK INTER:                  -7.061
REMARK INTRA:                  -0.291
REMARK UNBOUND:                -0.304
REMARK SMILES O=c1cc(-c2ccc(O)c(O)c2)oc2cc(O)cc(O)c12
REMARK SMILES IDX 4 1 3 2 2 3 1 4 21 5 19 6 18 7 16 8 15 9 14 10 13 11 5 12
REMARK SMILES IDX 6 13 7 14 8 15 12 16 10 17 9 18 11 20 20 22 17 24
REMARK H PARENT 9 19 11 21 20 23 17 25
REMARK Flexibility Score: inf
ROOT
ATOM      1  C   UNL     1      15.780   5.978  13.155  1.00  0.00     0.138 A 
ATOM      2  C   UNL     1      16.268   5.538  14.393  1.00  0.00     0.100 A 
ATOM      3  C   UNL     1      16.720   4.225  14.530  1.00  0.00     0.197 A 
ATOM      4  O   UNL     1      17.101   3.844  15.667  1.00  0.00    -0.289 OA
ATOM      5  C   UNL     1      16.715   3.358  13.410  1.00  0.00     0.107 A 
ATOM      6  C   UNL     1      17.183   2.009  13.422  1.00  0.00     0.134 A 
ATOM      7  C   UNL     1      17.036   1.217  12.276  1.00  0.00     0.093 A 
ATOM      8  C   UNL     1      16.491   1.743  11.101  1.00  0.00     0.123 A 
ATOM      9  C   UNL     1      16.077   3.072  11.065  1.00  0.00     0.094 A 
ATOM     10  C   UNL     1      16.179   3.878  12.201  1.00  0.00     0.146 A 
ATOM     11  O   UNL     1      15.756   5.136  12.128  1.00  0.00    -0.456 OA
ENDROOT
BRANCH   1  12
ATOM     12  C   UNL     1      15.290   7.365  12.952  1.00  0.00     0.021 A 
ATOM     13  C   UNL     1      15.191   7.935  11.667  1.00  0.00     0.016 A 
ATOM     14  C   UNL     1      14.735   9.247  11.508  1.00  0.00     0.051 A 
ATOM     15  C   UNL     1      14.380  10.013  12.626  1.00  0.00     0.157 A 
ATOM     16  C   UNL     1      14.943   8.146  14.068  1.00  0.00     0.062 A 
ATOM     17  C   UNL     1      14.486   9.462  13.908  1.00  0.00     0.158 A 
BRANCH  15  18
ATOM     18  O   UNL     1      13.925  11.320  12.469  1.00  0.00    -0.504 OA
ATOM     19  H   UNL     1      13.952  11.986  13.232  1.00  0.00     0.293 HD
ENDBRANCH  15  18
BRANCH  17  20
ATOM     20  O   UNL     1      14.135  10.227  15.018  1.00  0.00    -0.504 OA
ATOM     21  H   UNL     1      14.081   9.823  15.946  1.00  0.00     0.293 HD
ENDBRANCH  17  20
ENDBRANCH   1  12
BRANCH   6  22
ATOM     22  O   UNL     1      17.815   1.408  14.514  1.00  0.00    -0.507 OA
ATOM     23  H   UNL     1      17.541   0.532  14.932  1.00  0.00     0.293 HD
ENDBRANCH   6  22
BRANCH   8  24
ATOM     24  O   UNL     1      16.362   0.952   9.962  1.00  0.00    -0.508 OA
ATOM     25  H   UNL     1      15.877   1.286   9.137  1.00  0.00     0.293 HD
ENDBRANCH   8  24
TORSDOF 5
ENDMDL
