MODEL 1
REMARK VINA RESULT:    -5.843      0.000      0.000
REMARK INTER + INTRA:         -15.497
REMARK INTER:                 -13.359
REMARK INTRA:                  -2.138
REMARK UNBOUND:                -2.138
REMARK SMILES CCCCCCCCCCCCCCCCCCCCCCCC(=O)[O-]
REMARK SMILES IDX 13 1 14 2 15 3 16 4 17 5 18 6 19 7 20 8 21 9 22 10 23 11
REMARK SMILES IDX 24 12 25 13 26 14 12 15 11 16 10 17 9 18 8 19 7 20 6 21 5 22
REMARK SMILES IDX 4 23 3 24 2 25 1 26
REMARK H PARENT
REMARK Flexibility Score: inf
ROOT
ATOM      1  C   UNL     1     -10.568 -15.971  27.568  1.00  0.00     0.000 C 
ENDROOT
BRANCH   1   2
ATOM      2  C   UNL     1     -11.960 -16.629  27.687  1.00  0.00     0.000 C 
BRANCH   2   3
ATOM      3  C   UNL     1     -11.953 -17.925  28.515  1.00  0.00     0.000 C 
BRANCH   3   4
ATOM      4  C   UNL     1     -10.663 -18.106  29.332  1.00  0.00     0.000 C 
BRANCH   4   5
ATOM      5  C   UNL     1     -10.945 -18.234  30.838  1.00  0.00     0.000 C 
BRANCH   5   6
ATOM      6  C   UNL     1     -12.015 -17.237  31.318  1.00  0.00     0.000 C 
BRANCH   6   7
ATOM      7  C   UNL     1     -13.226 -17.939  31.953  1.00  0.00     0.000 C 
BRANCH   7   8
ATOM      8  C   UNL     1     -13.251 -17.776  33.485  1.00  0.00     0.000 C 
BRANCH   8   9
ATOM      9  C   UNL     1     -14.677 -17.788  34.069  1.00  0.00     0.000 C 
BRANCH   9  10
ATOM     10  C   UNL     1     -14.990 -18.964  35.015  1.00  0.00     0.006 C 
BRANCH  10  11
ATOM     11  C   UNL     1     -15.464 -20.244  34.309  1.00  0.00     0.053 C 
BRANCH  11  12
ATOM     12  C   UNL     1     -14.332 -21.187  34.039  1.00  0.00     0.041 C 
ATOM     13  O   UNL     1     -13.988 -21.442  32.854  1.00  0.00    -0.550 OA
ATOM     14  O   UNL     1     -13.640 -21.762  35.097  1.00  0.00    -0.550 OA
ENDBRANCH  11  12
ENDBRANCH  10  11
ENDBRANCH   9  10
ENDBRANCH   8   9
ENDBRANCH   7   8
ENDBRANCH   6   7
ENDBRANCH   5   6
ENDBRANCH   4   5
ENDBRANCH   3   4
ENDBRANCH   2   3
ENDBRANCH   1   2
BRANCH   1  15
ATOM     15  C   UNL     1     -10.422 -15.160  26.268  1.00  0.00     0.000 C 
BRANCH  15  16
ATOM     16  C   UNL     1      -9.090 -14.392  26.181  1.00  0.00     0.000 C 
BRANCH  16  17
ATOM     17  C   UNL     1      -7.877 -15.115  26.793  1.00  0.00     0.000 C 
BRANCH  17  18
ATOM     18  C   UNL     1      -6.599 -14.259  26.784  1.00  0.00    -0.000 C 
BRANCH  18  19
ATOM     19  C   UNL     1      -5.574 -14.723  27.833  1.00  0.00    -0.000 C 
BRANCH  19  20
ATOM     20  C   UNL     1      -4.780 -13.557  28.441  1.00  0.00    -0.000 C 
BRANCH  20  21
ATOM     21  C   UNL     1      -3.915 -14.036  29.617  1.00  0.00    -0.000 C 
BRANCH  21  22
ATOM     22  C   UNL     1      -4.721 -14.224  30.915  1.00  0.00    -0.000 C 
BRANCH  22  23
ATOM     23  C   UNL     1      -5.709 -13.085  31.239  1.00  0.00    -0.000 C 
BRANCH  23  24
ATOM     24  C   UNL     1      -7.167 -13.528  31.471  1.00  0.00    -0.000 C 
BRANCH  24  25
ATOM     25  C   UNL     1      -7.618 -14.730  30.620  1.00  0.00    -0.003 C 
ATOM     26  C   UNL     1      -7.896 -15.978  31.455  1.00  0.00     0.004 C 
ENDBRANCH  24  25
ENDBRANCH  23  24
ENDBRANCH  22  23
ENDBRANCH  21  22
ENDBRANCH  20  21
ENDBRANCH  19  20
ENDBRANCH  18  19
ENDBRANCH  17  18
ENDBRANCH  16  17
ENDBRANCH  15  16
ENDBRANCH   1  15
TORSDOF 22
ENDMDL
MODEL 2
REMARK VINA RESULT:    -5.828      3.189      5.935
REMARK INTER + INTRA:         -15.462
REMARK INTER:                 -12.535
REMARK INTRA:                  -2.926
REMARK UNBOUND:                -2.138
REMARK SMILES CCCCCCCCCCCCCCCCCCCCCCCC(=O)[O-]
REMARK SMILES IDX 13 1 14 2 15 3 16 4 17 5 18 6 19 7 20 8 21 9 22 10 23 11
REMARK SMILES IDX 24 12 25 13 26 14 12 15 11 16 10 17 9 18 8 19 7 20 6 21 5 22
REMARK SMILES IDX 4 23 3 24 2 25 1 26
REMARK H PARENT
REMARK Flexibility Score: inf
ROOT
ATOM      1  C   UNL     1      -6.336 -14.886  30.367  1.00  0.00     0.000 C 
ENDROOT
BRANCH   1   2
ATOM      2  C   UNL     1      -7.232 -14.430  29.194  1.00  0.00     0.000 C 
BRANCH   2   3
ATOM      3  C   UNL     1      -6.436 -13.986  27.956  1.00  0.00     0.000 C 
BRANCH   3   4
ATOM      4  C   UNL     1      -7.086 -14.430  26.635  1.00  0.00     0.000 C 
BRANCH   4   5
ATOM      5  C   UNL     1      -8.408 -15.180  26.864  1.00  0.00     0.000 C 
BRANCH   5   6
ATOM      6  C   UNL     1      -9.593 -14.504  26.152  1.00  0.00     0.000 C 
BRANCH   6   7
ATOM      7  C   UNL     1     -10.910 -15.272  26.351  1.00  0.00     0.000 C 
BRANCH   7   8
ATOM      8  C   UNL     1     -10.847 -16.226  27.557  1.00  0.00     0.000 C 
BRANCH   8   9
ATOM      9  C   UNL     1     -12.189 -16.344  28.304  1.00  0.00     0.000 C 
BRANCH   9  10
ATOM     10  C   UNL     1     -12.241 -17.431  29.397  1.00  0.00     0.006 C 
BRANCH  10  11
ATOM     11  C   UNL     1     -11.060 -18.415  29.375  1.00  0.00     0.053 C 
BRANCH  11  12
ATOM     12  C   UNL     1     -10.121 -18.187  30.519  1.00  0.00     0.041 C 
ATOM     13  O   UNL     1      -9.801 -17.016  30.854  1.00  0.00    -0.550 OA
ATOM     14  O   UNL     1      -9.621 -19.269  31.232  1.00  0.00    -0.550 OA
ENDBRANCH  11  12
ENDBRANCH  10  11
ENDBRANCH   9  10
ENDBRANCH   8   9
ENDBRANCH   7   8
ENDBRANCH   6   7
ENDBRANCH   5   6
ENDBRANCH   4   5
ENDBRANCH   3   4
ENDBRANCH   2   3
ENDBRANCH   1   2
BRANCH   1  15
ATOM     15  C   UNL     1      -7.000 -14.634  31.732  1.00  0.00     0.000 C 
BRANCH  15  16
ATOM     16  C   UNL     1      -6.334 -13.495  32.526  1.00  0.00     0.000 C 
BRANCH  16  17
ATOM     17  C   UNL     1      -6.469 -12.096  31.898  1.00  0.00     0.000 C 
BRANCH  17  18
ATOM     18  C   UNL     1      -5.120 -11.371  31.749  1.00  0.00    -0.000 C 
BRANCH  18  19
ATOM     19  C   UNL     1      -4.187 -11.614  32.946  1.00  0.00    -0.000 C 
BRANCH  19  20
ATOM     20  C   UNL     1      -2.701 -11.492  32.575  1.00  0.00    -0.000 C 
BRANCH  20  21
ATOM     21  C   UNL     1      -1.957 -12.808  32.844  1.00  0.00    -0.000 C 
BRANCH  21  22
ATOM     22  C   UNL     1      -1.596 -13.566  31.554  1.00  0.00    -0.000 C 
BRANCH  22  23
ATOM     23  C   UNL     1      -2.766 -14.321  30.892  1.00  0.00    -0.000 C 
BRANCH  23  24
ATOM     24  C   UNL     1      -2.936 -14.072  29.380  1.00  0.00    -0.000 C 
BRANCH  24  25
ATOM     25  C   UNL     1      -3.184 -12.603  28.993  1.00  0.00    -0.003 C 
ATOM     26  C   UNL     1      -2.036 -11.997  28.190  1.00  0.00     0.004 C 
ENDBRANCH  24  25
ENDBRANCH  23  24
ENDBRANCH  22  23
ENDBRANCH  21  22
ENDBRANCH  20  21
ENDBRANCH  19  20
ENDBRANCH  18  19
ENDBRANCH  17  18
ENDBRANCH  16  17
ENDBRANCH  15  16
ENDBRANCH   1  15
TORSDOF 22
ENDMDL
MODEL 3
REMARK VINA RESULT:    -5.827      1.779      4.806
REMARK INTER + INTRA:         -15.461
REMARK INTER:                 -12.743
REMARK INTRA:                  -2.717
REMARK UNBOUND:                -2.138
REMARK SMILES CCCCCCCCCCCCCCCCCCCCCCCC(=O)[O-]
REMARK SMILES IDX 13 1 14 2 15 3 16 4 17 5 18 6 19 7 20 8 21 9 22 10 23 11
REMARK SMILES IDX 24 12 25 13 26 14 12 15 11 16 10 17 9 18 8 19 7 20 6 21 5 22
REMARK SMILES IDX 4 23 3 24 2 25 1 26
REMARK H PARENT
REMARK Flexibility Score: inf
ROOT
ATOM      1  C   UNL     1      -6.257 -14.472  28.084  1.00  0.00     0.000 C 
ENDROOT
BRANCH   1   2
ATOM      2  C   UNL     1      -7.052 -14.263  26.776  1.00  0.00     0.000 C 
BRANCH   2   3
ATOM      3  C   UNL     1      -8.202 -15.268  26.595  1.00  0.00     0.000 C 
BRANCH   3   4
ATOM      4  C   UNL     1      -9.471 -14.625  26.010  1.00  0.00     0.000 C 
BRANCH   4   5
ATOM      5  C   UNL     1     -10.746 -15.366  26.443  1.00  0.00     0.000 C 
BRANCH   5   6
ATOM      6  C   UNL     1     -10.578 -16.071  27.802  1.00  0.00     0.000 C 
BRANCH   6   7
ATOM      7  C   UNL     1     -11.869 -16.769  28.262  1.00  0.00     0.000 C 
BRANCH   7   8
ATOM      8  C   UNL     1     -11.617 -18.229  28.685  1.00  0.00     0.000 C 
BRANCH   8   9
ATOM      9  C   UNL     1     -10.485 -18.370  29.720  1.00  0.00     0.000 C 
BRANCH   9  10
ATOM     10  C   UNL     1     -10.943 -18.707  31.154  1.00  0.00     0.006 C 
BRANCH  10  11
ATOM     11  C   UNL     1     -12.466 -18.817  31.329  1.00  0.00     0.053 C 
BRANCH  11  12
ATOM     12  C   UNL     1     -12.883 -18.596  32.750  1.00  0.00     0.041 C 
ATOM     13  O   UNL     1     -13.366 -17.488  33.104  1.00  0.00    -0.550 OA
ATOM     14  O   UNL     1     -12.764 -19.624  33.676  1.00  0.00    -0.550 OA
ENDBRANCH  11  12
ENDBRANCH  10  11
ENDBRANCH   9  10
ENDBRANCH   8   9
ENDBRANCH   7   8
ENDBRANCH   6   7
ENDBRANCH   5   6
ENDBRANCH   4   5
ENDBRANCH   3   4
ENDBRANCH   2   3
ENDBRANCH   1   2
BRANCH   1  15
ATOM     15  C   UNL     1      -7.151 -14.337  29.330  1.00  0.00     0.000 C 
BRANCH  15  16
ATOM     16  C   UNL     1      -6.492 -14.886  30.609  1.00  0.00     0.000 C 
BRANCH  16  17
ATOM     17  C   UNL     1      -6.799 -14.095  31.894  1.00  0.00     0.000 C 
BRANCH  17  18
ATOM     18  C   UNL     1      -5.653 -13.155  32.310  1.00  0.00    -0.000 C 
BRANCH  18  19
ATOM     19  C   UNL     1      -6.060 -11.674  32.256  1.00  0.00    -0.000 C 
BRANCH  19  20
ATOM     20  C   UNL     1      -5.980 -11.088  30.839  1.00  0.00    -0.000 C 
BRANCH  20  21
ATOM     21  C   UNL     1      -4.524 -10.798  30.445  1.00  0.00    -0.000 C 
BRANCH  21  22
ATOM     22  C   UNL     1      -4.055 -11.627  29.235  1.00  0.00    -0.000 C 
BRANCH  22  23
ATOM     23  C   UNL     1      -3.279 -12.912  29.587  1.00  0.00    -0.000 C 
BRANCH  23  24
ATOM     24  C   UNL     1      -2.021 -12.701  30.452  1.00  0.00    -0.000 C 
BRANCH  24  25
ATOM     25  C   UNL     1      -2.034 -13.443  31.801  1.00  0.00    -0.003 C 
ATOM     26  C   UNL     1      -2.095 -12.499  32.999  1.00  0.00     0.004 C 
ENDBRANCH  24  25
ENDBRANCH  23  24
ENDBRANCH  22  23
ENDBRANCH  21  22
ENDBRANCH  20  21
ENDBRANCH  19  20
ENDBRANCH  18  19
ENDBRANCH  17  18
ENDBRANCH  16  17
ENDBRANCH  15  16
ENDBRANCH   1  15
TORSDOF 22
ENDMDL
MODEL 4
REMARK VINA RESULT:    -5.826      4.089      6.506
REMARK INTER + INTRA:         -15.456
REMARK INTER:                 -12.599
REMARK INTRA:                  -2.857
REMARK UNBOUND:                -2.138
REMARK SMILES CCCCCCCCCCCCCCCCCCCCCCCC(=O)[O-]
REMARK SMILES IDX 13 1 14 2 15 3 16 4 17 5 18 6 19 7 20 8 21 9 22 10 23 11
REMARK SMILES IDX 24 12 25 13 26 14 12 15 11 16 10 17 9 18 8 19 7 20 6 21 5 22
REMARK SMILES IDX 4 23 3 24 2 25 1 26
REMARK H PARENT
REMARK Flexibility Score: inf
ROOT
ATOM      1  C   UNL     1      -7.399 -15.555  31.762  1.00  0.00     0.000 C 
ENDROOT
BRANCH   1   2
ATOM      2  C   UNL     1      -8.291 -16.816  31.755  1.00  0.00     0.000 C 
BRANCH   2   3
ATOM      3  C   UNL     1      -9.446 -16.740  30.743  1.00  0.00     0.000 C 
BRANCH   3   4
ATOM      4  C   UNL     1     -10.019 -18.122  30.382  1.00  0.00     0.000 C 
BRANCH   4   5
ATOM      5  C   UNL     1     -11.465 -18.294  30.871  1.00  0.00     0.000 C 
BRANCH   5   6
ATOM      6  C   UNL     1     -12.470 -18.364  29.707  1.00  0.00     0.000 C 
BRANCH   6   7
ATOM      7  C   UNL     1     -13.363 -17.115  29.628  1.00  0.00     0.000 C 
BRANCH   7   8
ATOM      8  C   UNL     1     -12.756 -16.025  28.726  1.00  0.00     0.000 C 
BRANCH   8   9
ATOM      9  C   UNL     1     -11.980 -16.599  27.526  1.00  0.00     0.000 C 
BRANCH   9  10
ATOM     10  C   UNL     1     -11.037 -15.606  26.816  1.00  0.00     0.006 C 
BRANCH  10  11
ATOM     11  C   UNL     1      -9.595 -15.603  27.347  1.00  0.00     0.053 C 
BRANCH  11  12
ATOM     12  C   UNL     1      -8.732 -14.619  26.619  1.00  0.00     0.041 C 
ATOM     13  O   UNL     1      -9.257 -13.704  25.930  1.00  0.00    -0.550 OA
ATOM     14  O   UNL     1      -7.349 -14.696  26.726  1.00  0.00    -0.550 OA
ENDBRANCH  11  12
ENDBRANCH  10  11
ENDBRANCH   9  10
ENDBRANCH   8   9
ENDBRANCH   7   8
ENDBRANCH   6   7
ENDBRANCH   5   6
ENDBRANCH   4   5
ENDBRANCH   3   4
ENDBRANCH   2   3
ENDBRANCH   1   2
BRANCH   1  15
ATOM     15  C   UNL     1      -7.345 -14.879  30.381  1.00  0.00     0.000 C 
BRANCH  15  16
ATOM     16  C   UNL     1      -7.057 -13.367  30.459  1.00  0.00     0.000 C 
BRANCH  16  17
ATOM     17  C   UNL     1      -6.840 -12.816  31.880  1.00  0.00     0.000 C 
BRANCH  17  18
ATOM     18  C   UNL     1      -5.443 -12.203  32.081  1.00  0.00    -0.000 C 
BRANCH  18  19
ATOM     19  C   UNL     1      -4.358 -13.272  32.292  1.00  0.00    -0.000 C 
BRANCH  19  20
ATOM     20  C   UNL     1      -3.129 -13.052  31.397  1.00  0.00    -0.000 C 
BRANCH  20  21
ATOM     21  C   UNL     1      -3.452 -12.088  30.246  1.00  0.00    -0.000 C 
BRANCH  21  22
ATOM     22  C   UNL     1      -3.186 -12.702  28.860  1.00  0.00    -0.000 C 
BRANCH  22  23
ATOM     23  C   UNL     1      -4.177 -13.804  28.433  1.00  0.00    -0.000 C 
BRANCH  23  24
ATOM     24  C   UNL     1      -3.804 -14.556  27.141  1.00  0.00    -0.000 C 
BRANCH  24  25
ATOM     25  C   UNL     1      -2.329 -14.425  26.721  1.00  0.00    -0.003 C 
ATOM     26  C   UNL     1      -2.087 -14.818  25.265  1.00  0.00     0.004 C 
ENDBRANCH  24  25
ENDBRANCH  23  24
ENDBRANCH  22  23
ENDBRANCH  21  22
ENDBRANCH  20  21
ENDBRANCH  19  20
ENDBRANCH  18  19
ENDBRANCH  17  18
ENDBRANCH  16  17
ENDBRANCH  15  16
ENDBRANCH   1  15
TORSDOF 22
ENDMDL
MODEL 5
REMARK VINA RESULT:    -5.818      3.053      5.794
REMARK INTER + INTRA:         -15.439
REMARK INTER:                 -12.473
REMARK INTRA:                  -2.966
REMARK UNBOUND:                -2.138
REMARK SMILES CCCCCCCCCCCCCCCCCCCCCCCC(=O)[O-]
REMARK SMILES IDX 13 1 14 2 15 3 16 4 17 5 18 6 19 7 20 8 21 9 22 10 23 11
REMARK SMILES IDX 24 12 25 13 26 14 12 15 11 16 10 17 9 18 8 19 7 20 6 21 5 22
REMARK SMILES IDX 4 23 3 24 2 25 1 26
REMARK H PARENT
REMARK Flexibility Score: inf
ROOT
ATOM      1  C   UNL     1      -7.490 -14.943  29.971  1.00  0.00     0.000 C 
ENDROOT
BRANCH   1   2
ATOM      2  C   UNL     1      -7.097 -13.796  29.014  1.00  0.00     0.000 C 
BRANCH   2   3
ATOM      3  C   UNL     1      -6.340 -14.277  27.765  1.00  0.00     0.000 C 
BRANCH   3   4
ATOM      4  C   UNL     1      -7.262 -14.925  26.718  1.00  0.00     0.000 C 
BRANCH   4   5
ATOM      5  C   UNL     1      -8.606 -14.189  26.596  1.00  0.00     0.000 C 
BRANCH   5   6
ATOM      6  C   UNL     1      -9.623 -14.969  25.744  1.00  0.00     0.000 C 
BRANCH   6   7
ATOM      7  C   UNL     1     -10.866 -15.384  26.550  1.00  0.00     0.000 C 
BRANCH   7   8
ATOM      8  C   UNL     1     -10.493 -16.143  27.837  1.00  0.00     0.000 C 
BRANCH   8   9
ATOM      9  C   UNL     1     -11.701 -16.391  28.761  1.00  0.00     0.000 C 
BRANCH   9  10
ATOM     10  C   UNL     1     -11.936 -17.864  29.153  1.00  0.00     0.006 C 
BRANCH  10  11
ATOM     11  C   UNL     1     -10.652 -18.676  29.388  1.00  0.00     0.053 C 
BRANCH  11  12
ATOM     12  C   UNL     1     -10.154 -18.540  30.794  1.00  0.00     0.041 C 
ATOM     13  O   UNL     1      -9.267 -17.690  31.073  1.00  0.00    -0.550 OA
ATOM     14  O   UNL     1     -10.689 -19.335  31.800  1.00  0.00    -0.550 OA
ENDBRANCH  11  12
ENDBRANCH  10  11
ENDBRANCH   9  10
ENDBRANCH   8   9
ENDBRANCH   7   8
ENDBRANCH   6   7
ENDBRANCH   5   6
ENDBRANCH   4   5
ENDBRANCH   3   4
ENDBRANCH   2   3
ENDBRANCH   1   2
BRANCH   1  15
ATOM     15  C   UNL     1      -6.870 -14.767  31.368  1.00  0.00     0.000 C 
BRANCH  15  16
ATOM     16  C   UNL     1      -6.790 -13.295  31.813  1.00  0.00     0.000 C 
BRANCH  16  17
ATOM     17  C   UNL     1      -5.554 -12.934  32.657  1.00  0.00     0.000 C 
BRANCH  17  18
ATOM     18  C   UNL     1      -4.915 -11.596  32.246  1.00  0.00    -0.000 C 
BRANCH  18  19
ATOM     19  C   UNL     1      -5.445 -11.080  30.899  1.00  0.00    -0.000 C 
BRANCH  19  20
ATOM     20  C   UNL     1      -4.345 -10.968  29.832  1.00  0.00    -0.000 C 
BRANCH  20  21
ATOM     21  C   UNL     1      -3.188 -11.932  30.133  1.00  0.00    -0.000 C 
BRANCH  21  22
ATOM     22  C   UNL     1      -3.269 -13.236  29.318  1.00  0.00    -0.000 C 
BRANCH  22  23
ATOM     23  C   UNL     1      -3.420 -14.521  30.157  1.00  0.00    -0.000 C 
BRANCH  23  24
ATOM     24  C   UNL     1      -2.224 -15.492  30.088  1.00  0.00    -0.000 C 
BRANCH  24  25
ATOM     25  C   UNL     1      -1.073 -15.167  31.058  1.00  0.00    -0.003 C 
ATOM     26  C   UNL     1       0.128 -16.093  30.887  1.00  0.00     0.004 C 
ENDBRANCH  24  25
ENDBRANCH  23  24
ENDBRANCH  22  23
ENDBRANCH  21  22
ENDBRANCH  20  21
ENDBRANCH  19  20
ENDBRANCH  18  19
ENDBRANCH  17  18
ENDBRANCH  16  17
ENDBRANCH  15  16
ENDBRANCH   1  15
TORSDOF 22
ENDMDL
MODEL 6
REMARK VINA RESULT:    -5.810      2.679      5.933
REMARK INTER + INTRA:         -15.420
REMARK INTER:                 -11.608
REMARK INTRA:                  -3.812
REMARK UNBOUND:                -2.138
REMARK SMILES CCCCCCCCCCCCCCCCCCCCCCCC(=O)[O-]
REMARK SMILES IDX 13 1 14 2 15 3 16 4 17 5 18 6 19 7 20 8 21 9 22 10 23 11
REMARK SMILES IDX 24 12 25 13 26 14 12 15 11 16 10 17 9 18 8 19 7 20 6 21 5 22
REMARK SMILES IDX 4 23 3 24 2 25 1 26
REMARK H PARENT
REMARK Flexibility Score: inf
ROOT
ATOM      1  C   UNL     1      -6.080 -14.724  31.057  1.00  0.00     0.000 C 
ENDROOT
BRANCH   1   2
ATOM      2  C   UNL     1      -7.423 -15.005  30.347  1.00  0.00     0.000 C 
BRANCH   2   3
ATOM      3  C   UNL     1      -7.591 -14.228  29.031  1.00  0.00     0.000 C 
BRANCH   3   4
ATOM      4  C   UNL     1      -6.661 -14.733  27.915  1.00  0.00     0.000 C 
BRANCH   4   5
ATOM      5  C   UNL     1      -7.416 -14.975  26.598  1.00  0.00     0.000 C 
BRANCH   5   6
ATOM      6  C   UNL     1      -8.781 -14.264  26.569  1.00  0.00     0.000 C 
BRANCH   6   7
ATOM      7  C   UNL     1      -9.900 -15.168  26.027  1.00  0.00     0.000 C 
BRANCH   7   8
ATOM      8  C   UNL     1     -10.917 -15.549  27.119  1.00  0.00     0.000 C 
BRANCH   8   9
ATOM      9  C   UNL     1     -10.423 -16.688  28.031  1.00  0.00     0.000 C 
BRANCH   9  10
ATOM     10  C   UNL     1     -10.687 -16.485  29.537  1.00  0.00     0.006 C 
BRANCH  10  11
ATOM     11  C   UNL     1     -12.169 -16.316  29.909  1.00  0.00     0.053 C 
BRANCH  11  12
ATOM     12  C   UNL     1     -12.717 -17.532  30.589  1.00  0.00     0.041 C 
ATOM     13  O   UNL     1     -12.817 -17.566  31.845  1.00  0.00    -0.550 OA
ATOM     14  O   UNL     1     -13.144 -18.617  29.834  1.00  0.00    -0.550 OA
ENDBRANCH  11  12
ENDBRANCH  10  11
ENDBRANCH   9  10
ENDBRANCH   8   9
ENDBRANCH   7   8
ENDBRANCH   6   7
ENDBRANCH   5   6
ENDBRANCH   4   5
ENDBRANCH   3   4
ENDBRANCH   2   3
ENDBRANCH   1   2
BRANCH   1  15
ATOM     15  C   UNL     1      -6.282 -14.085  32.442  1.00  0.00     0.000 C 
BRANCH  15  16
ATOM     16  C   UNL     1      -5.629 -12.695  32.568  1.00  0.00     0.000 C 
BRANCH  16  17
ATOM     17  C   UNL     1      -6.367 -11.559  31.838  1.00  0.00     0.000 C 
BRANCH  17  18
ATOM     18  C   UNL     1      -5.453 -10.752  30.899  1.00  0.00    -0.000 C 
BRANCH  18  19
ATOM     19  C   UNL     1      -5.215 -11.464  29.558  1.00  0.00    -0.000 C 
BRANCH  19  20
ATOM     20  C   UNL     1      -3.726 -11.716  29.277  1.00  0.00    -0.000 C 
BRANCH  20  21
ATOM     21  C   UNL     1      -3.457 -13.209  29.038  1.00  0.00    -0.000 C 
BRANCH  21  22
ATOM     22  C   UNL     1      -2.216 -13.722  29.793  1.00  0.00    -0.000 C 
BRANCH  22  23
ATOM     23  C   UNL     1      -2.412 -13.921  31.309  1.00  0.00    -0.000 C 
BRANCH  23  24
ATOM     24  C   UNL     1      -1.571 -12.990  32.206  1.00  0.00    -0.000 C 
BRANCH  24  25
ATOM     25  C   UNL     1      -2.367 -11.864  32.891  1.00  0.00    -0.003 C 
ATOM     26  C   UNL     1      -1.988 -10.474  32.384  1.00  0.00     0.004 C 
ENDBRANCH  24  25
ENDBRANCH  23  24
ENDBRANCH  22  23
ENDBRANCH  21  22
ENDBRANCH  20  21
ENDBRANCH  19  20
ENDBRANCH  18  19
ENDBRANCH  17  18
ENDBRANCH  16  17
ENDBRANCH  15  16
ENDBRANCH   1  15
TORSDOF 22
ENDMDL
MODEL 7
REMARK VINA RESULT:    -5.799      5.289      9.649
REMARK INTER + INTRA:         -15.396
REMARK INTER:                 -12.523
REMARK INTRA:                  -2.873
REMARK UNBOUND:                -2.138
REMARK SMILES CCCCCCCCCCCCCCCCCCCCCCCC(=O)[O-]
REMARK SMILES IDX 13 1 14 2 15 3 16 4 17 5 18 6 19 7 20 8 21 9 22 10 23 11
REMARK SMILES IDX 24 12 25 13 26 14 12 15 11 16 10 17 9 18 8 19 7 20 6 21 5 22
REMARK SMILES IDX 4 23 3 24 2 25 1 26
REMARK H PARENT
REMARK Flexibility Score: inf
ROOT
ATOM      1  C   UNL     1      -7.363 -15.330  31.213  1.00  0.00     0.000 C 
ENDROOT
BRANCH   1   2
ATOM      2  C   UNL     1      -6.077 -14.485  31.350  1.00  0.00     0.000 C 
BRANCH   2   3
ATOM      3  C   UNL     1      -5.960 -13.769  32.706  1.00  0.00     0.000 C 
BRANCH   3   4
ATOM      4  C   UNL     1      -5.442 -12.326  32.578  1.00  0.00     0.000 C 
BRANCH   4   5
ATOM      5  C   UNL     1      -6.230 -11.519  31.534  1.00  0.00     0.000 C 
BRANCH   5   6
ATOM      6  C   UNL     1      -5.307 -10.713  30.602  1.00  0.00     0.000 C 
BRANCH   6   7
ATOM      7  C   UNL     1      -4.065 -11.512  30.175  1.00  0.00     0.000 C 
BRANCH   7   8
ATOM      8  C   UNL     1      -4.311 -12.321  28.888  1.00  0.00     0.000 C 
BRANCH   8   9
ATOM      9  C   UNL     1      -3.497 -13.628  28.832  1.00  0.00     0.000 C 
BRANCH   9  10
ATOM     10  C   UNL     1      -3.700 -14.475  27.559  1.00  0.00     0.006 C 
BRANCH  10  11
ATOM     11  C   UNL     1      -2.433 -15.182  27.053  1.00  0.00     0.053 C 
BRANCH  11  12
ATOM     12  C   UNL     1      -2.025 -14.695  25.696  1.00  0.00     0.041 C 
ATOM     13  O   UNL     1      -1.881 -15.511  24.747  1.00  0.00    -0.550 OA
ATOM     14  O   UNL     1      -1.832 -13.338  25.475  1.00  0.00    -0.550 OA
ENDBRANCH  11  12
ENDBRANCH  10  11
ENDBRANCH   9  10
ENDBRANCH   8   9
ENDBRANCH   7   8
ENDBRANCH   6   7
ENDBRANCH   5   6
ENDBRANCH   4   5
ENDBRANCH   3   4
ENDBRANCH   2   3
ENDBRANCH   1   2
BRANCH   1  15
ATOM     15  C   UNL     1      -8.113 -15.031  29.903  1.00  0.00     0.000 C 
BRANCH  15  16
ATOM     16  C   UNL     1      -7.221 -14.374  28.832  1.00  0.00     0.000 C 
BRANCH  16  17
ATOM     17  C   UNL     1      -7.351 -14.971  27.419  1.00  0.00     0.000 C 
BRANCH  17  18
ATOM     18  C   UNL     1      -7.871 -13.958  26.384  1.00  0.00    -0.000 C 
BRANCH  18  19
ATOM     19  C   UNL     1      -9.333 -14.223  25.987  1.00  0.00    -0.000 C 
BRANCH  19  20
ATOM     20  C   UNL     1      -9.956 -15.392  26.764  1.00  0.00    -0.000 C 
BRANCH  20  21
ATOM     21  C   UNL     1     -11.472 -15.463  26.529  1.00  0.00    -0.000 C 
BRANCH  21  22
ATOM     22  C   UNL     1     -12.181 -16.436  27.488  1.00  0.00    -0.000 C 
BRANCH  22  23
ATOM     23  C   UNL     1     -11.644 -16.434  28.934  1.00  0.00    -0.000 C 
BRANCH  23  24
ATOM     24  C   UNL     1     -11.764 -17.778  29.679  1.00  0.00    -0.000 C 
BRANCH  24  25
ATOM     25  C   UNL     1     -10.497 -18.652  29.639  1.00  0.00    -0.003 C 
ATOM     26  C   UNL     1      -9.708 -18.615  30.946  1.00  0.00     0.004 C 
ENDBRANCH  24  25
ENDBRANCH  23  24
ENDBRANCH  22  23
ENDBRANCH  21  22
ENDBRANCH  20  21
ENDBRANCH  19  20
ENDBRANCH  18  19
ENDBRANCH  17  18
ENDBRANCH  16  17
ENDBRANCH  15  16
ENDBRANCH   1  15
TORSDOF 22
ENDMDL
MODEL 8
REMARK VINA RESULT:    -5.797      2.683      5.181
REMARK INTER + INTRA:         -15.390
REMARK INTER:                 -13.239
REMARK INTRA:                  -2.152
REMARK UNBOUND:                -2.138
REMARK SMILES CCCCCCCCCCCCCCCCCCCCCCCC(=O)[O-]
REMARK SMILES IDX 13 1 14 2 15 3 16 4 17 5 18 6 19 7 20 8 21 9 22 10 23 11
REMARK SMILES IDX 24 12 25 13 26 14 12 15 11 16 10 17 9 18 8 19 7 20 6 21 5 22
REMARK SMILES IDX 4 23 3 24 2 25 1 26
REMARK H PARENT
REMARK Flexibility Score: inf
ROOT
ATOM      1  C   UNL     1      -6.500 -14.449  28.487  1.00  0.00     0.000 C 
ENDROOT
BRANCH   1   2
ATOM      2  C   UNL     1      -7.068 -14.315  27.056  1.00  0.00     0.000 C 
BRANCH   2   3
ATOM      3  C   UNL     1      -8.266 -15.240  26.786  1.00  0.00     0.000 C 
BRANCH   3   4
ATOM      4  C   UNL     1      -9.350 -14.579  25.920  1.00  0.00     0.000 C 
BRANCH   4   5
ATOM      5  C   UNL     1     -10.707 -15.290  26.048  1.00  0.00     0.000 C 
BRANCH   5   6
ATOM      6  C   UNL     1     -10.986 -15.756  27.489  1.00  0.00     0.000 C 
BRANCH   6   7
ATOM      7  C   UNL     1     -12.373 -16.406  27.635  1.00  0.00     0.000 C 
BRANCH   7   8
ATOM      8  C   UNL     1     -12.998 -16.130  29.015  1.00  0.00     0.000 C 
BRANCH   8   9
ATOM      9  C   UNL     1     -13.486 -17.409  29.721  1.00  0.00     0.000 C 
BRANCH   9  10
ATOM     10  C   UNL     1     -12.668 -17.828  30.960  1.00  0.00     0.006 C 
BRANCH  10  11
ATOM     11  C   UNL     1     -11.185 -17.425  30.913  1.00  0.00     0.053 C 
BRANCH  11  12
ATOM     12  C   UNL     1     -10.309 -18.563  30.490  1.00  0.00     0.041 C 
ATOM     13  O   UNL     1     -10.358 -18.997  29.309  1.00  0.00    -0.550 OA
ATOM     14  O   UNL     1      -9.418 -19.126  31.396  1.00  0.00    -0.550 OA
ENDBRANCH  11  12
ENDBRANCH  10  11
ENDBRANCH   9  10
ENDBRANCH   8   9
ENDBRANCH   7   8
ENDBRANCH   6   7
ENDBRANCH   5   6
ENDBRANCH   4   5
ENDBRANCH   3   4
ENDBRANCH   2   3
ENDBRANCH   1   2
BRANCH   1  15
ATOM     15  C   UNL     1      -7.578 -14.880  29.497  1.00  0.00     0.000 C 
BRANCH  15  16
ATOM     16  C   UNL     1      -7.401 -14.232  30.883  1.00  0.00     0.000 C 
BRANCH  16  17
ATOM     17  C   UNL     1      -5.947 -13.906  31.271  1.00  0.00     0.000 C 
BRANCH  17  18
ATOM     18  C   UNL     1      -5.831 -12.683  32.197  1.00  0.00    -0.000 C 
BRANCH  18  19
ATOM     19  C   UNL     1      -6.011 -11.355  31.444  1.00  0.00    -0.000 C 
BRANCH  19  20
ATOM     20  C   UNL     1      -5.499 -11.421  29.997  1.00  0.00    -0.000 C 
BRANCH  20  21
ATOM     21  C   UNL     1      -3.974 -11.252  29.945  1.00  0.00    -0.000 C 
BRANCH  21  22
ATOM     22  C   UNL     1      -3.477 -10.050  30.769  1.00  0.00    -0.000 C 
BRANCH  22  23
ATOM     23  C   UNL     1      -2.019 -10.152  31.258  1.00  0.00    -0.000 C 
BRANCH  23  24
ATOM     24  C   UNL     1      -1.842 -10.734  32.675  1.00  0.00    -0.000 C 
BRANCH  24  25
ATOM     25  C   UNL     1      -2.255 -12.210  32.822  1.00  0.00    -0.003 C 
ATOM     26  C   UNL     1      -1.133 -13.090  33.367  1.00  0.00     0.004 C 
ENDBRANCH  24  25
ENDBRANCH  23  24
ENDBRANCH  22  23
ENDBRANCH  21  22
ENDBRANCH  20  21
ENDBRANCH  19  20
ENDBRANCH  18  19
ENDBRANCH  17  18
ENDBRANCH  16  17
ENDBRANCH  15  16
ENDBRANCH   1  15
TORSDOF 22
ENDMDL
MODEL 9
REMARK VINA RESULT:    -5.732      4.930      9.844
REMARK INTER + INTRA:         -15.243
REMARK INTER:                 -12.823
REMARK INTRA:                  -2.419
REMARK UNBOUND:                -2.138
REMARK SMILES CCCCCCCCCCCCCCCCCCCCCCCC(=O)[O-]
REMARK SMILES IDX 13 1 14 2 15 3 16 4 17 5 18 6 19 7 20 8 21 9 22 10 23 11
REMARK SMILES IDX 24 12 25 13 26 14 12 15 11 16 10 17 9 18 8 19 7 20 6 21 5 22
REMARK SMILES IDX 4 23 3 24 2 25 1 26
REMARK H PARENT
REMARK Flexibility Score: inf
ROOT
ATOM      1  C   UNL     1      -8.116 -16.316  31.394  1.00  0.00     0.000 C 
ENDROOT
BRANCH   1   2
ATOM      2  C   UNL     1      -7.263 -15.131  30.890  1.00  0.00     0.000 C 
BRANCH   2   3
ATOM      3  C   UNL     1      -6.761 -14.217  32.020  1.00  0.00     0.000 C 
BRANCH   3   4
ATOM      4  C   UNL     1      -6.814 -12.725  31.652  1.00  0.00     0.000 C 
BRANCH   4   5
ATOM      5  C   UNL     1      -5.979 -12.408  30.401  1.00  0.00     0.000 C 
BRANCH   5   6
ATOM      6  C   UNL     1      -4.711 -11.601  30.734  1.00  0.00     0.000 C 
BRANCH   6   7
ATOM      7  C   UNL     1      -3.423 -12.372  30.402  1.00  0.00     0.000 C 
BRANCH   7   8
ATOM      8  C   UNL     1      -3.492 -13.840  30.862  1.00  0.00     0.000 C 
BRANCH   8   9
ATOM      9  C   UNL     1      -3.149 -14.840  29.741  1.00  0.00     0.000 C 
BRANCH   9  10
ATOM     10  C   UNL     1      -2.438 -14.233  28.514  1.00  0.00     0.006 C 
BRANCH  10  11
ATOM     11  C   UNL     1      -3.195 -14.404  27.188  1.00  0.00     0.053 C 
BRANCH  11  12
ATOM     12  C   UNL     1      -2.274 -14.357  26.008  1.00  0.00     0.041 C 
ATOM     13  O   UNL     1      -1.947 -15.420  25.416  1.00  0.00    -0.550 OA
ATOM     14  O   UNL     1      -1.799 -13.136  25.546  1.00  0.00    -0.550 OA
ENDBRANCH  11  12
ENDBRANCH  10  11
ENDBRANCH   9  10
ENDBRANCH   8   9
ENDBRANCH   7   8
ENDBRANCH   6   7
ENDBRANCH   5   6
ENDBRANCH   4   5
ENDBRANCH   3   4
ENDBRANCH   2   3
ENDBRANCH   1   2
BRANCH   1  15
ATOM     15  C   UNL     1      -9.460 -16.416  30.651  1.00  0.00     0.000 C 
BRANCH  15  16
ATOM     16  C   UNL     1      -9.885 -17.869  30.364  1.00  0.00     0.000 C 
BRANCH  16  17
ATOM     17  C   UNL     1     -11.150 -18.338  31.105  1.00  0.00     0.000 C 
BRANCH  17  18
ATOM     18  C   UNL     1     -12.317 -17.341  30.992  1.00  0.00    -0.000 C 
BRANCH  18  19
ATOM     19  C   UNL     1     -13.046 -17.440  29.642  1.00  0.00    -0.000 C 
BRANCH  19  20
ATOM     20  C   UNL     1     -13.034 -16.115  28.864  1.00  0.00    -0.000 C 
BRANCH  20  21
ATOM     21  C   UNL     1     -12.449 -16.309  27.457  1.00  0.00    -0.000 C 
BRANCH  21  22
ATOM     22  C   UNL     1     -10.946 -15.983  27.384  1.00  0.00    -0.000 C 
BRANCH  22  23
ATOM     23  C   UNL     1     -10.507 -15.211  26.124  1.00  0.00    -0.000 C 
BRANCH  23  24
ATOM     24  C   UNL     1      -9.182 -14.436  26.259  1.00  0.00    -0.000 C 
BRANCH  24  25
ATOM     25  C   UNL     1      -8.008 -15.258  26.821  1.00  0.00    -0.003 C 
ATOM     26  C   UNL     1      -6.738 -14.432  27.008  1.00  0.00     0.004 C 
ENDBRANCH  24  25
ENDBRANCH  23  24
ENDBRANCH  22  23
ENDBRANCH  21  22
ENDBRANCH  20  21
ENDBRANCH  19  20
ENDBRANCH  18  19
ENDBRANCH  17  18
ENDBRANCH  16  17
ENDBRANCH  15  16
ENDBRANCH   1  15
TORSDOF 22
ENDMDL
