MODEL 1
REMARK VINA RESULT:    -4.200      0.000      0.000
REMARK INTER + INTRA:          -7.397
REMARK INTER:                  -6.656
REMARK INTRA:                  -0.741
REMARK UNBOUND:                -0.741
REMARK SMILES CCCCCCCCCCCC(=O)[O-]
REMARK SMILES IDX 7 1 8 2 9 3 10 4 11 5 12 6 13 7 14 8 6 9 5 10 4 11 3 12 2 13
REMARK SMILES IDX 1 14
REMARK H PARENT
REMARK Flexibility Score: inf
ROOT
ATOM      1  C   UNL     1       6.174  -0.322  -3.653  1.00  0.00     0.000 C 
ENDROOT
BRANCH   1   2
ATOM      2  C   UNL     1       5.589  -1.176  -2.515  1.00  0.00     0.000 C 
BRANCH   2   3
ATOM      3  C   UNL     1       5.571  -0.433  -1.168  1.00  0.00     0.000 C 
BRANCH   3   4
ATOM      4  C   UNL     1       6.521  -1.059  -0.133  1.00  0.00     0.006 C 
BRANCH   4   5
ATOM      5  C   UNL     1       7.014  -0.032   0.894  1.00  0.00     0.053 C 
BRANCH   5   6
ATOM      6  C   UNL     1       5.907   0.428   1.794  1.00  0.00     0.041 C 
ATOM      7  O   UNL     1       5.460   1.602   1.699  1.00  0.00    -0.550 OA
ATOM      8  O   UNL     1       5.351  -0.447   2.718  1.00  0.00    -0.550 OA
ENDBRANCH   5   6
ENDBRANCH   4   5
ENDBRANCH   3   4
ENDBRANCH   2   3
ENDBRANCH   1   2
BRANCH   1   9
ATOM      9  C   UNL     1       5.377  -0.444  -4.965  1.00  0.00     0.000 C 
BRANCH   9  10
ATOM     10  C   UNL     1       5.193  -1.879  -5.492  1.00  0.00    -0.000 C 
BRANCH  10  11
ATOM     11  C   UNL     1       3.757  -2.168  -5.958  1.00  0.00    -0.000 C 
BRANCH  11  12
ATOM     12  C   UNL     1       2.705  -1.418  -5.125  1.00  0.00    -0.000 C 
BRANCH  12  13
ATOM     13  C   UNL     1       2.360  -2.144  -3.816  1.00  0.00    -0.003 C 
ATOM     14  C   UNL     1       1.748  -3.514  -4.092  1.00  0.00     0.004 C 
ENDBRANCH  12  13
ENDBRANCH  11  12
ENDBRANCH  10  11
ENDBRANCH   9  10
ENDBRANCH   1   9
TORSDOF 10
ENDMDL
MODEL 2
REMARK VINA RESULT:    -4.111      1.159      1.738
REMARK INTER + INTRA:          -7.254
REMARK INTER:                  -6.639
REMARK INTRA:                  -0.615
REMARK UNBOUND:                -0.741
REMARK SMILES CCCCCCCCCCCC(=O)[O-]
REMARK SMILES IDX 7 1 8 2 9 3 10 4 11 5 12 6 13 7 14 8 6 9 5 10 4 11 3 12 2 13
REMARK SMILES IDX 1 14
REMARK H PARENT
REMARK Flexibility Score: inf
ROOT
ATOM      1  C   UNL     1       6.510  -1.789  -2.858  1.00  0.00     0.000 C 
ENDROOT
BRANCH   1   2
ATOM      2  C   UNL     1       7.595  -2.373  -1.937  1.00  0.00     0.000 C 
BRANCH   2   3
ATOM      3  C   UNL     1       7.257  -2.208  -0.446  1.00  0.00     0.000 C 
BRANCH   3   4
ATOM      4  C   UNL     1       6.305  -1.028  -0.182  1.00  0.00     0.006 C 
BRANCH   4   5
ATOM      5  C   UNL     1       6.884  -0.034   0.832  1.00  0.00     0.053 C 
BRANCH   5   6
ATOM      6  C   UNL     1       5.848   0.428   1.811  1.00  0.00     0.041 C 
ATOM      7  O   UNL     1       5.348  -0.383   2.635  1.00  0.00    -0.550 OA
ATOM      8  O   UNL     1       5.453   1.760   1.831  1.00  0.00    -0.550 OA
ENDBRANCH   5   6
ENDBRANCH   4   5
ENDBRANCH   3   4
ENDBRANCH   2   3
ENDBRANCH   1   2
BRANCH   1   9
ATOM      9  C   UNL     1       6.210  -2.684  -4.075  1.00  0.00     0.000 C 
BRANCH   9  10
ATOM     10  C   UNL     1       4.746  -2.673  -4.553  1.00  0.00    -0.000 C 
BRANCH  10  11
ATOM     11  C   UNL     1       3.904  -1.574  -3.884  1.00  0.00    -0.000 C 
BRANCH  11  12
ATOM     12  C   UNL     1       2.400  -1.742  -4.147  1.00  0.00    -0.000 C 
BRANCH  12  13
ATOM     13  C   UNL     1       2.039  -3.150  -4.646  1.00  0.00    -0.003 C 
ATOM     14  C   UNL     1       1.282  -3.934  -3.577  1.00  0.00     0.004 C 
ENDBRANCH  12  13
ENDBRANCH  11  12
ENDBRANCH  10  11
ENDBRANCH   9  10
ENDBRANCH   1   9
TORSDOF 10
ENDMDL
MODEL 3
REMARK VINA RESULT:    -4.066      0.904      1.765
REMARK INTER + INTRA:          -7.183
REMARK INTER:                  -6.749
REMARK INTRA:                  -0.434
REMARK UNBOUND:                -0.741
REMARK SMILES CCCCCCCCCCCC(=O)[O-]
REMARK SMILES IDX 7 1 8 2 9 3 10 4 11 5 12 6 13 7 14 8 6 9 5 10 4 11 3 12 2 13
REMARK SMILES IDX 1 14
REMARK H PARENT
REMARK Flexibility Score: inf
ROOT
ATOM      1  C   UNL     1       5.219  -0.938  -4.432  1.00  0.00     0.000 C 
ENDROOT
BRANCH   1   2
ATOM      2  C   UNL     1       5.285  -1.355  -2.953  1.00  0.00     0.000 C 
BRANCH   2   3
ATOM      3  C   UNL     1       5.929  -0.278  -2.063  1.00  0.00     0.000 C 
BRANCH   3   4
ATOM      4  C   UNL     1       5.419  -0.325  -0.613  1.00  0.00     0.006 C 
BRANCH   4   5
ATOM      5  C   UNL     1       6.443   0.242   0.379  1.00  0.00     0.053 C 
BRANCH   5   6
ATOM      6  C   UNL     1       5.811   0.586   1.694  1.00  0.00     0.041 C 
ATOM      7  O   UNL     1       5.707   1.789   2.052  1.00  0.00    -0.550 OA
ATOM      8  O   UNL     1       5.314  -0.421   2.512  1.00  0.00    -0.550 OA
ENDBRANCH   5   6
ENDBRANCH   4   5
ENDBRANCH   3   4
ENDBRANCH   2   3
ENDBRANCH   1   2
BRANCH   1   9
ATOM      9  C   UNL     1       4.087  -1.641  -5.204  1.00  0.00     0.000 C 
BRANCH   9  10
ATOM     10  C   UNL     1       2.664  -1.352  -4.692  1.00  0.00    -0.000 C 
BRANCH  10  11
ATOM     11  C   UNL     1       2.096  -2.487  -3.824  1.00  0.00    -0.000 C 
BRANCH  11  12
ATOM     12  C   UNL     1       2.380  -3.878  -4.413  1.00  0.00    -0.000 C 
BRANCH  12  13
ATOM     13  C   UNL     1       1.365  -4.935  -3.951  1.00  0.00    -0.003 C 
ATOM     14  C   UNL     1       0.638  -4.483  -2.687  1.00  0.00     0.004 C 
ENDBRANCH  12  13
ENDBRANCH  11  12
ENDBRANCH  10  11
ENDBRANCH   9  10
ENDBRANCH   1   9
TORSDOF 10
ENDMDL
MODEL 4
REMARK VINA RESULT:    -3.858      1.388      2.822
REMARK INTER + INTRA:          -6.854
REMARK INTER:                  -6.099
REMARK INTRA:                  -0.755
REMARK UNBOUND:                -0.741
REMARK SMILES CCCCCCCCCCCC(=O)[O-]
REMARK SMILES IDX 7 1 8 2 9 3 10 4 11 5 12 6 13 7 14 8 6 9 5 10 4 11 3 12 2 13
REMARK SMILES IDX 1 14
REMARK H PARENT
REMARK Flexibility Score: inf
ROOT
ATOM      1  C   UNL     1       6.857  -1.773  -0.403  1.00  0.00     0.000 C 
ENDROOT
BRANCH   1   2
ATOM      2  C   UNL     1       8.372  -1.554  -0.254  1.00  0.00     0.000 C 
BRANCH   2   3
ATOM      3  C   UNL     1       8.718  -0.145   0.256  1.00  0.00     0.000 C 
BRANCH   3   4
ATOM      4  C   UNL     1       8.519   0.000   1.775  1.00  0.00     0.006 C 
BRANCH   4   5
ATOM      5  C   UNL     1       7.380   0.970   2.118  1.00  0.00     0.053 C 
BRANCH   5   6
ATOM      6  C   UNL     1       6.328   0.315   2.959  1.00  0.00     0.041 C 
ATOM      7  O   UNL     1       5.346  -0.257   2.415  1.00  0.00    -0.550 OA
ATOM      8  O   UNL     1       6.445   0.312   4.344  1.00  0.00    -0.550 OA
ENDBRANCH   5   6
ENDBRANCH   4   5
ENDBRANCH   3   4
ENDBRANCH   2   3
ENDBRANCH   1   2
BRANCH   1   9
ATOM      9  C   UNL     1       6.133  -0.561  -1.019  1.00  0.00     0.000 C 
BRANCH   9  10
ATOM     10  C   UNL     1       5.017  -0.904  -2.024  1.00  0.00    -0.000 C 
BRANCH  10  11
ATOM     11  C   UNL     1       5.558  -1.426  -3.366  1.00  0.00    -0.000 C 
BRANCH  11  12
ATOM     12  C   UNL     1       4.503  -2.212  -4.161  1.00  0.00    -0.000 C 
BRANCH  12  13
ATOM     13  C   UNL     1       3.067  -1.786  -3.822  1.00  0.00    -0.003 C 
ATOM     14  C   UNL     1       2.387  -1.141  -5.026  1.00  0.00     0.004 C 
ENDBRANCH  12  13
ENDBRANCH  11  12
ENDBRANCH  10  11
ENDBRANCH   9  10
ENDBRANCH   1   9
TORSDOF 10
ENDMDL
MODEL 5
REMARK VINA RESULT:    -3.842      2.358      4.014
REMARK INTER + INTRA:          -6.829
REMARK INTER:                  -6.276
REMARK INTRA:                  -0.553
REMARK UNBOUND:                -0.741
REMARK SMILES CCCCCCCCCCCC(=O)[O-]
REMARK SMILES IDX 7 1 8 2 9 3 10 4 11 5 12 6 13 7 14 8 6 9 5 10 4 11 3 12 2 13
REMARK SMILES IDX 1 14
REMARK H PARENT
REMARK Flexibility Score: inf
ROOT
ATOM      1  C   UNL     1       2.580  -1.524  -4.882  1.00  0.00     0.000 C 
ENDROOT
BRANCH   1   2
ATOM      2  C   UNL     1       4.082  -1.223  -5.026  1.00  0.00     0.000 C 
BRANCH   2   3
ATOM      3  C   UNL     1       4.960  -2.217  -4.248  1.00  0.00     0.000 C 
BRANCH   3   4
ATOM      4  C   UNL     1       5.943  -1.517  -3.293  1.00  0.00     0.006 C 
BRANCH   4   5
ATOM      5  C   UNL     1       5.236  -0.925  -2.068  1.00  0.00     0.053 C 
BRANCH   5   6
ATOM      6  C   UNL     1       6.172  -0.766  -0.908  1.00  0.00     0.041 C 
ATOM      7  O   UNL     1       6.389   0.374  -0.420  1.00  0.00    -0.550 OA
ATOM      8  O   UNL     1       6.785  -1.881  -0.350  1.00  0.00    -0.550 OA
ENDBRANCH   5   6
ENDBRANCH   4   5
ENDBRANCH   3   4
ENDBRANCH   2   3
ENDBRANCH   1   2
BRANCH   1   9
ATOM      9  C   UNL     1       2.265  -2.456  -3.698  1.00  0.00     0.000 C 
BRANCH   9  10
ATOM     10  C   UNL     1       1.569  -3.779  -4.070  1.00  0.00    -0.000 C 
BRANCH  10  11
ATOM     11  C   UNL     1       0.667  -4.318  -2.947  1.00  0.00    -0.000 C 
BRANCH  11  12
ATOM     12  C   UNL     1       0.833  -5.831  -2.733  1.00  0.00    -0.000 C 
BRANCH  12  13
ATOM     13  C   UNL     1       1.074  -6.197  -1.260  1.00  0.00    -0.003 C 
ATOM     14  C   UNL     1       1.780  -7.545  -1.138  1.00  0.00     0.004 C 
ENDBRANCH  12  13
ENDBRANCH  11  12
ENDBRANCH  10  11
ENDBRANCH   9  10
ENDBRANCH   1   9
TORSDOF 10
ENDMDL
MODEL 6
REMARK VINA RESULT:    -3.749      1.094      2.281
REMARK INTER + INTRA:          -6.681
REMARK INTER:                  -5.978
REMARK INTRA:                  -0.703
REMARK UNBOUND:                -0.741
REMARK SMILES CCCCCCCCCCCC(=O)[O-]
REMARK SMILES IDX 7 1 8 2 9 3 10 4 11 5 12 6 13 7 14 8 6 9 5 10 4 11 3 12 2 13
REMARK SMILES IDX 1 14
REMARK H PARENT
REMARK Flexibility Score: inf
ROOT
ATOM      1  C   UNL     1       5.206  -1.469  -3.471  1.00  0.00     0.000 C 
ENDROOT
BRANCH   1   2
ATOM      2  C   UNL     1       6.216  -0.309  -3.416  1.00  0.00     0.000 C 
BRANCH   2   3
ATOM      3  C   UNL     1       6.387   0.259  -1.997  1.00  0.00     0.000 C 
BRANCH   3   4
ATOM      4  C   UNL     1       5.560  -0.506  -0.949  1.00  0.00     0.006 C 
BRANCH   4   5
ATOM      5  C   UNL     1       6.331  -0.705   0.362  1.00  0.00     0.053 C 
BRANCH   5   6
ATOM      6  C   UNL     1       5.844   0.217   1.438  1.00  0.00     0.041 C 
ATOM      7  O   UNL     1       5.291  -0.248   2.470  1.00  0.00    -0.550 OA
ATOM      8  O   UNL     1       6.024   1.589   1.313  1.00  0.00    -0.550 OA
ENDBRANCH   5   6
ENDBRANCH   4   5
ENDBRANCH   3   4
ENDBRANCH   2   3
ENDBRANCH   1   2
BRANCH   1   9
ATOM      9  C   UNL     1       3.920  -1.109  -4.237  1.00  0.00     0.000 C 
BRANCH   9  10
ATOM     10  C   UNL     1       2.660  -1.882  -3.804  1.00  0.00    -0.000 C 
BRANCH  10  11
ATOM     11  C   UNL     1       2.195  -2.907  -4.853  1.00  0.00    -0.000 C 
BRANCH  11  12
ATOM     12  C   UNL     1       2.333  -2.382  -6.291  1.00  0.00    -0.000 C 
BRANCH  12  13
ATOM     13  C   UNL     1       3.157  -3.319  -7.187  1.00  0.00    -0.003 C 
ATOM     14  C   UNL     1       4.469  -2.663  -7.609  1.00  0.00     0.004 C 
ENDBRANCH  12  13
ENDBRANCH  11  12
ENDBRANCH  10  11
ENDBRANCH   9  10
ENDBRANCH   1   9
TORSDOF 10
ENDMDL
MODEL 7
REMARK VINA RESULT:    -3.711      1.399      1.921
REMARK INTER + INTRA:          -6.621
REMARK INTER:                  -5.967
REMARK INTRA:                  -0.654
REMARK UNBOUND:                -0.741
REMARK SMILES CCCCCCCCCCCC(=O)[O-]
REMARK SMILES IDX 7 1 8 2 9 3 10 4 11 5 12 6 13 7 14 8 6 9 5 10 4 11 3 12 2 13
REMARK SMILES IDX 1 14
REMARK H PARENT
REMARK Flexibility Score: inf
ROOT
ATOM      1  C   UNL     1       6.398  -1.716  -2.191  1.00  0.00     0.000 C 
ENDROOT
BRANCH   1   2
ATOM      2  C   UNL     1       6.622  -1.210  -0.756  1.00  0.00     0.000 C 
BRANCH   2   3
ATOM      3  C   UNL     1       5.725  -0.011  -0.405  1.00  0.00     0.000 C 
BRANCH   3   4
ATOM      4  C   UNL     1       6.529   1.274  -0.144  1.00  0.00     0.006 C 
BRANCH   4   5
ATOM      5  C   UNL     1       5.620   2.481   0.121  1.00  0.00     0.053 C 
BRANCH   5   6
ATOM      6  C   UNL     1       5.156   2.524   1.545  1.00  0.00     0.041 C 
ATOM      7  O   UNL     1       4.061   3.072   1.839  1.00  0.00    -0.550 OA
ATOM      8  O   UNL     1       5.919   1.933   2.545  1.00  0.00    -0.550 OA
ENDBRANCH   5   6
ENDBRANCH   4   5
ENDBRANCH   3   4
ENDBRANCH   2   3
ENDBRANCH   1   2
BRANCH   1   9
ATOM      9  C   UNL     1       5.152  -1.102  -2.856  1.00  0.00     0.000 C 
BRANCH   9  10
ATOM     10  C   UNL     1       5.127  -1.171  -4.395  1.00  0.00    -0.000 C 
BRANCH  10  11
ATOM     11  C   UNL     1       3.712  -1.369  -4.963  1.00  0.00    -0.000 C 
BRANCH  11  12
ATOM     12  C   UNL     1       2.687  -1.736  -3.879  1.00  0.00    -0.000 C 
BRANCH  12  13
ATOM     13  C   UNL     1       1.927  -3.033  -4.196  1.00  0.00    -0.003 C 
ATOM     14  C   UNL     1       2.866  -4.093  -4.766  1.00  0.00     0.004 C 
ENDBRANCH  12  13
ENDBRANCH  11  12
ENDBRANCH  10  11
ENDBRANCH   9  10
ENDBRANCH   1   9
TORSDOF 10
ENDMDL
MODEL 8
REMARK VINA RESULT:    -3.699      3.640      6.337
REMARK INTER + INTRA:          -6.602
REMARK INTER:                  -5.857
REMARK INTRA:                  -0.745
REMARK UNBOUND:                -0.741
REMARK SMILES CCCCCCCCCCCC(=O)[O-]
REMARK SMILES IDX 7 1 8 2 9 3 10 4 11 5 12 6 13 7 14 8 6 9 5 10 4 11 3 12 2 13
REMARK SMILES IDX 1 14
REMARK H PARENT
REMARK Flexibility Score: inf
ROOT
ATOM      1  C   UNL     1       4.638  -2.477  -5.019  1.00  0.00     0.000 C 
ENDROOT
BRANCH   1   2
ATOM      2  C   UNL     1       3.473  -1.474  -4.969  1.00  0.00     0.000 C 
BRANCH   2   3
ATOM      3  C   UNL     1       2.279  -1.995  -4.153  1.00  0.00     0.000 C 
BRANCH   3   4
ATOM      4  C   UNL     1       2.099  -3.518  -4.273  1.00  0.00     0.006 C 
BRANCH   4   5
ATOM      5  C   UNL     1       1.078  -4.061  -3.265  1.00  0.00     0.053 C 
BRANCH   5   6
ATOM      6  C   UNL     1       1.187  -5.547  -3.109  1.00  0.00     0.041 C 
ATOM      7  O   UNL     1       1.314  -6.284  -4.123  1.00  0.00    -0.550 OA
ATOM      8  O   UNL     1       1.175  -6.117  -1.842  1.00  0.00    -0.550 OA
ENDBRANCH   5   6
ENDBRANCH   4   5
ENDBRANCH   3   4
ENDBRANCH   2   3
ENDBRANCH   1   2
BRANCH   1   9
ATOM      9  C   UNL     1       5.756  -2.150  -4.012  1.00  0.00     0.000 C 
BRANCH   9  10
ATOM     10  C   UNL     1       5.669  -0.755  -3.364  1.00  0.00    -0.000 C 
BRANCH  10  11
ATOM     11  C   UNL     1       5.309  -0.808  -1.870  1.00  0.00    -0.000 C 
BRANCH  11  12
ATOM     12  C   UNL     1       6.497  -0.447  -0.964  1.00  0.00    -0.000 C 
BRANCH  12  13
ATOM     13  C   UNL     1       6.872  -1.583   0.000  1.00  0.00    -0.003 C 
ATOM     14  C   UNL     1       7.474  -2.766  -0.753  1.00  0.00     0.004 C 
ENDBRANCH  12  13
ENDBRANCH  11  12
ENDBRANCH  10  11
ENDBRANCH   9  10
ENDBRANCH   1   9
TORSDOF 10
ENDMDL
MODEL 9
REMARK VINA RESULT:    -3.662      3.620      6.020
REMARK INTER + INTRA:          -6.544
REMARK INTER:                  -5.513
REMARK INTRA:                  -1.030
REMARK UNBOUND:                -0.741
REMARK SMILES CCCCCCCCCCCC(=O)[O-]
REMARK SMILES IDX 7 1 8 2 9 3 10 4 11 5 12 6 13 7 14 8 6 9 5 10 4 11 3 12 2 13
REMARK SMILES IDX 1 14
REMARK H PARENT
REMARK Flexibility Score: inf
ROOT
ATOM      1  C   UNL     1       6.940  -3.346  -3.954  1.00  0.00     0.000 C 
ENDROOT
BRANCH   1   2
ATOM      2  C   UNL     1       5.767  -2.762  -4.760  1.00  0.00     0.000 C 
BRANCH   2   3
ATOM      3  C   UNL     1       5.245  -1.441  -4.172  1.00  0.00     0.000 C 
BRANCH   3   4
ATOM      4  C   UNL     1       3.915  -1.613  -3.418  1.00  0.00     0.006 C 
BRANCH   4   5
ATOM      5  C   UNL     1       2.710  -1.623  -4.368  1.00  0.00     0.053 C 
BRANCH   5   6
ATOM      6  C   UNL     1       2.091  -2.984  -4.465  1.00  0.00     0.041 C 
ATOM      7  O   UNL     1       2.256  -3.684  -5.499  1.00  0.00    -0.550 OA
ATOM      8  O   UNL     1       1.353  -3.490  -3.402  1.00  0.00    -0.550 OA
ENDBRANCH   5   6
ENDBRANCH   4   5
ENDBRANCH   3   4
ENDBRANCH   2   3
ENDBRANCH   1   2
BRANCH   1   9
ATOM      9  C   UNL     1       7.484  -2.370  -2.894  1.00  0.00     0.000 C 
BRANCH   9  10
ATOM     10  C   UNL     1       7.624  -2.952  -1.475  1.00  0.00    -0.000 C 
BRANCH  10  11
ATOM     11  C   UNL     1       7.081  -2.013  -0.385  1.00  0.00    -0.000 C 
BRANCH  11  12
ATOM     12  C   UNL     1       6.822  -0.591  -0.908  1.00  0.00    -0.000 C 
BRANCH  12  13
ATOM     13  C   UNL     1       5.460  -0.035  -0.463  1.00  0.00    -0.003 C 
ATOM     14  C   UNL     1       5.607   1.358   0.143  1.00  0.00     0.004 C 
ENDBRANCH  12  13
ENDBRANCH  11  12
ENDBRANCH  10  11
ENDBRANCH   9  10
ENDBRANCH   1   9
TORSDOF 10
ENDMDL
