MODEL 1
REMARK VINA RESULT:     0.191      0.000      0.000
REMARK INTER + INTRA:          -0.404
REMARK INTER:                   0.482
REMARK INTRA:                  -0.886
REMARK UNBOUND:                -0.886
REMARK SMILES CCCCCCCCCCCCCCCCCCCCCCCCCCCC(=O)[O-]
REMARK SMILES IDX 15 1 16 2 17 3 18 4 19 5 20 6 21 7 22 8 23 9 24 10 25 11
REMARK SMILES IDX 26 12 27 13 28 14 29 15 30 16 14 17 13 18 12 19 11 20 10 21
REMARK SMILES IDX 9 22 8 23 7 24 6 25 5 26 4 27 3 28 2 29 1 30
REMARK H PARENT
REMARK Flexibility Score: inf
ROOT
ATOM      1  C   UNL     1      33.903  30.053  19.746  1.00  0.00     0.000 C 
ENDROOT
BRANCH   1   2
ATOM      2  C   UNL     1      34.296  28.578  19.563  1.00  0.00     0.000 C 
BRANCH   2   3
ATOM      3  C   UNL     1      35.798  28.395  19.285  1.00  0.00     0.000 C 
BRANCH   3   4
ATOM      4  C   UNL     1      36.074  27.765  17.910  1.00  0.00     0.000 C 
BRANCH   4   5
ATOM      5  C   UNL     1      35.917  28.773  16.759  1.00  0.00     0.000 C 
BRANCH   5   6
ATOM      6  C   UNL     1      36.866  28.484  15.584  1.00  0.00     0.000 C 
BRANCH   6   7
ATOM      7  C   UNL     1      36.634  27.094  14.964  1.00  0.00     0.000 C 
BRANCH   7   8
ATOM      8  C   UNL     1      36.330  27.164  13.458  1.00  0.00     0.000 C 
BRANCH   8   9
ATOM      9  C   UNL     1      35.072  27.996  13.145  1.00  0.00     0.000 C 
BRANCH   9  10
ATOM     10  C   UNL     1      33.937  27.749  14.151  1.00  0.00     0.000 C 
BRANCH  10  11
ATOM     11  C   UNL     1      33.102  29.008  14.426  1.00  0.00     0.000 C 
BRANCH  11  12
ATOM     12  C   UNL     1      33.239  30.014  13.273  1.00  0.00     0.006 C 
BRANCH  12  13
ATOM     13  C   UNL     1      31.902  30.272  12.565  1.00  0.00     0.053 C 
BRANCH  13  14
ATOM     14  C   UNL     1      31.389  31.656  12.823  1.00  0.00     0.041 C 
ATOM     15  O   UNL     1      30.207  31.963  12.517  1.00  0.00    -0.550 OA
ATOM     16  O   UNL     1      32.208  32.600  13.430  1.00  0.00    -0.550 OA
ENDBRANCH  13  14
ENDBRANCH  12  13
ENDBRANCH  11  12
ENDBRANCH  10  11
ENDBRANCH   9  10
ENDBRANCH   8   9
ENDBRANCH   7   8
ENDBRANCH   6   7
ENDBRANCH   5   6
ENDBRANCH   4   5
ENDBRANCH   3   4
ENDBRANCH   2   3
ENDBRANCH   1   2
BRANCH   1  17
ATOM     17  C   UNL     1      34.979  30.863  20.491  1.00  0.00     0.000 C 
BRANCH  17  18
ATOM     18  C   UNL     1      35.852  29.987  21.418  1.00  0.00     0.000 C 
BRANCH  18  19
ATOM     19  C   UNL     1      37.058  30.731  22.023  1.00  0.00     0.000 C 
BRANCH  19  20
ATOM     20  C   UNL     1      36.749  32.156  22.516  1.00  0.00     0.000 C 
BRANCH  20  21
ATOM     21  C   UNL     1      37.125  32.390  23.997  1.00  0.00     0.000 C 
BRANCH  21  22
ATOM     22  C   UNL     1      35.947  32.927  24.826  1.00  0.00    -0.000 C 
BRANCH  22  23
ATOM     23  C   UNL     1      34.884  31.848  25.125  1.00  0.00    -0.000 C 
BRANCH  23  24
ATOM     24  C   UNL     1      35.416  30.404  25.056  1.00  0.00    -0.000 C 
BRANCH  24  25
ATOM     25  C   UNL     1      34.338  29.308  24.966  1.00  0.00    -0.000 C 
BRANCH  25  26
ATOM     26  C   UNL     1      34.874  27.864  25.013  1.00  0.00    -0.000 C 
BRANCH  26  27
ATOM     27  C   UNL     1      36.406  27.798  25.123  1.00  0.00    -0.000 C 
BRANCH  27  28
ATOM     28  C   UNL     1      37.042  26.962  24.000  1.00  0.00    -0.000 C 
BRANCH  28  29
ATOM     29  C   UNL     1      36.203  26.968  22.714  1.00  0.00    -0.003 C 
ATOM     30  C   UNL     1      37.093  27.024  21.476  1.00  0.00     0.004 C 
ENDBRANCH  28  29
ENDBRANCH  27  28
ENDBRANCH  26  27
ENDBRANCH  25  26
ENDBRANCH  24  25
ENDBRANCH  23  24
ENDBRANCH  22  23
ENDBRANCH  21  22
ENDBRANCH  20  21
ENDBRANCH  19  20
ENDBRANCH  18  19
ENDBRANCH  17  18
ENDBRANCH   1  17
TORSDOF 26
ENDMDL
MODEL 2
REMARK VINA RESULT:     0.520      1.409      3.857
REMARK INTER + INTRA:           0.425
REMARK INTER:                   0.272
REMARK INTRA:                   0.153
REMARK UNBOUND:                -0.886
REMARK SMILES CCCCCCCCCCCCCCCCCCCCCCCCCCCC(=O)[O-]
REMARK SMILES IDX 15 1 16 2 17 3 18 4 19 5 20 6 21 7 22 8 23 9 24 10 25 11
REMARK SMILES IDX 26 12 27 13 28 14 29 15 30 16 14 17 13 18 12 19 11 20 10 21
REMARK SMILES IDX 9 22 8 23 7 24 6 25 5 26 4 27 3 28 2 29 1 30
REMARK H PARENT
REMARK Flexibility Score: inf
ROOT
ATOM      1  C   UNL     1      34.588  28.192  18.108  1.00  0.00     0.000 C 
ENDROOT
BRANCH   1   2
ATOM      2  C   UNL     1      34.428  28.467  16.603  1.00  0.00     0.000 C 
BRANCH   2   3
ATOM      3  C   UNL     1      34.856  27.272  15.734  1.00  0.00     0.000 C 
BRANCH   3   4
ATOM      4  C   UNL     1      36.376  27.039  15.754  1.00  0.00     0.000 C 
BRANCH   4   5
ATOM      5  C   UNL     1      37.104  27.807  14.638  1.00  0.00     0.000 C 
BRANCH   5   6
ATOM      6  C   UNL     1      36.432  27.634  13.266  1.00  0.00     0.000 C 
BRANCH   6   7
ATOM      7  C   UNL     1      35.039  26.987  13.365  1.00  0.00     0.000 C 
BRANCH   7   8
ATOM      8  C   UNL     1      34.330  26.901  12.004  1.00  0.00     0.000 C 
BRANCH   8   9
ATOM      9  C   UNL     1      33.310  28.036  11.793  1.00  0.00     0.000 C 
BRANCH   9  10
ATOM     10  C   UNL     1      32.462  28.306  13.045  1.00  0.00     0.000 C 
BRANCH  10  11
ATOM     11  C   UNL     1      33.031  29.436  13.916  1.00  0.00     0.000 C 
BRANCH  11  12
ATOM     12  C   UNL     1      33.152  30.737  13.108  1.00  0.00     0.006 C 
BRANCH  12  13
ATOM     13  C   UNL     1      32.140  31.799  13.559  1.00  0.00     0.053 C 
BRANCH  13  14
ATOM     14  C   UNL     1      30.937  31.843  12.668  1.00  0.00     0.041 C 
ATOM     15  O   UNL     1      30.072  30.929  12.725  1.00  0.00    -0.550 OA
ATOM     16  O   UNL     1      30.754  32.908  11.796  1.00  0.00    -0.550 OA
ENDBRANCH  13  14
ENDBRANCH  12  13
ENDBRANCH  11  12
ENDBRANCH  10  11
ENDBRANCH   9  10
ENDBRANCH   8   9
ENDBRANCH   7   8
ENDBRANCH   6   7
ENDBRANCH   5   6
ENDBRANCH   4   5
ENDBRANCH   3   4
ENDBRANCH   2   3
ENDBRANCH   1   2
BRANCH   1  17
ATOM     17  C   UNL     1      35.795  28.926  18.717  1.00  0.00     0.000 C 
BRANCH  17  18
ATOM     18  C   UNL     1      36.783  27.971  19.424  1.00  0.00     0.000 C 
BRANCH  18  19
ATOM     19  C   UNL     1      36.101  26.931  20.333  1.00  0.00     0.000 C 
BRANCH  19  20
ATOM     20  C   UNL     1      35.856  27.405  21.776  1.00  0.00     0.000 C 
BRANCH  20  21
ATOM     21  C   UNL     1      37.120  27.357  22.663  1.00  0.00     0.000 C 
BRANCH  21  22
ATOM     22  C   UNL     1      36.796  27.058  24.137  1.00  0.00    -0.000 C 
BRANCH  22  23
ATOM     23  C   UNL     1      35.387  27.537  24.548  1.00  0.00    -0.000 C 
BRANCH  23  24
ATOM     24  C   UNL     1      35.195  29.064  24.470  1.00  0.00    -0.000 C 
BRANCH  24  25
ATOM     25  C   UNL     1      36.469  29.901  24.688  1.00  0.00    -0.000 C 
BRANCH  25  26
ATOM     26  C   UNL     1      36.867  30.799  23.501  1.00  0.00    -0.000 C 
BRANCH  26  27
ATOM     27  C   UNL     1      36.288  32.220  23.604  1.00  0.00    -0.000 C 
BRANCH  27  28
ATOM     28  C   UNL     1      37.113  33.126  24.533  1.00  0.00    -0.000 C 
BRANCH  28  29
ATOM     29  C   UNL     1      36.284  34.281  25.117  1.00  0.00    -0.003 C 
ATOM     30  C   UNL     1      36.927  35.630  24.808  1.00  0.00     0.004 C 
ENDBRANCH  28  29
ENDBRANCH  27  28
ENDBRANCH  26  27
ENDBRANCH  25  26
ENDBRANCH  24  25
ENDBRANCH  23  24
ENDBRANCH  22  23
ENDBRANCH  21  22
ENDBRANCH  20  21
ENDBRANCH  19  20
ENDBRANCH  18  19
ENDBRANCH  17  18
ENDBRANCH   1  17
TORSDOF 26
ENDMDL
MODEL 3
REMARK VINA RESULT:     2.218      3.113     10.403
REMARK INTER + INTRA:           4.704
REMARK INTER:                   5.823
REMARK INTRA:                  -1.119
REMARK UNBOUND:                -0.886
REMARK SMILES CCCCCCCCCCCCCCCCCCCCCCCCCCCC(=O)[O-]
REMARK SMILES IDX 15 1 16 2 17 3 18 4 19 5 20 6 21 7 22 8 23 9 24 10 25 11
REMARK SMILES IDX 26 12 27 13 28 14 29 15 30 16 14 17 13 18 12 19 11 20 10 21
REMARK SMILES IDX 9 22 8 23 7 24 6 25 5 26 4 27 3 28 2 29 1 30
REMARK H PARENT
REMARK Flexibility Score: inf
ROOT
ATOM      1  C   UNL     1      34.743  27.895  16.421  1.00  0.00     0.000 C 
ENDROOT
BRANCH   1   2
ATOM      2  C   UNL     1      36.088  28.447  16.923  1.00  0.00     0.000 C 
BRANCH   2   3
ATOM      3  C   UNL     1      36.302  28.206  18.428  1.00  0.00     0.000 C 
BRANCH   3   4
ATOM      4  C   UNL     1      35.568  26.955  18.938  1.00  0.00     0.000 C 
BRANCH   4   5
ATOM      5  C   UNL     1      35.528  26.880  20.474  1.00  0.00     0.000 C 
BRANCH   5   6
ATOM      6  C   UNL     1      36.834  27.367  21.124  1.00  0.00     0.000 C 
BRANCH   6   7
ATOM      7  C   UNL     1      36.857  27.142  22.647  1.00  0.00     0.000 C 
BRANCH   7   8
ATOM      8  C   UNL     1      35.500  27.436  23.308  1.00  0.00     0.000 C 
BRANCH   8   9
ATOM      9  C   UNL     1      35.114  28.925  23.230  1.00  0.00     0.000 C 
BRANCH   9  10
ATOM     10  C   UNL     1      35.646  29.735  24.422  1.00  0.00     0.000 C 
BRANCH  10  11
ATOM     11  C   UNL     1      37.031  30.343  24.157  1.00  0.00     0.000 C 
BRANCH  11  12
ATOM     12  C   UNL     1      37.125  30.873  22.718  1.00  0.00     0.006 C 
BRANCH  12  13
ATOM     13  C   UNL     1      36.087  31.967  22.432  1.00  0.00     0.053 C 
BRANCH  13  14
ATOM     14  C   UNL     1      36.668  33.342  22.567  1.00  0.00     0.041 C 
ATOM     15  O   UNL     1      36.913  34.031  21.543  1.00  0.00    -0.550 OA
ATOM     16  O   UNL     1      36.911  33.873  23.827  1.00  0.00    -0.550 OA
ENDBRANCH  13  14
ENDBRANCH  12  13
ENDBRANCH  11  12
ENDBRANCH  10  11
ENDBRANCH   9  10
ENDBRANCH   8   9
ENDBRANCH   7   8
ENDBRANCH   6   7
ENDBRANCH   5   6
ENDBRANCH   4   5
ENDBRANCH   3   4
ENDBRANCH   2   3
ENDBRANCH   1   2
BRANCH   1  17
ATOM     17  C   UNL     1      34.870  27.166  15.072  1.00  0.00     0.000 C 
BRANCH  17  18
ATOM     18  C   UNL     1      36.143  27.568  14.292  1.00  0.00     0.000 C 
BRANCH  18  19
ATOM     19  C   UNL     1      36.240  26.938  12.890  1.00  0.00     0.000 C 
BRANCH  19  20
ATOM     20  C   UNL     1      34.907  26.877  12.123  1.00  0.00     0.000 C 
BRANCH  20  21
ATOM     21  C   UNL     1      34.542  28.202  11.416  1.00  0.00     0.000 C 
BRANCH  21  22
ATOM     22  C   UNL     1      33.137  28.702  11.790  1.00  0.00    -0.000 C 
BRANCH  22  23
ATOM     23  C   UNL     1      32.659  28.174  13.159  1.00  0.00    -0.000 C 
BRANCH  23  24
ATOM     24  C   UNL     1      31.952  29.232  14.029  1.00  0.00    -0.000 C 
BRANCH  24  25
ATOM     25  C   UNL     1      32.569  30.643  13.982  1.00  0.00    -0.000 C 
BRANCH  25  26
ATOM     26  C   UNL     1      32.790  31.208  12.566  1.00  0.00    -0.000 C 
BRANCH  26  27
ATOM     27  C   UNL     1      31.761  32.284  12.184  1.00  0.00    -0.000 C 
BRANCH  27  28
ATOM     28  C   UNL     1      30.647  32.434  13.233  1.00  0.00    -0.000 C 
BRANCH  28  29
ATOM     29  C   UNL     1      29.262  32.634  12.599  1.00  0.00    -0.003 C 
ATOM     30  C   UNL     1      29.023  31.631  11.474  1.00  0.00     0.004 C 
ENDBRANCH  28  29
ENDBRANCH  27  28
ENDBRANCH  26  27
ENDBRANCH  25  26
ENDBRANCH  24  25
ENDBRANCH  23  24
ENDBRANCH  22  23
ENDBRANCH  21  22
ENDBRANCH  20  21
ENDBRANCH  19  20
ENDBRANCH  18  19
ENDBRANCH  17  18
ENDBRANCH   1  17
TORSDOF 26
ENDMDL
MODEL 4
REMARK VINA RESULT:     2.428      3.512     10.617
REMARK INTER + INTRA:           5.231
REMARK INTER:                   6.479
REMARK INTRA:                  -1.248
REMARK UNBOUND:                -0.886
REMARK SMILES CCCCCCCCCCCCCCCCCCCCCCCCCCCC(=O)[O-]
REMARK SMILES IDX 15 1 16 2 17 3 18 4 19 5 20 6 21 7 22 8 23 9 24 10 25 11
REMARK SMILES IDX 26 12 27 13 28 14 29 15 30 16 14 17 13 18 12 19 11 20 10 21
REMARK SMILES IDX 9 22 8 23 7 24 6 25 5 26 4 27 3 28 2 29 1 30
REMARK H PARENT
REMARK Flexibility Score: inf
ROOT
ATOM      1  C   UNL     1      35.217  28.764  17.539  1.00  0.00     0.000 C 
ENDROOT
BRANCH   1   2
ATOM      2  C   UNL     1      34.970  27.361  18.119  1.00  0.00     0.000 C 
BRANCH   2   3
ATOM      3  C   UNL     1      36.012  26.969  19.182  1.00  0.00     0.000 C 
BRANCH   3   4
ATOM      4  C   UNL     1      35.649  27.482  20.585  1.00  0.00     0.000 C 
BRANCH   4   5
ATOM      5  C   UNL     1      36.564  26.904  21.678  1.00  0.00     0.000 C 
BRANCH   5   6
ATOM      6  C   UNL     1      35.889  26.875  23.060  1.00  0.00     0.000 C 
BRANCH   6   7
ATOM      7  C   UNL     1      36.154  28.154  23.875  1.00  0.00     0.000 C 
BRANCH   7   8
ATOM      8  C   UNL     1      37.125  29.114  23.168  1.00  0.00     0.000 C 
BRANCH   8   9
ATOM      9  C   UNL     1      37.000  30.563  23.675  1.00  0.00     0.000 C 
BRANCH   9  10
ATOM     10  C   UNL     1      37.117  31.595  22.542  1.00  0.00     0.000 C 
BRANCH  10  11
ATOM     11  C   UNL     1      36.564  32.973  22.935  1.00  0.00     0.000 C 
BRANCH  11  12
ATOM     12  C   UNL     1      36.950  33.322  24.381  1.00  0.00     0.006 C 
BRANCH  12  13
ATOM     13  C   UNL     1      36.193  34.549  24.906  1.00  0.00     0.053 C 
BRANCH  13  14
ATOM     14  C   UNL     1      36.617  35.808  24.213  1.00  0.00     0.041 C 
ATOM     15  O   UNL     1      37.065  35.766  23.038  1.00  0.00    -0.550 OA
ATOM     16  O   UNL     1      36.489  37.033  24.856  1.00  0.00    -0.550 OA
ENDBRANCH  13  14
ENDBRANCH  12  13
ENDBRANCH  11  12
ENDBRANCH  10  11
ENDBRANCH   9  10
ENDBRANCH   8   9
ENDBRANCH   7   8
ENDBRANCH   6   7
ENDBRANCH   5   6
ENDBRANCH   4   5
ENDBRANCH   3   4
ENDBRANCH   2   3
ENDBRANCH   1   2
BRANCH   1  17
ATOM     17  C   UNL     1      36.711  29.064  17.333  1.00  0.00     0.000 C 
BRANCH  17  18
ATOM     18  C   UNL     1      37.110  29.122  15.840  1.00  0.00     0.000 C 
BRANCH  18  19
ATOM     19  C   UNL     1      36.958  27.779  15.102  1.00  0.00     0.000 C 
BRANCH  19  20
ATOM     20  C   UNL     1      37.033  27.879  13.569  1.00  0.00     0.000 C 
BRANCH  20  21
ATOM     21  C   UNL     1      35.887  27.133  12.847  1.00  0.00     0.000 C 
BRANCH  21  22
ATOM     22  C   UNL     1      34.557  27.212  13.615  1.00  0.00    -0.000 C 
BRANCH  22  23
ATOM     23  C   UNL     1      33.407  27.789  12.762  1.00  0.00    -0.000 C 
BRANCH  23  24
ATOM     24  C   UNL     1      33.840  28.910  11.798  1.00  0.00    -0.000 C 
BRANCH  24  25
ATOM     25  C   UNL     1      32.913  30.140  11.759  1.00  0.00    -0.000 C 
BRANCH  25  26
ATOM     26  C   UNL     1      31.712  30.079  12.722  1.00  0.00    -0.000 C 
BRANCH  26  27
ATOM     27  C   UNL     1      31.643  31.286  13.671  1.00  0.00    -0.000 C 
BRANCH  27  28
ATOM     28  C   UNL     1      30.342  32.090  13.509  1.00  0.00    -0.000 C 
BRANCH  28  29
ATOM     29  C   UNL     1      29.308  31.366  12.635  1.00  0.00    -0.003 C 
ATOM     30  C   UNL     1      28.911  32.218  11.433  1.00  0.00     0.004 C 
ENDBRANCH  28  29
ENDBRANCH  27  28
ENDBRANCH  26  27
ENDBRANCH  25  26
ENDBRANCH  24  25
ENDBRANCH  23  24
ENDBRANCH  22  23
ENDBRANCH  21  22
ENDBRANCH  20  21
ENDBRANCH  19  20
ENDBRANCH  18  19
ENDBRANCH  17  18
ENDBRANCH   1  17
TORSDOF 26
ENDMDL
MODEL 5
REMARK VINA RESULT:     2.480      1.534      3.837
REMARK INTER + INTRA:           5.364
REMARK INTER:                   5.470
REMARK INTRA:                  -0.106
REMARK UNBOUND:                -0.886
REMARK SMILES CCCCCCCCCCCCCCCCCCCCCCCCCCCC(=O)[O-]
REMARK SMILES IDX 15 1 16 2 17 3 18 4 19 5 20 6 21 7 22 8 23 9 24 10 25 11
REMARK SMILES IDX 26 12 27 13 28 14 29 15 30 16 14 17 13 18 12 19 11 20 10 21
REMARK SMILES IDX 9 22 8 23 7 24 6 25 5 26 4 27 3 28 2 29 1 30
REMARK H PARENT
REMARK Flexibility Score: inf
ROOT
ATOM      1  C   UNL     1      34.106  29.463  16.892  1.00  0.00     0.000 C 
ENDROOT
BRANCH   1   2
ATOM      2  C   UNL     1      34.360  28.126  16.176  1.00  0.00     0.000 C 
BRANCH   2   3
ATOM      3  C   UNL     1      33.561  27.995  14.867  1.00  0.00     0.000 C 
BRANCH   3   4
ATOM      4  C   UNL     1      34.111  26.895  13.945  1.00  0.00     0.000 C 
BRANCH   4   5
ATOM      5  C   UNL     1      35.629  27.013  13.727  1.00  0.00     0.000 C 
BRANCH   5   6
ATOM      6  C   UNL     1      36.018  26.977  12.239  1.00  0.00     0.000 C 
BRANCH   6   7
ATOM      7  C   UNL     1      34.795  26.875  11.310  1.00  0.00     0.000 C 
BRANCH   7   8
ATOM      8  C   UNL     1      34.310  28.250  10.821  1.00  0.00     0.000 C 
BRANCH   8   9
ATOM      9  C   UNL     1      33.132  28.793  11.651  1.00  0.00     0.000 C 
BRANCH   9  10
ATOM     10  C   UNL     1      33.465  30.121  12.348  1.00  0.00     0.000 C 
BRANCH  10  11
ATOM     11  C   UNL     1      32.387  30.551  13.354  1.00  0.00     0.000 C 
BRANCH  11  12
ATOM     12  C   UNL     1      32.196  32.075  13.327  1.00  0.00     0.006 C 
BRANCH  12  13
ATOM     13  C   UNL     1      30.737  32.475  13.072  1.00  0.00     0.053 C 
BRANCH  13  14
ATOM     14  C   UNL     1      29.898  31.304  12.658  1.00  0.00     0.041 C 
ATOM     15  O   UNL     1      29.701  30.351  13.457  1.00  0.00    -0.550 OA
ATOM     16  O   UNL     1      29.310  31.279  11.400  1.00  0.00    -0.550 OA
ENDBRANCH  13  14
ENDBRANCH  12  13
ENDBRANCH  11  12
ENDBRANCH  10  11
ENDBRANCH   9  10
ENDBRANCH   8   9
ENDBRANCH   7   8
ENDBRANCH   6   7
ENDBRANCH   5   6
ENDBRANCH   4   5
ENDBRANCH   3   4
ENDBRANCH   2   3
ENDBRANCH   1   2
BRANCH   1  17
ATOM     17  C   UNL     1      34.200  29.340  18.423  1.00  0.00     0.000 C 
BRANCH  17  18
ATOM     18  C   UNL     1      34.023  27.887  18.919  1.00  0.00     0.000 C 
BRANCH  18  19
ATOM     19  C   UNL     1      35.326  27.065  18.919  1.00  0.00     0.000 C 
BRANCH  19  20
ATOM     20  C   UNL     1      35.962  26.875  20.307  1.00  0.00     0.000 C 
BRANCH  20  21
ATOM     21  C   UNL     1      37.002  27.962  20.661  1.00  0.00     0.000 C 
BRANCH  21  22
ATOM     22  C   UNL     1      37.124  28.190  22.177  1.00  0.00    -0.000 C 
BRANCH  22  23
ATOM     23  C   UNL     1      35.832  27.830  22.942  1.00  0.00    -0.000 C 
BRANCH  23  24
ATOM     24  C   UNL     1      35.083  29.046  23.518  1.00  0.00    -0.000 C 
BRANCH  24  25
ATOM     25  C   UNL     1      35.448  29.419  24.968  1.00  0.00    -0.000 C 
BRANCH  25  26
ATOM     26  C   UNL     1      36.738  30.249  25.119  1.00  0.00    -0.000 C 
BRANCH  26  27
ATOM     27  C   UNL     1      36.545  31.728  24.748  1.00  0.00    -0.000 C 
BRANCH  27  28
ATOM     28  C   UNL     1      35.910  31.909  23.360  1.00  0.00    -0.000 C 
BRANCH  28  29
ATOM     29  C   UNL     1      36.933  32.336  22.295  1.00  0.00    -0.003 C 
ATOM     30  C   UNL     1      36.967  31.345  21.136  1.00  0.00     0.004 C 
ENDBRANCH  28  29
ENDBRANCH  27  28
ENDBRANCH  26  27
ENDBRANCH  25  26
ENDBRANCH  24  25
ENDBRANCH  23  24
ENDBRANCH  22  23
ENDBRANCH  21  22
ENDBRANCH  20  21
ENDBRANCH  19  20
ENDBRANCH  18  19
ENDBRANCH  17  18
ENDBRANCH   1  17
TORSDOF 26
ENDMDL
MODEL 6
REMARK VINA RESULT:     2.864      1.662      4.565
REMARK INTER + INTRA:           6.331
REMARK INTER:                   6.276
REMARK INTRA:                   0.055
REMARK UNBOUND:                -0.886
REMARK SMILES CCCCCCCCCCCCCCCCCCCCCCCCCCCC(=O)[O-]
REMARK SMILES IDX 15 1 16 2 17 3 18 4 19 5 20 6 21 7 22 8 23 9 24 10 25 11
REMARK SMILES IDX 26 12 27 13 28 14 29 15 30 16 14 17 13 18 12 19 11 20 10 21
REMARK SMILES IDX 9 22 8 23 7 24 6 25 5 26 4 27 3 28 2 29 1 30
REMARK H PARENT
REMARK Flexibility Score: inf
ROOT
ATOM      1  C   UNL     1      35.087  28.119  15.923  1.00  0.00     0.000 C 
ENDROOT
BRANCH   1   2
ATOM      2  C   UNL     1      36.423  27.488  15.497  1.00  0.00     0.000 C 
BRANCH   2   3
ATOM      3  C   UNL     1      36.871  27.939  14.096  1.00  0.00     0.000 C 
BRANCH   3   4
ATOM      4  C   UNL     1      36.605  26.875  13.018  1.00  0.00     0.000 C 
BRANCH   4   5
ATOM      5  C   UNL     1      35.144  26.877  12.537  1.00  0.00     0.000 C 
BRANCH   5   6
ATOM      6  C   UNL     1      35.026  26.889  11.003  1.00  0.00     0.000 C 
BRANCH   6   7
ATOM      7  C   UNL     1      34.026  27.942  10.494  1.00  0.00     0.000 C 
BRANCH   7   8
ATOM      8  C   UNL     1      34.254  29.326  11.126  1.00  0.00     0.000 C 
BRANCH   8   9
ATOM      9  C   UNL     1      34.014  29.329  12.648  1.00  0.00     0.000 C 
BRANCH   9  10
ATOM     10  C   UNL     1      32.569  29.700  13.016  1.00  0.00     0.000 C 
BRANCH  10  11
ATOM     11  C   UNL     1      31.959  30.733  12.057  1.00  0.00     0.000 C 
BRANCH  11  12
ATOM     12  C   UNL     1      31.623  32.034  12.801  1.00  0.00     0.006 C 
BRANCH  12  13
ATOM     13  C   UNL     1      30.305  32.657  12.320  1.00  0.00     0.053 C 
BRANCH  13  14
ATOM     14  C   UNL     1      29.198  31.649  12.260  1.00  0.00     0.041 C 
ATOM     15  O   UNL     1      28.266  31.779  11.423  1.00  0.00    -0.550 OA
ATOM     16  O   UNL     1      29.210  30.550  13.109  1.00  0.00    -0.550 OA
ENDBRANCH  13  14
ENDBRANCH  12  13
ENDBRANCH  11  12
ENDBRANCH  10  11
ENDBRANCH   9  10
ENDBRANCH   8   9
ENDBRANCH   7   8
ENDBRANCH   6   7
ENDBRANCH   5   6
ENDBRANCH   4   5
ENDBRANCH   3   4
ENDBRANCH   2   3
ENDBRANCH   1   2
BRANCH   1  17
ATOM     17  C   UNL     1      35.153  28.755  17.322  1.00  0.00     0.000 C 
BRANCH  17  18
ATOM     18  C   UNL     1      36.424  28.353  18.104  1.00  0.00     0.000 C 
BRANCH  18  19
ATOM     19  C   UNL     1      36.174  27.302  19.202  1.00  0.00     0.000 C 
BRANCH  19  20
ATOM     20  C   UNL     1      36.761  27.661  20.577  1.00  0.00     0.000 C 
BRANCH  20  21
ATOM     21  C   UNL     1      37.072  29.167  20.739  1.00  0.00     0.000 C 
BRANCH  21  22
ATOM     22  C   UNL     1      36.833  29.667  22.174  1.00  0.00    -0.000 C 
BRANCH  22  23
ATOM     23  C   UNL     1      35.626  28.985  22.852  1.00  0.00    -0.000 C 
BRANCH  23  24
ATOM     24  C   UNL     1      35.747  28.867  24.383  1.00  0.00    -0.000 C 
BRANCH  24  25
ATOM     25  C   UNL     1      36.130  30.167  25.116  1.00  0.00    -0.000 C 
BRANCH  25  26
ATOM     26  C   UNL     1      36.033  31.446  24.262  1.00  0.00    -0.000 C 
BRANCH  26  27
ATOM     27  C   UNL     1      36.931  32.582  24.780  1.00  0.00    -0.000 C 
BRANCH  27  28
ATOM     28  C   UNL     1      36.891  33.824  23.875  1.00  0.00    -0.000 C 
BRANCH  28  29
ATOM     29  C   UNL     1      36.282  35.046  24.579  1.00  0.00    -0.003 C 
ATOM     30  C   UNL     1      36.851  36.346  24.017  1.00  0.00     0.004 C 
ENDBRANCH  28  29
ENDBRANCH  27  28
ENDBRANCH  26  27
ENDBRANCH  25  26
ENDBRANCH  24  25
ENDBRANCH  23  24
ENDBRANCH  22  23
ENDBRANCH  21  22
ENDBRANCH  20  21
ENDBRANCH  19  20
ENDBRANCH  18  19
ENDBRANCH  17  18
ENDBRANCH   1  17
TORSDOF 26
ENDMDL
