MODEL 1
REMARK VINA RESULT:    -4.363      0.000      0.000
REMARK INTER + INTRA:         -16.132
REMARK INTER:                 -11.506
REMARK INTRA:                  -4.627
REMARK UNBOUND:                -4.627
REMARK SMILES CCCCCCCCCCCCCCCCCCCCCCCCCCCCCC(=O)[O-]
REMARK SMILES IDX 16 1 17 2 18 3 19 4 20 5 21 6 22 7 23 8 24 9 25 10 26 11
REMARK SMILES IDX 27 12 28 13 29 14 30 15 31 16 32 17 15 18 14 19 13 20 12 21
REMARK SMILES IDX 11 22 10 23 9 24 8 25 7 26 6 27 5 28 4 29 3 30 2 31 1 32
REMARK H PARENT
REMARK Flexibility Score: inf
ROOT
ATOM      1  C   UNL     1      15.495   4.124  -0.154  1.00  0.00     0.000 C 
ENDROOT
BRANCH   1   2
ATOM      2  C   UNL     1      14.311   4.099   0.825  1.00  0.00     0.000 C 
BRANCH   2   3
ATOM      3  C   UNL     1      14.518   3.112   1.984  1.00  0.00     0.000 C 
BRANCH   3   4
ATOM      4  C   UNL     1      13.402   2.056   2.062  1.00  0.00     0.000 C 
BRANCH   4   5
ATOM      5  C   UNL     1      13.892   0.644   1.697  1.00  0.00     0.000 C 
BRANCH   5   6
ATOM      6  C   UNL     1      13.377  -0.482   2.615  1.00  0.00     0.000 C 
BRANCH   6   7
ATOM      7  C   UNL     1      12.150  -0.087   3.465  1.00  0.00     0.000 C 
BRANCH   7   8
ATOM      8  C   UNL     1      11.900  -1.005   4.680  1.00  0.00     0.000 C 
BRANCH   8   9
ATOM      9  C   UNL     1      11.481  -0.276   5.975  1.00  0.00     0.000 C 
BRANCH   9  10
ATOM     10  C   UNL     1      12.626   0.031   6.962  1.00  0.00     0.000 C 
BRANCH  10  11
ATOM     11  C   UNL     1      13.625   1.105   6.493  1.00  0.00     0.000 C 
BRANCH  11  12
ATOM     12  C   UNL     1      14.918   0.505   5.914  1.00  0.00     0.000 C 
BRANCH  12  13
ATOM     13  C   UNL     1      15.792   1.554   5.201  1.00  0.00     0.006 C 
BRANCH  13  14
ATOM     14  C   UNL     1      16.840   2.209   6.114  1.00  0.00     0.053 C 
BRANCH  14  15
ATOM     15  C   UNL     1      17.756   1.207   6.744  1.00  0.00     0.041 C 
ATOM     16  O   UNL     1      18.133   0.195   6.094  1.00  0.00    -0.550 OA
ATOM     17  O   UNL     1      18.195   1.391   8.049  1.00  0.00    -0.550 OA
ENDBRANCH  14  15
ENDBRANCH  13  14
ENDBRANCH  12  13
ENDBRANCH  11  12
ENDBRANCH  10  11
ENDBRANCH   9  10
ENDBRANCH   8   9
ENDBRANCH   7   8
ENDBRANCH   6   7
ENDBRANCH   5   6
ENDBRANCH   4   5
ENDBRANCH   3   4
ENDBRANCH   2   3
ENDBRANCH   1   2
BRANCH   1  18
ATOM     18  C   UNL     1      15.246   3.170  -1.332  1.00  0.00     0.000 C 
BRANCH  18  19
ATOM     19  C   UNL     1      16.218   1.975  -1.352  1.00  0.00     0.000 C 
BRANCH  19  20
ATOM     20  C   UNL     1      15.638   0.669  -1.932  1.00  0.00     0.000 C 
BRANCH  20  21
ATOM     21  C   UNL     1      14.222   0.788  -2.531  1.00  0.00     0.000 C 
BRANCH  21  22
ATOM     22  C   UNL     1      13.110   0.112  -1.704  1.00  0.00     0.000 C 
BRANCH  22  23
ATOM     23  C   UNL     1      11.770   0.873  -1.679  1.00  0.00     0.000 C 
BRANCH  23  24
ATOM     24  C   UNL     1      10.544   0.029  -1.274  1.00  0.00    -0.000 C 
BRANCH  24  25
ATOM     25  C   UNL     1      10.457  -0.337   0.219  1.00  0.00    -0.000 C 
BRANCH  25  26
ATOM     26  C   UNL     1       9.144   0.116   0.877  1.00  0.00    -0.000 C 
BRANCH  26  27
ATOM     27  C   UNL     1       9.017   1.646   0.965  1.00  0.00    -0.000 C 
BRANCH  27  28
ATOM     28  C   UNL     1       8.081   2.260  -0.098  1.00  0.00    -0.000 C 
BRANCH  28  29
ATOM     29  C   UNL     1       8.484   3.695  -0.482  1.00  0.00    -0.000 C 
BRANCH  29  30
ATOM     30  C   UNL     1       9.980   3.972  -0.255  1.00  0.00    -0.000 C 
BRANCH  30  31
ATOM     31  C   UNL     1      10.231   5.254   0.555  1.00  0.00    -0.003 C 
ATOM     32  C   UNL     1      10.814   4.928   1.928  1.00  0.00     0.004 C 
ENDBRANCH  30  31
ENDBRANCH  29  30
ENDBRANCH  28  29
ENDBRANCH  27  28
ENDBRANCH  26  27
ENDBRANCH  25  26
ENDBRANCH  24  25
ENDBRANCH  23  24
ENDBRANCH  22  23
ENDBRANCH  21  22
ENDBRANCH  20  21
ENDBRANCH  19  20
ENDBRANCH  18  19
ENDBRANCH   1  18
TORSDOF 28
ENDMDL
MODEL 2
REMARK VINA RESULT:    -4.219      2.920      8.845
REMARK INTER + INTRA:         -15.751
REMARK INTER:                 -12.564
REMARK INTRA:                  -3.187
REMARK UNBOUND:                -4.627
REMARK SMILES CCCCCCCCCCCCCCCCCCCCCCCCCCCCCC(=O)[O-]
REMARK SMILES IDX 16 1 17 2 18 3 19 4 20 5 21 6 22 7 23 8 24 9 25 10 26 11
REMARK SMILES IDX 27 12 28 13 29 14 30 15 31 16 32 17 15 18 14 19 13 20 12 21
REMARK SMILES IDX 11 22 10 23 9 24 8 25 7 26 6 27 5 28 4 29 3 30 2 31 1 32
REMARK H PARENT
REMARK Flexibility Score: inf
ROOT
ATOM      1  C   UNL     1      11.583   4.972   1.557  1.00  0.00     0.000 C 
ENDROOT
BRANCH   1   2
ATOM      2  C   UNL     1      10.141   4.719   2.023  1.00  0.00     0.000 C 
BRANCH   2   3
ATOM      3  C   UNL     1       9.094   5.294   1.057  1.00  0.00     0.000 C 
BRANCH   3   4
ATOM      4  C   UNL     1       9.592   5.324  -0.398  1.00  0.00     0.000 C 
BRANCH   4   5
ATOM      5  C   UNL     1       9.081   4.134  -1.228  1.00  0.00     0.000 C 
BRANCH   5   6
ATOM      6  C   UNL     1       7.978   3.295  -0.554  1.00  0.00     0.000 C 
BRANCH   6   7
ATOM      7  C   UNL     1       8.417   1.860  -0.187  1.00  0.00     0.000 C 
BRANCH   7   8
ATOM      8  C   UNL     1       9.930   1.602  -0.340  1.00  0.00     0.000 C 
BRANCH   8   9
ATOM      9  C   UNL     1      10.353   0.963  -1.681  1.00  0.00     0.000 C 
BRANCH   9  10
ATOM     10  C   UNL     1      11.872   0.775  -1.875  1.00  0.00     0.000 C 
BRANCH  10  11
ATOM     11  C   UNL     1      12.631   0.264  -0.637  1.00  0.00     0.000 C 
BRANCH  11  12
ATOM     12  C   UNL     1      14.151   0.179  -0.862  1.00  0.00     0.000 C 
BRANCH  12  13
ATOM     13  C   UNL     1      14.659   1.218  -1.881  1.00  0.00     0.006 C 
BRANCH  13  14
ATOM     14  C   UNL     1      15.776   2.121  -1.337  1.00  0.00     0.053 C 
BRANCH  14  15
ATOM     15  C   UNL     1      15.340   3.546  -1.191  1.00  0.00     0.041 C 
ATOM     16  O   UNL     1      15.713   4.226  -0.199  1.00  0.00    -0.550 OA
ATOM     17  O   UNL     1      14.519   4.123  -2.153  1.00  0.00    -0.550 OA
ENDBRANCH  14  15
ENDBRANCH  13  14
ENDBRANCH  12  13
ENDBRANCH  11  12
ENDBRANCH  10  11
ENDBRANCH   9  10
ENDBRANCH   8   9
ENDBRANCH   7   8
ENDBRANCH   6   7
ENDBRANCH   5   6
ENDBRANCH   4   5
ENDBRANCH   3   4
ENDBRANCH   2   3
ENDBRANCH   1   2
BRANCH   1  18
ATOM     18  C   UNL     1      12.260   3.656   1.146  1.00  0.00     0.000 C 
BRANCH  18  19
ATOM     19  C   UNL     1      13.288   3.162   2.180  1.00  0.00     0.000 C 
BRANCH  19  20
ATOM     20  C   UNL     1      13.070   1.720   2.683  1.00  0.00     0.000 C 
BRANCH  20  21
ATOM     21  C   UNL     1      14.341   0.850   2.757  1.00  0.00     0.000 C 
BRANCH  21  22
ATOM     22  C   UNL     1      15.393   1.324   3.780  1.00  0.00     0.000 C 
BRANCH  22  23
ATOM     23  C   UNL     1      14.815   1.817   5.120  1.00  0.00     0.000 C 
BRANCH  23  24
ATOM     24  C   UNL     1      15.759   1.679   6.332  1.00  0.00    -0.000 C 
BRANCH  24  25
ATOM     25  C   UNL     1      16.016   0.238   6.809  1.00  0.00    -0.000 C 
BRANCH  25  26
ATOM     26  C   UNL     1      17.189  -0.439   6.083  1.00  0.00    -0.000 C 
BRANCH  26  27
ATOM     27  C   UNL     1      18.444  -0.566   6.964  1.00  0.00    -0.000 C 
BRANCH  27  28
ATOM     28  C   UNL     1      19.192   0.766   7.184  1.00  0.00    -0.000 C 
BRANCH  28  29
ATOM     29  C   UNL     1      19.466   1.049   8.673  1.00  0.00    -0.000 C 
BRANCH  29  30
ATOM     30  C   UNL     1      20.295  -0.058   9.344  1.00  0.00    -0.000 C 
BRANCH  30  31
ATOM     31  C   UNL     1      21.779  -0.015   8.945  1.00  0.00    -0.003 C 
ATOM     32  C   UNL     1      22.566   0.919   9.861  1.00  0.00     0.004 C 
ENDBRANCH  30  31
ENDBRANCH  29  30
ENDBRANCH  28  29
ENDBRANCH  27  28
ENDBRANCH  26  27
ENDBRANCH  25  26
ENDBRANCH  24  25
ENDBRANCH  23  24
ENDBRANCH  22  23
ENDBRANCH  21  22
ENDBRANCH  20  21
ENDBRANCH  19  20
ENDBRANCH  18  19
ENDBRANCH   1  18
TORSDOF 28
ENDMDL
MODEL 3
REMARK VINA RESULT:    -4.212      2.619      6.823
REMARK INTER + INTRA:         -15.733
REMARK INTER:                 -10.544
REMARK INTRA:                  -5.189
REMARK UNBOUND:                -4.627
REMARK SMILES CCCCCCCCCCCCCCCCCCCCCCCCCCCCCC(=O)[O-]
REMARK SMILES IDX 16 1 17 2 18 3 19 4 20 5 21 6 22 7 23 8 24 9 25 10 26 11
REMARK SMILES IDX 27 12 28 13 29 14 30 15 31 16 32 17 15 18 14 19 13 20 12 21
REMARK SMILES IDX 11 22 10 23 9 24 8 25 7 26 6 27 5 28 4 29 3 30 2 31 1 32
REMARK H PARENT
REMARK Flexibility Score: inf
ROOT
ATOM      1  C   UNL     1      14.573   3.167   2.048  1.00  0.00     0.000 C 
ENDROOT
BRANCH   1   2
ATOM      2  C   UNL     1      13.808   4.426   1.613  1.00  0.00     0.000 C 
BRANCH   2   3
ATOM      3  C   UNL     1      12.454   4.575   2.323  1.00  0.00     0.000 C 
BRANCH   3   4
ATOM      4  C   UNL     1      11.300   4.834   1.339  1.00  0.00     0.000 C 
BRANCH   4   5
ATOM      5  C   UNL     1      10.863   3.565   0.587  1.00  0.00     0.000 C 
BRANCH   5   6
ATOM      6  C   UNL     1       9.540   2.941   1.074  1.00  0.00     0.000 C 
BRANCH   6   7
ATOM      7  C   UNL     1       8.580   2.537  -0.067  1.00  0.00     0.000 C 
BRANCH   7   8
ATOM      8  C   UNL     1       8.129   1.062  -0.022  1.00  0.00     0.000 C 
BRANCH   8   9
ATOM      9  C   UNL     1       9.041   0.074  -0.780  1.00  0.00     0.000 C 
BRANCH   9  10
ATOM     10  C   UNL     1      10.048   0.719  -1.756  1.00  0.00     0.000 C 
BRANCH  10  11
ATOM     11  C   UNL     1      11.515   0.296  -1.555  1.00  0.00     0.000 C 
BRANCH  11  12
ATOM     12  C   UNL     1      12.510   1.259  -2.226  1.00  0.00     0.000 C 
BRANCH  12  13
ATOM     13  C   UNL     1      13.553   1.817  -1.240  1.00  0.00     0.006 C 
BRANCH  13  14
ATOM     14  C   UNL     1      14.977   1.295  -1.485  1.00  0.00     0.053 C 
BRANCH  14  15
ATOM     15  C   UNL     1      14.990  -0.111  -1.999  1.00  0.00     0.041 C 
ATOM     16  O   UNL     1      14.796  -1.076  -1.213  1.00  0.00    -0.550 OA
ATOM     17  O   UNL     1      15.217  -0.356  -3.348  1.00  0.00    -0.550 OA
ENDBRANCH  14  15
ENDBRANCH  13  14
ENDBRANCH  12  13
ENDBRANCH  11  12
ENDBRANCH  10  11
ENDBRANCH   9  10
ENDBRANCH   8   9
ENDBRANCH   7   8
ENDBRANCH   6   7
ENDBRANCH   5   6
ENDBRANCH   4   5
ENDBRANCH   3   4
ENDBRANCH   2   3
ENDBRANCH   1   2
BRANCH   1  18
ATOM     18  C   UNL     1      13.637   2.186   2.770  1.00  0.00     0.000 C 
BRANCH  18  19
ATOM     19  C   UNL     1      14.091   0.720   2.644  1.00  0.00     0.000 C 
BRANCH  19  20
ATOM     20  C   UNL     1      13.156  -0.186   1.816  1.00  0.00     0.000 C 
BRANCH  20  21
ATOM     21  C   UNL     1      11.652   0.130   1.944  1.00  0.00     0.000 C 
BRANCH  21  22
ATOM     22  C   UNL     1      10.996  -0.357   3.252  1.00  0.00     0.000 C 
BRANCH  22  23
ATOM     23  C   UNL     1       9.458  -0.264   3.278  1.00  0.00     0.000 C 
BRANCH  23  24
ATOM     24  C   UNL     1       8.839  -0.035   4.672  1.00  0.00    -0.000 C 
BRANCH  24  25
ATOM     25  C   UNL     1       9.142  -1.124   5.717  1.00  0.00    -0.000 C 
BRANCH  25  26
ATOM     26  C   UNL     1       9.975  -0.611   6.902  1.00  0.00    -0.000 C 
BRANCH  26  27
ATOM     27  C   UNL     1      11.444  -1.064   6.840  1.00  0.00    -0.000 C 
BRANCH  27  28
ATOM     28  C   UNL     1      12.456   0.031   7.238  1.00  0.00    -0.000 C 
BRANCH  28  29
ATOM     29  C   UNL     1      13.421   0.388   6.092  1.00  0.00    -0.000 C 
BRANCH  29  30
ATOM     30  C   UNL     1      14.257   1.643   6.391  1.00  0.00    -0.000 C 
BRANCH  30  31
ATOM     31  C   UNL     1      15.769   1.371   6.365  1.00  0.00    -0.003 C 
ATOM     32  C   UNL     1      16.507   2.455   5.584  1.00  0.00     0.004 C 
ENDBRANCH  30  31
ENDBRANCH  29  30
ENDBRANCH  28  29
ENDBRANCH  27  28
ENDBRANCH  26  27
ENDBRANCH  25  26
ENDBRANCH  24  25
ENDBRANCH  23  24
ENDBRANCH  22  23
ENDBRANCH  21  22
ENDBRANCH  20  21
ENDBRANCH  19  20
ENDBRANCH  18  19
ENDBRANCH   1  18
TORSDOF 28
ENDMDL
MODEL 4
REMARK VINA RESULT:    -4.205      3.524      7.236
REMARK INTER + INTRA:         -15.716
REMARK INTER:                 -11.108
REMARK INTRA:                  -4.608
REMARK UNBOUND:                -4.627
REMARK SMILES CCCCCCCCCCCCCCCCCCCCCCCCCCCCCC(=O)[O-]
REMARK SMILES IDX 16 1 17 2 18 3 19 4 20 5 21 6 22 7 23 8 24 9 25 10 26 11
REMARK SMILES IDX 27 12 28 13 29 14 30 15 31 16 32 17 15 18 14 19 13 20 12 21
REMARK SMILES IDX 11 22 10 23 9 24 8 25 7 26 6 27 5 28 4 29 3 30 2 31 1 32
REMARK H PARENT
REMARK Flexibility Score: inf
ROOT
ATOM      1  C   UNL     1      14.950   3.561  -1.691  1.00  0.00     0.000 C 
ENDROOT
BRANCH   1   2
ATOM      2  C   UNL     1      13.446   3.269  -1.813  1.00  0.00     0.000 C 
BRANCH   2   3
ATOM      3  C   UNL     1      13.154   1.965  -2.570  1.00  0.00     0.000 C 
BRANCH   3   4
ATOM      4  C   UNL     1      14.168   0.855  -2.241  1.00  0.00     0.000 C 
BRANCH   4   5
ATOM      5  C   UNL     1      13.840   0.118  -0.932  1.00  0.00     0.000 C 
BRANCH   5   6
ATOM      6  C   UNL     1      12.355   0.149  -0.519  1.00  0.00     0.000 C 
BRANCH   6   7
ATOM      7  C   UNL     1      11.495  -0.946  -1.188  1.00  0.00     0.000 C 
BRANCH   7   8
ATOM      8  C   UNL     1      10.092  -0.473  -1.621  1.00  0.00     0.000 C 
BRANCH   8   9
ATOM      9  C   UNL     1       9.882   1.056  -1.604  1.00  0.00     0.000 C 
BRANCH   9  10
ATOM     10  C   UNL     1       9.089   1.602  -0.399  1.00  0.00     0.000 C 
BRANCH  10  11
ATOM     11  C   UNL     1       9.930   2.336   0.661  1.00  0.00     0.000 C 
BRANCH  11  12
ATOM     12  C   UNL     1       9.086   3.253   1.564  1.00  0.00     0.000 C 
BRANCH  12  13
ATOM     13  C   UNL     1       9.692   4.662   1.711  1.00  0.00     0.006 C 
BRANCH  13  14
ATOM     14  C   UNL     1      10.350   5.189   0.427  1.00  0.00     0.053 C 
BRANCH  14  15
ATOM     15  C   UNL     1       9.360   5.811  -0.509  1.00  0.00     0.041 C 
ATOM     16  O   UNL     1       8.733   6.850  -0.171  1.00  0.00    -0.550 OA
ATOM     17  O   UNL     1       9.130   5.242  -1.756  1.00  0.00    -0.550 OA
ENDBRANCH  14  15
ENDBRANCH  13  14
ENDBRANCH  12  13
ENDBRANCH  11  12
ENDBRANCH  10  11
ENDBRANCH   9  10
ENDBRANCH   8   9
ENDBRANCH   7   8
ENDBRANCH   6   7
ENDBRANCH   5   6
ENDBRANCH   4   5
ENDBRANCH   3   4
ENDBRANCH   2   3
ENDBRANCH   1   2
BRANCH   1  18
ATOM     18  C   UNL     1      15.360   3.690  -0.217  1.00  0.00     0.000 C 
BRANCH  18  19
ATOM     19  C   UNL     1      14.207   4.162   0.688  1.00  0.00     0.000 C 
BRANCH  19  20
ATOM     20  C   UNL     1      13.479   3.042   1.459  1.00  0.00     0.000 C 
BRANCH  20  21
ATOM     21  C   UNL     1      14.035   2.746   2.867  1.00  0.00     0.000 C 
BRANCH  21  22
ATOM     22  C   UNL     1      14.898   1.472   2.969  1.00  0.00     0.000 C 
BRANCH  22  23
ATOM     23  C   UNL     1      14.134   0.153   2.740  1.00  0.00     0.000 C 
BRANCH  23  24
ATOM     24  C   UNL     1      12.701   0.118   3.308  1.00  0.00    -0.000 C 
BRANCH  24  25
ATOM     25  C   UNL     1      12.452  -0.932   4.407  1.00  0.00    -0.000 C 
BRANCH  25  26
ATOM     26  C   UNL     1      11.464  -0.457   5.485  1.00  0.00    -0.000 C 
BRANCH  26  27
ATOM     27  C   UNL     1      11.871  -0.895   6.902  1.00  0.00    -0.000 C 
BRANCH  27  28
ATOM     28  C   UNL     1      13.027  -0.071   7.506  1.00  0.00    -0.000 C 
BRANCH  28  29
ATOM     29  C   UNL     1      13.108   1.351   6.920  1.00  0.00    -0.000 C 
BRANCH  29  30
ATOM     30  C   UNL     1      14.530   1.728   6.472  1.00  0.00    -0.000 C 
BRANCH  30  31
ATOM     31  C   UNL     1      15.513   0.549   6.558  1.00  0.00    -0.003 C 
ATOM     32  C   UNL     1      16.906   0.964   6.091  1.00  0.00     0.004 C 
ENDBRANCH  30  31
ENDBRANCH  29  30
ENDBRANCH  28  29
ENDBRANCH  27  28
ENDBRANCH  26  27
ENDBRANCH  25  26
ENDBRANCH  24  25
ENDBRANCH  23  24
ENDBRANCH  22  23
ENDBRANCH  21  22
ENDBRANCH  20  21
ENDBRANCH  19  20
ENDBRANCH  18  19
ENDBRANCH   1  18
TORSDOF 28
ENDMDL
MODEL 5
REMARK VINA RESULT:    -4.132      2.276      7.467
REMARK INTER + INTRA:         -15.522
REMARK INTER:                 -11.279
REMARK INTRA:                  -4.242
REMARK UNBOUND:                -4.627
REMARK SMILES CCCCCCCCCCCCCCCCCCCCCCCCCCCCCC(=O)[O-]
REMARK SMILES IDX 16 1 17 2 18 3 19 4 20 5 21 6 22 7 23 8 24 9 25 10 26 11
REMARK SMILES IDX 27 12 28 13 29 14 30 15 31 16 32 17 15 18 14 19 13 20 12 21
REMARK SMILES IDX 11 22 10 23 9 24 8 25 7 26 6 27 5 28 4 29 3 30 2 31 1 32
REMARK H PARENT
REMARK Flexibility Score: inf
ROOT
ATOM      1  C   UNL     1      13.515   4.244   1.631  1.00  0.00     0.000 C 
ENDROOT
BRANCH   1   2
ATOM      2  C   UNL     1      12.180   4.813   1.125  1.00  0.00     0.000 C 
BRANCH   2   3
ATOM      3  C   UNL     1      11.011   4.523   2.078  1.00  0.00     0.000 C 
BRANCH   3   4
ATOM      4  C   UNL     1       9.728   5.274   1.679  1.00  0.00     0.000 C 
BRANCH   4   5
ATOM      5  C   UNL     1       9.757   5.770   0.223  1.00  0.00     0.000 C 
BRANCH   5   6
ATOM      6  C   UNL     1       8.647   5.201  -0.682  1.00  0.00     0.000 C 
BRANCH   6   7
ATOM      7  C   UNL     1       8.996   3.840  -1.323  1.00  0.00     0.000 C 
BRANCH   7   8
ATOM      8  C   UNL     1       8.607   2.618  -0.466  1.00  0.00     0.000 C 
BRANCH   8   9
ATOM      9  C   UNL     1       9.790   1.741  -0.001  1.00  0.00     0.000 C 
BRANCH   9  10
ATOM     10  C   UNL     1      11.085   1.885  -0.827  1.00  0.00     0.000 C 
BRANCH  10  11
ATOM     11  C   UNL     1      11.252   0.864  -1.967  1.00  0.00     0.000 C 
BRANCH  11  12
ATOM     12  C   UNL     1      12.563   1.054  -2.751  1.00  0.00     0.000 C 
BRANCH  12  13
ATOM     13  C   UNL     1      13.811   0.953  -1.853  1.00  0.00     0.006 C 
BRANCH  13  14
ATOM     14  C   UNL     1      14.366   2.316  -1.412  1.00  0.00     0.053 C 
BRANCH  14  15
ATOM     15  C   UNL     1      15.851   2.294  -1.220  1.00  0.00     0.041 C 
ATOM     16  O   UNL     1      16.584   1.642  -2.011  1.00  0.00    -0.550 OA
ATOM     17  O   UNL     1      16.426   2.994  -0.166  1.00  0.00    -0.550 OA
ENDBRANCH  14  15
ENDBRANCH  13  14
ENDBRANCH  12  13
ENDBRANCH  11  12
ENDBRANCH  10  11
ENDBRANCH   9  10
ENDBRANCH   8   9
ENDBRANCH   7   8
ENDBRANCH   6   7
ENDBRANCH   5   6
ENDBRANCH   4   5
ENDBRANCH   3   4
ENDBRANCH   2   3
ENDBRANCH   1   2
BRANCH   1  18
ATOM     18  C   UNL     1      13.274   3.131   2.662  1.00  0.00     0.000 C 
BRANCH  18  19
ATOM     19  C   UNL     1      14.105   1.865   2.382  1.00  0.00     0.000 C 
BRANCH  19  20
ATOM     20  C   UNL     1      13.337   0.717   1.695  1.00  0.00     0.000 C 
BRANCH  20  21
ATOM     21  C   UNL     1      13.675  -0.698   2.206  1.00  0.00     0.000 C 
BRANCH  21  22
ATOM     22  C   UNL     1      14.596  -0.738   3.442  1.00  0.00     0.000 C 
BRANCH  22  23
ATOM     23  C   UNL     1      13.895  -1.125   4.759  1.00  0.00     0.000 C 
BRANCH  23  24
ATOM     24  C   UNL     1      12.530  -0.450   4.998  1.00  0.00    -0.000 C 
BRANCH  24  25
ATOM     25  C   UNL     1      12.203  -0.120   6.466  1.00  0.00    -0.000 C 
BRANCH  25  26
ATOM     26  C   UNL     1      13.218   0.837   7.111  1.00  0.00    -0.000 C 
BRANCH  26  27
ATOM     27  C   UNL     1      13.925   1.739   6.084  1.00  0.00    -0.000 C 
BRANCH  27  28
ATOM     28  C   UNL     1      15.324   2.215   6.527  1.00  0.00    -0.000 C 
BRANCH  28  29
ATOM     29  C   UNL     1      16.460   1.436   5.838  1.00  0.00    -0.000 C 
BRANCH  29  30
ATOM     30  C   UNL     1      17.174   0.464   6.791  1.00  0.00    -0.000 C 
BRANCH  30  31
ATOM     31  C   UNL     1      18.693   0.696   6.850  1.00  0.00    -0.003 C 
ATOM     32  C   UNL     1      19.139   1.043   8.268  1.00  0.00     0.004 C 
ENDBRANCH  30  31
ENDBRANCH  29  30
ENDBRANCH  28  29
ENDBRANCH  27  28
ENDBRANCH  26  27
ENDBRANCH  25  26
ENDBRANCH  24  25
ENDBRANCH  23  24
ENDBRANCH  22  23
ENDBRANCH  21  22
ENDBRANCH  20  21
ENDBRANCH  19  20
ENDBRANCH  18  19
ENDBRANCH   1  18
TORSDOF 28
ENDMDL
MODEL 6
REMARK VINA RESULT:    -4.077      2.897      4.939
REMARK INTER + INTRA:         -15.378
REMARK INTER:                 -11.973
REMARK INTRA:                  -3.406
REMARK UNBOUND:                -4.627
REMARK SMILES CCCCCCCCCCCCCCCCCCCCCCCCCCCCCC(=O)[O-]
REMARK SMILES IDX 16 1 17 2 18 3 19 4 20 5 21 6 22 7 23 8 24 9 25 10 26 11
REMARK SMILES IDX 27 12 28 13 29 14 30 15 31 16 32 17 15 18 14 19 13 20 12 21
REMARK SMILES IDX 11 22 10 23 9 24 8 25 7 26 6 27 5 28 4 29 3 30 2 31 1 32
REMARK H PARENT
REMARK Flexibility Score: inf
ROOT
ATOM      1  C   UNL     1      13.704  -0.046   0.481  1.00  0.00     0.000 C 
ENDROOT
BRANCH   1   2
ATOM      2  C   UNL     1      12.797  -0.246   1.706  1.00  0.00     0.000 C 
BRANCH   2   3
ATOM      3  C   UNL     1      13.589  -0.515   2.994  1.00  0.00     0.000 C 
BRANCH   3   4
ATOM      4  C   UNL     1      14.469   0.679   3.404  1.00  0.00     0.000 C 
BRANCH   4   5
ATOM      5  C   UNL     1      13.839   1.526   4.523  1.00  0.00     0.000 C 
BRANCH   5   6
ATOM      6  C   UNL     1      14.801   1.923   5.660  1.00  0.00     0.000 C 
BRANCH   6   7
ATOM      7  C   UNL     1      15.130   0.771   6.634  1.00  0.00     0.000 C 
BRANCH   7   8
ATOM      8  C   UNL     1      16.572   0.234   6.516  1.00  0.00     0.000 C 
BRANCH   8   9
ATOM      9  C   UNL     1      17.677   1.229   6.930  1.00  0.00     0.000 C 
BRANCH   9  10
ATOM     10  C   UNL     1      19.054   0.601   7.233  1.00  0.00     0.000 C 
BRANCH  10  11
ATOM     11  C   UNL     1      19.630   0.927   8.623  1.00  0.00     0.000 C 
BRANCH  11  12
ATOM     12  C   UNL     1      20.422  -0.243   9.230  1.00  0.00     0.000 C 
BRANCH  12  13
ATOM     13  C   UNL     1      21.945  -0.081   9.061  1.00  0.00     0.006 C 
BRANCH  13  14
ATOM     14  C   UNL     1      22.546   1.038   9.925  1.00  0.00     0.053 C 
BRANCH  14  15
ATOM     15  C   UNL     1      23.762   0.591  10.676  1.00  0.00     0.041 C 
ATOM     16  O   UNL     1      23.806   0.696  11.931  1.00  0.00    -0.550 OA
ATOM     17  O   UNL     1      24.846   0.058   9.990  1.00  0.00    -0.550 OA
ENDBRANCH  14  15
ENDBRANCH  13  14
ENDBRANCH  12  13
ENDBRANCH  11  12
ENDBRANCH  10  11
ENDBRANCH   9  10
ENDBRANCH   8   9
ENDBRANCH   7   8
ENDBRANCH   6   7
ENDBRANCH   5   6
ENDBRANCH   4   5
ENDBRANCH   3   4
ENDBRANCH   2   3
ENDBRANCH   1   2
BRANCH   1  18
ATOM     18  C   UNL     1      12.886  -0.115  -0.817  1.00  0.00     0.000 C 
BRANCH  18  19
ATOM     19  C   UNL     1      13.596   0.553  -2.009  1.00  0.00     0.000 C 
BRANCH  19  20
ATOM     20  C   UNL     1      15.045   0.084  -2.256  1.00  0.00     0.000 C 
BRANCH  20  21
ATOM     21  C   UNL     1      16.133   1.142  -1.986  1.00  0.00     0.000 C 
BRANCH  21  22
ATOM     22  C   UNL     1      15.601   2.525  -1.558  1.00  0.00     0.000 C 
BRANCH  22  23
ATOM     23  C   UNL     1      15.675   2.806  -0.044  1.00  0.00     0.000 C 
BRANCH  23  24
ATOM     24  C   UNL     1      14.999   4.113   0.414  1.00  0.00    -0.000 C 
BRANCH  24  25
ATOM     25  C   UNL     1      14.214   4.024   1.736  1.00  0.00    -0.000 C 
BRANCH  25  26
ATOM     26  C   UNL     1      12.716   4.323   1.572  1.00  0.00    -0.000 C 
BRANCH  26  27
ATOM     27  C   UNL     1      11.935   3.148   0.960  1.00  0.00    -0.000 C 
BRANCH  27  28
ATOM     28  C   UNL     1      11.548   3.355  -0.519  1.00  0.00    -0.000 C 
BRANCH  28  29
ATOM     29  C   UNL     1      10.107   2.906  -0.821  1.00  0.00    -0.000 C 
BRANCH  29  30
ATOM     30  C   UNL     1       9.151   4.090  -1.040  1.00  0.00    -0.000 C 
BRANCH  30  31
ATOM     31  C   UNL     1       8.363   4.462   0.226  1.00  0.00    -0.003 C 
ATOM     32  C   UNL     1       9.048   5.596   0.983  1.00  0.00     0.004 C 
ENDBRANCH  30  31
ENDBRANCH  29  30
ENDBRANCH  28  29
ENDBRANCH  27  28
ENDBRANCH  26  27
ENDBRANCH  25  26
ENDBRANCH  24  25
ENDBRANCH  23  24
ENDBRANCH  22  23
ENDBRANCH  21  22
ENDBRANCH  20  21
ENDBRANCH  19  20
ENDBRANCH  18  19
ENDBRANCH   1  18
TORSDOF 28
ENDMDL
MODEL 7
REMARK VINA RESULT:    -4.027      4.684     11.460
REMARK INTER + INTRA:         -15.245
REMARK INTER:                 -12.540
REMARK INTRA:                  -2.705
REMARK UNBOUND:                -4.627
REMARK SMILES CCCCCCCCCCCCCCCCCCCCCCCCCCCCCC(=O)[O-]
REMARK SMILES IDX 16 1 17 2 18 3 19 4 20 5 21 6 22 7 23 8 24 9 25 10 26 11
REMARK SMILES IDX 27 12 28 13 29 14 30 15 31 16 32 17 15 18 14 19 13 20 12 21
REMARK SMILES IDX 11 22 10 23 9 24 8 25 7 26 6 27 5 28 4 29 3 30 2 31 1 32
REMARK H PARENT
REMARK Flexibility Score: inf
ROOT
ATOM      1  C   UNL     1      15.642   1.851   4.927  1.00  0.00     0.000 C 
ENDROOT
BRANCH   1   2
ATOM      2  C   UNL     1      15.047   1.585   3.536  1.00  0.00     0.000 C 
BRANCH   2   3
ATOM      3  C   UNL     1      15.359   2.706   2.532  1.00  0.00     0.000 C 
BRANCH   3   4
ATOM      4  C   UNL     1      14.148   3.059   1.652  1.00  0.00     0.000 C 
BRANCH   4   5
ATOM      5  C   UNL     1      14.444   4.198   0.660  1.00  0.00     0.000 C 
BRANCH   5   6
ATOM      6  C   UNL     1      15.672   3.975  -0.242  1.00  0.00     0.000 C 
BRANCH   6   7
ATOM      7  C   UNL     1      15.349   3.276  -1.581  1.00  0.00     0.000 C 
BRANCH   7   8
ATOM      8  C   UNL     1      15.823   1.810  -1.661  1.00  0.00     0.000 C 
BRANCH   8   9
ATOM      9  C   UNL     1      14.748   0.797  -2.112  1.00  0.00     0.000 C 
BRANCH   9  10
ATOM     10  C   UNL     1      13.303   1.337  -2.145  1.00  0.00     0.000 C 
BRANCH  10  11
ATOM     11  C   UNL     1      12.481   1.084  -0.868  1.00  0.00     0.000 C 
BRANCH  11  12
ATOM     12  C   UNL     1      11.154   1.864  -0.849  1.00  0.00     0.000 C 
BRANCH  12  13
ATOM     13  C   UNL     1      11.351   3.376  -1.065  1.00  0.00     0.006 C 
BRANCH  13  14
ATOM     14  C   UNL     1      10.125   4.220  -0.685  1.00  0.00     0.053 C 
BRANCH  14  15
ATOM     15  C   UNL     1      10.070   4.519   0.781  1.00  0.00     0.041 C 
ATOM     16  O   UNL     1      11.062   5.035   1.362  1.00  0.00    -0.550 OA
ATOM     17  O   UNL     1       8.921   4.229   1.507  1.00  0.00    -0.550 OA
ENDBRANCH  14  15
ENDBRANCH  13  14
ENDBRANCH  12  13
ENDBRANCH  11  12
ENDBRANCH  10  11
ENDBRANCH   9  10
ENDBRANCH   8   9
ENDBRANCH   7   8
ENDBRANCH   6   7
ENDBRANCH   5   6
ENDBRANCH   4   5
ENDBRANCH   3   4
ENDBRANCH   2   3
ENDBRANCH   1   2
BRANCH   1  18
ATOM     18  C   UNL     1      14.597   1.592   6.023  1.00  0.00     0.000 C 
BRANCH  18  19
ATOM     19  C   UNL     1      14.778   0.227   6.713  1.00  0.00     0.000 C 
BRANCH  19  20
ATOM     20  C   UNL     1      15.806  -0.711   6.049  1.00  0.00     0.000 C 
BRANCH  20  21
ATOM     21  C   UNL     1      17.052  -1.029   6.901  1.00  0.00     0.000 C 
BRANCH  21  22
ATOM     22  C   UNL     1      18.245  -0.077   6.685  1.00  0.00     0.000 C 
BRANCH  22  23
ATOM     23  C   UNL     1      18.263   1.157   7.607  1.00  0.00     0.000 C 
BRANCH  23  24
ATOM     24  C   UNL     1      19.333   1.131   8.717  1.00  0.00    -0.000 C 
BRANCH  24  25
ATOM     25  C   UNL     1      20.638   0.396   8.360  1.00  0.00    -0.000 C 
BRANCH  25  26
ATOM     26  C   UNL     1      21.419  -0.084   9.593  1.00  0.00    -0.000 C 
BRANCH  26  27
ATOM     27  C   UNL     1      22.669   0.767   9.876  1.00  0.00    -0.000 C 
BRANCH  27  28
ATOM     28  C   UNL     1      23.274   0.547  11.279  1.00  0.00    -0.000 C 
BRANCH  28  29
ATOM     29  C   UNL     1      24.780   0.231  11.230  1.00  0.00    -0.000 C 
BRANCH  29  30
ATOM     30  C   UNL     1      25.287  -0.023   9.801  1.00  0.00    -0.000 C 
BRANCH  30  31
ATOM     31  C   UNL     1      26.626   0.673   9.511  1.00  0.00    -0.003 C 
ATOM     32  C   UNL     1      27.667  -0.328   9.015  1.00  0.00     0.004 C 
ENDBRANCH  30  31
ENDBRANCH  29  30
ENDBRANCH  28  29
ENDBRANCH  27  28
ENDBRANCH  26  27
ENDBRANCH  25  26
ENDBRANCH  24  25
ENDBRANCH  23  24
ENDBRANCH  22  23
ENDBRANCH  21  22
ENDBRANCH  20  21
ENDBRANCH  19  20
ENDBRANCH  18  19
ENDBRANCH   1  18
TORSDOF 28
ENDMDL
MODEL 8
REMARK VINA RESULT:    -3.975      3.197      6.907
REMARK INTER + INTRA:         -15.109
REMARK INTER:                 -10.590
REMARK INTRA:                  -4.519
REMARK UNBOUND:                -4.627
REMARK SMILES CCCCCCCCCCCCCCCCCCCCCCCCCCCCCC(=O)[O-]
REMARK SMILES IDX 16 1 17 2 18 3 19 4 20 5 21 6 22 7 23 8 24 9 25 10 26 11
REMARK SMILES IDX 27 12 28 13 29 14 30 15 31 16 32 17 15 18 14 19 13 20 12 21
REMARK SMILES IDX 11 22 10 23 9 24 8 25 7 26 6 27 5 28 4 29 3 30 2 31 1 32
REMARK H PARENT
REMARK Flexibility Score: inf
ROOT
ATOM      1  C   UNL     1      11.920  -0.385   4.568  1.00  0.00     0.000 C 
ENDROOT
BRANCH   1   2
ATOM      2  C   UNL     1      10.422  -0.653   4.783  1.00  0.00     0.000 C 
BRANCH   2   3
ATOM      3  C   UNL     1       9.552  -0.121   3.634  1.00  0.00     0.000 C 
BRANCH   3   4
ATOM      4  C   UNL     1      10.177  -0.386   2.254  1.00  0.00     0.000 C 
BRANCH   4   5
ATOM      5  C   UNL     1       9.503   0.420   1.130  1.00  0.00     0.000 C 
BRANCH   5   6
ATOM      6  C   UNL     1      10.444   0.871  -0.004  1.00  0.00     0.000 C 
BRANCH   6   7
ATOM      7  C   UNL     1      11.945   0.746   0.338  1.00  0.00     0.000 C 
BRANCH   7   8
ATOM      8  C   UNL     1      12.731  -0.195  -0.598  1.00  0.00     0.000 C 
BRANCH   8   9
ATOM      9  C   UNL     1      14.267  -0.052  -0.530  1.00  0.00     0.000 C 
BRANCH   9  10
ATOM     10  C   UNL     1      15.001  -0.134  -1.885  1.00  0.00     0.000 C 
BRANCH  10  11
ATOM     11  C   UNL     1      16.051   0.966  -2.128  1.00  0.00     0.000 C 
BRANCH  11  12
ATOM     12  C   UNL     1      16.101   2.005  -0.994  1.00  0.00     0.000 C 
BRANCH  12  13
ATOM     13  C   UNL     1      15.514   3.367  -1.411  1.00  0.00     0.006 C 
BRANCH  13  14
ATOM     14  C   UNL     1      13.984   3.443  -1.290  1.00  0.00     0.053 C 
BRANCH  14  15
ATOM     15  C   UNL     1      13.303   3.400  -2.622  1.00  0.00     0.041 C 
ATOM     16  O   UNL     1      13.197   4.447  -3.315  1.00  0.00    -0.550 OA
ATOM     17  O   UNL     1      12.783   2.202  -3.099  1.00  0.00    -0.550 OA
ENDBRANCH  14  15
ENDBRANCH  13  14
ENDBRANCH  12  13
ENDBRANCH  11  12
ENDBRANCH  10  11
ENDBRANCH   9  10
ENDBRANCH   8   9
ENDBRANCH   7   8
ENDBRANCH   6   7
ENDBRANCH   5   6
ENDBRANCH   4   5
ENDBRANCH   3   4
ENDBRANCH   2   3
ENDBRANCH   1   2
BRANCH   1  18
ATOM     18  C   UNL     1      12.714  -0.680   5.849  1.00  0.00     0.000 C 
BRANCH  18  19
ATOM     19  C   UNL     1      13.389   0.573   6.439  1.00  0.00     0.000 C 
BRANCH  19  20
ATOM     20  C   UNL     1      14.912   0.457   6.651  1.00  0.00     0.000 C 
BRANCH  20  21
ATOM     21  C   UNL     1      15.772   0.706   5.395  1.00  0.00     0.000 C 
BRANCH  21  22
ATOM     22  C   UNL     1      15.348   1.924   4.550  1.00  0.00     0.000 C 
BRANCH  22  23
ATOM     23  C   UNL     1      14.992   1.603   3.086  1.00  0.00     0.000 C 
BRANCH  23  24
ATOM     24  C   UNL     1      14.533   2.809   2.243  1.00  0.00    -0.000 C 
BRANCH  24  25
ATOM     25  C   UNL     1      13.168   3.406   2.631  1.00  0.00    -0.000 C 
BRANCH  25  26
ATOM     26  C   UNL     1      12.498   4.180   1.485  1.00  0.00    -0.000 C 
BRANCH  26  27
ATOM     27  C   UNL     1      11.239   4.941   1.935  1.00  0.00    -0.000 C 
BRANCH  27  28
ATOM     28  C   UNL     1       9.925   4.158   1.726  1.00  0.00    -0.000 C 
BRANCH  28  29
ATOM     29  C   UNL     1       8.954   4.877   0.771  1.00  0.00    -0.000 C 
BRANCH  29  30
ATOM     30  C   UNL     1       8.867   4.198  -0.606  1.00  0.00    -0.000 C 
BRANCH  30  31
ATOM     31  C   UNL     1       9.505   5.037  -1.725  1.00  0.00    -0.003 C 
ATOM     32  C   UNL     1       8.930   6.450  -1.746  1.00  0.00     0.004 C 
ENDBRANCH  30  31
ENDBRANCH  29  30
ENDBRANCH  28  29
ENDBRANCH  27  28
ENDBRANCH  26  27
ENDBRANCH  25  26
ENDBRANCH  24  25
ENDBRANCH  23  24
ENDBRANCH  22  23
ENDBRANCH  21  22
ENDBRANCH  20  21
ENDBRANCH  19  20
ENDBRANCH  18  19
ENDBRANCH   1  18
TORSDOF 28
ENDMDL
MODEL 9
REMARK VINA RESULT:    -3.974      1.595      3.637
REMARK INTER + INTRA:         -15.106
REMARK INTER:                 -11.354
REMARK INTRA:                  -3.752
REMARK UNBOUND:                -4.627
REMARK SMILES CCCCCCCCCCCCCCCCCCCCCCCCCCCCCC(=O)[O-]
REMARK SMILES IDX 16 1 17 2 18 3 19 4 20 5 21 6 22 7 23 8 24 9 25 10 26 11
REMARK SMILES IDX 27 12 28 13 29 14 30 15 31 16 32 17 15 18 14 19 13 20 12 21
REMARK SMILES IDX 11 22 10 23 9 24 8 25 7 26 6 27 5 28 4 29 3 30 2 31 1 32
REMARK H PARENT
REMARK Flexibility Score: inf
ROOT
ATOM      1  C   UNL     1      12.882  -0.710  -0.887  1.00  0.00     0.000 C 
ENDROOT
BRANCH   1   2
ATOM      2  C   UNL     1      11.354  -0.562  -0.941  1.00  0.00     0.000 C 
BRANCH   2   3
ATOM      3  C   UNL     1      10.689  -0.753   0.431  1.00  0.00     0.000 C 
BRANCH   3   4
ATOM      4  C   UNL     1      11.708  -1.076   1.537  1.00  0.00     0.000 C 
BRANCH   4   5
ATOM      5  C   UNL     1      11.647  -0.083   2.711  1.00  0.00     0.000 C 
BRANCH   5   6
ATOM      6  C   UNL     1      12.795  -0.208   3.732  1.00  0.00     0.000 C 
BRANCH   6   7
ATOM      7  C   UNL     1      14.184   0.154   3.162  1.00  0.00     0.000 C 
BRANCH   7   8
ATOM      8  C   UNL     1      15.158   0.751   4.198  1.00  0.00     0.000 C 
BRANCH   8   9
ATOM      9  C   UNL     1      14.504   1.234   5.510  1.00  0.00     0.000 C 
BRANCH   9  10
ATOM     10  C   UNL     1      15.384   2.143   6.393  1.00  0.00     0.000 C 
BRANCH  10  11
ATOM     11  C   UNL     1      16.889   2.111   6.069  1.00  0.00     0.000 C 
BRANCH  11  12
ATOM     12  C   UNL     1      17.705   1.320   7.107  1.00  0.00     0.000 C 
BRANCH  12  13
ATOM     13  C   UNL     1      18.774   0.419   6.459  1.00  0.00     0.006 C 
BRANCH  13  14
ATOM     14  C   UNL     1      19.395  -0.597   7.429  1.00  0.00     0.053 C 
BRANCH  14  15
ATOM     15  C   UNL     1      20.516  -0.012   8.231  1.00  0.00     0.041 C 
ATOM     16  O   UNL     1      21.684  -0.469   8.116  1.00  0.00    -0.550 OA
ATOM     17  O   UNL     1      20.269   1.037   9.108  1.00  0.00    -0.550 OA
ENDBRANCH  14  15
ENDBRANCH  13  14
ENDBRANCH  12  13
ENDBRANCH  11  12
ENDBRANCH  10  11
ENDBRANCH   9  10
ENDBRANCH   8   9
ENDBRANCH   7   8
ENDBRANCH   6   7
ENDBRANCH   5   6
ENDBRANCH   4   5
ENDBRANCH   3   4
ENDBRANCH   2   3
ENDBRANCH   1   2
BRANCH   1  18
ATOM     18  C   UNL     1      13.568   0.501  -1.536  1.00  0.00     0.000 C 
BRANCH  18  19
ATOM     19  C   UNL     1      14.961   0.169  -2.103  1.00  0.00     0.000 C 
BRANCH  19  20
ATOM     20  C   UNL     1      16.058   1.209  -1.796  1.00  0.00     0.000 C 
BRANCH  20  21
ATOM     21  C   UNL     1      15.555   2.652  -1.586  1.00  0.00     0.000 C 
BRANCH  21  22
ATOM     22  C   UNL     1      16.074   3.340  -0.307  1.00  0.00     0.000 C 
BRANCH  22  23
ATOM     23  C   UNL     1      15.012   4.133   0.477  1.00  0.00     0.000 C 
BRANCH  23  24
ATOM     24  C   UNL     1      14.275   3.336   1.573  1.00  0.00    -0.000 C 
BRANCH  24  25
ATOM     25  C   UNL     1      12.787   3.688   1.758  1.00  0.00    -0.000 C 
BRANCH  25  26
ATOM     26  C   UNL     1      11.846   2.781   0.950  1.00  0.00    -0.000 C 
BRANCH  26  27
ATOM     27  C   UNL     1      11.432   3.398  -0.397  1.00  0.00    -0.000 C 
BRANCH  27  28
ATOM     28  C   UNL     1      10.064   2.908  -0.917  1.00  0.00    -0.000 C 
BRANCH  28  29
ATOM     29  C   UNL     1       9.008   2.811   0.199  1.00  0.00    -0.000 C 
BRANCH  29  30
ATOM     30  C   UNL     1       8.458   4.185   0.616  1.00  0.00    -0.000 C 
BRANCH  30  31
ATOM     31  C   UNL     1       8.241   5.127  -0.580  1.00  0.00    -0.003 C 
ATOM     32  C   UNL     1       8.208   6.585  -0.129  1.00  0.00     0.004 C 
ENDBRANCH  30  31
ENDBRANCH  29  30
ENDBRANCH  28  29
ENDBRANCH  27  28
ENDBRANCH  26  27
ENDBRANCH  25  26
ENDBRANCH  24  25
ENDBRANCH  23  24
ENDBRANCH  22  23
ENDBRANCH  21  22
ENDBRANCH  20  21
ENDBRANCH  19  20
ENDBRANCH  18  19
ENDBRANCH   1  18
TORSDOF 28
ENDMDL
