MODEL 1
REMARK VINA RESULT:    -3.684      0.000      0.000
REMARK INTER + INTRA:          -7.418
REMARK INTER:                  -5.838
REMARK INTRA:                  -1.580
REMARK UNBOUND:                -1.580
REMARK SMILES CCCCCCCCCCCC(=O)[O-]
REMARK SMILES IDX 7 1 8 2 9 3 10 4 11 5 12 6 13 7 14 8 6 9 5 10 4 11 3 12 2 13
REMARK SMILES IDX 1 14
REMARK H PARENT
REMARK Flexibility Score: inf
ROOT
ATOM      1  C   UNL     1     130.144 143.499 105.657  1.00  0.00     0.000 C 
ENDROOT
BRANCH   1   2
ATOM      2  C   UNL     1     130.359 143.813 107.146  1.00  0.00     0.000 C 
BRANCH   2   3
ATOM      3  C   UNL     1     130.703 145.292 107.392  1.00  0.00     0.000 C 
BRANCH   3   4
ATOM      4  C   UNL     1     130.734 146.119 106.093  1.00  0.00     0.006 C 
BRANCH   4   5
ATOM      5  C   UNL     1     132.004 146.965 105.917  1.00  0.00     0.053 C 
BRANCH   5   6
ATOM      6  C   UNL     1     133.246 146.175 106.192  1.00  0.00     0.041 C 
ATOM      7  O   UNL     1     133.999 146.490 107.153  1.00  0.00    -0.550 OA
ATOM      8  O   UNL     1     133.591 145.111 105.369  1.00  0.00    -0.550 OA
ENDBRANCH   5   6
ENDBRANCH   4   5
ENDBRANCH   3   4
ENDBRANCH   2   3
ENDBRANCH   1   2
BRANCH   1   9
ATOM      9  C   UNL     1     128.939 142.572 105.419  1.00  0.00     0.000 C 
BRANCH   9  10
ATOM     10  C   UNL     1     127.590 143.286 105.618  1.00  0.00    -0.000 C 
BRANCH  10  11
ATOM     11  C   UNL     1     127.490 144.681 104.968  1.00  0.00    -0.000 C 
BRANCH  11  12
ATOM     12  C   UNL     1     127.078 145.817 105.920  1.00  0.00    -0.000 C 
BRANCH  12  13
ATOM     13  C   UNL     1     126.876 145.340 107.365  1.00  0.00    -0.003 C 
ATOM     14  C   UNL     1     127.303 146.412 108.364  1.00  0.00     0.004 C 
ENDBRANCH  12  13
ENDBRANCH  11  12
ENDBRANCH  10  11
ENDBRANCH   9  10
ENDBRANCH   1   9
TORSDOF 10
ENDMDL
MODEL 2
REMARK VINA RESULT:    -3.578      2.228      4.190
REMARK INTER + INTRA:          -7.250
REMARK INTER:                  -5.615
REMARK INTRA:                  -1.635
REMARK UNBOUND:                -1.580
REMARK SMILES CCCCCCCCCCCC(=O)[O-]
REMARK SMILES IDX 7 1 8 2 9 3 10 4 11 5 12 6 13 7 14 8 6 9 5 10 4 11 3 12 2 13
REMARK SMILES IDX 1 14
REMARK H PARENT
REMARK Flexibility Score: inf
ROOT
ATOM      1  C   UNL     1     127.372 144.985 104.974  1.00  0.00     0.000 C 
ENDROOT
BRANCH   1   2
ATOM      2  C   UNL     1     127.145 145.951 106.148  1.00  0.00     0.000 C 
BRANCH   2   3
ATOM      3  C   UNL     1     127.158 145.236 107.509  1.00  0.00     0.000 C 
BRANCH   3   4
ATOM      4  C   UNL     1     127.855 146.060 108.607  1.00  0.00     0.006 C 
BRANCH   4   5
ATOM      5  C   UNL     1     128.389 145.222 109.780  1.00  0.00     0.053 C 
BRANCH   5   6
ATOM      6  C   UNL     1     129.785 145.611 110.157  1.00  0.00     0.041 C 
ATOM      7  O   UNL     1     130.209 146.771 109.908  1.00  0.00    -0.550 OA
ATOM      8  O   UNL     1     130.629 144.684 110.753  1.00  0.00    -0.550 OA
ENDBRANCH   5   6
ENDBRANCH   4   5
ENDBRANCH   3   4
ENDBRANCH   2   3
ENDBRANCH   1   2
BRANCH   1   9
ATOM      9  C   UNL     1     127.553 143.529 105.436  1.00  0.00     0.000 C 
BRANCH   9  10
ATOM     10  C   UNL     1     128.969 142.989 105.164  1.00  0.00    -0.000 C 
BRANCH  10  11
ATOM     11  C   UNL     1     129.755 142.564 106.421  1.00  0.00    -0.000 C 
BRANCH  11  12
ATOM     12  C   UNL     1     130.531 143.694 107.120  1.00  0.00    -0.000 C 
BRANCH  12  13
ATOM     13  C   UNL     1     131.289 144.595 106.135  1.00  0.00    -0.003 C 
ATOM     14  C   UNL     1     130.858 146.052 106.278  1.00  0.00     0.004 C 
ENDBRANCH  12  13
ENDBRANCH  11  12
ENDBRANCH  10  11
ENDBRANCH   9  10
ENDBRANCH   1   9
TORSDOF 10
ENDMDL
MODEL 3
REMARK VINA RESULT:    -3.534      1.107      2.647
REMARK INTER + INTRA:          -7.180
REMARK INTER:                  -5.689
REMARK INTRA:                  -1.491
REMARK UNBOUND:                -1.580
REMARK SMILES CCCCCCCCCCCC(=O)[O-]
REMARK SMILES IDX 7 1 8 2 9 3 10 4 11 5 12 6 13 7 14 8 6 9 5 10 4 11 3 12 2 13
REMARK SMILES IDX 1 14
REMARK H PARENT
REMARK Flexibility Score: inf
ROOT
ATOM      1  C   UNL     1     130.225 145.623 109.040  1.00  0.00     0.000 C 
ENDROOT
BRANCH   1   2
ATOM      2  C   UNL     1     130.231 144.354 108.172  1.00  0.00     0.000 C 
BRANCH   2   3
ATOM      3  C   UNL     1     130.976 144.556 106.841  1.00  0.00     0.000 C 
BRANCH   3   4
ATOM      4  C   UNL     1     130.773 145.965 106.254  1.00  0.00     0.006 C 
BRANCH   4   5
ATOM      5  C   UNL     1     132.076 146.668 105.841  1.00  0.00     0.053 C 
BRANCH   5   6
ATOM      6  C   UNL     1     133.158 146.484 106.860  1.00  0.00     0.041 C 
ATOM      7  O   UNL     1     133.125 147.125 107.944  1.00  0.00    -0.550 OA
ATOM      8  O   UNL     1     134.221 145.629 106.600  1.00  0.00    -0.550 OA
ENDBRANCH   5   6
ENDBRANCH   4   5
ENDBRANCH   3   4
ENDBRANCH   2   3
ENDBRANCH   1   2
BRANCH   1   9
ATOM      9  C   UNL     1     128.810 146.017 109.498  1.00  0.00     0.000 C 
BRANCH   9  10
ATOM     10  C   UNL     1     127.706 145.261 108.737  1.00  0.00    -0.000 C 
BRANCH  10  11
ATOM     11  C   UNL     1     126.904 146.116 107.734  1.00  0.00    -0.000 C 
BRANCH  11  12
ATOM     12  C   UNL     1     126.933 145.615 106.279  1.00  0.00    -0.000 C 
BRANCH  12  13
ATOM     13  C   UNL     1     127.211 144.109 106.173  1.00  0.00    -0.003 C 
ATOM     14  C   UNL     1     127.883 143.766 104.847  1.00  0.00     0.004 C 
ENDBRANCH  12  13
ENDBRANCH  11  12
ENDBRANCH  10  11
ENDBRANCH   9  10
ENDBRANCH   1   9
TORSDOF 10
ENDMDL
MODEL 4
REMARK VINA RESULT:    -3.446      1.269      2.015
REMARK INTER + INTRA:          -7.041
REMARK INTER:                  -5.624
REMARK INTRA:                  -1.416
REMARK UNBOUND:                -1.580
REMARK SMILES CCCCCCCCCCCC(=O)[O-]
REMARK SMILES IDX 7 1 8 2 9 3 10 4 11 5 12 6 13 7 14 8 6 9 5 10 4 11 3 12 2 13
REMARK SMILES IDX 1 14
REMARK H PARENT
REMARK Flexibility Score: inf
ROOT
ATOM      1  C   UNL     1     130.243 143.195 107.581  1.00  0.00     0.000 C 
ENDROOT
BRANCH   1   2
ATOM      2  C   UNL     1     131.211 142.853 106.437  1.00  0.00     0.000 C 
BRANCH   2   3
ATOM      3  C   UNL     1     131.816 144.107 105.783  1.00  0.00     0.000 C 
BRANCH   3   4
ATOM      4  C   UNL     1     131.021 145.387 106.103  1.00  0.00     0.006 C 
BRANCH   4   5
ATOM      5  C   UNL     1     131.884 146.655 106.200  1.00  0.00     0.053 C 
BRANCH   5   6
ATOM      6  C   UNL     1     132.775 146.636 107.404  1.00  0.00     0.041 C 
ATOM      7  O   UNL     1     134.027 146.624 107.267  1.00  0.00    -0.550 OA
ATOM      8  O   UNL     1     132.222 146.597 108.678  1.00  0.00    -0.550 OA
ENDBRANCH   5   6
ENDBRANCH   4   5
ENDBRANCH   3   4
ENDBRANCH   2   3
ENDBRANCH   1   2
BRANCH   1   9
ATOM      9  C   UNL     1     129.101 142.174 107.712  1.00  0.00     0.000 C 
BRANCH   9  10
ATOM     10  C   UNL     1     128.426 141.859 106.365  1.00  0.00    -0.000 C 
BRANCH  10  11
ATOM     11  C   UNL     1     127.350 142.872 105.924  1.00  0.00    -0.000 C 
BRANCH  11  12
ATOM     12  C   UNL     1     127.779 143.836 104.803  1.00  0.00    -0.000 C 
BRANCH  12  13
ATOM     13  C   UNL     1     127.452 145.302 105.120  1.00  0.00    -0.003 C 
ATOM     14  C   UNL     1     127.194 145.498 106.611  1.00  0.00     0.004 C 
ENDBRANCH  12  13
ENDBRANCH  11  12
ENDBRANCH  10  11
ENDBRANCH   9  10
ENDBRANCH   1   9
TORSDOF 10
ENDMDL
MODEL 5
REMARK VINA RESULT:    -3.421      1.522      2.700
REMARK INTER + INTRA:          -7.002
REMARK INTER:                  -5.965
REMARK INTRA:                  -1.037
REMARK UNBOUND:                -1.580
REMARK SMILES CCCCCCCCCCCC(=O)[O-]
REMARK SMILES IDX 7 1 8 2 9 3 10 4 11 5 12 6 13 7 14 8 6 9 5 10 4 11 3 12 2 13
REMARK SMILES IDX 1 14
REMARK H PARENT
REMARK Flexibility Score: inf
ROOT
ATOM      1  C   UNL     1     127.975 145.484 106.734  1.00  0.00     0.000 C 
ENDROOT
BRANCH   1   2
ATOM      2  C   UNL     1     129.434 145.470 107.217  1.00  0.00     0.000 C 
BRANCH   2   3
ATOM      3  C   UNL     1     130.439 145.388 106.055  1.00  0.00     0.000 C 
BRANCH   3   4
ATOM      4  C   UNL     1     131.389 146.598 106.004  1.00  0.00     0.006 C 
BRANCH   4   5
ATOM      5  C   UNL     1     132.867 146.248 106.242  1.00  0.00     0.053 C 
BRANCH   5   6
ATOM      6  C   UNL     1     133.328 146.662 107.606  1.00  0.00     0.041 C 
ATOM      7  O   UNL     1     134.555 146.819 107.840  1.00  0.00    -0.550 OA
ATOM      8  O   UNL     1     132.404 146.842 108.627  1.00  0.00    -0.550 OA
ENDBRANCH   5   6
ENDBRANCH   4   5
ENDBRANCH   3   4
ENDBRANCH   2   3
ENDBRANCH   1   2
BRANCH   1   9
ATOM      9  C   UNL     1     127.855 145.246 105.219  1.00  0.00     0.000 C 
BRANCH   9  10
ATOM     10  C   UNL     1     127.650 143.763 104.864  1.00  0.00    -0.000 C 
BRANCH  10  11
ATOM     11  C   UNL     1     127.167 142.875 106.029  1.00  0.00    -0.000 C 
BRANCH  11  12
ATOM     12  C   UNL     1     128.032 141.633 106.306  1.00  0.00    -0.000 C 
BRANCH  12  13
ATOM     13  C   UNL     1     128.871 141.764 107.585  1.00  0.00    -0.003 C 
ATOM     14  C   UNL     1     128.033 142.305 108.740  1.00  0.00     0.004 C 
ENDBRANCH  12  13
ENDBRANCH  11  12
ENDBRANCH  10  11
ENDBRANCH   9  10
ENDBRANCH   1   9
TORSDOF 10
ENDMDL
MODEL 6
REMARK VINA RESULT:    -3.419      1.840      2.949
REMARK INTER + INTRA:          -6.998
REMARK INTER:                  -5.921
REMARK INTRA:                  -1.077
REMARK UNBOUND:                -1.580
REMARK SMILES CCCCCCCCCCCC(=O)[O-]
REMARK SMILES IDX 7 1 8 2 9 3 10 4 11 5 12 6 13 7 14 8 6 9 5 10 4 11 3 12 2 13
REMARK SMILES IDX 1 14
REMARK H PARENT
REMARK Flexibility Score: inf
ROOT
ATOM      1  C   UNL     1     128.173 145.622 105.636  1.00  0.00     0.000 C 
ENDROOT
BRANCH   1   2
ATOM      2  C   UNL     1     128.934 144.298 105.813  1.00  0.00     0.000 C 
BRANCH   2   3
ATOM      3  C   UNL     1     130.435 144.513 106.074  1.00  0.00     0.000 C 
BRANCH   3   4
ATOM      4  C   UNL     1     130.803 145.998 106.238  1.00  0.00     0.006 C 
BRANCH   4   5
ATOM      5  C   UNL     1     132.313 146.282 106.180  1.00  0.00     0.053 C 
BRANCH   5   6
ATOM      6  C   UNL     1     132.884 146.553 107.538  1.00  0.00     0.041 C 
ATOM      7  O   UNL     1     132.128 146.616 108.544  1.00  0.00    -0.550 OA
ATOM      8  O   UNL     1     134.248 146.768 107.689  1.00  0.00    -0.550 OA
ENDBRANCH   5   6
ENDBRANCH   4   5
ENDBRANCH   3   4
ENDBRANCH   2   3
ENDBRANCH   1   2
BRANCH   1   9
ATOM      9  C   UNL     1     126.947 145.725 106.560  1.00  0.00     0.000 C 
BRANCH   9  10
ATOM     10  C   UNL     1     127.234 145.227 107.988  1.00  0.00    -0.000 C 
BRANCH  10  11
ATOM     11  C   UNL     1     128.127 146.157 108.835  1.00  0.00    -0.000 C 
BRANCH  11  12
ATOM     12  C   UNL     1     128.978 145.450 109.904  1.00  0.00    -0.000 C 
BRANCH  12  13
ATOM     13  C   UNL     1     128.389 144.100 110.337  1.00  0.00    -0.003 C 
ATOM     14  C   UNL     1     127.610 144.234 111.642  1.00  0.00     0.004 C 
ENDBRANCH  12  13
ENDBRANCH  11  12
ENDBRANCH  10  11
ENDBRANCH   9  10
ENDBRANCH   1   9
TORSDOF 10
ENDMDL
MODEL 7
REMARK VINA RESULT:    -3.390      3.447      5.040
REMARK INTER + INTRA:          -6.952
REMARK INTER:                  -5.355
REMARK INTRA:                  -1.597
REMARK UNBOUND:                -1.580
REMARK SMILES CCCCCCCCCCCC(=O)[O-]
REMARK SMILES IDX 7 1 8 2 9 3 10 4 11 5 12 6 13 7 14 8 6 9 5 10 4 11 3 12 2 13
REMARK SMILES IDX 1 14
REMARK H PARENT
REMARK Flexibility Score: inf
ROOT
ATOM      1  C   UNL     1     130.844 144.849 106.080  1.00  0.00     0.000 C 
ENDROOT
BRANCH   1   2
ATOM      2  C   UNL     1     130.485 143.404 106.461  1.00  0.00     0.000 C 
BRANCH   2   3
ATOM      3  C   UNL     1     129.554 142.738 105.433  1.00  0.00     0.000 C 
BRANCH   3   4
ATOM      4  C   UNL     1     128.373 142.001 106.090  1.00  0.00     0.006 C 
BRANCH   4   5
ATOM      5  C   UNL     1     128.531 141.784 107.604  1.00  0.00     0.053 C 
BRANCH   5   6
ATOM      6  C   UNL     1     128.064 140.425 108.026  1.00  0.00     0.041 C 
ATOM      7  O   UNL     1     128.455 139.929 109.116  1.00  0.00    -0.550 OA
ATOM      8  O   UNL     1     127.222 139.691 107.200  1.00  0.00    -0.550 OA
ENDBRANCH   5   6
ENDBRANCH   4   5
ENDBRANCH   3   4
ENDBRANCH   2   3
ENDBRANCH   1   2
BRANCH   1   9
ATOM      9  C   UNL     1     130.513 145.852 107.198  1.00  0.00     0.000 C 
BRANCH   9  10
ATOM     10  C   UNL     1     129.566 145.269 108.261  1.00  0.00    -0.000 C 
BRANCH  10  11
ATOM     11  C   UNL     1     128.172 145.928 108.323  1.00  0.00    -0.000 C 
BRANCH  11  12
ATOM     12  C   UNL     1     127.119 145.320 107.381  1.00  0.00    -0.000 C 
BRANCH  12  13
ATOM     13  C   UNL     1     126.877 146.173 106.128  1.00  0.00    -0.003 C 
ATOM     14  C   UNL     1     127.272 145.415 104.863  1.00  0.00     0.004 C 
ENDBRANCH  12  13
ENDBRANCH  11  12
ENDBRANCH  10  11
ENDBRANCH   9  10
ENDBRANCH   1   9
TORSDOF 10
ENDMDL
MODEL 8
REMARK VINA RESULT:    -3.373      0.906      1.397
REMARK INTER + INTRA:          -6.925
REMARK INTER:                  -5.507
REMARK INTRA:                  -1.418
REMARK UNBOUND:                -1.580
REMARK SMILES CCCCCCCCCCCC(=O)[O-]
REMARK SMILES IDX 7 1 8 2 9 3 10 4 11 5 12 6 13 7 14 8 6 9 5 10 4 11 3 12 2 13
REMARK SMILES IDX 1 14
REMARK H PARENT
REMARK Flexibility Score: inf
ROOT
ATOM      1  C   UNL     1     129.125 142.928 105.934  1.00  0.00     0.000 C 
ENDROOT
BRANCH   1   2
ATOM      2  C   UNL     1     130.566 143.408 105.702  1.00  0.00     0.000 C 
BRANCH   2   3
ATOM      3  C   UNL     1     130.960 144.562 106.640  1.00  0.00     0.000 C 
BRANCH   3   4
ATOM      4  C   UNL     1     130.877 145.938 105.956  1.00  0.00     0.006 C 
BRANCH   4   5
ATOM      5  C   UNL     1     132.056 146.872 106.277  1.00  0.00     0.053 C 
BRANCH   5   6
ATOM      6  C   UNL     1     133.370 146.158 106.208  1.00  0.00     0.041 C 
ATOM      7  O   UNL     1     134.093 146.060 107.235  1.00  0.00    -0.550 OA
ATOM      8  O   UNL     1     133.813 145.629 105.003  1.00  0.00    -0.550 OA
ENDBRANCH   5   6
ENDBRANCH   4   5
ENDBRANCH   3   4
ENDBRANCH   2   3
ENDBRANCH   1   2
BRANCH   1   9
ATOM      9  C   UNL     1     128.135 143.528 104.920  1.00  0.00     0.000 C 
BRANCH   9  10
ATOM     10  C   UNL     1     127.351 144.724 105.489  1.00  0.00    -0.000 C 
BRANCH  10  11
ATOM     11  C   UNL     1     127.143 144.698 107.017  1.00  0.00    -0.000 C 
BRANCH  11  12
ATOM     12  C   UNL     1     127.209 146.070 107.709  1.00  0.00    -0.000 C 
BRANCH  12  13
ATOM     13  C   UNL     1     128.312 146.148 108.774  1.00  0.00    -0.003 C 
ATOM     14  C   UNL     1     128.526 144.794 109.445  1.00  0.00     0.004 C 
ENDBRANCH  12  13
ENDBRANCH  11  12
ENDBRANCH  10  11
ENDBRANCH   9  10
ENDBRANCH   1   9
TORSDOF 10
ENDMDL
