MODEL 1
REMARK VINA RESULT:    -6.051      0.000      0.000
REMARK INTER + INTRA:          -7.451
REMARK INTER:                  -7.289
REMARK INTRA:                  -0.162
REMARK UNBOUND:                -0.162
REMARK SMILES O=c1c(O)c(-c2ccc(O)c(O)c2)oc2cc(O)cc(O)c12
REMARK SMILES IDX 5 1 3 2 2 3 1 4 22 5 20 6 19 7 17 8 16 9 15 10 14 11 6 12
REMARK SMILES IDX 7 13 8 14 9 15 13 16 11 17 10 18 12 20 4 22 21 24 18 26
REMARK H PARENT 10 19 12 21 4 23 21 25 18 27
REMARK Flexibility Score: inf
ROOT
ATOM      1  C   UNL     1      28.245  28.482  13.610  1.00  0.00     0.180 A 
ATOM      2  C   UNL     1      28.104  29.857  13.870  1.00  0.00     0.208 A 
ATOM      3  C   UNL     1      29.198  30.566  14.393  1.00  0.00     0.238 A 
ATOM      4  O   UNL     1      29.083  31.807  14.572  1.00  0.00    -0.285 OA
ATOM      5  C   UNL     1      30.412  29.890  14.663  1.00  0.00     0.111 A 
ATOM      6  C   UNL     1      31.570  30.502  15.230  1.00  0.00     0.134 A 
ATOM      7  C   UNL     1      32.758  29.767  15.333  1.00  0.00     0.093 A 
ATOM      8  C   UNL     1      32.811  28.424  14.951  1.00  0.00     0.123 A 
ATOM      9  C   UNL     1      31.668  27.802  14.452  1.00  0.00     0.094 A 
ATOM     10  C   UNL     1      30.479  28.519  14.304  1.00  0.00     0.146 A 
ATOM     11  O   UNL     1      29.416  27.891  13.814  1.00  0.00    -0.452 OA
ENDROOT
BRANCH   1  12
ATOM     12  C   UNL     1      27.130  27.662  13.084  1.00  0.00     0.025 A 
ATOM     13  C   UNL     1      26.590  27.894  11.807  1.00  0.00     0.016 A 
ATOM     14  C   UNL     1      25.523  27.122  11.341  1.00  0.00     0.051 A 
ATOM     15  C   UNL     1      24.971  26.117  12.147  1.00  0.00     0.157 A 
ATOM     16  C   UNL     1      26.560  26.668  13.896  1.00  0.00     0.062 A 
ATOM     17  C   UNL     1      25.492  25.892  13.432  1.00  0.00     0.158 A 
BRANCH  15  18
ATOM     18  O   UNL     1      23.908  25.347  11.678  1.00  0.00    -0.504 OA
ATOM     19  H   UNL     1      23.469  25.536  10.784  1.00  0.00     0.293 HD
ENDBRANCH  15  18
BRANCH  17  20
ATOM     20  O   UNL     1      24.961  24.905  14.262  1.00  0.00    -0.504 OA
ATOM     21  H   UNL     1      24.758  25.076  15.239  1.00  0.00     0.293 HD
ENDBRANCH  17  20
ENDBRANCH   1  12
BRANCH   2  22
ATOM     22  O   UNL     1      26.904  30.509  13.575  1.00  0.00    -0.502 OA
ATOM     23  H   UNL     1      26.740  30.976  12.691  1.00  0.00     0.293 HD
ENDBRANCH   2  22
BRANCH   6  24
ATOM     24  O   UNL     1      31.599  31.807  15.729  1.00  0.00    -0.507 OA
ATOM     25  H   UNL     1      30.807  32.287  16.130  1.00  0.00     0.293 HD
ENDBRANCH   6  24
BRANCH   8  26
ATOM     26  O   UNL     1      33.992  27.697  15.072  1.00  0.00    -0.508 OA
ATOM     27  H   UNL     1      34.163  26.868  14.516  1.00  0.00     0.293 HD
ENDBRANCH   8  26
TORSDOF 6
ENDMDL
MODEL 2
REMARK VINA RESULT:    -5.972      3.027      6.566
REMARK INTER + INTRA:          -7.357
REMARK INTER:                  -7.035
REMARK INTRA:                  -0.321
REMARK UNBOUND:                -0.162
REMARK SMILES O=c1c(O)c(-c2ccc(O)c(O)c2)oc2cc(O)cc(O)c12
REMARK SMILES IDX 5 1 3 2 2 3 1 4 22 5 20 6 19 7 17 8 16 9 15 10 14 11 6 12
REMARK SMILES IDX 7 13 8 14 9 15 13 16 11 17 10 18 12 20 4 22 21 24 18 26
REMARK H PARENT 10 19 12 21 4 23 21 25 18 27
REMARK Flexibility Score: inf
ROOT
ATOM      1  C   UNL     1      32.277  28.033  13.128  1.00  0.00     0.180 A 
ATOM      2  C   UNL     1      32.759  28.526  14.353  1.00  0.00     0.208 A 
ATOM      3  C   UNL     1      31.948  29.393  15.104  1.00  0.00     0.238 A 
ATOM      4  O   UNL     1      32.362  29.787  16.226  1.00  0.00    -0.285 OA
ATOM      5  C   UNL     1      30.675  29.769  14.614  1.00  0.00     0.111 A 
ATOM      6  C   UNL     1      29.788  30.673  15.273  1.00  0.00     0.134 A 
ATOM      7  C   UNL     1      28.499  30.871  14.761  1.00  0.00     0.093 A 
ATOM      8  C   UNL     1      28.089  30.249  13.579  1.00  0.00     0.123 A 
ATOM      9  C   UNL     1      28.970  29.412  12.897  1.00  0.00     0.094 A 
ATOM     10  C   UNL     1      30.248  29.167  13.402  1.00  0.00     0.146 A 
ATOM     11  O   UNL     1      31.052  28.353  12.727  1.00  0.00    -0.452 OA
ENDROOT
BRANCH   1  12
ATOM     12  C   UNL     1      33.082  27.136  12.268  1.00  0.00     0.025 A 
ATOM     13  C   UNL     1      33.065  25.742  12.446  1.00  0.00     0.016 A 
ATOM     14  C   UNL     1      33.852  24.917  11.638  1.00  0.00     0.051 A 
ATOM     15  C   UNL     1      34.675  25.473  10.649  1.00  0.00     0.157 A 
ATOM     16  C   UNL     1      33.925  27.690  11.290  1.00  0.00     0.062 A 
ATOM     17  C   UNL     1      34.713  26.866  10.478  1.00  0.00     0.158 A 
BRANCH  15  18
ATOM     18  O   UNL     1      35.457  24.648   9.843  1.00  0.00    -0.504 OA
ATOM     19  H   UNL     1      35.201  24.448   8.882  1.00  0.00     0.293 HD
ENDBRANCH  15  18
BRANCH  17  20
ATOM     20  O   UNL     1      35.527  27.452   9.508  1.00  0.00    -0.504 OA
ATOM     21  H   UNL     1      36.307  26.958   9.091  1.00  0.00     0.293 HD
ENDBRANCH  17  20
ENDBRANCH   1  12
BRANCH   2  22
ATOM     22  O   UNL     1      34.009  28.125  14.830  1.00  0.00    -0.502 OA
ATOM     23  H   UNL     1      34.185  27.935  15.809  1.00  0.00     0.293 HD
ENDBRANCH   2  22
BRANCH   6  24
ATOM     24  O   UNL     1      30.130  31.415  16.407  1.00  0.00    -0.507 OA
ATOM     25  H   UNL     1      31.035  31.401  16.851  1.00  0.00     0.293 HD
ENDBRANCH   6  24
BRANCH   8  26
ATOM     26  O   UNL     1      26.812  30.465  13.069  1.00  0.00    -0.508 OA
ATOM     27  H   UNL     1      26.046  29.834  13.272  1.00  0.00     0.293 HD
ENDBRANCH   8  26
TORSDOF 6
ENDMDL
MODEL 3
REMARK VINA RESULT:    -5.934      3.582      6.904
REMARK INTER + INTRA:          -7.310
REMARK INTER:                  -7.022
REMARK INTRA:                  -0.288
REMARK UNBOUND:                -0.162
REMARK SMILES O=c1c(O)c(-c2ccc(O)c(O)c2)oc2cc(O)cc(O)c12
REMARK SMILES IDX 5 1 3 2 2 3 1 4 22 5 20 6 19 7 17 8 16 9 15 10 14 11 6 12
REMARK SMILES IDX 7 13 8 14 9 15 13 16 11 17 10 18 12 20 4 22 21 24 18 26
REMARK H PARENT 10 19 12 21 4 23 21 25 18 27
REMARK Flexibility Score: inf
ROOT
ATOM      1  C   UNL     1      33.205  27.887  13.686  1.00  0.00     0.180 A 
ATOM      2  C   UNL     1      33.798  26.839  14.411  1.00  0.00     0.208 A 
ATOM      3  C   UNL     1      34.699  25.982  13.755  1.00  0.00     0.238 A 
ATOM      4  O   UNL     1      35.268  25.079  14.423  1.00  0.00    -0.285 OA
ATOM      5  C   UNL     1      34.982  26.176  12.382  1.00  0.00     0.111 A 
ATOM      6  C   UNL     1      35.848  25.345  11.609  1.00  0.00     0.134 A 
ATOM      7  C   UNL     1      36.158  25.706  10.292  1.00  0.00     0.093 A 
ATOM      8  C   UNL     1      35.581  26.833   9.700  1.00  0.00     0.123 A 
ATOM      9  C   UNL     1      34.689  27.617  10.428  1.00  0.00     0.094 A 
ATOM     10  C   UNL     1      34.389  27.301  11.755  1.00  0.00     0.146 A 
ATOM     11  O   UNL     1      33.541  28.081  12.416  1.00  0.00    -0.452 OA
ENDROOT
BRANCH   1  12
ATOM     12  C   UNL     1      32.227  28.814  14.300  1.00  0.00     0.025 A 
ATOM     13  C   UNL     1      32.641  29.873  15.125  1.00  0.00     0.016 A 
ATOM     14  C   UNL     1      31.699  30.721  15.712  1.00  0.00     0.051 A 
ATOM     15  C   UNL     1      30.329  30.516  15.495  1.00  0.00     0.157 A 
ATOM     16  C   UNL     1      30.853  28.599  14.101  1.00  0.00     0.062 A 
ATOM     17  C   UNL     1      29.906  29.448  14.687  1.00  0.00     0.158 A 
BRANCH  15  18
ATOM     18  O   UNL     1      29.392  31.365  16.079  1.00  0.00    -0.504 OA
ATOM     19  H   UNL     1      28.808  31.061  16.851  1.00  0.00     0.293 HD
ENDBRANCH  15  18
BRANCH  17  20
ATOM     20  O   UNL     1      28.551  29.212  14.456  1.00  0.00    -0.504 OA
ATOM     21  H   UNL     1      27.848  29.925  14.605  1.00  0.00     0.293 HD
ENDBRANCH  17  20
ENDBRANCH   1  12
BRANCH   2  22
ATOM     22  O   UNL     1      33.521  26.679  15.771  1.00  0.00    -0.502 OA
ATOM     23  H   UNL     1      34.157  26.210  16.405  1.00  0.00     0.293 HD
ENDBRANCH   2  22
BRANCH   6  24
ATOM     24  O   UNL     1      36.403  24.149  12.074  1.00  0.00    -0.507 OA
ATOM     25  H   UNL     1      37.226  23.710  11.691  1.00  0.00     0.293 HD
ENDBRANCH   6  24
BRANCH   8  26
ATOM     26  O   UNL     1      35.882  27.176   8.384  1.00  0.00    -0.508 OA
ATOM     27  H   UNL     1      35.174  27.534   7.754  1.00  0.00     0.293 HD
ENDBRANCH   8  26
TORSDOF 6
ENDMDL
MODEL 4
REMARK VINA RESULT:    -5.667      2.211      6.666
REMARK INTER + INTRA:          -6.989
REMARK INTER:                  -6.690
REMARK INTRA:                  -0.299
REMARK UNBOUND:                -0.162
REMARK SMILES O=c1c(O)c(-c2ccc(O)c(O)c2)oc2cc(O)cc(O)c12
REMARK SMILES IDX 5 1 3 2 2 3 1 4 22 5 20 6 19 7 17 8 16 9 15 10 14 11 6 12
REMARK SMILES IDX 7 13 8 14 9 15 13 16 11 17 10 18 12 20 4 22 21 24 18 26
REMARK H PARENT 10 19 12 21 4 23 21 25 18 27
REMARK Flexibility Score: inf
ROOT
ATOM      1  C   UNL     1      31.906  28.004  14.265  1.00  0.00     0.180 A 
ATOM      2  C   UNL     1      32.059  29.218  14.957  1.00  0.00     0.208 A 
ATOM      3  C   UNL     1      31.004  30.145  14.948  1.00  0.00     0.238 A 
ATOM      4  O   UNL     1      31.126  31.206  15.615  1.00  0.00    -0.285 OA
ATOM      5  C   UNL     1      29.816  29.853  14.235  1.00  0.00     0.111 A 
ATOM      6  C   UNL     1      28.700  30.736  14.126  1.00  0.00     0.134 A 
ATOM      7  C   UNL     1      27.526  30.291  13.505  1.00  0.00     0.093 A 
ATOM      8  C   UNL     1      27.451  29.019  12.933  1.00  0.00     0.123 A 
ATOM      9  C   UNL     1      28.557  28.172  12.982  1.00  0.00     0.094 A 
ATOM     10  C   UNL     1      29.729  28.574  13.626  1.00  0.00     0.146 A 
ATOM     11  O   UNL     1      30.755  27.733  13.661  1.00  0.00    -0.452 OA
ENDROOT
BRANCH   1  12
ATOM     12  C   UNL     1      32.982  26.989  14.207  1.00  0.00     0.025 A 
ATOM     13  C   UNL     1      32.996  25.885  15.077  1.00  0.00     0.016 A 
ATOM     14  C   UNL     1      34.035  24.953  15.020  1.00  0.00     0.051 A 
ATOM     15  C   UNL     1      35.081  25.115  14.101  1.00  0.00     0.157 A 
ATOM     16  C   UNL     1      34.044  27.159  13.303  1.00  0.00     0.062 A 
ATOM     17  C   UNL     1      35.086  26.225  13.242  1.00  0.00     0.158 A 
BRANCH  15  18
ATOM     18  O   UNL     1      36.114  24.182  14.044  1.00  0.00    -0.504 OA
ATOM     19  H   UNL     1      37.088  24.466  14.064  1.00  0.00     0.293 HD
ENDBRANCH  15  18
BRANCH  17  20
ATOM     20  O   UNL     1      36.116  26.420  12.321  1.00  0.00    -0.504 OA
ATOM     21  H   UNL     1      36.210  27.280  11.794  1.00  0.00     0.293 HD
ENDBRANCH  17  20
ENDBRANCH   1  12
BRANCH   2  22
ATOM     22  O   UNL     1      33.231  29.476  15.672  1.00  0.00    -0.502 OA
ATOM     23  H   UNL     1      33.585  30.414  15.818  1.00  0.00     0.293 HD
ENDBRANCH   2  22
BRANCH   6  24
ATOM     24  O   UNL     1      28.702  32.058  14.581  1.00  0.00    -0.507 OA
ATOM     25  H   UNL     1      29.529  32.623  14.702  1.00  0.00     0.293 HD
ENDBRANCH   6  24
BRANCH   8  26
ATOM     26  O   UNL     1      26.286  28.590  12.303  1.00  0.00    -0.508 OA
ATOM     27  H   UNL     1      25.451  28.362  12.830  1.00  0.00     0.293 HD
ENDBRANCH   8  26
TORSDOF 6
ENDMDL
MODEL 5
REMARK VINA RESULT:    -5.662      3.340      6.700
REMARK INTER + INTRA:          -6.982
REMARK INTER:                  -6.976
REMARK INTRA:                  -0.006
REMARK UNBOUND:                -0.162
REMARK SMILES O=c1c(O)c(-c2ccc(O)c(O)c2)oc2cc(O)cc(O)c12
REMARK SMILES IDX 5 1 3 2 2 3 1 4 22 5 20 6 19 7 17 8 16 9 15 10 14 11 6 12
REMARK SMILES IDX 7 13 8 14 9 15 13 16 11 17 10 18 12 20 4 22 21 24 18 26
REMARK H PARENT 10 19 12 21 4 23 21 25 18 27
REMARK Flexibility Score: inf
ROOT
ATOM      1  C   UNL     1      32.212  28.231  12.664  1.00  0.00     0.180 A 
ATOM      2  C   UNL     1      31.036  28.281  11.895  1.00  0.00     0.208 A 
ATOM      3  C   UNL     1      29.934  29.003  12.382  1.00  0.00     0.238 A 
ATOM      4  O   UNL     1      28.904  29.089  11.664  1.00  0.00    -0.285 OA
ATOM      5  C   UNL     1      30.017  29.653  13.636  1.00  0.00     0.111 A 
ATOM      6  C   UNL     1      28.949  30.379  14.244  1.00  0.00     0.134 A 
ATOM      7  C   UNL     1      29.183  31.091  15.427  1.00  0.00     0.093 A 
ATOM      8  C   UNL     1      30.428  31.049  16.059  1.00  0.00     0.123 A 
ATOM      9  C   UNL     1      31.460  30.294  15.504  1.00  0.00     0.094 A 
ATOM     10  C   UNL     1      31.267  29.603  14.306  1.00  0.00     0.146 A 
ATOM     11  O   UNL     1      32.279  28.904  13.806  1.00  0.00    -0.452 OA
ENDROOT
BRANCH   1  12
ATOM     12  C   UNL     1      33.405  27.468  12.231  1.00  0.00     0.025 A 
ATOM     13  C   UNL     1      34.023  26.533  13.078  1.00  0.00     0.016 A 
ATOM     14  C   UNL     1      35.162  25.842  12.656  1.00  0.00     0.051 A 
ATOM     15  C   UNL     1      35.708  26.085  11.389  1.00  0.00     0.157 A 
ATOM     16  C   UNL     1      33.968  27.724  10.969  1.00  0.00     0.062 A 
ATOM     17  C   UNL     1      35.109  27.033  10.543  1.00  0.00     0.158 A 
BRANCH  15  18
ATOM     18  O   UNL     1      36.843  25.393  10.970  1.00  0.00    -0.504 OA
ATOM     19  H   UNL     1      37.058  24.466  11.319  1.00  0.00     0.293 HD
ENDBRANCH  15  18
BRANCH  17  20
ATOM     20  O   UNL     1      35.631  27.304   9.279  1.00  0.00    -0.504 OA
ATOM     21  H   UNL     1      36.060  26.585   8.709  1.00  0.00     0.293 HD
ENDBRANCH  17  20
ENDBRANCH   1  12
BRANCH   2  22
ATOM     22  O   UNL     1      30.984  27.650  10.649  1.00  0.00    -0.502 OA
ATOM     23  H   UNL     1      31.802  27.531  10.063  1.00  0.00     0.293 HD
ENDBRANCH   2  22
BRANCH   6  24
ATOM     24  O   UNL     1      27.643  30.410  13.745  1.00  0.00    -0.507 OA
ATOM     25  H   UNL     1      27.008  31.188  13.845  1.00  0.00     0.293 HD
ENDBRANCH   6  24
BRANCH   8  26
ATOM     26  O   UNL     1      30.648  31.747  17.243  1.00  0.00    -0.508 OA
ATOM     27  H   UNL     1      31.455  32.348  17.363  1.00  0.00     0.293 HD
ENDBRANCH   8  26
TORSDOF 6
ENDMDL
MODEL 6
REMARK VINA RESULT:    -5.656      1.548      7.271
REMARK INTER + INTRA:          -6.976
REMARK INTER:                  -6.891
REMARK INTRA:                  -0.085
REMARK UNBOUND:                -0.162
REMARK SMILES O=c1c(O)c(-c2ccc(O)c(O)c2)oc2cc(O)cc(O)c12
REMARK SMILES IDX 5 1 3 2 2 3 1 4 22 5 20 6 19 7 17 8 16 9 15 10 14 11 6 12
REMARK SMILES IDX 7 13 8 14 9 15 13 16 11 17 10 18 12 20 4 22 21 24 18 26
REMARK H PARENT 10 19 12 21 4 23 21 25 18 27
REMARK Flexibility Score: inf
ROOT
ATOM      1  C   UNL     1      27.752  28.170  13.968  1.00  0.00     0.180 A 
ATOM      2  C   UNL     1      27.696  26.941  14.647  1.00  0.00     0.208 A 
ATOM      3  C   UNL     1      26.677  26.029  14.322  1.00  0.00     0.238 A 
ATOM      4  O   UNL     1      26.665  24.908  14.895  1.00  0.00    -0.285 OA
ATOM      5  C   UNL     1      25.721  26.365  13.334  1.00  0.00     0.111 A 
ATOM      6  C   UNL     1      24.624  25.534  12.954  1.00  0.00     0.134 A 
ATOM      7  C   UNL     1      23.816  25.910  11.874  1.00  0.00     0.093 A 
ATOM      8  C   UNL     1      24.025  27.117  11.203  1.00  0.00     0.123 A 
ATOM      9  C   UNL     1      25.056  27.963  11.606  1.00  0.00     0.094 A 
ATOM     10  C   UNL     1      25.901  27.598  12.656  1.00  0.00     0.146 A 
ATOM     11  O   UNL     1      26.879  28.428  13.001  1.00  0.00    -0.452 OA
ENDROOT
BRANCH   1  12
ATOM     12  C   UNL     1      28.779  29.192  14.273  1.00  0.00     0.025 A 
ATOM     13  C   UNL     1      28.422  30.492  14.673  1.00  0.00     0.016 A 
ATOM     14  C   UNL     1      29.408  31.447  14.933  1.00  0.00     0.051 A 
ATOM     15  C   UNL     1      30.764  31.123  14.784  1.00  0.00     0.157 A 
ATOM     16  C   UNL     1      30.138  28.878  14.105  1.00  0.00     0.062 A 
ATOM     17  C   UNL     1      31.128  29.833  14.365  1.00  0.00     0.158 A 
BRANCH  15  18
ATOM     18  O   UNL     1      31.745  32.077  15.046  1.00  0.00    -0.504 OA
ATOM     19  H   UNL     1      31.612  33.054  14.810  1.00  0.00     0.293 HD
ENDBRANCH  15  18
BRANCH  17  20
ATOM     20  O   UNL     1      32.468  29.480  14.201  1.00  0.00    -0.504 OA
ATOM     21  H   UNL     1      32.943  29.574  13.312  1.00  0.00     0.293 HD
ENDBRANCH  17  20
ENDBRANCH   1  12
BRANCH   2  22
ATOM     22  O   UNL     1      28.663  26.620  15.603  1.00  0.00    -0.502 OA
ATOM     23  H   UNL     1      29.644  26.839  15.480  1.00  0.00     0.293 HD
ENDBRANCH   2  22
BRANCH   6  24
ATOM     24  O   UNL     1      24.272  24.354  13.617  1.00  0.00    -0.507 OA
ATOM     25  H   UNL     1      23.426  23.831  13.448  1.00  0.00     0.293 HD
ENDBRANCH   6  24
BRANCH   8  26
ATOM     26  O   UNL     1      23.206  27.490  10.140  1.00  0.00    -0.508 OA
ATOM     27  H   UNL     1      22.833  28.429  10.062  1.00  0.00     0.293 HD
ENDBRANCH   8  26
TORSDOF 6
ENDMDL
MODEL 7
REMARK VINA RESULT:    -5.642      2.910      6.631
REMARK INTER + INTRA:          -6.958
REMARK INTER:                  -6.707
REMARK INTRA:                  -0.252
REMARK UNBOUND:                -0.162
REMARK SMILES O=c1c(O)c(-c2ccc(O)c(O)c2)oc2cc(O)cc(O)c12
REMARK SMILES IDX 5 1 3 2 2 3 1 4 22 5 20 6 19 7 17 8 16 9 15 10 14 11 6 12
REMARK SMILES IDX 7 13 8 14 9 15 13 16 11 17 10 18 12 20 4 22 21 24 18 26
REMARK H PARENT 10 19 12 21 4 23 21 25 18 27
REMARK Flexibility Score: inf
ROOT
ATOM      1  C   UNL     1      31.995  27.533  13.977  1.00  0.00     0.180 A 
ATOM      2  C   UNL     1      30.736  27.217  13.437  1.00  0.00     0.208 A 
ATOM      3  C   UNL     1      29.713  28.178  13.487  1.00  0.00     0.238 A 
ATOM      4  O   UNL     1      28.605  27.909  12.954  1.00  0.00    -0.285 OA
ATOM      5  C   UNL     1      29.957  29.436  14.088  1.00  0.00     0.111 A 
ATOM      6  C   UNL     1      28.982  30.469  14.229  1.00  0.00     0.134 A 
ATOM      7  C   UNL     1      29.370  31.721  14.722  1.00  0.00     0.093 A 
ATOM      8  C   UNL     1      30.681  31.956  15.141  1.00  0.00     0.123 A 
ATOM      9  C   UNL     1      31.626  30.935  15.063  1.00  0.00     0.094 A 
ATOM     10  C   UNL     1      31.278  29.687  14.542  1.00  0.00     0.146 A 
ATOM     11  O   UNL     1      32.211  28.745  14.475  1.00  0.00    -0.452 OA
ENDROOT
BRANCH   1  12
ATOM     12  C   UNL     1      33.115  26.564  13.985  1.00  0.00     0.025 A 
ATOM     13  C   UNL     1      33.104  25.441  14.831  1.00  0.00     0.016 A 
ATOM     14  C   UNL     1      34.183  24.553  14.839  1.00  0.00     0.051 A 
ATOM     15  C   UNL     1      35.292  24.780  14.013  1.00  0.00     0.157 A 
ATOM     16  C   UNL     1      34.238  26.798  13.175  1.00  0.00     0.062 A 
ATOM     17  C   UNL     1      35.319  25.909  13.179  1.00  0.00     0.158 A 
BRANCH  15  18
ATOM     18  O   UNL     1      36.365  23.891  14.021  1.00  0.00    -0.504 OA
ATOM     19  H   UNL     1      36.687  23.439  13.172  1.00  0.00     0.293 HD
ENDBRANCH  15  18
BRANCH  17  20
ATOM     20  O   UNL     1      36.411  26.168  12.351  1.00  0.00    -0.504 OA
ATOM     21  H   UNL     1      36.324  26.710  11.500  1.00  0.00     0.293 HD
ENDBRANCH  17  20
ENDBRANCH   1  12
BRANCH   2  22
ATOM     22  O   UNL     1      30.523  25.977  12.829  1.00  0.00    -0.502 OA
ATOM     23  H   UNL     1      29.734  25.797  12.220  1.00  0.00     0.293 HD
ENDBRANCH   2  22
BRANCH   6  24
ATOM     24  O   UNL     1      27.626  30.309  13.927  1.00  0.00    -0.507 OA
ATOM     25  H   UNL     1      27.082  29.488  14.144  1.00  0.00     0.293 HD
ENDBRANCH   6  24
BRANCH   8  26
ATOM     26  O   UNL     1      31.054  33.200  15.646  1.00  0.00    -0.508 OA
ATOM     27  H   UNL     1      32.025  33.483  15.694  1.00  0.00     0.293 HD
ENDBRANCH   8  26
TORSDOF 6
ENDMDL
MODEL 8
REMARK VINA RESULT:    -5.558      1.793      3.333
REMARK INTER + INTRA:          -6.857
REMARK INTER:                  -6.578
REMARK INTRA:                  -0.280
REMARK UNBOUND:                -0.162
REMARK SMILES O=c1c(O)c(-c2ccc(O)c(O)c2)oc2cc(O)cc(O)c12
REMARK SMILES IDX 5 1 3 2 2 3 1 4 22 5 20 6 19 7 17 8 16 9 15 10 14 11 6 12
REMARK SMILES IDX 7 13 8 14 9 15 13 16 11 17 10 18 12 20 4 22 21 24 18 26
REMARK H PARENT 10 19 12 21 4 23 21 25 18 27
REMARK Flexibility Score: inf
ROOT
ATOM      1  C   UNL     1      27.924  28.444  12.991  1.00  0.00     0.180 A 
ATOM      2  C   UNL     1      28.991  27.619  12.596  1.00  0.00     0.208 A 
ATOM      3  C   UNL     1      30.273  27.870  13.113  1.00  0.00     0.238 A 
ATOM      4  O   UNL     1      31.214  27.095  12.797  1.00  0.00    -0.285 OA
ATOM      5  C   UNL     1      30.474  28.950  14.005  1.00  0.00     0.111 A 
ATOM      6  C   UNL     1      31.737  29.319  14.559  1.00  0.00     0.134 A 
ATOM      7  C   UNL     1      31.797  30.324  15.533  1.00  0.00     0.093 A 
ATOM      8  C   UNL     1      30.649  31.017  15.925  1.00  0.00     0.123 A 
ATOM      9  C   UNL     1      29.420  30.704  15.346  1.00  0.00     0.094 A 
ATOM     10  C   UNL     1      29.324  29.682  14.399  1.00  0.00     0.146 A 
ATOM     11  O   UNL     1      28.133  29.408  13.880  1.00  0.00    -0.452 OA
ENDROOT
BRANCH   1  12
ATOM     12  C   UNL     1      26.550  28.259  12.470  1.00  0.00     0.025 A 
ATOM     13  C   UNL     1      25.716  27.236  12.951  1.00  0.00     0.016 A 
ATOM     14  C   UNL     1      24.432  27.066  12.427  1.00  0.00     0.051 A 
ATOM     15  C   UNL     1      23.967  27.907  11.407  1.00  0.00     0.157 A 
ATOM     16  C   UNL     1      26.088  29.086  11.433  1.00  0.00     0.062 A 
ATOM     17  C   UNL     1      24.802  28.919  10.906  1.00  0.00     0.158 A 
BRANCH  15  18
ATOM     18  O   UNL     1      22.685  27.736  10.888  1.00  0.00    -0.504 OA
ATOM     19  H   UNL     1      21.934  27.347  11.447  1.00  0.00     0.293 HD
ENDBRANCH  15  18
BRANCH  17  20
ATOM     20  O   UNL     1      24.372  29.769   9.886  1.00  0.00    -0.504 OA
ATOM     21  H   UNL     1      25.018  30.192   9.232  1.00  0.00     0.293 HD
ENDBRANCH  17  20
ENDBRANCH   1  12
BRANCH   2  22
ATOM     22  O   UNL     1      28.767  26.546  11.730  1.00  0.00    -0.502 OA
ATOM     23  H   UNL     1      29.445  26.255  11.036  1.00  0.00     0.293 HD
ENDBRANCH   2  22
BRANCH   6  24
ATOM     24  O   UNL     1      32.955  28.755  14.169  1.00  0.00    -0.507 OA
ATOM     25  H   UNL     1      33.052  27.874  13.687  1.00  0.00     0.293 HD
ENDBRANCH   6  24
BRANCH   8  26
ATOM     26  O   UNL     1      30.719  32.025  16.882  1.00  0.00    -0.508 OA
ATOM     27  H   UNL     1      30.686  33.005  16.625  1.00  0.00     0.293 HD
ENDBRANCH   8  26
TORSDOF 6
ENDMDL
MODEL 9
REMARK VINA RESULT:    -5.534      1.136      2.811
REMARK INTER + INTRA:          -6.829
REMARK INTER:                  -6.849
REMARK INTRA:                   0.020
REMARK UNBOUND:                -0.162
REMARK SMILES O=c1c(O)c(-c2ccc(O)c(O)c2)oc2cc(O)cc(O)c12
REMARK SMILES IDX 5 1 3 2 2 3 1 4 22 5 20 6 19 7 17 8 16 9 15 10 14 11 6 12
REMARK SMILES IDX 7 13 8 14 9 15 13 16 11 17 10 18 12 20 4 22 21 24 18 26
REMARK H PARENT 10 19 12 21 4 23 21 25 18 27
REMARK Flexibility Score: inf
ROOT
ATOM      1  C   UNL     1      28.514  27.887  13.640  1.00  0.00     0.180 A 
ATOM      2  C   UNL     1      29.570  26.992  13.886  1.00  0.00     0.208 A 
ATOM      3  C   UNL     1      30.785  27.493  14.382  1.00  0.00     0.238 A 
ATOM      4  O   UNL     1      31.707  26.680  14.652  1.00  0.00    -0.285 OA
ATOM      5  C   UNL     1      30.933  28.882  14.612  1.00  0.00     0.111 A 
ATOM      6  C   UNL     1      32.132  29.502  15.076  1.00  0.00     0.134 A 
ATOM      7  C   UNL     1      32.125  30.866  15.392  1.00  0.00     0.093 A 
ATOM      8  C   UNL     1      30.982  31.645  15.198  1.00  0.00     0.123 A 
ATOM      9  C   UNL     1      29.824  31.060  14.690  1.00  0.00     0.094 A 
ATOM     10  C   UNL     1      29.790  29.695  14.399  1.00  0.00     0.146 A 
ATOM     11  O   UNL     1      28.663  29.175  13.926  1.00  0.00    -0.452 OA
ENDROOT
BRANCH   1  12
ATOM     12  C   UNL     1      27.213  27.439  13.092  1.00  0.00     0.025 A 
ATOM     13  C   UNL     1      26.629  28.074  11.983  1.00  0.00     0.016 A 
ATOM     14  C   UNL     1      25.389  27.649  11.498  1.00  0.00     0.051 A 
ATOM     15  C   UNL     1      24.709  26.594  12.121  1.00  0.00     0.157 A 
ATOM     16  C   UNL     1      26.519  26.395  13.726  1.00  0.00     0.062 A 
ATOM     17  C   UNL     1      25.277  25.967  13.242  1.00  0.00     0.158 A 
BRANCH  15  18
ATOM     18  O   UNL     1      23.475  26.171  11.633  1.00  0.00    -0.504 OA
ATOM     19  H   UNL     1      23.258  26.194  10.642  1.00  0.00     0.293 HD
ENDBRANCH  15  18
BRANCH  17  20
ATOM     20  O   UNL     1      24.624  24.918  13.889  1.00  0.00    -0.504 OA
ATOM     21  H   UNL     1      24.292  24.998  14.842  1.00  0.00     0.293 HD
ENDBRANCH  17  20
ENDBRANCH   1  12
BRANCH   2  22
ATOM     22  O   UNL     1      29.395  25.622  13.673  1.00  0.00    -0.502 OA
ATOM     23  H   UNL     1      30.055  25.064  13.146  1.00  0.00     0.293 HD
ENDBRANCH   2  22
BRANCH   6  24
ATOM     24  O   UNL     1      33.353  28.835  15.215  1.00  0.00    -0.507 OA
ATOM     25  H   UNL     1      33.472  27.946  15.676  1.00  0.00     0.293 HD
ENDBRANCH   6  24
BRANCH   8  26
ATOM     26  O   UNL     1      30.989  33.005  15.500  1.00  0.00    -0.508 OA
ATOM     27  H   UNL     1      30.493  33.373  16.303  1.00  0.00     0.293 HD
ENDBRANCH   8  26
TORSDOF 6
ENDMDL
