MODEL 1
REMARK VINA RESULT:    -4.958      0.000      0.000
REMARK INTER + INTRA:          -9.081
REMARK INTER:                  -7.857
REMARK INTRA:                  -1.224
REMARK UNBOUND:                -1.224
REMARK SMILES CCCCCCCCCCCC(=O)[O-]
REMARK SMILES IDX 7 1 8 2 9 3 10 4 11 5 12 6 13 7 14 8 6 9 5 10 4 11 3 12 2 13
REMARK SMILES IDX 1 14
REMARK H PARENT
REMARK Flexibility Score: inf
ROOT
ATOM      1  C   UNL     1      15.381  22.547  12.894  1.00  0.00     0.000 C 
ENDROOT
BRANCH   1   2
ATOM      2  C   UNL     1      15.762  22.217  14.345  1.00  0.00     0.000 C 
BRANCH   2   3
ATOM      3  C   UNL     1      15.018  20.986  14.887  1.00  0.00     0.000 C 
BRANCH   3   4
ATOM      4  C   UNL     1      15.603  20.481  16.219  1.00  0.00     0.006 C 
BRANCH   4   5
ATOM      5  C   UNL     1      16.605  21.473  16.824  1.00  0.00     0.053 C 
BRANCH   5   6
ATOM      6  C   UNL     1      17.563  20.794  17.754  1.00  0.00     0.041 C 
ATOM      7  O   UNL     1      18.788  20.730  17.468  1.00  0.00    -0.550 OA
ATOM      8  O   UNL     1      17.098  20.200  18.920  1.00  0.00    -0.550 OA
ENDBRANCH   5   6
ENDBRANCH   4   5
ENDBRANCH   3   4
ENDBRANCH   2   3
ENDBRANCH   1   2
BRANCH   1   9
ATOM      9  C   UNL     1      15.416  21.289  12.018  1.00  0.00     0.000 C 
BRANCH   9  10
ATOM     10  C   UNL     1      16.630  21.303  11.081  1.00  0.00    -0.000 C 
BRANCH  10  11
ATOM     11  C   UNL     1      17.472  20.030  11.255  1.00  0.00    -0.000 C 
BRANCH  11  12
ATOM     12  C   UNL     1      18.384  20.086  12.491  1.00  0.00    -0.000 C 
BRANCH  12  13
ATOM     13  C   UNL     1      17.942  19.116  13.596  1.00  0.00    -0.003 C 
ATOM     14  C   UNL     1      19.114  18.746  14.501  1.00  0.00     0.004 C 
ENDBRANCH  12  13
ENDBRANCH  11  12
ENDBRANCH  10  11
ENDBRANCH   9  10
ENDBRANCH   1   9
TORSDOF 10
ENDMDL
MODEL 2
REMARK VINA RESULT:    -4.892      1.876      2.179
REMARK INTER + INTRA:          -8.976
REMARK INTER:                  -7.970
REMARK INTRA:                  -1.006
REMARK UNBOUND:                -1.224
REMARK SMILES CCCCCCCCCCCC(=O)[O-]
REMARK SMILES IDX 7 1 8 2 9 3 10 4 11 5 12 6 13 7 14 8 6 9 5 10 4 11 3 12 2 13
REMARK SMILES IDX 1 14
REMARK H PARENT
REMARK Flexibility Score: inf
ROOT
ATOM      1  C   UNL     1      15.291  21.194  12.459  1.00  0.00     0.000 C 
ENDROOT
BRANCH   1   2
ATOM      2  C   UNL     1      15.264  22.477  13.301  1.00  0.00     0.000 C 
BRANCH   2   3
ATOM      3  C   UNL     1      14.555  22.285  14.651  1.00  0.00     0.000 C 
BRANCH   3   4
ATOM      4  C   UNL     1      15.540  22.215  15.832  1.00  0.00     0.006 C 
BRANCH   4   5
ATOM      5  C   UNL     1      14.973  22.873  17.097  1.00  0.00     0.053 C 
BRANCH   5   6
ATOM      6  C   UNL     1      14.551  21.853  18.110  1.00  0.00     0.041 C 
ATOM      7  O   UNL     1      14.473  20.637  17.791  1.00  0.00    -0.550 OA
ATOM      8  O   UNL     1      14.208  22.251  19.396  1.00  0.00    -0.550 OA
ENDBRANCH   5   6
ENDBRANCH   4   5
ENDBRANCH   3   4
ENDBRANCH   2   3
ENDBRANCH   1   2
BRANCH   1   9
ATOM      9  C   UNL     1      16.108  21.395  11.177  1.00  0.00     0.000 C 
BRANCH   9  10
ATOM     10  C   UNL     1      17.146  20.280  11.004  1.00  0.00    -0.000 C 
BRANCH  10  11
ATOM     11  C   UNL     1      18.234  20.368  12.084  1.00  0.00    -0.000 C 
BRANCH  11  12
ATOM     12  C   UNL     1      18.275  19.125  12.987  1.00  0.00    -0.000 C 
BRANCH  12  13
ATOM     13  C   UNL     1      18.127  19.470  14.476  1.00  0.00    -0.003 C 
ATOM     14  C   UNL     1      16.871  18.833  15.064  1.00  0.00     0.004 C 
ENDBRANCH  12  13
ENDBRANCH  11  12
ENDBRANCH  10  11
ENDBRANCH   9  10
ENDBRANCH   1   9
TORSDOF 10
ENDMDL
MODEL 3
REMARK VINA RESULT:    -4.883      1.650      2.789
REMARK INTER + INTRA:          -8.961
REMARK INTER:                  -8.142
REMARK INTRA:                  -0.820
REMARK UNBOUND:                -1.224
REMARK SMILES CCCCCCCCCCCC(=O)[O-]
REMARK SMILES IDX 7 1 8 2 9 3 10 4 11 5 12 6 13 7 14 8 6 9 5 10 4 11 3 12 2 13
REMARK SMILES IDX 1 14
REMARK H PARENT
REMARK Flexibility Score: inf
ROOT
ATOM      1  C   UNL     1      15.346  20.937  14.802  1.00  0.00     0.000 C 
ENDROOT
BRANCH   1   2
ATOM      2  C   UNL     1      15.930  21.118  16.211  1.00  0.00     0.000 C 
BRANCH   2   3
ATOM      3  C   UNL     1      15.519  22.450  16.856  1.00  0.00     0.000 C 
BRANCH   3   4
ATOM      4  C   UNL     1      14.352  22.292  17.848  1.00  0.00     0.006 C 
BRANCH   4   5
ATOM      5  C   UNL     1      14.385  20.938  18.568  1.00  0.00     0.053 C 
BRANCH   5   6
ATOM      6  C   UNL     1      15.305  20.962  19.751  1.00  0.00     0.041 C 
ATOM      7  O   UNL     1      14.964  21.554  20.809  1.00  0.00    -0.550 OA
ATOM      8  O   UNL     1      16.555  20.361  19.672  1.00  0.00    -0.550 OA
ENDBRANCH   5   6
ENDBRANCH   4   5
ENDBRANCH   3   4
ENDBRANCH   2   3
ENDBRANCH   1   2
BRANCH   1   9
ATOM      9  C   UNL     1      14.786  22.260  14.265  1.00  0.00     0.000 C 
BRANCH   9  10
ATOM     10  C   UNL     1      15.395  22.604  12.901  1.00  0.00    -0.000 C 
BRANCH  10  11
ATOM     11  C   UNL     1      15.622  21.336  12.065  1.00  0.00    -0.000 C 
BRANCH  11  12
ATOM     12  C   UNL     1      16.770  21.490  11.055  1.00  0.00    -0.000 C 
BRANCH  12  13
ATOM     13  C   UNL     1      17.748  20.306  11.085  1.00  0.00    -0.003 C 
ATOM     14  C   UNL     1      18.061  19.891  12.520  1.00  0.00     0.004 C 
ENDBRANCH  12  13
ENDBRANCH  11  12
ENDBRANCH  10  11
ENDBRANCH   9  10
ENDBRANCH   1   9
TORSDOF 10
ENDMDL
MODEL 4
REMARK VINA RESULT:    -4.870      2.135      3.720
REMARK INTER + INTRA:          -8.940
REMARK INTER:                  -8.242
REMARK INTRA:                  -0.698
REMARK UNBOUND:                -1.224
REMARK SMILES CCCCCCCCCCCC(=O)[O-]
REMARK SMILES IDX 7 1 8 2 9 3 10 4 11 5 12 6 13 7 14 8 6 9 5 10 4 11 3 12 2 13
REMARK SMILES IDX 1 14
REMARK H PARENT
REMARK Flexibility Score: inf
ROOT
ATOM      1  C   UNL     1      15.375  22.910  16.972  1.00  0.00     0.000 C 
ENDROOT
BRANCH   1   2
ATOM      2  C   UNL     1      14.056  22.822  17.754  1.00  0.00     0.000 C 
BRANCH   2   3
ATOM      3  C   UNL     1      13.968  21.560  18.627  1.00  0.00     0.000 C 
BRANCH   3   4
ATOM      4  C   UNL     1      14.739  21.703  19.952  1.00  0.00     0.006 C 
BRANCH   4   5
ATOM      5  C   UNL     1      15.356  20.375  20.408  1.00  0.00     0.053 C 
BRANCH   5   6
ATOM      6  C   UNL     1      16.223  19.773  19.344  1.00  0.00     0.041 C 
ATOM      7  O   UNL     1      15.995  18.608  18.923  1.00  0.00    -0.550 OA
ATOM      8  O   UNL     1      17.305  20.485  18.843  1.00  0.00    -0.550 OA
ENDBRANCH   5   6
ENDBRANCH   4   5
ENDBRANCH   3   4
ENDBRANCH   2   3
ENDBRANCH   1   2
BRANCH   1   9
ATOM      9  C   UNL     1      15.464  21.801  15.918  1.00  0.00     0.000 C 
BRANCH   9  10
ATOM     10  C   UNL     1      14.336  21.927  14.888  1.00  0.00    -0.000 C 
BRANCH  10  11
ATOM     11  C   UNL     1      14.689  21.184  13.591  1.00  0.00    -0.000 C 
BRANCH  11  12
ATOM     12  C   UNL     1      15.559  22.025  12.644  1.00  0.00    -0.000 C 
BRANCH  12  13
ATOM     13  C   UNL     1      16.034  21.232  11.417  1.00  0.00    -0.003 C 
ATOM     14  C   UNL     1      17.541  21.380  11.219  1.00  0.00     0.004 C 
ENDBRANCH  12  13
ENDBRANCH  11  12
ENDBRANCH  10  11
ENDBRANCH   9  10
ENDBRANCH   1   9
TORSDOF 10
ENDMDL
MODEL 5
REMARK VINA RESULT:    -4.867      1.415      3.504
REMARK INTER + INTRA:          -8.936
REMARK INTER:                  -7.774
REMARK INTRA:                  -1.162
REMARK UNBOUND:                -1.224
REMARK SMILES CCCCCCCCCCCC(=O)[O-]
REMARK SMILES IDX 7 1 8 2 9 3 10 4 11 5 12 6 13 7 14 8 6 9 5 10 4 11 3 12 2 13
REMARK SMILES IDX 1 14
REMARK H PARENT
REMARK Flexibility Score: inf
ROOT
ATOM      1  C   UNL     1      17.667  19.341  12.801  1.00  0.00     0.000 C 
ENDROOT
BRANCH   1   2
ATOM      2  C   UNL     1      18.818  19.152  13.800  1.00  0.00     0.000 C 
BRANCH   2   3
ATOM      3  C   UNL     1      18.329  19.028  15.251  1.00  0.00     0.000 C 
BRANCH   3   4
ATOM      4  C   UNL     1      16.796  19.115  15.368  1.00  0.00     0.006 C 
BRANCH   4   5
ATOM      5  C   UNL     1      16.302  18.752  16.775  1.00  0.00     0.053 C 
BRANCH   5   6
ATOM      6  C   UNL     1      15.573  19.893  17.417  1.00  0.00     0.041 C 
ATOM      7  O   UNL     1      14.341  19.803  17.658  1.00  0.00    -0.550 OA
ATOM      8  O   UNL     1      16.249  21.070  17.715  1.00  0.00    -0.550 OA
ENDBRANCH   5   6
ENDBRANCH   4   5
ENDBRANCH   3   4
ENDBRANCH   2   3
ENDBRANCH   1   2
BRANCH   1   9
ATOM      9  C   UNL     1      17.888  20.587  11.937  1.00  0.00     0.000 C 
BRANCH   9  10
ATOM     10  C   UNL     1      16.606  20.975  11.190  1.00  0.00    -0.000 C 
BRANCH  10  11
ATOM     11  C   UNL     1      15.424  21.114  12.162  1.00  0.00    -0.000 C 
BRANCH  11  12
ATOM     12  C   UNL     1      15.441  22.445  12.929  1.00  0.00    -0.000 C 
BRANCH  12  13
ATOM     13  C   UNL     1      15.357  22.252  14.450  1.00  0.00    -0.003 C 
ATOM     14  C   UNL     1      13.917  22.006  14.892  1.00  0.00     0.004 C 
ENDBRANCH  12  13
ENDBRANCH  11  12
ENDBRANCH  10  11
ENDBRANCH   9  10
ENDBRANCH   1   9
TORSDOF 10
ENDMDL
MODEL 6
REMARK VINA RESULT:    -4.844      1.812      3.049
REMARK INTER + INTRA:          -8.899
REMARK INTER:                  -7.719
REMARK INTRA:                  -1.180
REMARK UNBOUND:                -1.224
REMARK SMILES CCCCCCCCCCCC(=O)[O-]
REMARK SMILES IDX 7 1 8 2 9 3 10 4 11 5 12 6 13 7 14 8 6 9 5 10 4 11 3 12 2 13
REMARK SMILES IDX 1 14
REMARK H PARENT
REMARK Flexibility Score: inf
ROOT
ATOM      1  C   UNL     1      15.400  22.304  15.553  1.00  0.00     0.000 C 
ENDROOT
BRANCH   1   2
ATOM      2  C   UNL     1      15.519  21.633  16.929  1.00  0.00     0.000 C 
BRANCH   2   3
ATOM      3  C   UNL     1      16.871  20.929  17.130  1.00  0.00     0.000 C 
BRANCH   3   4
ATOM      4  C   UNL     1      17.429  20.337  15.823  1.00  0.00     0.006 C 
BRANCH   4   5
ATOM      5  C   UNL     1      16.833  18.958  15.512  1.00  0.00     0.053 C 
BRANCH   5   6
ATOM      6  C   UNL     1      17.114  17.973  16.606  1.00  0.00     0.041 C 
ATOM      7  O   UNL     1      16.166  17.397  17.201  1.00  0.00    -0.550 OA
ATOM      8  O   UNL     1      18.424  17.720  16.993  1.00  0.00    -0.550 OA
ENDBRANCH   5   6
ENDBRANCH   4   5
ENDBRANCH   3   4
ENDBRANCH   2   3
ENDBRANCH   1   2
BRANCH   1   9
ATOM      9  C   UNL     1      14.183  21.775  14.787  1.00  0.00     0.000 C 
BRANCH   9  10
ATOM     10  C   UNL     1      14.604  21.123  13.465  1.00  0.00    -0.000 C 
BRANCH  10  11
ATOM     11  C   UNL     1      15.720  21.930  12.785  1.00  0.00    -0.000 C 
BRANCH  11  12
ATOM     12  C   UNL     1      15.992  21.469  11.344  1.00  0.00    -0.000 C 
BRANCH  12  13
ATOM     13  C   UNL     1      17.474  21.158  11.093  1.00  0.00    -0.003 C 
ATOM     14  C   UNL     1      18.016  20.188  12.139  1.00  0.00     0.004 C 
ENDBRANCH  12  13
ENDBRANCH  11  12
ENDBRANCH  10  11
ENDBRANCH   9  10
ENDBRANCH   1   9
TORSDOF 10
ENDMDL
MODEL 7
REMARK VINA RESULT:    -4.820      3.065      5.833
REMARK INTER + INTRA:          -8.862
REMARK INTER:                  -7.859
REMARK INTRA:                  -1.003
REMARK UNBOUND:                -1.224
REMARK SMILES CCCCCCCCCCCC(=O)[O-]
REMARK SMILES IDX 7 1 8 2 9 3 10 4 11 5 12 6 13 7 14 8 6 9 5 10 4 11 3 12 2 13
REMARK SMILES IDX 1 14
REMARK H PARENT
REMARK Flexibility Score: inf
ROOT
ATOM      1  C   UNL     1      13.975  22.747  17.851  1.00  0.00     0.000 C 
ENDROOT
BRANCH   1   2
ATOM      2  C   UNL     1      15.135  22.865  16.852  1.00  0.00     0.000 C 
BRANCH   2   3
ATOM      3  C   UNL     1      15.105  21.766  15.777  1.00  0.00     0.000 C 
BRANCH   3   4
ATOM      4  C   UNL     1      15.346  22.318  14.360  1.00  0.00     0.006 C 
BRANCH   4   5
ATOM      5  C   UNL     1      14.931  21.319  13.273  1.00  0.00     0.053 C 
BRANCH   5   6
ATOM      6  C   UNL     1      16.045  21.060  12.304  1.00  0.00     0.041 C 
ATOM      7  O   UNL     1      17.073  20.434  12.673  1.00  0.00    -0.550 OA
ATOM      8  O   UNL     1      15.962  21.542  11.004  1.00  0.00    -0.550 OA
ENDBRANCH   5   6
ENDBRANCH   4   5
ENDBRANCH   3   4
ENDBRANCH   2   3
ENDBRANCH   1   2
BRANCH   1   9
ATOM      9  C   UNL     1      14.012  21.398  18.579  1.00  0.00     0.000 C 
BRANCH   9  10
ATOM     10  C   UNL     1      14.724  21.520  19.931  1.00  0.00    -0.000 C 
BRANCH  10  11
ATOM     11  C   UNL     1      15.683  20.341  20.156  1.00  0.00    -0.000 C 
BRANCH  11  12
ATOM     12  C   UNL     1      16.308  19.828  18.849  1.00  0.00    -0.000 C 
BRANCH  12  13
ATOM     13  C   UNL     1      17.813  20.117  18.761  1.00  0.00    -0.003 C 
ATOM     14  C   UNL     1      18.183  20.687  17.394  1.00  0.00     0.004 C 
ENDBRANCH  12  13
ENDBRANCH  11  12
ENDBRANCH  10  11
ENDBRANCH   9  10
ENDBRANCH   1   9
TORSDOF 10
ENDMDL
MODEL 8
REMARK VINA RESULT:    -4.788      3.196      5.941
REMARK INTER + INTRA:          -8.811
REMARK INTER:                  -7.988
REMARK INTRA:                  -0.824
REMARK UNBOUND:                -1.224
REMARK SMILES CCCCCCCCCCCC(=O)[O-]
REMARK SMILES IDX 7 1 8 2 9 3 10 4 11 5 12 6 13 7 14 8 6 9 5 10 4 11 3 12 2 13
REMARK SMILES IDX 1 14
REMARK H PARENT
REMARK Flexibility Score: inf
ROOT
ATOM      1  C   UNL     1      15.335  22.258  15.786  1.00  0.00     0.000 C 
ENDROOT
BRANCH   1   2
ATOM      2  C   UNL     1      15.614  20.932  15.063  1.00  0.00     0.000 C 
BRANCH   2   3
ATOM      3  C   UNL     1      15.126  20.937  13.606  1.00  0.00     0.000 C 
BRANCH   3   4
ATOM      4  C   UNL     1      15.871  21.966  12.736  1.00  0.00     0.006 C 
BRANCH   4   5
ATOM      5  C   UNL     1      16.001  21.505  11.279  1.00  0.00     0.053 C 
BRANCH   5   6
ATOM      6  C   UNL     1      17.334  20.873  11.014  1.00  0.00     0.041 C 
ATOM      7  O   UNL     1      17.688  20.610   9.835  1.00  0.00    -0.550 OA
ATOM      8  O   UNL     1      18.169  20.543  12.074  1.00  0.00    -0.550 OA
ENDBRANCH   5   6
ENDBRANCH   4   5
ENDBRANCH   3   4
ENDBRANCH   2   3
ENDBRANCH   1   2
BRANCH   1   9
ATOM      9  C   UNL     1      13.978  22.221  16.498  1.00  0.00     0.000 C 
BRANCH   9  10
ATOM     10  C   UNL     1      14.028  22.995  17.820  1.00  0.00    -0.000 C 
BRANCH  10  11
ATOM     11  C   UNL     1      14.250  22.045  19.006  1.00  0.00    -0.000 C 
BRANCH  11  12
ATOM     12  C   UNL     1      13.875  20.591  18.679  1.00  0.00    -0.000 C 
BRANCH  12  13
ATOM     13  C   UNL     1      15.011  19.604  18.987  1.00  0.00    -0.003 C 
ATOM     14  C   UNL     1      16.300  20.343  19.334  1.00  0.00     0.004 C 
ENDBRANCH  12  13
ENDBRANCH  11  12
ENDBRANCH  10  11
ENDBRANCH   9  10
ENDBRANCH   1   9
TORSDOF 10
ENDMDL
MODEL 9
REMARK VINA RESULT:    -4.782      1.569      2.686
REMARK INTER + INTRA:          -8.801
REMARK INTER:                  -7.813
REMARK INTRA:                  -0.988
REMARK UNBOUND:                -1.224
REMARK SMILES CCCCCCCCCCCC(=O)[O-]
REMARK SMILES IDX 7 1 8 2 9 3 10 4 11 5 12 6 13 7 14 8 6 9 5 10 4 11 3 12 2 13
REMARK SMILES IDX 1 14
REMARK H PARENT
REMARK Flexibility Score: inf
ROOT
ATOM      1  C   UNL     1      16.703  21.421  11.234  1.00  0.00     0.000 C 
ENDROOT
BRANCH   1   2
ATOM      2  C   UNL     1      15.511  21.313  12.197  1.00  0.00     0.000 C 
BRANCH   2   3
ATOM      3  C   UNL     1      15.388  22.531  13.126  1.00  0.00     0.000 C 
BRANCH   3   4
ATOM      4  C   UNL     1      14.752  22.178  14.483  1.00  0.00     0.006 C 
BRANCH   4   5
ATOM      5  C   UNL     1      15.770  21.577  15.461  1.00  0.00     0.053 C 
BRANCH   5   6
ATOM      6  C   UNL     1      15.656  22.189  16.824  1.00  0.00     0.041 C 
ATOM      7  O   UNL     1      15.442  23.423  16.949  1.00  0.00    -0.550 OA
ATOM      8  O   UNL     1      15.822  21.400  17.955  1.00  0.00    -0.550 OA
ENDBRANCH   5   6
ENDBRANCH   4   5
ENDBRANCH   3   4
ENDBRANCH   2   3
ENDBRANCH   1   2
BRANCH   1   9
ATOM      9  C   UNL     1      17.952  20.762  11.830  1.00  0.00     0.000 C 
BRANCH   9  10
ATOM     10  C   UNL     1      17.583  19.521  12.650  1.00  0.00    -0.000 C 
BRANCH  10  11
ATOM     11  C   UNL     1      18.706  19.157  13.633  1.00  0.00    -0.000 C 
BRANCH  11  12
ATOM     12  C   UNL     1      18.181  18.852  15.045  1.00  0.00    -0.000 C 
BRANCH  12  13
ATOM     13  C   UNL     1      19.244  19.071  16.131  1.00  0.00    -0.003 C 
ATOM     14  C   UNL     1      19.002  20.379  16.880  1.00  0.00     0.004 C 
ENDBRANCH  12  13
ENDBRANCH  11  12
ENDBRANCH  10  11
ENDBRANCH   9  10
ENDBRANCH   1   9
TORSDOF 10
ENDMDL
