MODEL 1
REMARK VINA RESULT:    -6.238      0.000      0.000
REMARK INTER + INTRA:          -7.791
REMARK INTER:                  -7.514
REMARK INTRA:                  -0.277
REMARK UNBOUND:                -0.277
REMARK SMILES O=c1c(O)c(-c2ccc(O)c(O)c2)oc2cc(O)cc(O)c12
REMARK SMILES IDX 5 1 3 2 2 3 1 4 22 5 20 6 19 7 17 8 16 9 15 10 14 11 6 12
REMARK SMILES IDX 7 13 8 14 9 15 13 16 11 17 10 18 12 20 4 22 21 24 18 26
REMARK H PARENT 10 19 12 21 4 23 21 25 18 27
REMARK Flexibility Score: inf
ROOT
ATOM      1  C   UNL     1      -2.981  52.182  11.853  1.00  0.00     0.180 A 
ATOM      2  C   UNL     1      -3.322  53.500  11.500  1.00  0.00     0.208 A 
ATOM      3  C   UNL     1      -3.361  53.852  10.141  1.00  0.00     0.238 A 
ATOM      4  O   UNL     1      -3.719  55.018   9.829  1.00  0.00    -0.285 OA
ATOM      5  C   UNL     1      -3.044  52.889   9.154  1.00  0.00     0.111 A 
ATOM      6  C   UNL     1      -3.013  53.147   7.750  1.00  0.00     0.134 A 
ATOM      7  C   UNL     1      -2.813  52.087   6.857  1.00  0.00     0.093 A 
ATOM      8  C   UNL     1      -2.580  50.790   7.320  1.00  0.00     0.123 A 
ATOM      9  C   UNL     1      -2.549  50.539   8.689  1.00  0.00     0.094 A 
ATOM     10  C   UNL     1      -2.780  51.570   9.604  1.00  0.00     0.146 A 
ATOM     11  O   UNL     1      -2.753  51.285  10.901  1.00  0.00    -0.452 OA
ENDROOT
BRANCH   1  12
ATOM     12  C   UNL     1      -2.893  51.742  13.263  1.00  0.00     0.025 A 
ATOM     13  C   UNL     1      -1.653  51.561  13.897  1.00  0.00     0.016 A 
ATOM     14  C   UNL     1      -1.595  51.122  15.221  1.00  0.00     0.051 A 
ATOM     15  C   UNL     1      -2.767  50.844  15.933  1.00  0.00     0.157 A 
ATOM     16  C   UNL     1      -4.069  51.443  13.969  1.00  0.00     0.062 A 
ATOM     17  C   UNL     1      -4.021  51.002  15.297  1.00  0.00     0.158 A 
BRANCH  15  18
ATOM     18  O   UNL     1      -2.640  50.414  17.256  1.00  0.00    -0.504 OA
ATOM     19  H   UNL     1      -3.109  49.603  17.633  1.00  0.00     0.293 HD
ENDBRANCH  15  18
BRANCH  17  20
ATOM     20  O   UNL     1      -5.231  50.735  15.940  1.00  0.00    -0.504 OA
ATOM     21  H   UNL     1      -5.934  51.434  16.136  1.00  0.00     0.293 HD
ENDBRANCH  17  20
ENDBRANCH   1  12
BRANCH   2  22
ATOM     22  O   UNL     1      -3.652  54.429  12.489  1.00  0.00    -0.502 OA
ATOM     23  H   UNL     1      -4.466  54.325  13.084  1.00  0.00     0.293 HD
ENDBRANCH   2  22
BRANCH   6  24
ATOM     24  O   UNL     1      -3.143  54.420   7.188  1.00  0.00    -0.507 OA
ATOM     25  H   UNL     1      -4.020  54.887   7.018  1.00  0.00     0.293 HD
ENDBRANCH   6  24
BRANCH   8  26
ATOM     26  O   UNL     1      -2.367  49.743   6.425  1.00  0.00    -0.508 OA
ATOM     27  H   UNL     1      -2.847  48.856   6.522  1.00  0.00     0.293 HD
ENDBRANCH   8  26
TORSDOF 6
ENDMDL
MODEL 2
REMARK VINA RESULT:    -6.129      1.552      6.710
REMARK INTER + INTRA:          -7.659
REMARK INTER:                  -7.347
REMARK INTRA:                  -0.312
REMARK UNBOUND:                -0.277
REMARK SMILES O=c1c(O)c(-c2ccc(O)c(O)c2)oc2cc(O)cc(O)c12
REMARK SMILES IDX 5 1 3 2 2 3 1 4 22 5 20 6 19 7 17 8 16 9 15 10 14 11 6 12
REMARK SMILES IDX 7 13 8 14 9 15 13 16 11 17 10 18 12 20 4 22 21 24 18 26
REMARK H PARENT 10 19 12 21 4 23 21 25 18 27
REMARK Flexibility Score: inf
ROOT
ATOM      1  C   UNL     1      -2.973  52.267  10.775  1.00  0.00     0.180 A 
ATOM      2  C   UNL     1      -2.171  53.390  11.049  1.00  0.00     0.208 A 
ATOM      3  C   UNL     1      -1.999  53.793  12.383  1.00  0.00     0.238 A 
ATOM      4  O   UNL     1      -1.237  54.765  12.627  1.00  0.00    -0.285 OA
ATOM      5  C   UNL     1      -2.642  53.081  13.423  1.00  0.00     0.111 A 
ATOM      6  C   UNL     1      -2.569  53.426  14.807  1.00  0.00     0.134 A 
ATOM      7  C   UNL     1      -3.139  52.574  15.762  1.00  0.00     0.093 A 
ATOM      8  C   UNL     1      -3.834  51.425  15.378  1.00  0.00     0.123 A 
ATOM      9  C   UNL     1      -3.961  51.112  14.027  1.00  0.00     0.094 A 
ATOM     10  C   UNL     1      -3.373  51.923  13.054  1.00  0.00     0.146 A 
ATOM     11  O   UNL     1      -3.509  51.581  11.777  1.00  0.00    -0.452 OA
ENDROOT
BRANCH   1  12
ATOM     12  C   UNL     1      -3.223  51.796   9.393  1.00  0.00     0.025 A 
ATOM     13  C   UNL     1      -4.181  52.413   8.573  1.00  0.00     0.016 A 
ATOM     14  C   UNL     1      -4.416  51.935   7.282  1.00  0.00     0.051 A 
ATOM     15  C   UNL     1      -3.712  50.831   6.790  1.00  0.00     0.157 A 
ATOM     16  C   UNL     1      -2.530  50.676   8.909  1.00  0.00     0.062 A 
ATOM     17  C   UNL     1      -2.759  50.190   7.616  1.00  0.00     0.158 A 
BRANCH  15  18
ATOM     18  O   UNL     1      -3.990  50.408   5.488  1.00  0.00    -0.504 OA
ATOM     19  H   UNL     1      -4.159  51.036   4.715  1.00  0.00     0.293 HD
ENDBRANCH  15  18
BRANCH  17  20
ATOM     20  O   UNL     1      -2.025  49.079   7.197  1.00  0.00    -0.504 OA
ATOM     21  H   UNL     1      -1.068  48.899   7.468  1.00  0.00     0.293 HD
ENDBRANCH  17  20
ENDBRANCH   1  12
BRANCH   2  22
ATOM     22  O   UNL     1      -1.528  54.065  10.009  1.00  0.00    -0.502 OA
ATOM     23  H   UNL     1      -0.609  54.477  10.114  1.00  0.00     0.293 HD
ENDBRANCH   2  22
BRANCH   6  24
ATOM     24  O   UNL     1      -1.979  54.598  15.289  1.00  0.00    -0.507 OA
ATOM     25  H   UNL     1      -1.090  54.641  15.763  1.00  0.00     0.293 HD
ENDBRANCH   6  24
BRANCH   8  26
ATOM     26  O   UNL     1      -4.411  50.591  16.334  1.00  0.00    -0.508 OA
ATOM     27  H   UNL     1      -3.905  49.806  16.728  1.00  0.00     0.293 HD
ENDBRANCH   8  26
TORSDOF 6
ENDMDL
MODEL 3
REMARK VINA RESULT:    -6.081      1.738      6.849
REMARK INTER + INTRA:          -7.602
REMARK INTER:                  -7.343
REMARK INTRA:                  -0.259
REMARK UNBOUND:                -0.277
REMARK SMILES O=c1c(O)c(-c2ccc(O)c(O)c2)oc2cc(O)cc(O)c12
REMARK SMILES IDX 5 1 3 2 2 3 1 4 22 5 20 6 19 7 17 8 16 9 15 10 14 11 6 12
REMARK SMILES IDX 7 13 8 14 9 15 13 16 11 17 10 18 12 20 4 22 21 24 18 26
REMARK H PARENT 10 19 12 21 4 23 21 25 18 27
REMARK Flexibility Score: inf
ROOT
ATOM      1  C   UNL     1      -2.458  51.511  10.860  1.00  0.00     0.180 A 
ATOM      2  C   UNL     1      -1.196  52.046  11.173  1.00  0.00     0.208 A 
ATOM      3  C   UNL     1      -0.875  52.293  12.517  1.00  0.00     0.238 A 
ATOM      4  O   UNL     1       0.276  52.721  12.796  1.00  0.00    -0.285 OA
ATOM      5  C   UNL     1      -1.825  52.018  13.530  1.00  0.00     0.111 A 
ATOM      6  C   UNL     1      -1.622  52.267  14.921  1.00  0.00     0.134 A 
ATOM      7  C   UNL     1      -2.580  51.835  15.847  1.00  0.00     0.093 A 
ATOM      8  C   UNL     1      -3.763  51.222  15.427  1.00  0.00     0.123 A 
ATOM      9  C   UNL     1      -3.996  51.029  14.068  1.00  0.00     0.094 A 
ATOM     10  C   UNL     1      -3.044  51.416  13.123  1.00  0.00     0.146 A 
ATOM     11  O   UNL     1      -3.302  51.203  11.837  1.00  0.00    -0.452 OA
ENDROOT
BRANCH   1  12
ATOM     12  C   UNL     1      -2.878  51.248   9.465  1.00  0.00     0.025 A 
ATOM     13  C   UNL     1      -2.371  50.157   8.742  1.00  0.00     0.016 A 
ATOM     14  C   UNL     1      -2.764  49.942   7.419  1.00  0.00     0.051 A 
ATOM     15  C   UNL     1      -3.658  50.815   6.790  1.00  0.00     0.157 A 
ATOM     16  C   UNL     1      -3.758  52.137   8.829  1.00  0.00     0.062 A 
ATOM     17  C   UNL     1      -4.159  51.930   7.503  1.00  0.00     0.158 A 
BRANCH  15  18
ATOM     18  O   UNL     1      -4.015  50.541   5.468  1.00  0.00    -0.504 OA
ATOM     19  H   UNL     1      -3.516  50.894   4.664  1.00  0.00     0.293 HD
ENDBRANCH  15  18
BRANCH  17  20
ATOM     20  O   UNL     1      -5.046  52.849   6.939  1.00  0.00    -0.504 OA
ATOM     21  H   UNL     1      -5.802  52.597   6.318  1.00  0.00     0.293 HD
ENDBRANCH  17  20
ENDBRANCH   1  12
BRANCH   2  22
ATOM     22  O   UNL     1      -0.265  52.290  10.160  1.00  0.00    -0.502 OA
ATOM     23  H   UNL     1       0.131  51.549   9.594  1.00  0.00     0.293 HD
ENDBRANCH   2  22
BRANCH   6  24
ATOM     24  O   UNL     1      -0.520  52.954  15.438  1.00  0.00    -0.507 OA
ATOM     25  H   UNL     1       0.125  53.502  14.890  1.00  0.00     0.293 HD
ENDBRANCH   6  24
BRANCH   8  26
ATOM     26  O   UNL     1      -4.718  50.809  16.354  1.00  0.00    -0.508 OA
ATOM     27  H   UNL     1      -5.195  51.472  16.954  1.00  0.00     0.293 HD
ENDBRANCH   8  26
TORSDOF 6
ENDMDL
MODEL 4
REMARK VINA RESULT:    -6.059      1.731      7.010
REMARK INTER + INTRA:          -7.575
REMARK INTER:                  -7.454
REMARK INTRA:                  -0.121
REMARK UNBOUND:                -0.277
REMARK SMILES O=c1c(O)c(-c2ccc(O)c(O)c2)oc2cc(O)cc(O)c12
REMARK SMILES IDX 5 1 3 2 2 3 1 4 22 5 20 6 19 7 17 8 16 9 15 10 14 11 6 12
REMARK SMILES IDX 7 13 8 14 9 15 13 16 11 17 10 18 12 20 4 22 21 24 18 26
REMARK H PARENT 10 19 12 21 4 23 21 25 18 27
REMARK Flexibility Score: inf
ROOT
ATOM      1  C   UNL     1      -2.282  51.578  11.087  1.00  0.00     0.180 A 
ATOM      2  C   UNL     1      -0.935  51.861  11.373  1.00  0.00     0.208 A 
ATOM      3  C   UNL     1      -0.525  51.933  12.714  1.00  0.00     0.238 A 
ATOM      4  O   UNL     1       0.693  52.133  12.964  1.00  0.00    -0.285 OA
ATOM      5  C   UNL     1      -1.467  51.739  13.751  1.00  0.00     0.111 A 
ATOM      6  C   UNL     1      -1.171  51.828  15.145  1.00  0.00     0.134 A 
ATOM      7  C   UNL     1      -2.152  51.489  16.084  1.00  0.00     0.093 A 
ATOM      8  C   UNL     1      -3.440  51.125  15.681  1.00  0.00     0.123 A 
ATOM      9  C   UNL     1      -3.756  51.091  14.325  1.00  0.00     0.094 A 
ATOM     10  C   UNL     1      -2.788  51.391  13.363  1.00  0.00     0.146 A 
ATOM     11  O   UNL     1      -3.129  51.336  12.081  1.00  0.00    -0.452 OA
ENDROOT
BRANCH   1  12
ATOM     12  C   UNL     1      -2.796  51.511   9.700  1.00  0.00     0.025 A 
ATOM     13  C   UNL     1      -3.806  52.378   9.252  1.00  0.00     0.016 A 
ATOM     14  C   UNL     1      -4.291  52.280   7.946  1.00  0.00     0.051 A 
ATOM     15  C   UNL     1      -3.790  51.312   7.069  1.00  0.00     0.157 A 
ATOM     16  C   UNL     1      -2.307  50.526   8.829  1.00  0.00     0.062 A 
ATOM     17  C   UNL     1      -2.787  50.420   7.517  1.00  0.00     0.158 A 
BRANCH  15  18
ATOM     18  O   UNL     1      -4.314  51.271   5.775  1.00  0.00    -0.504 OA
ATOM     19  H   UNL     1      -4.148  50.518   5.122  1.00  0.00     0.293 HD
ENDBRANCH  15  18
BRANCH  17  20
ATOM     20  O   UNL     1      -2.246  49.424   6.703  1.00  0.00    -0.504 OA
ATOM     21  H   UNL     1      -1.891  48.543   7.048  1.00  0.00     0.293 HD
ENDBRANCH  17  20
ENDBRANCH   1  12
BRANCH   2  22
ATOM     22  O   UNL     1      -0.016  52.028  10.334  1.00  0.00    -0.502 OA
ATOM     23  H   UNL     1      -0.266  51.902   9.361  1.00  0.00     0.293 HD
ENDBRANCH   2  22
BRANCH   6  24
ATOM     24  O   UNL     1       0.054  52.270  15.654  1.00  0.00    -0.507 OA
ATOM     25  H   UNL     1       0.167  52.781  16.517  1.00  0.00     0.293 HD
ENDBRANCH   6  24
BRANCH   8  26
ATOM     26  O   UNL     1      -4.415  50.803  16.622  1.00  0.00    -0.508 OA
ATOM     27  H   UNL     1      -5.402  50.904  16.418  1.00  0.00     0.293 HD
ENDBRANCH   8  26
TORSDOF 6
ENDMDL
MODEL 5
REMARK VINA RESULT:    -6.022      2.958      5.557
REMARK INTER + INTRA:          -7.531
REMARK INTER:                  -7.209
REMARK INTRA:                  -0.322
REMARK UNBOUND:                -0.277
REMARK SMILES O=c1c(O)c(-c2ccc(O)c(O)c2)oc2cc(O)cc(O)c12
REMARK SMILES IDX 5 1 3 2 2 3 1 4 22 5 20 6 19 7 17 8 16 9 15 10 14 11 6 12
REMARK SMILES IDX 7 13 8 14 9 15 13 16 11 17 10 18 12 20 4 22 21 24 18 26
REMARK H PARENT 10 19 12 21 4 23 21 25 18 27
REMARK Flexibility Score: inf
ROOT
ATOM      1  C   UNL     1      -4.380  51.602  15.145  1.00  0.00     0.180 A 
ATOM      2  C   UNL     1      -3.401  51.403  16.134  1.00  0.00     0.208 A 
ATOM      3  C   UNL     1      -2.052  51.323  15.751  1.00  0.00     0.238 A 
ATOM      4  O   UNL     1      -1.176  51.200  16.646  1.00  0.00    -0.285 OA
ATOM      5  C   UNL     1      -1.700  51.427  14.384  1.00  0.00     0.111 A 
ATOM      6  C   UNL     1      -0.370  51.320  13.879  1.00  0.00     0.134 A 
ATOM      7  C   UNL     1      -0.123  51.568  12.523  1.00  0.00     0.093 A 
ATOM      8  C   UNL     1      -1.169  51.855  11.642  1.00  0.00     0.123 A 
ATOM      9  C   UNL     1      -2.478  51.903  12.114  1.00  0.00     0.094 A 
ATOM     10  C   UNL     1      -2.751  51.695  13.468  1.00  0.00     0.146 A 
ATOM     11  O   UNL     1      -4.012  51.760  13.878  1.00  0.00    -0.452 OA
ENDROOT
BRANCH   1  12
ATOM     12  C   UNL     1      -5.823  51.671  15.467  1.00  0.00     0.025 A 
ATOM     13  C   UNL     1      -6.451  52.894  15.752  1.00  0.00     0.016 A 
ATOM     14  C   UNL     1      -7.809  52.930  16.077  1.00  0.00     0.051 A 
ATOM     15  C   UNL     1      -8.562  51.752  16.135  1.00  0.00     0.157 A 
ATOM     16  C   UNL     1      -6.571  50.486  15.546  1.00  0.00     0.062 A 
ATOM     17  C   UNL     1      -7.933  50.513  15.870  1.00  0.00     0.158 A 
BRANCH  15  18
ATOM     18  O   UNL     1      -9.915  51.859  16.460  1.00  0.00    -0.504 OA
ATOM     19  H   UNL     1     -10.261  51.997  17.399  1.00  0.00     0.293 HD
ENDBRANCH  15  18
BRANCH  17  20
ATOM     20  O   UNL     1      -8.616  49.296  15.918  1.00  0.00    -0.504 OA
ATOM     21  H   UNL     1      -8.391  48.498  15.342  1.00  0.00     0.293 HD
ENDBRANCH  17  20
ENDBRANCH   1  12
BRANCH   2  22
ATOM     22  O   UNL     1      -3.767  51.325  17.480  1.00  0.00    -0.502 OA
ATOM     23  H   UNL     1      -4.244  50.521  17.869  1.00  0.00     0.293 HD
ENDBRANCH   2  22
BRANCH   6  24
ATOM     24  O   UNL     1       0.732  50.949  14.655  1.00  0.00    -0.507 OA
ATOM     25  H   UNL     1       1.575  51.493  14.756  1.00  0.00     0.293 HD
ENDBRANCH   6  24
BRANCH   8  26
ATOM     26  O   UNL     1      -0.917  52.086  10.291  1.00  0.00    -0.508 OA
ATOM     27  H   UNL     1      -0.628  51.338   9.670  1.00  0.00     0.293 HD
ENDBRANCH   8  26
TORSDOF 6
ENDMDL
MODEL 6
REMARK VINA RESULT:    -5.975      0.635      1.490
REMARK INTER + INTRA:          -7.474
REMARK INTER:                  -7.210
REMARK INTRA:                  -0.264
REMARK UNBOUND:                -0.277
REMARK SMILES O=c1c(O)c(-c2ccc(O)c(O)c2)oc2cc(O)cc(O)c12
REMARK SMILES IDX 5 1 3 2 2 3 1 4 22 5 20 6 19 7 17 8 16 9 15 10 14 11 6 12
REMARK SMILES IDX 7 13 8 14 9 15 13 16 11 17 10 18 12 20 4 22 21 24 18 26
REMARK H PARENT 10 19 12 21 4 23 21 25 18 27
REMARK Flexibility Score: inf
ROOT
ATOM      1  C   UNL     1      -2.987  52.172  11.892  1.00  0.00     0.180 A 
ATOM      2  C   UNL     1      -3.332  53.485  11.528  1.00  0.00     0.208 A 
ATOM      3  C   UNL     1      -3.372  53.826  10.166  1.00  0.00     0.238 A 
ATOM      4  O   UNL     1      -3.734  54.988   9.844  1.00  0.00    -0.285 OA
ATOM      5  C   UNL     1      -3.050  52.857   9.187  1.00  0.00     0.111 A 
ATOM      6  C   UNL     1      -3.018  53.103   7.781  1.00  0.00     0.134 A 
ATOM      7  C   UNL     1      -2.813  52.036   6.898  1.00  0.00     0.093 A 
ATOM      8  C   UNL     1      -2.575  50.743   7.371  1.00  0.00     0.123 A 
ATOM      9  C   UNL     1      -2.545  50.504   8.743  1.00  0.00     0.094 A 
ATOM     10  C   UNL     1      -2.781  51.542   9.648  1.00  0.00     0.146 A 
ATOM     11  O   UNL     1      -2.754  51.267  10.948  1.00  0.00    -0.452 OA
ENDROOT
BRANCH   1  12
ATOM     12  C   UNL     1      -2.899  51.744  13.306  1.00  0.00     0.025 A 
ATOM     13  C   UNL     1      -4.052  51.514  14.074  1.00  0.00     0.016 A 
ATOM     14  C   UNL     1      -3.943  51.133  15.413  1.00  0.00     0.051 A 
ATOM     15  C   UNL     1      -2.689  50.987  16.015  1.00  0.00     0.157 A 
ATOM     16  C   UNL     1      -1.640  51.618  13.914  1.00  0.00     0.062 A 
ATOM     17  C   UNL     1      -1.521  51.237  15.256  1.00  0.00     0.158 A 
BRANCH  15  18
ATOM     18  O   UNL     1      -2.650  50.599  17.355  1.00  0.00    -0.504 OA
ATOM     19  H   UNL     1      -3.472  50.423  17.916  1.00  0.00     0.293 HD
ENDBRANCH  15  18
BRANCH  17  20
ATOM     20  O   UNL     1      -0.236  51.121  15.789  1.00  0.00    -0.504 OA
ATOM     21  H   UNL     1       0.601  51.441  15.323  1.00  0.00     0.293 HD
ENDBRANCH  17  20
ENDBRANCH   1  12
BRANCH   2  22
ATOM     22  O   UNL     1      -3.667  54.422  12.509  1.00  0.00    -0.502 OA
ATOM     23  H   UNL     1      -3.136  55.271  12.656  1.00  0.00     0.293 HD
ENDBRANCH   2  22
BRANCH   6  24
ATOM     24  O   UNL     1      -3.152  54.371   7.209  1.00  0.00    -0.507 OA
ATOM     25  H   UNL     1      -2.384  54.983   6.981  1.00  0.00     0.293 HD
ENDBRANCH   6  24
BRANCH   8  26
ATOM     26  O   UNL     1      -2.357  49.690   6.485  1.00  0.00    -0.508 OA
ATOM     27  H   UNL     1      -1.490  49.166   6.488  1.00  0.00     0.293 HD
ENDBRANCH   8  26
TORSDOF 6
ENDMDL
MODEL 7
REMARK VINA RESULT:    -5.914      2.104      3.703
REMARK INTER + INTRA:          -7.401
REMARK INTER:                  -7.378
REMARK INTRA:                  -0.023
REMARK UNBOUND:                -0.277
REMARK SMILES O=c1c(O)c(-c2ccc(O)c(O)c2)oc2cc(O)cc(O)c12
REMARK SMILES IDX 5 1 3 2 2 3 1 4 22 5 20 6 19 7 17 8 16 9 15 10 14 11 6 12
REMARK SMILES IDX 7 13 8 14 9 15 13 16 11 17 10 18 12 20 4 22 21 24 18 26
REMARK H PARENT 10 19 12 21 4 23 21 25 18 27
REMARK Flexibility Score: inf
ROOT
ATOM      1  C   UNL     1      -1.856  51.803  10.467  1.00  0.00     0.180 A 
ATOM      2  C   UNL     1      -1.767  50.891   9.400  1.00  0.00     0.208 A 
ATOM      3  C   UNL     1      -2.553  51.103   8.256  1.00  0.00     0.238 A 
ATOM      4  O   UNL     1      -2.430  50.314   7.283  1.00  0.00    -0.285 OA
ATOM      5  C   UNL     1      -3.429  52.214   8.198  1.00  0.00     0.111 A 
ATOM      6  C   UNL     1      -4.300  52.504   7.105  1.00  0.00     0.134 A 
ATOM      7  C   UNL     1      -5.027  53.701   7.100  1.00  0.00     0.093 A 
ATOM      8  C   UNL     1      -4.963  54.587   8.178  1.00  0.00     0.123 A 
ATOM      9  C   UNL     1      -4.161  54.284   9.276  1.00  0.00     0.094 A 
ATOM     10  C   UNL     1      -3.397  53.115   9.294  1.00  0.00     0.146 A 
ATOM     11  O   UNL     1      -2.637  52.871  10.356  1.00  0.00    -0.452 OA
ENDROOT
BRANCH   1  12
ATOM     12  C   UNL     1      -1.079  51.633  11.715  1.00  0.00     0.025 A 
ATOM     13  C   UNL     1       0.314  51.455  11.691  1.00  0.00     0.016 A 
ATOM     14  C   UNL     1       1.022  51.272  12.881  1.00  0.00     0.051 A 
ATOM     15  C   UNL     1       0.357  51.252  14.112  1.00  0.00     0.157 A 
ATOM     16  C   UNL     1      -1.750  51.592  12.947  1.00  0.00     0.062 A 
ATOM     17  C   UNL     1      -1.048  51.410  14.145  1.00  0.00     0.158 A 
BRANCH  15  18
ATOM     18  O   UNL     1       1.125  51.071  15.264  1.00  0.00    -0.504 OA
ATOM     19  H   UNL     1       2.022  50.607  15.278  1.00  0.00     0.293 HD
ENDBRANCH  15  18
BRANCH  17  20
ATOM     20  O   UNL     1      -1.781  51.391  15.334  1.00  0.00    -0.504 OA
ATOM     21  H   UNL     1      -2.777  51.227  15.381  1.00  0.00     0.293 HD
ENDBRANCH  17  20
ENDBRANCH   1  12
BRANCH   2  22
ATOM     22  O   UNL     1      -0.881  49.813   9.469  1.00  0.00    -0.502 OA
ATOM     23  H   UNL     1      -0.654  49.243   8.663  1.00  0.00     0.293 HD
ENDBRANCH   2  22
BRANCH   6  24
ATOM     24  O   UNL     1      -4.508  51.643   6.024  1.00  0.00    -0.507 OA
ATOM     25  H   UNL     1      -3.987  50.796   5.855  1.00  0.00     0.293 HD
ENDBRANCH   6  24
BRANCH   8  26
ATOM     26  O   UNL     1      -5.702  55.769   8.171  1.00  0.00    -0.508 OA
ATOM     27  H   UNL     1      -5.955  56.231   7.305  1.00  0.00     0.293 HD
ENDBRANCH   8  26
TORSDOF 6
ENDMDL
MODEL 8
REMARK VINA RESULT:    -5.866      1.795      6.947
REMARK INTER + INTRA:          -7.344
REMARK INTER:                  -7.058
REMARK INTRA:                  -0.285
REMARK UNBOUND:                -0.277
REMARK SMILES O=c1c(O)c(-c2ccc(O)c(O)c2)oc2cc(O)cc(O)c12
REMARK SMILES IDX 5 1 3 2 2 3 1 4 22 5 20 6 19 7 17 8 16 9 15 10 14 11 6 12
REMARK SMILES IDX 7 13 8 14 9 15 13 16 11 17 10 18 12 20 4 22 21 24 18 26
REMARK H PARENT 10 19 12 21 4 23 21 25 18 27
REMARK Flexibility Score: inf
ROOT
ATOM      1  C   UNL     1      -2.738  52.446  11.069  1.00  0.00     0.180 A 
ATOM      2  C   UNL     1      -1.363  52.156  11.119  1.00  0.00     0.208 A 
ATOM      3  C   UNL     1      -0.813  51.670  12.316  1.00  0.00     0.238 A 
ATOM      4  O   UNL     1       0.407  51.361  12.340  1.00  0.00    -0.285 OA
ATOM      5  C   UNL     1      -1.640  51.494  13.451  1.00  0.00     0.111 A 
ATOM      6  C   UNL     1      -1.182  51.046  14.727  1.00  0.00     0.134 A 
ATOM      7  C   UNL     1      -2.111  50.785  15.742  1.00  0.00     0.093 A 
ATOM      8  C   UNL     1      -3.474  51.018  15.548  1.00  0.00     0.123 A 
ATOM      9  C   UNL     1      -3.925  51.512  14.326  1.00  0.00     0.094 A 
ATOM     10  C   UNL     1      -3.026  51.748  13.283  1.00  0.00     0.146 A 
ATOM     11  O   UNL     1      -3.500  52.209  12.130  1.00  0.00    -0.452 OA
ENDROOT
BRANCH   1  12
ATOM     12  C   UNL     1      -3.386  52.985   9.851  1.00  0.00     0.025 A 
ATOM     13  C   UNL     1      -3.720  54.345   9.743  1.00  0.00     0.016 A 
ATOM     14  C   UNL     1      -4.352  54.826   8.594  1.00  0.00     0.051 A 
ATOM     15  C   UNL     1      -4.672  53.963   7.541  1.00  0.00     0.157 A 
ATOM     16  C   UNL     1      -3.725  52.115   8.805  1.00  0.00     0.062 A 
ATOM     17  C   UNL     1      -4.359  52.588   7.649  1.00  0.00     0.158 A 
BRANCH  15  18
ATOM     18  O   UNL     1      -5.299  54.510   6.418  1.00  0.00    -0.504 OA
ATOM     19  H   UNL     1      -6.107  55.113   6.461  1.00  0.00     0.293 HD
ENDBRANCH  15  18
BRANCH  17  20
ATOM     20  O   UNL     1      -4.656  51.666   6.644  1.00  0.00    -0.504 OA
ATOM     21  H   UNL     1      -4.005  50.975   6.300  1.00  0.00     0.293 HD
ENDBRANCH  17  20
ENDBRANCH   1  12
BRANCH   2  22
ATOM     22  O   UNL     1      -0.569  52.316   9.981  1.00  0.00    -0.502 OA
ATOM     23  H   UNL     1       0.348  51.895   9.893  1.00  0.00     0.293 HD
ENDBRANCH   2  22
BRANCH   6  24
ATOM     24  O   UNL     1       0.166  50.871  15.054  1.00  0.00    -0.507 OA
ATOM     25  H   UNL     1       0.718  50.064  14.804  1.00  0.00     0.293 HD
ENDBRANCH   6  24
BRANCH   8  26
ATOM     26  O   UNL     1      -4.390  50.770  16.569  1.00  0.00    -0.508 OA
ATOM     27  H   UNL     1      -5.106  50.058  16.477  1.00  0.00     0.293 HD
ENDBRANCH   8  26
TORSDOF 6
ENDMDL
MODEL 9
REMARK VINA RESULT:    -5.312      4.773      7.993
REMARK INTER + INTRA:          -6.675
REMARK INTER:                  -6.445
REMARK INTRA:                  -0.230
REMARK UNBOUND:                -0.277
REMARK SMILES O=c1c(O)c(-c2ccc(O)c(O)c2)oc2cc(O)cc(O)c12
REMARK SMILES IDX 5 1 3 2 2 3 1 4 22 5 20 6 19 7 17 8 16 9 15 10 14 11 6 12
REMARK SMILES IDX 7 13 8 14 9 15 13 16 11 17 10 18 12 20 4 22 21 24 18 26
REMARK H PARENT 10 19 12 21 4 23 21 25 18 27
REMARK Flexibility Score: inf
ROOT
ATOM      1  C   UNL     1      -6.347  52.581  15.917  1.00  0.00     0.180 A 
ATOM      2  C   UNL     1      -6.689  53.911  15.616  1.00  0.00     0.208 A 
ATOM      3  C   UNL     1      -8.013  54.335  15.810  1.00  0.00     0.238 A 
ATOM      4  O   UNL     1      -8.301  55.540  15.590  1.00  0.00    -0.285 OA
ATOM      5  C   UNL     1      -8.983  53.421  16.287  1.00  0.00     0.111 A 
ATOM      6  C   UNL     1     -10.362  53.731  16.483  1.00  0.00     0.134 A 
ATOM      7  C   UNL     1     -11.204  52.786  17.083  1.00  0.00     0.093 A 
ATOM      8  C   UNL     1     -10.731  51.520  17.434  1.00  0.00     0.123 A 
ATOM      9  C   UNL     1      -9.401  51.187  17.193  1.00  0.00     0.094 A 
ATOM     10  C   UNL     1      -8.528  52.121  16.628  1.00  0.00     0.146 A 
ATOM     11  O   UNL     1      -7.264  51.765  16.425  1.00  0.00    -0.452 OA
ENDROOT
BRANCH   1  12
ATOM     12  C   UNL     1      -4.979  52.053  15.714  1.00  0.00     0.025 A 
ATOM     13  C   UNL     1      -4.447  51.876  14.427  1.00  0.00     0.016 A 
ATOM     14  C   UNL     1      -3.162  51.354  14.260  1.00  0.00     0.051 A 
ATOM     15  C   UNL     1      -2.391  50.988  15.369  1.00  0.00     0.157 A 
ATOM     16  C   UNL     1      -4.215  51.667  16.826  1.00  0.00     0.062 A 
ATOM     17  C   UNL     1      -2.926  51.143  16.669  1.00  0.00     0.158 A 
BRANCH  15  18
ATOM     18  O   UNL     1      -1.112  50.478  15.133  1.00  0.00    -0.504 OA
ATOM     19  H   UNL     1      -0.271  50.847  15.553  1.00  0.00     0.293 HD
ENDBRANCH  15  18
BRANCH  17  20
ATOM     20  O   UNL     1      -2.220  50.792  17.821  1.00  0.00    -0.504 OA
ATOM     21  H   UNL     1      -2.444  51.129  18.747  1.00  0.00     0.293 HD
ENDBRANCH  17  20
ENDBRANCH   1  12
BRANCH   2  22
ATOM     22  O   UNL     1      -5.711  54.803  15.166  1.00  0.00    -0.502 OA
ATOM     23  H   UNL     1      -5.938  55.641  14.645  1.00  0.00     0.293 HD
ENDBRANCH   2  22
BRANCH   6  24
ATOM     24  O   UNL     1     -10.956  54.932  16.083  1.00  0.00    -0.507 OA
ATOM     25  H   UNL     1     -10.709  55.447  15.253  1.00  0.00     0.293 HD
ENDBRANCH   6  24
BRANCH   8  26
ATOM     26  O   UNL     1     -11.580  50.580  18.017  1.00  0.00    -0.508 OA
ATOM     27  H   UNL     1     -12.582  50.609  17.870  1.00  0.00     0.293 HD
ENDBRANCH   8  26
TORSDOF 6
ENDMDL
