MODEL 1
REMARK VINA RESULT:    -3.360      0.000      0.000
REMARK INTER + INTRA:          -9.175
REMARK INTER:                  -6.502
REMARK INTRA:                  -2.673
REMARK UNBOUND:                -2.673
REMARK SMILES CCCCCCCCCCCCCCCCCC(=O)[O-]
REMARK SMILES IDX 10 1 11 2 12 3 13 4 14 5 15 6 16 7 17 8 18 9 19 10 20 11
REMARK SMILES IDX 9 12 8 13 7 14 6 15 5 16 4 17 3 18 2 19 1 20
REMARK H PARENT
REMARK Flexibility Score: inf
ROOT
ATOM      1  C   UNL     1      56.422  29.554  51.865  1.00  0.00     0.000 C 
ENDROOT
BRANCH   1   2
ATOM      2  C   UNL     1      57.116  29.351  50.502  1.00  0.00     0.000 C 
BRANCH   2   3
ATOM      3  C   UNL     1      58.626  29.062  50.577  1.00  0.00     0.000 C 
BRANCH   3   4
ATOM      4  C   UNL     1      59.188  28.485  49.271  1.00  0.00     0.000 C 
BRANCH   4   5
ATOM      5  C   UNL     1      60.367  27.541  49.552  1.00  0.00     0.000 C 
BRANCH   5   6
ATOM      6  C   UNL     1      59.916  26.113  49.895  1.00  0.00     0.000 C 
BRANCH   6   7
ATOM      7  C   UNL     1      60.653  25.537  51.114  1.00  0.00     0.006 C 
BRANCH   7   8
ATOM      8  C   UNL     1      60.322  24.054  51.305  1.00  0.00     0.053 C 
BRANCH   8   9
ATOM      9  C   UNL     1      61.168  23.209  50.405  1.00  0.00     0.041 C 
ATOM     10  O   UNL     1      60.631  22.375  49.629  1.00  0.00    -0.550 OA
ATOM     11  O   UNL     1      62.547  23.375  50.390  1.00  0.00    -0.550 OA
ENDBRANCH   8   9
ENDBRANCH   7   8
ENDBRANCH   6   7
ENDBRANCH   5   6
ENDBRANCH   4   5
ENDBRANCH   3   4
ENDBRANCH   2   3
ENDBRANCH   1   2
BRANCH   1  12
ATOM     12  C   UNL     1      54.963  29.071  51.935  1.00  0.00     0.000 C 
BRANCH  12  13
ATOM     13  C   UNL     1      54.200  29.293  50.617  1.00  0.00    -0.000 C 
BRANCH  13  14
ATOM     14  C   UNL     1      53.668  27.984  50.011  1.00  0.00    -0.000 C 
BRANCH  14  15
ATOM     15  C   UNL     1      53.855  26.734  50.894  1.00  0.00    -0.000 C 
BRANCH  15  16
ATOM     16  C   UNL     1      54.649  25.601  50.208  1.00  0.00    -0.000 C 
BRANCH  16  17
ATOM     17  C   UNL     1      56.169  25.830  50.284  1.00  0.00    -0.000 C 
BRANCH  17  18
ATOM     18  C   UNL     1      56.804  25.185  51.526  1.00  0.00    -0.000 C 
BRANCH  18  19
ATOM     19  C   UNL     1      57.248  26.221  52.570  1.00  0.00    -0.003 C 
ATOM     20  C   UNL     1      57.714  25.541  53.853  1.00  0.00     0.004 C 
ENDBRANCH  18  19
ENDBRANCH  17  18
ENDBRANCH  16  17
ENDBRANCH  15  16
ENDBRANCH  14  15
ENDBRANCH  13  14
ENDBRANCH  12  13
ENDBRANCH   1  12
TORSDOF 16
ENDMDL
MODEL 2
REMARK VINA RESULT:    -3.237      1.622      2.044
REMARK INTER + INTRA:          -8.938
REMARK INTER:                  -6.232
REMARK INTRA:                  -2.706
REMARK UNBOUND:                -2.673
REMARK SMILES CCCCCCCCCCCCCCCCCC(=O)[O-]
REMARK SMILES IDX 10 1 11 2 12 3 13 4 14 5 15 6 16 7 17 8 18 9 19 10 20 11
REMARK SMILES IDX 9 12 8 13 7 14 6 15 5 16 4 17 3 18 2 19 1 20
REMARK H PARENT
REMARK Flexibility Score: inf
ROOT
ATOM      1  C   UNL     1      56.264  28.112  51.954  1.00  0.00     0.000 C 
ENDROOT
BRANCH   1   2
ATOM      2  C   UNL     1      57.690  28.658  51.733  1.00  0.00     0.000 C 
BRANCH   2   3
ATOM      3  C   UNL     1      57.891  29.447  50.427  1.00  0.00     0.000 C 
BRANCH   3   4
ATOM      4  C   UNL     1      58.884  28.775  49.470  1.00  0.00     0.000 C 
BRANCH   4   5
ATOM      5  C   UNL     1      60.146  28.323  50.219  1.00  0.00     0.000 C 
BRANCH   5   6
ATOM      6  C   UNL     1      60.439  26.826  50.040  1.00  0.00     0.000 C 
BRANCH   6   7
ATOM      7  C   UNL     1      59.184  26.016  49.684  1.00  0.00     0.006 C 
BRANCH   7   8
ATOM      8  C   UNL     1      58.796  25.073  50.827  1.00  0.00     0.053 C 
BRANCH   8   9
ATOM      9  C   UNL     1      59.901  24.102  51.103  1.00  0.00     0.041 C 
ATOM     10  O   UNL     1      60.290  23.312  50.203  1.00  0.00    -0.550 OA
ATOM     11  O   UNL     1      60.532  24.101  52.340  1.00  0.00    -0.550 OA
ENDBRANCH   8   9
ENDBRANCH   7   8
ENDBRANCH   6   7
ENDBRANCH   5   6
ENDBRANCH   4   5
ENDBRANCH   3   4
ENDBRANCH   2   3
ENDBRANCH   1   2
BRANCH   1  12
ATOM     12  C   UNL     1      55.182  28.722  51.045  1.00  0.00     0.000 C 
BRANCH  12  13
ATOM     13  C   UNL     1      54.372  27.656  50.287  1.00  0.00    -0.000 C 
BRANCH  13  14
ATOM     14  C   UNL     1      55.186  26.381  50.006  1.00  0.00    -0.000 C 
BRANCH  14  15
ATOM     15  C   UNL     1      54.349  25.150  49.605  1.00  0.00    -0.000 C 
BRANCH  15  16
ATOM     16  C   UNL     1      53.113  24.919  50.502  1.00  0.00    -0.000 C 
BRANCH  16  17
ATOM     17  C   UNL     1      53.488  24.280  51.852  1.00  0.00    -0.000 C 
BRANCH  17  18
ATOM     18  C   UNL     1      53.436  25.280  53.017  1.00  0.00    -0.000 C 
BRANCH  18  19
ATOM     19  C   UNL     1      54.710  25.253  53.876  1.00  0.00    -0.003 C 
ATOM     20  C   UNL     1      55.848  24.546  53.146  1.00  0.00     0.004 C 
ENDBRANCH  18  19
ENDBRANCH  17  18
ENDBRANCH  16  17
ENDBRANCH  15  16
ENDBRANCH  14  15
ENDBRANCH  13  14
ENDBRANCH  12  13
ENDBRANCH   1  12
TORSDOF 16
ENDMDL
MODEL 3
REMARK VINA RESULT:    -3.235     10.850     12.809
REMARK INTER + INTRA:          -8.934
REMARK INTER:                  -6.838
REMARK INTRA:                  -2.096
REMARK UNBOUND:                -2.673
REMARK SMILES CCCCCCCCCCCCCCCCCC(=O)[O-]
REMARK SMILES IDX 10 1 11 2 12 3 13 4 14 5 15 6 16 7 17 8 18 9 19 10 20 11
REMARK SMILES IDX 9 12 8 13 7 14 6 15 5 16 4 17 3 18 2 19 1 20
REMARK H PARENT
REMARK Flexibility Score: inf
ROOT
ATOM      1  C   UNL     1      63.507  30.499  61.303  1.00  0.00     0.000 C 
ENDROOT
BRANCH   1   2
ATOM      2  C   UNL     1      62.148  29.984  61.820  1.00  0.00     0.000 C 
BRANCH   2   3
ATOM      3  C   UNL     1      60.976  30.971  61.669  1.00  0.00     0.000 C 
BRANCH   3   4
ATOM      4  C   UNL     1      60.304  30.893  60.292  1.00  0.00     0.000 C 
BRANCH   4   5
ATOM      5  C   UNL     1      60.733  32.071  59.406  1.00  0.00     0.000 C 
BRANCH   5   6
ATOM      6  C   UNL     1      61.031  33.344  60.212  1.00  0.00     0.000 C 
BRANCH   6   7
ATOM      7  C   UNL     1      62.334  34.031  59.775  1.00  0.00     0.006 C 
BRANCH   7   8
ATOM      8  C   UNL     1      62.900  34.901  60.901  1.00  0.00     0.053 C 
BRANCH   8   9
ATOM      9  C   UNL     1      64.338  34.569  61.148  1.00  0.00     0.041 C 
ATOM     10  O   UNL     1      64.825  33.494  60.708  1.00  0.00    -0.550 OA
ATOM     11  O   UNL     1      65.153  35.467  61.826  1.00  0.00    -0.550 OA
ENDBRANCH   8   9
ENDBRANCH   7   8
ENDBRANCH   6   7
ENDBRANCH   5   6
ENDBRANCH   4   5
ENDBRANCH   3   4
ENDBRANCH   2   3
ENDBRANCH   1   2
BRANCH   1  12
ATOM     12  C   UNL     1      64.166  29.631  60.216  1.00  0.00     0.000 C 
BRANCH  12  13
ATOM     13  C   UNL     1      63.277  28.456  59.775  1.00  0.00    -0.000 C 
BRANCH  13  14
ATOM     14  C   UNL     1      64.010  27.104  59.827  1.00  0.00    -0.000 C 
BRANCH  14  15
ATOM     15  C   UNL     1      63.428  26.086  60.827  1.00  0.00    -0.000 C 
BRANCH  15  16
ATOM     16  C   UNL     1      62.253  26.638  61.663  1.00  0.00    -0.000 C 
BRANCH  16  17
ATOM     17  C   UNL     1      60.900  26.051  61.220  1.00  0.00    -0.000 C 
BRANCH  17  18
ATOM     18  C   UNL     1      59.947  27.117  60.657  1.00  0.00    -0.000 C 
BRANCH  18  19
ATOM     19  C   UNL     1      58.509  26.956  61.173  1.00  0.00    -0.003 C 
ATOM     20  C   UNL     1      57.749  28.277  61.098  1.00  0.00     0.004 C 
ENDBRANCH  18  19
ENDBRANCH  17  18
ENDBRANCH  16  17
ENDBRANCH  15  16
ENDBRANCH  14  15
ENDBRANCH  13  14
ENDBRANCH  12  13
ENDBRANCH   1  12
TORSDOF 16
ENDMDL
MODEL 4
REMARK VINA RESULT:    -3.189      2.804      4.652
REMARK INTER + INTRA:          -8.846
REMARK INTER:                  -6.225
REMARK INTRA:                  -2.621
REMARK UNBOUND:                -2.673
REMARK SMILES CCCCCCCCCCCCCCCCCC(=O)[O-]
REMARK SMILES IDX 10 1 11 2 12 3 13 4 14 5 15 6 16 7 17 8 18 9 19 10 20 11
REMARK SMILES IDX 9 12 8 13 7 14 6 15 5 16 4 17 3 18 2 19 1 20
REMARK H PARENT
REMARK Flexibility Score: inf
ROOT
ATOM      1  C   UNL     1      56.583  25.846  51.808  1.00  0.00     0.000 C 
ENDROOT
BRANCH   1   2
ATOM      2  C   UNL     1      57.951  25.181  51.554  1.00  0.00     0.000 C 
BRANCH   2   3
ATOM      3  C   UNL     1      58.648  25.602  50.247  1.00  0.00     0.000 C 
BRANCH   3   4
ATOM      4  C   UNL     1      60.148  25.868  50.429  1.00  0.00     0.000 C 
BRANCH   4   5
ATOM      5  C   UNL     1      60.519  27.274  49.934  1.00  0.00     0.000 C 
BRANCH   5   6
ATOM      6  C   UNL     1      59.385  27.943  49.143  1.00  0.00     0.000 C 
BRANCH   6   7
ATOM      7  C   UNL     1      59.009  29.324  49.701  1.00  0.00     0.006 C 
BRANCH   7   8
ATOM      8  C   UNL     1      57.679  29.267  50.458  1.00  0.00     0.053 C 
BRANCH   8   9
ATOM      9  C   UNL     1      57.898  29.504  51.919  1.00  0.00     0.041 C 
ATOM     10  O   UNL     1      58.473  28.634  52.624  1.00  0.00    -0.550 OA
ATOM     11  O   UNL     1      57.506  30.707  52.495  1.00  0.00    -0.550 OA
ENDBRANCH   8   9
ENDBRANCH   7   8
ENDBRANCH   6   7
ENDBRANCH   5   6
ENDBRANCH   4   5
ENDBRANCH   3   4
ENDBRANCH   2   3
ENDBRANCH   1   2
BRANCH   1  12
ATOM     12  C   UNL     1      55.497  24.914  52.373  1.00  0.00     0.000 C 
BRANCH  12  13
ATOM     13  C   UNL     1      54.309  24.735  51.412  1.00  0.00    -0.000 C 
BRANCH  13  14
ATOM     14  C   UNL     1      54.461  25.556  50.120  1.00  0.00    -0.000 C 
BRANCH  14  15
ATOM     15  C   UNL     1      53.148  26.138  49.560  1.00  0.00    -0.000 C 
BRANCH  15  16
ATOM     16  C   UNL     1      52.913  27.617  49.935  1.00  0.00    -0.000 C 
BRANCH  16  17
ATOM     17  C   UNL     1      54.229  28.349  50.255  1.00  0.00    -0.000 C 
BRANCH  17  18
ATOM     18  C   UNL     1      54.068  29.401  51.364  1.00  0.00    -0.000 C 
BRANCH  18  19
ATOM     19  C   UNL     1      53.370  28.842  52.613  1.00  0.00    -0.003 C 
ATOM     20  C   UNL     1      54.381  28.226  53.575  1.00  0.00     0.004 C 
ENDBRANCH  18  19
ENDBRANCH  17  18
ENDBRANCH  16  17
ENDBRANCH  15  16
ENDBRANCH  14  15
ENDBRANCH  13  14
ENDBRANCH  12  13
ENDBRANCH   1  12
TORSDOF 16
ENDMDL
MODEL 5
REMARK VINA RESULT:    -3.140      1.638      2.848
REMARK INTER + INTRA:          -8.751
REMARK INTER:                  -6.375
REMARK INTRA:                  -2.377
REMARK UNBOUND:                -2.673
REMARK SMILES CCCCCCCCCCCCCCCCCC(=O)[O-]
REMARK SMILES IDX 10 1 11 2 12 3 13 4 14 5 15 6 16 7 17 8 18 9 19 10 20 11
REMARK SMILES IDX 9 12 8 13 7 14 6 15 5 16 4 17 3 18 2 19 1 20
REMARK H PARENT
REMARK Flexibility Score: inf
ROOT
ATOM      1  C   UNL     1      54.132  29.846  50.946  1.00  0.00     0.000 C 
ENDROOT
BRANCH   1   2
ATOM      2  C   UNL     1      55.600  29.493  50.631  1.00  0.00     0.000 C 
BRANCH   2   3
ATOM      3  C   UNL     1      56.558  29.552  51.834  1.00  0.00     0.000 C 
BRANCH   3   4
ATOM      4  C   UNL     1      58.035  29.600  51.420  1.00  0.00     0.000 C 
BRANCH   4   5
ATOM      5  C   UNL     1      58.207  29.168  49.956  1.00  0.00     0.000 C 
BRANCH   5   6
ATOM      6  C   UNL     1      59.528  28.424  49.708  1.00  0.00     0.000 C 
BRANCH   6   7
ATOM      7  C   UNL     1      60.737  29.140  50.329  1.00  0.00     0.006 C 
BRANCH   7   8
ATOM      8  C   UNL     1      61.646  28.148  51.059  1.00  0.00     0.053 C 
BRANCH   8   9
ATOM      9  C   UNL     1      62.351  27.264  50.079  1.00  0.00     0.041 C 
ATOM     10  O   UNL     1      62.948  27.764  49.089  1.00  0.00    -0.550 OA
ATOM     11  O   UNL     1      62.387  25.890  50.281  1.00  0.00    -0.550 OA
ENDBRANCH   8   9
ENDBRANCH   7   8
ENDBRANCH   6   7
ENDBRANCH   5   6
ENDBRANCH   4   5
ENDBRANCH   3   4
ENDBRANCH   2   3
ENDBRANCH   1   2
BRANCH   1  12
ATOM     12  C   UNL     1      53.090  28.845  50.416  1.00  0.00     0.000 C 
BRANCH  12  13
ATOM     13  C   UNL     1      53.383  27.397  50.847  1.00  0.00    -0.000 C 
BRANCH  13  14
ATOM     14  C   UNL     1      53.464  26.428  49.655  1.00  0.00    -0.000 C 
BRANCH  14  15
ATOM     15  C   UNL     1      54.695  25.500  49.653  1.00  0.00    -0.000 C 
BRANCH  15  16
ATOM     16  C   UNL     1      55.946  26.124  50.309  1.00  0.00    -0.000 C 
BRANCH  16  17
ATOM     17  C   UNL     1      56.511  25.241  51.436  1.00  0.00    -0.000 C 
BRANCH  17  18
ATOM     18  C   UNL     1      57.436  26.014  52.388  1.00  0.00    -0.000 C 
BRANCH  18  19
ATOM     19  C   UNL     1      58.922  25.841  52.037  1.00  0.00    -0.003 C 
ATOM     20  C   UNL     1      59.113  24.759  50.979  1.00  0.00     0.004 C 
ENDBRANCH  18  19
ENDBRANCH  17  18
ENDBRANCH  16  17
ENDBRANCH  15  16
ENDBRANCH  14  15
ENDBRANCH  13  14
ENDBRANCH  12  13
ENDBRANCH   1  12
TORSDOF 16
ENDMDL
MODEL 6
REMARK VINA RESULT:    -3.097     10.373     12.463
REMARK INTER + INTRA:          -8.668
REMARK INTER:                  -6.217
REMARK INTRA:                  -2.451
REMARK UNBOUND:                -2.673
REMARK SMILES CCCCCCCCCCCCCCCCCC(=O)[O-]
REMARK SMILES IDX 10 1 11 2 12 3 13 4 14 5 15 6 16 7 17 8 18 9 19 10 20 11
REMARK SMILES IDX 9 12 8 13 7 14 6 15 5 16 4 17 3 18 2 19 1 20
REMARK H PARENT
REMARK Flexibility Score: inf
ROOT
ATOM      1  C   UNL     1      60.601  31.337  59.781  1.00  0.00     0.000 C 
ENDROOT
BRANCH   1   2
ATOM      2  C   UNL     1      60.871  31.475  61.293  1.00  0.00     0.000 C 
BRANCH   2   3
ATOM      3  C   UNL     1      61.514  30.243  61.955  1.00  0.00     0.000 C 
BRANCH   3   4
ATOM      4  C   UNL     1      62.906  29.922  61.394  1.00  0.00     0.000 C 
BRANCH   4   5
ATOM      5  C   UNL     1      62.890  28.596  60.619  1.00  0.00     0.000 C 
BRANCH   5   6
ATOM      6  C   UNL     1      61.864  27.596  61.173  1.00  0.00     0.000 C 
BRANCH   6   7
ATOM      7  C   UNL     1      60.720  27.314  60.186  1.00  0.00     0.006 C 
BRANCH   7   8
ATOM      8  C   UNL     1      59.617  26.484  60.848  1.00  0.00     0.053 C 
BRANCH   8   9
ATOM      9  C   UNL     1      58.437  27.346  61.174  1.00  0.00     0.041 C 
ATOM     10  O   UNL     1      57.441  26.858  61.770  1.00  0.00    -0.550 OA
ATOM     11  O   UNL     1      58.457  28.698  60.858  1.00  0.00    -0.550 OA
ENDBRANCH   8   9
ENDBRANCH   7   8
ENDBRANCH   6   7
ENDBRANCH   5   6
ENDBRANCH   4   5
ENDBRANCH   3   4
ENDBRANCH   2   3
ENDBRANCH   1   2
BRANCH   1  12
ATOM     12  C   UNL     1      60.366  32.662  59.033  1.00  0.00     0.000 C 
BRANCH  12  13
ATOM     13  C   UNL     1      61.566  33.073  58.163  1.00  0.00    -0.000 C 
BRANCH  13  14
ATOM     14  C   UNL     1      62.754  32.105  58.293  1.00  0.00    -0.000 C 
BRANCH  14  15
ATOM     15  C   UNL     1      64.138  32.779  58.377  1.00  0.00    -0.000 C 
BRANCH  15  16
ATOM     16  C   UNL     1      64.843  32.584  59.737  1.00  0.00    -0.000 C 
BRANCH  16  17
ATOM     17  C   UNL     1      64.080  33.264  60.888  1.00  0.00    -0.000 C 
BRANCH  17  18
ATOM     18  C   UNL     1      64.567  34.696  61.158  1.00  0.00    -0.000 C 
BRANCH  18  19
ATOM     19  C   UNL     1      63.654  35.759  60.526  1.00  0.00    -0.003 C 
ATOM     20  C   UNL     1      62.200  35.542  60.931  1.00  0.00     0.004 C 
ENDBRANCH  18  19
ENDBRANCH  17  18
ENDBRANCH  16  17
ENDBRANCH  15  16
ENDBRANCH  14  15
ENDBRANCH  13  14
ENDBRANCH  12  13
ENDBRANCH   1  12
TORSDOF 16
ENDMDL
MODEL 7
REMARK VINA RESULT:    -3.081     10.627     12.976
REMARK INTER + INTRA:          -8.636
REMARK INTER:                  -6.525
REMARK INTRA:                  -2.112
REMARK UNBOUND:                -2.673
REMARK SMILES CCCCCCCCCCCCCCCCCC(=O)[O-]
REMARK SMILES IDX 10 1 11 2 12 3 13 4 14 5 15 6 16 7 17 8 18 9 19 10 20 11
REMARK SMILES IDX 9 12 8 13 7 14 6 15 5 16 4 17 3 18 2 19 1 20
REMARK H PARENT
REMARK Flexibility Score: inf
ROOT
ATOM      1  C   UNL     1      64.699  30.647  60.392  1.00  0.00     0.000 C 
ENDROOT
BRANCH   1   2
ATOM      2  C   UNL     1      63.432  29.769  60.456  1.00  0.00     0.000 C 
BRANCH   2   3
ATOM      3  C   UNL     1      62.533  30.011  61.682  1.00  0.00     0.000 C 
BRANCH   3   4
ATOM      4  C   UNL     1      61.387  30.990  61.397  1.00  0.00     0.000 C 
BRANCH   4   5
ATOM      5  C   UNL     1      61.106  31.081  59.890  1.00  0.00     0.000 C 
BRANCH   5   6
ATOM      6  C   UNL     1      59.895  30.239  59.460  1.00  0.00     0.000 C 
BRANCH   6   7
ATOM      7  C   UNL     1      59.211  29.538  60.644  1.00  0.00     0.006 C 
BRANCH   7   8
ATOM      8  C   UNL     1      59.108  28.029  60.403  1.00  0.00     0.053 C 
BRANCH   8   9
ATOM      9  C   UNL     1      58.043  27.433  61.269  1.00  0.00     0.041 C 
ATOM     10  O   UNL     1      58.164  26.257  61.704  1.00  0.00    -0.550 OA
ATOM     11  O   UNL     1      56.937  28.191  61.633  1.00  0.00    -0.550 OA
ENDBRANCH   8   9
ENDBRANCH   7   8
ENDBRANCH   6   7
ENDBRANCH   5   6
ENDBRANCH   4   5
ENDBRANCH   3   4
ENDBRANCH   2   3
ENDBRANCH   1   2
BRANCH   1  12
ATOM     12  C   UNL     1      64.815  31.539  59.144  1.00  0.00     0.000 C 
BRANCH  12  13
ATOM     13  C   UNL     1      64.596  33.030  59.456  1.00  0.00    -0.000 C 
BRANCH  13  14
ATOM     14  C   UNL     1      64.406  33.300  60.958  1.00  0.00    -0.000 C 
BRANCH  14  15
ATOM     15  C   UNL     1      64.328  34.790  61.347  1.00  0.00    -0.000 C 
BRANCH  15  16
ATOM     16  C   UNL     1      63.506  35.648  60.362  1.00  0.00    -0.000 C 
BRANCH  16  17
ATOM     17  C   UNL     1      62.059  35.858  60.844  1.00  0.00    -0.000 C 
BRANCH  17  18
ATOM     18  C   UNL     1      61.115  34.731  60.396  1.00  0.00    -0.000 C 
BRANCH  18  19
ATOM     19  C   UNL     1      60.483  35.001  59.021  1.00  0.00    -0.003 C 
ATOM     20  C   UNL     1      61.333  34.405  57.903  1.00  0.00     0.004 C 
ENDBRANCH  18  19
ENDBRANCH  17  18
ENDBRANCH  16  17
ENDBRANCH  15  16
ENDBRANCH  14  15
ENDBRANCH  13  14
ENDBRANCH  12  13
ENDBRANCH   1  12
TORSDOF 16
ENDMDL
MODEL 8
REMARK VINA RESULT:    -3.078      2.888      5.541
REMARK INTER + INTRA:          -8.630
REMARK INTER:                  -5.608
REMARK INTRA:                  -3.021
REMARK UNBOUND:                -2.673
REMARK SMILES CCCCCCCCCCCCCCCCCC(=O)[O-]
REMARK SMILES IDX 10 1 11 2 12 3 13 4 14 5 15 6 16 7 17 8 18 9 19 10 20 11
REMARK SMILES IDX 9 12 8 13 7 14 6 15 5 16 4 17 3 18 2 19 1 20
REMARK H PARENT
REMARK Flexibility Score: inf
ROOT
ATOM      1  C   UNL     1      57.634  29.289  50.322  1.00  0.00     0.000 C 
ENDROOT
BRANCH   1   2
ATOM      2  C   UNL     1      57.213  29.668  51.756  1.00  0.00     0.000 C 
BRANCH   2   3
ATOM      3  C   UNL     1      57.885  28.847  52.871  1.00  0.00     0.000 C 
BRANCH   3   4
ATOM      4  C   UNL     1      56.903  27.927  53.609  1.00  0.00     0.000 C 
BRANCH   4   5
ATOM      5  C   UNL     1      55.479  28.503  53.572  1.00  0.00     0.000 C 
BRANCH   5   6
ATOM      6  C   UNL     1      54.459  27.612  54.295  1.00  0.00     0.000 C 
BRANCH   6   7
ATOM      7  C   UNL     1      54.737  26.113  54.099  1.00  0.00     0.006 C 
BRANCH   7   8
ATOM      8  C   UNL     1      53.651  25.461  53.239  1.00  0.00     0.053 C 
BRANCH   8   9
ATOM      9  C   UNL     1      54.002  24.037  52.943  1.00  0.00     0.041 C 
ATOM     10  O   UNL     1      55.110  23.567  53.314  1.00  0.00    -0.550 OA
ATOM     11  O   UNL     1      53.088  23.216  52.296  1.00  0.00    -0.550 OA
ENDBRANCH   8   9
ENDBRANCH   7   8
ENDBRANCH   6   7
ENDBRANCH   5   6
ENDBRANCH   4   5
ENDBRANCH   3   4
ENDBRANCH   2   3
ENDBRANCH   1   2
BRANCH   1  12
ATOM     12  C   UNL     1      59.152  29.208  50.085  1.00  0.00     0.000 C 
BRANCH  12  13
ATOM     13  C   UNL     1      59.571  27.923  49.349  1.00  0.00    -0.000 C 
BRANCH  13  14
ATOM     14  C   UNL     1      60.235  26.895  50.281  1.00  0.00    -0.000 C 
BRANCH  14  15
ATOM     15  C   UNL     1      59.255  26.001  51.067  1.00  0.00    -0.000 C 
BRANCH  15  16
ATOM     16  C   UNL     1      58.047  25.520  50.234  1.00  0.00    -0.000 C 
BRANCH  16  17
ATOM     17  C   UNL     1      56.716  25.705  50.984  1.00  0.00    -0.000 C 
BRANCH  17  18
ATOM     18  C   UNL     1      55.519  25.877  50.035  1.00  0.00    -0.000 C 
BRANCH  18  19
ATOM     19  C   UNL     1      54.755  27.188  50.279  1.00  0.00    -0.003 C 
ATOM     20  C   UNL     1      53.294  27.055  49.861  1.00  0.00     0.004 C 
ENDBRANCH  18  19
ENDBRANCH  17  18
ENDBRANCH  16  17
ENDBRANCH  15  16
ENDBRANCH  14  15
ENDBRANCH  13  14
ENDBRANCH  12  13
ENDBRANCH   1  12
TORSDOF 16
ENDMDL
MODEL 9
REMARK VINA RESULT:    -3.071      1.131      2.868
REMARK INTER + INTRA:          -8.617
REMARK INTER:                  -6.090
REMARK INTRA:                  -2.527
REMARK UNBOUND:                -2.673
REMARK SMILES CCCCCCCCCCCCCCCCCC(=O)[O-]
REMARK SMILES IDX 10 1 11 2 12 3 13 4 14 5 15 6 16 7 17 8 18 9 19 10 20 11
REMARK SMILES IDX 9 12 8 13 7 14 6 15 5 16 4 17 3 18 2 19 1 20
REMARK H PARENT
REMARK Flexibility Score: inf
ROOT
ATOM      1  C   UNL     1      57.522  28.861  50.270  1.00  0.00     0.000 C 
ENDROOT
BRANCH   1   2
ATOM      2  C   UNL     1      58.910  29.250  49.722  1.00  0.00     0.000 C 
BRANCH   2   3
ATOM      3  C   UNL     1      59.749  28.078  49.180  1.00  0.00     0.000 C 
BRANCH   3   4
ATOM      4  C   UNL     1      61.020  27.825  50.001  1.00  0.00     0.000 C 
BRANCH   4   5
ATOM      5  C   UNL     1      61.052  26.384  50.531  1.00  0.00     0.000 C 
BRANCH   5   6
ATOM      6  C   UNL     1      59.848  25.552  50.063  1.00  0.00     0.000 C 
BRANCH   6   7
ATOM      7  C   UNL     1      59.954  24.075  50.474  1.00  0.00     0.006 C 
BRANCH   7   8
ATOM      8  C   UNL     1      61.390  23.715  50.863  1.00  0.00     0.053 C 
BRANCH   8   9
ATOM      9  C   UNL     1      61.437  22.361  51.499  1.00  0.00     0.041 C 
ATOM     10  O   UNL     1      62.354  22.074  52.313  1.00  0.00    -0.550 OA
ATOM     11  O   UNL     1      60.442  21.431  51.227  1.00  0.00    -0.550 OA
ENDBRANCH   8   9
ENDBRANCH   7   8
ENDBRANCH   6   7
ENDBRANCH   5   6
ENDBRANCH   4   5
ENDBRANCH   3   4
ENDBRANCH   2   3
ENDBRANCH   1   2
BRANCH   1  12
ATOM     12  C   UNL     1      57.137  29.521  51.606  1.00  0.00     0.000 C 
BRANCH  12  13
ATOM     13  C   UNL     1      57.391  28.605  52.816  1.00  0.00    -0.000 C 
BRANCH  13  14
ATOM     14  C   UNL     1      57.642  27.142  52.411  1.00  0.00    -0.000 C 
BRANCH  14  15
ATOM     15  C   UNL     1      56.740  26.109  53.114  1.00  0.00    -0.000 C 
BRANCH  15  16
ATOM     16  C   UNL     1      55.904  25.249  52.141  1.00  0.00    -0.000 C 
BRANCH  16  17
ATOM     17  C   UNL     1      56.201  25.586  50.669  1.00  0.00    -0.000 C 
BRANCH  17  18
ATOM     18  C   UNL     1      54.943  26.002  49.890  1.00  0.00    -0.000 C 
BRANCH  18  19
ATOM     19  C   UNL     1      53.967  26.829  50.741  1.00  0.00    -0.003 C 
ATOM     20  C   UNL     1      53.832  28.248  50.196  1.00  0.00     0.004 C 
ENDBRANCH  18  19
ENDBRANCH  17  18
ENDBRANCH  16  17
ENDBRANCH  15  16
ENDBRANCH  14  15
ENDBRANCH  13  14
ENDBRANCH  12  13
ENDBRANCH   1  12
TORSDOF 16
ENDMDL
