MODEL 1
REMARK VINA RESULT:    -4.167      0.000      0.000
REMARK INTER + INTRA:          -8.152
REMARK INTER:                  -6.603
REMARK INTRA:                  -1.549
REMARK UNBOUND:                -1.549
REMARK SMILES CCCCCCCCCCCC(=O)[O-]
REMARK SMILES IDX 7 1 8 2 9 3 10 4 11 5 12 6 13 7 14 8 6 9 5 10 4 11 3 12 2 13
REMARK SMILES IDX 1 14
REMARK H PARENT
REMARK Flexibility Score: inf
ROOT
ATOM      1  C   UNL     1      22.194  -6.441  30.683  1.00  0.00     0.000 C 
ENDROOT
BRANCH   1   2
ATOM      2  C   UNL     1      22.596  -5.959  32.087  1.00  0.00     0.000 C 
BRANCH   2   3
ATOM      3  C   UNL     1      21.857  -6.716  33.204  1.00  0.00     0.000 C 
BRANCH   3   4
ATOM      4  C   UNL     1      21.248  -5.774  34.259  1.00  0.00     0.006 C 
BRANCH   4   5
ATOM      5  C   UNL     1      21.754  -4.324  34.183  1.00  0.00     0.053 C 
BRANCH   5   6
ATOM      6  C   UNL     1      22.599  -3.961  35.366  1.00  0.00     0.041 C 
ATOM      7  O   UNL     1      22.738  -4.772  36.319  1.00  0.00    -0.550 OA
ATOM      8  O   UNL     1      23.260  -2.739  35.400  1.00  0.00    -0.550 OA
ENDBRANCH   5   6
ENDBRANCH   4   5
ENDBRANCH   3   4
ENDBRANCH   2   3
ENDBRANCH   1   2
BRANCH   1   9
ATOM      9  C   UNL     1      21.375  -5.398  29.907  1.00  0.00     0.000 C 
BRANCH   9  10
ATOM     10  C   UNL     1      19.885  -5.761  29.905  1.00  0.00    -0.000 C 
BRANCH  10  11
ATOM     11  C   UNL     1      19.128  -4.984  30.992  1.00  0.00    -0.000 C 
BRANCH  11  12
ATOM     12  C   UNL     1      18.393  -5.907  31.977  1.00  0.00    -0.000 C 
BRANCH  12  13
ATOM     13  C   UNL     1      18.583  -7.395  31.647  1.00  0.00    -0.003 C 
ATOM     14  C   UNL     1      18.396  -8.261  32.888  1.00  0.00     0.004 C 
ENDBRANCH  12  13
ENDBRANCH  11  12
ENDBRANCH  10  11
ENDBRANCH   9  10
ENDBRANCH   1   9
TORSDOF 10
ENDMDL
MODEL 2
REMARK VINA RESULT:    -4.146      4.280      6.648
REMARK INTER + INTRA:          -8.119
REMARK INTER:                  -7.079
REMARK INTRA:                  -1.040
REMARK UNBOUND:                -1.549
REMARK SMILES CCCCCCCCCCCC(=O)[O-]
REMARK SMILES IDX 7 1 8 2 9 3 10 4 11 5 12 6 13 7 14 8 6 9 5 10 4 11 3 12 2 13
REMARK SMILES IDX 1 14
REMARK H PARENT
REMARK Flexibility Score: inf
ROOT
ATOM      1  C   UNL     1      22.597  -6.468  37.244  1.00  0.00     0.000 C 
ENDROOT
BRANCH   1   2
ATOM      2  C   UNL     1      23.836  -5.652  37.645  1.00  0.00     0.000 C 
BRANCH   2   3
ATOM      3  C   UNL     1      23.684  -4.988  39.025  1.00  0.00     0.000 C 
BRANCH   3   4
ATOM      4  C   UNL     1      24.741  -5.470  40.036  1.00  0.00     0.006 C 
BRANCH   4   5
ATOM      5  C   UNL     1      26.138  -5.694  39.437  1.00  0.00     0.053 C 
BRANCH   5   6
ATOM      6  C   UNL     1      26.574  -7.123  39.545  1.00  0.00     0.041 C 
ATOM      7  O   UNL     1      27.740  -7.458  39.208  1.00  0.00    -0.550 OA
ATOM      8  O   UNL     1      25.703  -8.080  40.050  1.00  0.00    -0.550 OA
ENDBRANCH   5   6
ENDBRANCH   4   5
ENDBRANCH   3   4
ENDBRANCH   2   3
ENDBRANCH   1   2
BRANCH   1   9
ATOM      9  C   UNL     1      21.548  -5.630  36.496  1.00  0.00     0.000 C 
BRANCH   9  10
ATOM     10  C   UNL     1      21.718  -5.765  34.978  1.00  0.00    -0.000 C 
BRANCH  10  11
ATOM     11  C   UNL     1      22.264  -4.464  34.369  1.00  0.00    -0.000 C 
BRANCH  11  12
ATOM     12  C   UNL     1      22.004  -3.238  35.259  1.00  0.00    -0.000 C 
BRANCH  12  13
ATOM     13  C   UNL     1      23.300  -2.534  35.688  1.00  0.00    -0.003 C 
ATOM     14  C   UNL     1      23.100  -1.764  36.990  1.00  0.00     0.004 C 
ENDBRANCH  12  13
ENDBRANCH  11  12
ENDBRANCH  10  11
ENDBRANCH   9  10
ENDBRANCH   1   9
TORSDOF 10
ENDMDL
MODEL 3
REMARK VINA RESULT:    -4.092      1.841      2.993
REMARK INTER + INTRA:          -8.033
REMARK INTER:                  -6.926
REMARK INTRA:                  -1.107
REMARK UNBOUND:                -1.549
REMARK SMILES CCCCCCCCCCCC(=O)[O-]
REMARK SMILES IDX 7 1 8 2 9 3 10 4 11 5 12 6 13 7 14 8 6 9 5 10 4 11 3 12 2 13
REMARK SMILES IDX 1 14
REMARK H PARENT
REMARK Flexibility Score: inf
ROOT
ATOM      1  C   UNL     1      21.724  -6.556  33.194  1.00  0.00     0.000 C 
ENDROOT
BRANCH   1   2
ATOM      2  C   UNL     1      21.337  -5.610  34.343  1.00  0.00     0.000 C 
BRANCH   2   3
ATOM      3  C   UNL     1      22.102  -4.276  34.290  1.00  0.00     0.000 C 
BRANCH   3   4
ATOM      4  C   UNL     1      22.573  -3.805  35.679  1.00  0.00     0.006 C 
BRANCH   4   5
ATOM      5  C   UNL     1      23.355  -2.482  35.670  1.00  0.00     0.053 C 
BRANCH   5   6
ATOM      6  C   UNL     1      22.463  -1.299  35.890  1.00  0.00     0.041 C 
ATOM      7  O   UNL     1      22.444  -0.719  37.008  1.00  0.00    -0.550 OA
ATOM      8  O   UNL     1      21.676  -0.817  34.851  1.00  0.00    -0.550 OA
ENDBRANCH   5   6
ENDBRANCH   4   5
ENDBRANCH   3   4
ENDBRANCH   2   3
ENDBRANCH   1   2
BRANCH   1   9
ATOM      9  C   UNL     1      22.627  -5.884  32.148  1.00  0.00     0.000 C 
BRANCH   9  10
ATOM     10  C   UNL     1      22.087  -6.108  30.731  1.00  0.00    -0.000 C 
BRANCH  10  11
ATOM     11  C   UNL     1      20.581  -6.411  30.758  1.00  0.00    -0.000 C 
BRANCH  11  12
ATOM     12  C   UNL     1      19.740  -5.287  30.131  1.00  0.00    -0.000 C 
BRANCH  12  13
ATOM     13  C   UNL     1      18.874  -4.551  31.163  1.00  0.00    -0.003 C 
ATOM     14  C   UNL     1      19.576  -3.296  31.674  1.00  0.00     0.004 C 
ENDBRANCH  12  13
ENDBRANCH  11  12
ENDBRANCH  10  11
ENDBRANCH   9  10
ENDBRANCH   1   9
TORSDOF 10
ENDMDL
MODEL 4
REMARK VINA RESULT:    -4.066     13.608     15.186
REMARK INTER + INTRA:          -7.992
REMARK INTER:                  -7.713
REMARK INTRA:                  -0.278
REMARK UNBOUND:                -1.549
REMARK SMILES CCCCCCCCCCCC(=O)[O-]
REMARK SMILES IDX 7 1 8 2 9 3 10 4 11 5 12 6 13 7 14 8 6 9 5 10 4 11 3 12 2 13
REMARK SMILES IDX 1 14
REMARK H PARENT
REMARK Flexibility Score: inf
ROOT
ATOM      1  C   UNL     1      13.245   1.247  42.155  1.00  0.00     0.000 C 
ENDROOT
BRANCH   1   2
ATOM      2  C   UNL     1      13.638   2.291  41.097  1.00  0.00     0.000 C 
BRANCH   2   3
ATOM      3  C   UNL     1      12.459   2.685  40.191  1.00  0.00     0.000 C 
BRANCH   3   4
ATOM      4  C   UNL     1      12.076   4.170  40.325  1.00  0.00     0.006 C 
BRANCH   4   5
ATOM      5  C   UNL     1      12.479   5.041  39.124  1.00  0.00     0.053 C 
BRANCH   5   6
ATOM      6  C   UNL     1      12.232   6.497  39.377  1.00  0.00     0.041 C 
ATOM      7  O   UNL     1      13.129   7.345  39.129  1.00  0.00    -0.550 OA
ATOM      8  O   UNL     1      10.999   6.921  39.856  1.00  0.00    -0.550 OA
ENDBRANCH   5   6
ENDBRANCH   4   5
ENDBRANCH   3   4
ENDBRANCH   2   3
ENDBRANCH   1   2
BRANCH   1   9
ATOM      9  C   UNL     1      14.339   0.193  42.387  1.00  0.00     0.000 C 
BRANCH   9  10
ATOM     10  C   UNL     1      15.356   0.678  43.428  1.00  0.00    -0.000 C 
BRANCH  10  11
ATOM     11  C   UNL     1      15.881  -0.495  44.271  1.00  0.00    -0.000 C 
BRANCH  11  12
ATOM     12  C   UNL     1      16.599  -0.031  45.549  1.00  0.00    -0.000 C 
BRANCH  12  13
ATOM     13  C   UNL     1      18.015  -0.611  45.675  1.00  0.00    -0.003 C 
ATOM     14  C   UNL     1      18.702  -0.684  44.314  1.00  0.00     0.004 C 
ENDBRANCH  12  13
ENDBRANCH  11  12
ENDBRANCH  10  11
ENDBRANCH   9  10
ENDBRANCH   1   9
TORSDOF 10
ENDMDL
MODEL 5
REMARK VINA RESULT:    -4.065      3.150      4.107
REMARK INTER + INTRA:          -7.991
REMARK INTER:                  -6.565
REMARK INTRA:                  -1.425
REMARK UNBOUND:                -1.549
REMARK SMILES CCCCCCCCCCCC(=O)[O-]
REMARK SMILES IDX 7 1 8 2 9 3 10 4 11 5 12 6 13 7 14 8 6 9 5 10 4 11 3 12 2 13
REMARK SMILES IDX 1 14
REMARK H PARENT
REMARK Flexibility Score: inf
ROOT
ATOM      1  C   UNL     1      22.260  -5.750  30.930  1.00  0.00     0.000 C 
ENDROOT
BRANCH   1   2
ATOM      2  C   UNL     1      22.658  -6.477  32.225  1.00  0.00     0.000 C 
BRANCH   2   3
ATOM      3  C   UNL     1      21.729  -6.134  33.403  1.00  0.00     0.000 C 
BRANCH   3   4
ATOM      4  C   UNL     1      20.699  -7.242  33.691  1.00  0.00     0.006 C 
BRANCH   4   5
ATOM      5  C   UNL     1      19.237  -6.825  33.460  1.00  0.00     0.053 C 
BRANCH   5   6
ATOM      6  C   UNL     1      18.432  -7.922  32.833  1.00  0.00     0.041 C 
ATOM      7  O   UNL     1      18.440  -8.080  31.584  1.00  0.00    -0.550 OA
ATOM      8  O   UNL     1      17.698  -8.791  33.631  1.00  0.00    -0.550 OA
ENDBRANCH   5   6
ENDBRANCH   4   5
ENDBRANCH   3   4
ENDBRANCH   2   3
ENDBRANCH   1   2
BRANCH   1   9
ATOM      9  C   UNL     1      21.074  -6.414  30.215  1.00  0.00     0.000 C 
BRANCH   9  10
ATOM     10  C   UNL     1      19.989  -5.384  29.877  1.00  0.00    -0.000 C 
BRANCH  10  11
ATOM     11  C   UNL     1      19.978  -4.241  30.903  1.00  0.00    -0.000 C 
BRANCH  11  12
ATOM     12  C   UNL     1      18.579  -3.978  31.482  1.00  0.00    -0.000 C 
BRANCH  12  13
ATOM     13  C   UNL     1      18.619  -3.156  32.778  1.00  0.00    -0.003 C 
ATOM     14  C   UNL     1      20.055  -2.945  33.250  1.00  0.00     0.004 C 
ENDBRANCH  12  13
ENDBRANCH  11  12
ENDBRANCH  10  11
ENDBRANCH   9  10
ENDBRANCH   1   9
TORSDOF 10
ENDMDL
MODEL 6
REMARK VINA RESULT:    -4.057     11.986     13.436
REMARK INTER + INTRA:          -7.978
REMARK INTER:                  -6.713
REMARK INTRA:                  -1.264
REMARK UNBOUND:                -1.549
REMARK SMILES CCCCCCCCCCCC(=O)[O-]
REMARK SMILES IDX 7 1 8 2 9 3 10 4 11 5 12 6 13 7 14 8 6 9 5 10 4 11 3 12 2 13
REMARK SMILES IDX 1 14
REMARK H PARENT
REMARK Flexibility Score: inf
ROOT
ATOM      1  C   UNL     1      13.297   0.921  41.242  1.00  0.00     0.000 C 
ENDROOT
BRANCH   1   2
ATOM      2  C   UNL     1      13.659   1.058  42.730  1.00  0.00     0.000 C 
BRANCH   2   3
ATOM      3  C   UNL     1      15.124   1.477  42.944  1.00  0.00     0.000 C 
BRANCH   3   4
ATOM      4  C   UNL     1      16.055   0.277  43.199  1.00  0.00     0.006 C 
BRANCH   4   5
ATOM      5  C   UNL     1      15.862  -0.397  44.567  1.00  0.00     0.053 C 
BRANCH   5   6
ATOM      6  C   UNL     1      17.090  -0.303  45.419  1.00  0.00     0.041 C 
ATOM      7  O   UNL     1      18.187  -0.759  45.002  1.00  0.00    -0.550 OA
ATOM      8  O   UNL     1      17.031   0.318  46.660  1.00  0.00    -0.550 OA
ENDBRANCH   5   6
ENDBRANCH   4   5
ENDBRANCH   3   4
ENDBRANCH   2   3
ENDBRANCH   1   2
BRANCH   1   9
ATOM      9  C   UNL     1      11.810   0.606  41.018  1.00  0.00     0.000 C 
BRANCH   9  10
ATOM     10  C   UNL     1      11.356  -0.560  41.904  1.00  0.00    -0.000 C 
BRANCH  10  11
ATOM     11  C   UNL     1      11.727  -1.910  41.270  1.00  0.00    -0.000 C 
BRANCH  11  12
ATOM     12  C   UNL     1      12.267  -2.918  42.296  1.00  0.00    -0.000 C 
BRANCH  12  13
ATOM     13  C   UNL     1      13.768  -2.736  42.571  1.00  0.00    -0.003 C 
ATOM     14  C   UNL     1      14.547  -2.567  41.270  1.00  0.00     0.004 C 
ENDBRANCH  12  13
ENDBRANCH  11  12
ENDBRANCH  10  11
ENDBRANCH   9  10
ENDBRANCH   1   9
TORSDOF 10
ENDMDL
MODEL 7
REMARK VINA RESULT:    -4.056      2.836      4.793
REMARK INTER + INTRA:          -7.976
REMARK INTER:                  -6.549
REMARK INTRA:                  -1.427
REMARK UNBOUND:                -1.549
REMARK SMILES CCCCCCCCCCCC(=O)[O-]
REMARK SMILES IDX 7 1 8 2 9 3 10 4 11 5 12 6 13 7 14 8 6 9 5 10 4 11 3 12 2 13
REMARK SMILES IDX 1 14
REMARK H PARENT
REMARK Flexibility Score: inf
ROOT
ATOM      1  C   UNL     1      21.684  -5.871  30.316  1.00  0.00     0.000 C 
ENDROOT
BRANCH   1   2
ATOM      2  C   UNL     1      20.267  -6.357  29.967  1.00  0.00     0.000 C 
BRANCH   2   3
ATOM      3  C   UNL     1      19.271  -6.146  31.120  1.00  0.00     0.000 C 
BRANCH   3   4
ATOM      4  C   UNL     1      18.686  -7.468  31.650  1.00  0.00     0.006 C 
BRANCH   4   5
ATOM      5  C   UNL     1      18.785  -7.641  33.174  1.00  0.00     0.053 C 
BRANCH   5   6
ATOM      6  C   UNL     1      17.464  -7.439  33.851  1.00  0.00     0.041 C 
ATOM      7  O   UNL     1      17.022  -6.276  34.043  1.00  0.00    -0.550 OA
ATOM      8  O   UNL     1      16.705  -8.536  34.239  1.00  0.00    -0.550 OA
ENDBRANCH   5   6
ENDBRANCH   4   5
ENDBRANCH   3   4
ENDBRANCH   2   3
ENDBRANCH   1   2
BRANCH   1   9
ATOM      9  C   UNL     1      22.251  -6.546  31.575  1.00  0.00     0.000 C 
BRANCH   9  10
ATOM     10  C   UNL     1      22.669  -5.502  32.617  1.00  0.00    -0.000 C 
BRANCH  10  11
ATOM     11  C   UNL     1      21.895  -5.696  33.931  1.00  0.00    -0.000 C 
BRANCH  11  12
ATOM     12  C   UNL     1      21.345  -4.376  34.493  1.00  0.00    -0.000 C 
BRANCH  12  13
ATOM     13  C   UNL     1      19.932  -4.058  33.981  1.00  0.00    -0.003 C 
ATOM     14  C   UNL     1      19.961  -2.928  32.956  1.00  0.00     0.004 C 
ENDBRANCH  12  13
ENDBRANCH  11  12
ENDBRANCH  10  11
ENDBRANCH   9  10
ENDBRANCH   1   9
TORSDOF 10
ENDMDL
MODEL 8
REMARK VINA RESULT:    -4.050      5.981      7.465
REMARK INTER + INTRA:          -7.968
REMARK INTER:                  -7.435
REMARK INTRA:                  -0.533
REMARK UNBOUND:                -1.549
REMARK SMILES CCCCCCCCCCCC(=O)[O-]
REMARK SMILES IDX 7 1 8 2 9 3 10 4 11 5 12 6 13 7 14 8 6 9 5 10 4 11 3 12 2 13
REMARK SMILES IDX 1 14
REMARK H PARENT
REMARK Flexibility Score: inf
ROOT
ATOM      1  C   UNL     1      23.196  -3.748  36.589  1.00  0.00     0.000 C 
ENDROOT
BRANCH   1   2
ATOM      2  C   UNL     1      23.357  -5.195  37.082  1.00  0.00     0.000 C 
BRANCH   2   3
ATOM      3  C   UNL     1      24.569  -5.369  38.015  1.00  0.00     0.000 C 
BRANCH   3   4
ATOM      4  C   UNL     1      24.165  -5.751  39.450  1.00  0.00     0.006 C 
BRANCH   4   5
ATOM      5  C   UNL     1      24.866  -7.006  39.995  1.00  0.00     0.053 C 
BRANCH   5   6
ATOM      6  C   UNL     1      26.354  -6.844  40.042  1.00  0.00     0.041 C 
ATOM      7  O   UNL     1      26.869  -5.918  40.722  1.00  0.00    -0.550 OA
ATOM      8  O   UNL     1      27.174  -7.735  39.360  1.00  0.00    -0.550 OA
ENDBRANCH   5   6
ENDBRANCH   4   5
ENDBRANCH   3   4
ENDBRANCH   2   3
ENDBRANCH   1   2
BRANCH   1   9
ATOM      9  C   UNL     1      22.904  -2.760  37.729  1.00  0.00     0.000 C 
BRANCH   9  10
ATOM     10  C   UNL     1      22.688  -1.343  37.185  1.00  0.00    -0.000 C 
BRANCH  10  11
ATOM     11  C   UNL     1      22.780  -1.322  35.651  1.00  0.00    -0.000 C 
BRANCH  11  12
ATOM     12  C   UNL     1      21.574  -0.630  34.995  1.00  0.00    -0.000 C 
BRANCH  12  13
ATOM     13  C   UNL     1      21.458   0.851  35.386  1.00  0.00    -0.003 C 
ATOM     14  C   UNL     1      22.339   1.724  34.497  1.00  0.00     0.004 C 
ENDBRANCH  12  13
ENDBRANCH  11  12
ENDBRANCH  10  11
ENDBRANCH   9  10
ENDBRANCH   1   9
TORSDOF 10
ENDMDL
MODEL 9
REMARK VINA RESULT:    -4.005      3.130      5.842
REMARK INTER + INTRA:          -7.895
REMARK INTER:                  -6.514
REMARK INTRA:                  -1.380
REMARK UNBOUND:                -1.549
REMARK SMILES CCCCCCCCCCCC(=O)[O-]
REMARK SMILES IDX 7 1 8 2 9 3 10 4 11 5 12 6 13 7 14 8 6 9 5 10 4 11 3 12 2 13
REMARK SMILES IDX 1 14
REMARK H PARENT
REMARK Flexibility Score: inf
ROOT
ATOM      1  C   UNL     1      20.160  -2.333  34.651  1.00  0.00     0.000 C 
ENDROOT
BRANCH   1   2
ATOM      2  C   UNL     1      20.364  -3.225  33.415  1.00  0.00     0.000 C 
BRANCH   2   3
ATOM      3  C   UNL     1      20.765  -4.663  33.786  1.00  0.00     0.000 C 
BRANCH   3   4
ATOM      4  C   UNL     1      22.196  -5.016  33.338  1.00  0.00     0.006 C 
BRANCH   4   5
ATOM      5  C   UNL     1      22.305  -6.316  32.525  1.00  0.00     0.053 C 
BRANCH   5   6
ATOM      6  C   UNL     1      21.715  -6.175  31.156  1.00  0.00     0.041 C 
ATOM      7  O   UNL     1      22.413  -5.727  30.208  1.00  0.00    -0.550 OA
ATOM      8  O   UNL     1      20.404  -6.568  30.918  1.00  0.00    -0.550 OA
ENDBRANCH   5   6
ENDBRANCH   4   5
ENDBRANCH   3   4
ENDBRANCH   2   3
ENDBRANCH   1   2
BRANCH   1   9
ATOM      9  C   UNL     1      21.158  -1.166  34.714  1.00  0.00     0.000 C 
BRANCH   9  10
ATOM     10  C   UNL     1      22.086  -1.302  35.927  1.00  0.00    -0.000 C 
BRANCH  10  11
ATOM     11  C   UNL     1      23.240  -2.273  35.630  1.00  0.00    -0.000 C 
BRANCH  11  12
ATOM     12  C   UNL     1      23.253  -3.484  36.576  1.00  0.00    -0.000 C 
BRANCH  12  13
ATOM     13  C   UNL     1      22.153  -3.411  37.645  1.00  0.00    -0.003 C 
ATOM     14  C   UNL     1      21.313  -4.685  37.656  1.00  0.00     0.004 C 
ENDBRANCH  12  13
ENDBRANCH  11  12
ENDBRANCH  10  11
ENDBRANCH   9  10
ENDBRANCH   1   9
TORSDOF 10
ENDMDL
