MODEL 1
REMARK VINA RESULT:    -1.429      0.000      0.000
REMARK INTER + INTRA:          -5.770
REMARK INTER:                  -2.766
REMARK INTRA:                  -3.004
REMARK UNBOUND:                -3.004
REMARK SMILES CCCCCCCCCCCCCCCCCC(=O)[O-]
REMARK SMILES IDX 10 1 11 2 12 3 13 4 14 5 15 6 16 7 17 8 18 9 19 10 20 11
REMARK SMILES IDX 9 12 8 13 7 14 6 15 5 16 4 17 3 18 2 19 1 20
REMARK H PARENT
REMARK Flexibility Score: inf
ROOT
ATOM      1  C   UNL     1     175.762 179.677 195.108  1.00  0.00     0.000 C 
ENDROOT
BRANCH   1   2
ATOM      2  C   UNL     1     175.593 178.444 194.213  1.00  0.00     0.000 C 
BRANCH   2   3
ATOM      3  C   UNL     1     174.151 178.331 193.697  1.00  0.00     0.000 C 
BRANCH   3   4
ATOM      4  C   UNL     1     173.115 178.336 194.832  1.00  0.00     0.000 C 
BRANCH   4   5
ATOM      5  C   UNL     1     172.841 176.928 195.390  1.00  0.00     0.000 C 
BRANCH   5   6
ATOM      6  C   UNL     1     172.888 176.875 196.928  1.00  0.00     0.000 C 
BRANCH   6   7
ATOM      7  C   UNL     1     173.572 178.082 197.596  1.00  0.00     0.006 C 
BRANCH   7   8
ATOM      8  C   UNL     1     172.770 178.647 198.774  1.00  0.00     0.053 C 
BRANCH   8   9
ATOM      9  C   UNL     1     172.486 177.574 199.777  1.00  0.00     0.041 C 
ATOM     10  O   UNL     1     173.431 177.022 200.399  1.00  0.00    -0.550 OA
ATOM     11  O   UNL     1     171.181 177.149 199.988  1.00  0.00    -0.550 OA
ENDBRANCH   8   9
ENDBRANCH   7   8
ENDBRANCH   6   7
ENDBRANCH   5   6
ENDBRANCH   4   5
ENDBRANCH   3   4
ENDBRANCH   2   3
ENDBRANCH   1   2
BRANCH   1  12
ATOM     12  C   UNL     1     175.807 180.963 194.268  1.00  0.00     0.000 C 
BRANCH  12  13
ATOM     13  C   UNL     1     175.028 182.121 194.913  1.00  0.00    -0.000 C 
BRANCH  13  14
ATOM     14  C   UNL     1     174.276 181.693 196.184  1.00  0.00    -0.000 C 
BRANCH  14  15
ATOM     15  C   UNL     1     172.749 181.738 196.008  1.00  0.00    -0.000 C 
BRANCH  15  16
ATOM     16  C   UNL     1     172.304 182.770 194.955  1.00  0.00    -0.000 C 
BRANCH  16  17
ATOM     17  C   UNL     1     171.272 182.201 193.971  1.00  0.00    -0.000 C 
BRANCH  17  18
ATOM     18  C   UNL     1     171.897 181.233 192.954  1.00  0.00    -0.000 C 
BRANCH  18  19
ATOM     19  C   UNL     1     172.818 181.979 191.981  1.00  0.00    -0.003 C 
ATOM     20  C   UNL     1     173.695 181.007 191.198  1.00  0.00     0.004 C 
ENDBRANCH  18  19
ENDBRANCH  17  18
ENDBRANCH  16  17
ENDBRANCH  15  16
ENDBRANCH  14  15
ENDBRANCH  13  14
ENDBRANCH  12  13
ENDBRANCH   1  12
TORSDOF 16
ENDMDL
MODEL 2
REMARK VINA RESULT:    -1.315      3.243      5.881
REMARK INTER + INTRA:          -5.549
REMARK INTER:                  -2.899
REMARK INTRA:                  -2.650
REMARK UNBOUND:                -3.004
REMARK SMILES CCCCCCCCCCCCCCCCCC(=O)[O-]
REMARK SMILES IDX 10 1 11 2 12 3 13 4 14 5 15 6 16 7 17 8 18 9 19 10 20 11
REMARK SMILES IDX 9 12 8 13 7 14 6 15 5 16 4 17 3 18 2 19 1 20
REMARK H PARENT
REMARK Flexibility Score: inf
ROOT
ATOM      1  C   UNL     1     174.874 179.212 197.769  1.00  0.00     0.000 C 
ENDROOT
BRANCH   1   2
ATOM      2  C   UNL     1     174.751 177.841 197.092  1.00  0.00     0.000 C 
BRANCH   2   3
ATOM      3  C   UNL     1     173.341 177.261 197.275  1.00  0.00     0.000 C 
BRANCH   3   4
ATOM      4  C   UNL     1     172.684 176.875 195.941  1.00  0.00     0.000 C 
BRANCH   4   5
ATOM      5  C   UNL     1     172.749 178.007 194.900  1.00  0.00     0.000 C 
BRANCH   5   6
ATOM      6  C   UNL     1     173.570 177.626 193.654  1.00  0.00     0.000 C 
BRANCH   6   7
ATOM      7  C   UNL     1     174.557 178.706 193.175  1.00  0.00     0.006 C 
BRANCH   7   8
ATOM      8  C   UNL     1     173.971 180.122 193.239  1.00  0.00     0.053 C 
BRANCH   8   9
ATOM      9  C   UNL     1     172.949 180.314 192.164  1.00  0.00     0.041 C 
ATOM     10  O   UNL     1     173.240 180.076 190.963  1.00  0.00    -0.550 OA
ATOM     11  O   UNL     1     171.688 180.803 192.482  1.00  0.00    -0.550 OA
ENDBRANCH   8   9
ENDBRANCH   7   8
ENDBRANCH   6   7
ENDBRANCH   5   6
ENDBRANCH   4   5
ENDBRANCH   3   4
ENDBRANCH   2   3
ENDBRANCH   1   2
BRANCH   1  12
ATOM     12  C   UNL     1     175.130 180.316 196.732  1.00  0.00     0.000 C 
BRANCH  12  13
ATOM     13  C   UNL     1     174.017 181.376 196.706  1.00  0.00    -0.000 C 
BRANCH  13  14
ATOM     14  C   UNL     1     172.764 180.937 197.484  1.00  0.00    -0.000 C 
BRANCH  14  15
ATOM     15  C   UNL     1     172.350 181.957 198.557  1.00  0.00    -0.000 C 
BRANCH  15  16
ATOM     16  C   UNL     1     171.515 181.324 199.685  1.00  0.00    -0.000 C 
BRANCH  16  17
ATOM     17  C   UNL     1     171.554 179.789 199.657  1.00  0.00    -0.000 C 
BRANCH  17  18
ATOM     18  C   UNL     1     172.503 179.203 200.714  1.00  0.00    -0.000 C 
BRANCH  18  19
ATOM     19  C   UNL     1     172.324 177.684 200.829  1.00  0.00    -0.003 C 
ATOM     20  C   UNL     1     170.933 177.256 200.373  1.00  0.00     0.004 C 
ENDBRANCH  18  19
ENDBRANCH  17  18
ENDBRANCH  16  17
ENDBRANCH  15  16
ENDBRANCH  14  15
ENDBRANCH  13  14
ENDBRANCH  12  13
ENDBRANCH   1  12
TORSDOF 16
ENDMDL
MODEL 3
REMARK VINA RESULT:    -1.304      2.548      5.556
REMARK INTER + INTRA:          -5.528
REMARK INTER:                  -2.884
REMARK INTRA:                  -2.644
REMARK UNBOUND:                -3.004
REMARK SMILES CCCCCCCCCCCCCCCCCC(=O)[O-]
REMARK SMILES IDX 10 1 11 2 12 3 13 4 14 5 15 6 16 7 17 8 18 9 19 10 20 11
REMARK SMILES IDX 9 12 8 13 7 14 6 15 5 16 4 17 3 18 2 19 1 20
REMARK H PARENT
REMARK Flexibility Score: inf
ROOT
ATOM      1  C   UNL     1     173.087 178.179 196.941  1.00  0.00     0.000 C 
ENDROOT
BRANCH   1   2
ATOM      2  C   UNL     1     172.836 177.556 195.563  1.00  0.00     0.000 C 
BRANCH   2   3
ATOM      3  C   UNL     1     173.063 178.582 194.443  1.00  0.00     0.000 C 
BRANCH   3   4
ATOM      4  C   UNL     1     173.052 180.030 194.958  1.00  0.00     0.000 C 
BRANCH   4   5
ATOM      5  C   UNL     1     174.118 180.908 194.277  1.00  0.00     0.000 C 
BRANCH   5   6
ATOM      6  C   UNL     1     175.085 181.561 195.281  1.00  0.00     0.000 C 
BRANCH   6   7
ATOM      7  C   UNL     1     175.654 180.606 196.346  1.00  0.00     0.006 C 
BRANCH   7   8
ATOM      8  C   UNL     1     176.933 179.895 195.888  1.00  0.00     0.053 C 
BRANCH   8   9
ATOM      9  C   UNL     1     176.644 178.469 195.541  1.00  0.00     0.041 C 
ATOM     10  O   UNL     1     176.508 178.125 194.337  1.00  0.00    -0.550 OA
ATOM     11  O   UNL     1     176.473 177.528 196.548  1.00  0.00    -0.550 OA
ENDBRANCH   8   9
ENDBRANCH   7   8
ENDBRANCH   6   7
ENDBRANCH   5   6
ENDBRANCH   4   5
ENDBRANCH   3   4
ENDBRANCH   2   3
ENDBRANCH   1   2
BRANCH   1  12
ATOM     12  C   UNL     1     173.075 177.105 198.040  1.00  0.00     0.000 C 
BRANCH  12  13
ATOM     13  C   UNL     1     172.944 177.701 199.451  1.00  0.00    -0.000 C 
BRANCH  13  14
ATOM     14  C   UNL     1     171.583 177.392 200.099  1.00  0.00    -0.000 C 
BRANCH  14  15
ATOM     15  C   UNL     1     171.005 178.598 200.857  1.00  0.00    -0.000 C 
BRANCH  15  16
ATOM     16  C   UNL     1     170.917 179.862 199.982  1.00  0.00    -0.000 C 
BRANCH  16  17
ATOM     17  C   UNL     1     171.577 181.083 200.641  1.00  0.00    -0.000 C 
BRANCH  17  18
ATOM     18  C   UNL     1     172.852 181.531 199.909  1.00  0.00    -0.000 C 
BRANCH  18  19
ATOM     19  C   UNL     1     172.688 181.399 198.391  1.00  0.00    -0.003 C 
ATOM     20  C   UNL     1     172.375 182.748 197.750  1.00  0.00     0.004 C 
ENDBRANCH  18  19
ENDBRANCH  17  18
ENDBRANCH  16  17
ENDBRANCH  15  16
ENDBRANCH  14  15
ENDBRANCH  13  14
ENDBRANCH  12  13
ENDBRANCH   1  12
TORSDOF 16
ENDMDL
MODEL 4
REMARK VINA RESULT:    -1.303      2.268      3.915
REMARK INTER + INTRA:          -5.526
REMARK INTER:                  -3.278
REMARK INTRA:                  -2.248
REMARK UNBOUND:                -3.004
REMARK SMILES CCCCCCCCCCCCCCCCCC(=O)[O-]
REMARK SMILES IDX 10 1 11 2 12 3 13 4 14 5 15 6 16 7 17 8 18 9 19 10 20 11
REMARK SMILES IDX 9 12 8 13 7 14 6 15 5 16 4 17 3 18 2 19 1 20
REMARK H PARENT
REMARK Flexibility Score: inf
ROOT
ATOM      1  C   UNL     1     174.479 179.732 195.941  1.00  0.00     0.000 C 
ENDROOT
BRANCH   1   2
ATOM      2  C   UNL     1     175.532 178.658 196.240  1.00  0.00     0.000 C 
BRANCH   2   3
ATOM      3  C   UNL     1     175.665 178.421 197.751  1.00  0.00     0.000 C 
BRANCH   3   4
ATOM      4  C   UNL     1     175.109 177.057 198.187  1.00  0.00     0.000 C 
BRANCH   4   5
ATOM      5  C   UNL     1     174.198 177.156 199.424  1.00  0.00     0.000 C 
BRANCH   5   6
ATOM      6  C   UNL     1     172.737 177.480 199.064  1.00  0.00     0.000 C 
BRANCH   6   7
ATOM      7  C   UNL     1     172.181 178.762 199.711  1.00  0.00     0.006 C 
BRANCH   7   8
ATOM      8  C   UNL     1     172.328 179.997 198.815  1.00  0.00     0.053 C 
BRANCH   8   9
ATOM      9  C   UNL     1     171.849 181.221 199.528  1.00  0.00     0.041 C 
ATOM     10  O   UNL     1     171.524 181.160 200.743  1.00  0.00    -0.550 OA
ATOM     11  O   UNL     1     171.714 182.420 198.840  1.00  0.00    -0.550 OA
ENDBRANCH   8   9
ENDBRANCH   7   8
ENDBRANCH   6   7
ENDBRANCH   5   6
ENDBRANCH   4   5
ENDBRANCH   3   4
ENDBRANCH   2   3
ENDBRANCH   1   2
BRANCH   1  12
ATOM     12  C   UNL     1     173.398 179.193 194.992  1.00  0.00     0.000 C 
BRANCH  12  13
ATOM     13  C   UNL     1     172.778 177.875 195.485  1.00  0.00    -0.000 C 
BRANCH  13  14
ATOM     14  C   UNL     1     172.529 176.876 194.342  1.00  0.00    -0.000 C 
BRANCH  14  15
ATOM     15  C   UNL     1     173.075 177.374 192.994  1.00  0.00    -0.000 C 
BRANCH  15  16
ATOM     16  C   UNL     1     172.016 177.343 191.878  1.00  0.00    -0.000 C 
BRANCH  16  17
ATOM     17  C   UNL     1     171.930 178.670 191.109  1.00  0.00    -0.000 C 
BRANCH  17  18
ATOM     18  C   UNL     1     171.039 179.704 191.813  1.00  0.00    -0.000 C 
BRANCH  18  19
ATOM     19  C   UNL     1     171.830 180.977 192.140  1.00  0.00    -0.003 C 
ATOM     20  C   UNL     1     171.208 181.727 193.314  1.00  0.00     0.004 C 
ENDBRANCH  18  19
ENDBRANCH  17  18
ENDBRANCH  16  17
ENDBRANCH  15  16
ENDBRANCH  14  15
ENDBRANCH  13  14
ENDBRANCH  12  13
ENDBRANCH   1  12
TORSDOF 16
ENDMDL
MODEL 5
REMARK VINA RESULT:    -1.282      3.365      5.989
REMARK INTER + INTRA:          -5.485
REMARK INTER:                  -3.029
REMARK INTRA:                  -2.457
REMARK UNBOUND:                -3.004
REMARK SMILES CCCCCCCCCCCCCCCCCC(=O)[O-]
REMARK SMILES IDX 10 1 11 2 12 3 13 4 14 5 15 6 16 7 17 8 18 9 19 10 20 11
REMARK SMILES IDX 9 12 8 13 7 14 6 15 5 16 4 17 3 18 2 19 1 20
REMARK H PARENT
REMARK Flexibility Score: inf
ROOT
ATOM      1  C   UNL     1     173.163 178.433 195.915  1.00  0.00     0.000 C 
ENDROOT
BRANCH   1   2
ATOM      2  C   UNL     1     174.212 178.099 194.848  1.00  0.00     0.000 C 
BRANCH   2   3
ATOM      3  C   UNL     1     173.715 176.985 193.915  1.00  0.00     0.000 C 
BRANCH   3   4
ATOM      4  C   UNL     1     173.298 177.512 192.534  1.00  0.00     0.000 C 
BRANCH   4   5
ATOM      5  C   UNL     1     171.784 177.773 192.433  1.00  0.00     0.000 C 
BRANCH   5   6
ATOM      6  C   UNL     1     171.454 179.194 191.943  1.00  0.00     0.000 C 
BRANCH   6   7
ATOM      7  C   UNL     1     172.495 180.265 192.316  1.00  0.00     0.006 C 
BRANCH   7   8
ATOM      8  C   UNL     1     172.083 181.102 193.533  1.00  0.00     0.053 C 
BRANCH   8   9
ATOM      9  C   UNL     1     172.333 182.554 193.278  1.00  0.00     0.041 C 
ATOM     10  O   UNL     1     171.416 183.284 192.818  1.00  0.00    -0.550 OA
ATOM     11  O   UNL     1     173.593 183.093 193.500  1.00  0.00    -0.550 OA
ENDBRANCH   8   9
ENDBRANCH   7   8
ENDBRANCH   6   7
ENDBRANCH   5   6
ENDBRANCH   4   5
ENDBRANCH   3   4
ENDBRANCH   2   3
ENDBRANCH   1   2
BRANCH   1  12
ATOM     12  C   UNL     1     173.046 177.299 196.945  1.00  0.00     0.000 C 
BRANCH  12  13
ATOM     13  C   UNL     1     174.298 177.167 197.827  1.00  0.00    -0.000 C 
BRANCH  13  14
ATOM     14  C   UNL     1     173.958 177.056 199.324  1.00  0.00    -0.000 C 
BRANCH  14  15
ATOM     15  C   UNL     1     172.536 177.546 199.642  1.00  0.00    -0.000 C 
BRANCH  15  16
ATOM     16  C   UNL     1     172.523 178.929 200.318  1.00  0.00    -0.000 C 
BRANCH  16  17
ATOM     17  C   UNL     1     171.717 179.967 199.523  1.00  0.00    -0.000 C 
BRANCH  17  18
ATOM     18  C   UNL     1     172.602 180.826 198.606  1.00  0.00    -0.000 C 
BRANCH  18  19
ATOM     19  C   UNL     1     174.062 180.798 199.072  1.00  0.00    -0.003 C 
ATOM     20  C   UNL     1     175.017 181.036 197.906  1.00  0.00     0.004 C 
ENDBRANCH  18  19
ENDBRANCH  17  18
ENDBRANCH  16  17
ENDBRANCH  15  16
ENDBRANCH  14  15
ENDBRANCH  13  14
ENDBRANCH  12  13
ENDBRANCH   1  12
TORSDOF 16
ENDMDL
MODEL 6
REMARK VINA RESULT:    -1.255      1.577      2.504
REMARK INTER + INTRA:          -5.433
REMARK INTER:                  -2.315
REMARK INTRA:                  -3.118
REMARK UNBOUND:                -3.004
REMARK SMILES CCCCCCCCCCCCCCCCCC(=O)[O-]
REMARK SMILES IDX 10 1 11 2 12 3 13 4 14 5 15 6 16 7 17 8 18 9 19 10 20 11
REMARK SMILES IDX 9 12 8 13 7 14 6 15 5 16 4 17 3 18 2 19 1 20
REMARK H PARENT
REMARK Flexibility Score: inf
ROOT
ATOM      1  C   UNL     1     175.536 179.850 193.949  1.00  0.00     0.000 C 
ENDROOT
BRANCH   1   2
ATOM      2  C   UNL     1     175.525 178.615 193.040  1.00  0.00     0.000 C 
BRANCH   2   3
ATOM      3  C   UNL     1     174.670 178.860 191.787  1.00  0.00     0.000 C 
BRANCH   3   4
ATOM      4  C   UNL     1     173.308 178.154 191.854  1.00  0.00     0.000 C 
BRANCH   4   5
ATOM      5  C   UNL     1     173.275 177.029 192.904  1.00  0.00     0.000 C 
BRANCH   5   6
ATOM      6  C   UNL     1     172.366 177.357 194.102  1.00  0.00     0.000 C 
BRANCH   6   7
ATOM      7  C   UNL     1     172.928 176.942 195.474  1.00  0.00     0.006 C 
BRANCH   7   8
ATOM      8  C   UNL     1     173.132 178.130 196.422  1.00  0.00     0.053 C 
BRANCH   8   9
ATOM      9  C   UNL     1     173.417 177.650 197.809  1.00  0.00     0.041 C 
ATOM     10  O   UNL     1     172.471 177.335 198.577  1.00  0.00    -0.550 OA
ATOM     11  O   UNL     1     174.726 177.598 198.272  1.00  0.00    -0.550 OA
ENDBRANCH   8   9
ENDBRANCH   7   8
ENDBRANCH   6   7
ENDBRANCH   5   6
ENDBRANCH   4   5
ENDBRANCH   3   4
ENDBRANCH   2   3
ENDBRANCH   1   2
BRANCH   1  12
ATOM     12  C   UNL     1     175.137 181.111 193.167  1.00  0.00     0.000 C 
BRANCH  12  13
ATOM     13  C   UNL     1     174.030 181.917 193.866  1.00  0.00    -0.000 C 
BRANCH  13  14
ATOM     14  C   UNL     1     172.797 181.061 194.203  1.00  0.00    -0.000 C 
BRANCH  14  15
ATOM     15  C   UNL     1     171.496 181.652 193.637  1.00  0.00    -0.000 C 
BRANCH  15  16
ATOM     16  C   UNL     1     171.072 180.991 192.313  1.00  0.00    -0.000 C 
BRANCH  16  17
ATOM     17  C   UNL     1     171.326 181.893 191.095  1.00  0.00    -0.000 C 
BRANCH  17  18
ATOM     18  C   UNL     1     172.442 181.357 190.186  1.00  0.00    -0.000 C 
BRANCH  18  19
ATOM     19  C   UNL     1     173.584 182.373 190.062  1.00  0.00    -0.003 C 
ATOM     20  C   UNL     1     173.225 183.691 190.740  1.00  0.00     0.004 C 
ENDBRANCH  18  19
ENDBRANCH  17  18
ENDBRANCH  16  17
ENDBRANCH  15  16
ENDBRANCH  14  15
ENDBRANCH  13  14
ENDBRANCH  12  13
ENDBRANCH   1  12
TORSDOF 16
ENDMDL
MODEL 7
REMARK VINA RESULT:    -1.252      3.190      5.839
REMARK INTER + INTRA:          -5.426
REMARK INTER:                  -2.259
REMARK INTRA:                  -3.167
REMARK UNBOUND:                -3.004
REMARK SMILES CCCCCCCCCCCCCCCCCC(=O)[O-]
REMARK SMILES IDX 10 1 11 2 12 3 13 4 14 5 15 6 16 7 17 8 18 9 19 10 20 11
REMARK SMILES IDX 9 12 8 13 7 14 6 15 5 16 4 17 3 18 2 19 1 20
REMARK H PARENT
REMARK Flexibility Score: inf
ROOT
ATOM      1  C   UNL     1     175.506 180.624 196.435  1.00  0.00     0.000 C 
ENDROOT
BRANCH   1   2
ATOM      2  C   UNL     1     174.222 181.242 195.869  1.00  0.00     0.000 C 
BRANCH   2   3
ATOM      3  C   UNL     1     173.222 180.153 195.454  1.00  0.00     0.000 C 
BRANCH   3   4
ATOM      4  C   UNL     1     172.714 180.334 194.015  1.00  0.00     0.000 C 
BRANCH   4   5
ATOM      5  C   UNL     1     172.600 179.000 193.256  1.00  0.00     0.000 C 
BRANCH   5   6
ATOM      6  C   UNL     1     173.041 177.791 194.102  1.00  0.00     0.000 C 
BRANCH   6   7
ATOM      7  C   UNL     1     174.284 177.053 193.575  1.00  0.00     0.006 C 
BRANCH   7   8
ATOM      8  C   UNL     1     175.598 177.627 194.121  1.00  0.00     0.053 C 
BRANCH   8   9
ATOM      9  C   UNL     1     176.225 178.543 193.119  1.00  0.00     0.041 C 
ATOM     10  O   UNL     1     175.962 178.417 191.894  1.00  0.00    -0.550 OA
ATOM     11  O   UNL     1     177.139 179.503 193.531  1.00  0.00    -0.550 OA
ENDBRANCH   8   9
ENDBRANCH   7   8
ENDBRANCH   6   7
ENDBRANCH   5   6
ENDBRANCH   4   5
ENDBRANCH   3   4
ENDBRANCH   2   3
ENDBRANCH   1   2
BRANCH   1  12
ATOM     12  C   UNL     1     175.573 180.798 197.960  1.00  0.00     0.000 C 
BRANCH  12  13
ATOM     13  C   UNL     1     176.037 179.523 198.684  1.00  0.00    -0.000 C 
BRANCH  13  14
ATOM     14  C   UNL     1     176.120 178.307 197.746  1.00  0.00    -0.000 C 
BRANCH  14  15
ATOM     15  C   UNL     1     175.309 177.108 198.263  1.00  0.00    -0.000 C 
BRANCH  15  16
ATOM     16  C   UNL     1     174.017 176.876 197.459  1.00  0.00    -0.000 C 
BRANCH  16  17
ATOM     17  C   UNL     1     172.817 177.644 198.034  1.00  0.00    -0.000 C 
BRANCH  17  18
ATOM     18  C   UNL     1     172.842 177.715 199.568  1.00  0.00    -0.000 C 
BRANCH  18  19
ATOM     19  C   UNL     1     172.145 178.985 200.070  1.00  0.00    -0.003 C 
ATOM     20  C   UNL     1     172.191 180.091 199.019  1.00  0.00     0.004 C 
ENDBRANCH  18  19
ENDBRANCH  17  18
ENDBRANCH  16  17
ENDBRANCH  15  16
ENDBRANCH  14  15
ENDBRANCH  13  14
ENDBRANCH  12  13
ENDBRANCH   1  12
TORSDOF 16
ENDMDL
MODEL 8
REMARK VINA RESULT:    -1.213      3.336      5.951
REMARK INTER + INTRA:          -5.352
REMARK INTER:                  -2.546
REMARK INTRA:                  -2.806
REMARK UNBOUND:                -3.004
REMARK SMILES CCCCCCCCCCCCCCCCCC(=O)[O-]
REMARK SMILES IDX 10 1 11 2 12 3 13 4 14 5 15 6 16 7 17 8 18 9 19 10 20 11
REMARK SMILES IDX 9 12 8 13 7 14 6 15 5 16 4 17 3 18 2 19 1 20
REMARK H PARENT
REMARK Flexibility Score: inf
ROOT
ATOM      1  C   UNL     1     174.497 181.296 196.996  1.00  0.00     0.000 C 
ENDROOT
BRANCH   1   2
ATOM      2  C   UNL     1     173.170 181.314 196.229  1.00  0.00     0.000 C 
BRANCH   2   3
ATOM      3  C   UNL     1     173.043 180.084 195.318  1.00  0.00     0.000 C 
BRANCH   3   4
ATOM      4  C   UNL     1     174.205 179.095 195.494  1.00  0.00     0.000 C 
BRANCH   4   5
ATOM      5  C   UNL     1     173.724 177.647 195.696  1.00  0.00     0.000 C 
BRANCH   5   6
ATOM      6  C   UNL     1     172.550 177.273 194.773  1.00  0.00     0.000 C 
BRANCH   6   7
ATOM      7  C   UNL     1     172.954 176.875 193.342  1.00  0.00     0.006 C 
BRANCH   7   8
ATOM      8  C   UNL     1     171.944 177.336 192.284  1.00  0.00     0.053 C 
BRANCH   8   9
ATOM      9  C   UNL     1     172.083 178.803 192.032  1.00  0.00     0.041 C 
ATOM     10  O   UNL     1     173.221 179.310 191.852  1.00  0.00    -0.550 OA
ATOM     11  O   UNL     1     170.961 179.621 192.044  1.00  0.00    -0.550 OA
ENDBRANCH   8   9
ENDBRANCH   7   8
ENDBRANCH   6   7
ENDBRANCH   5   6
ENDBRANCH   4   5
ENDBRANCH   3   4
ENDBRANCH   2   3
ENDBRANCH   1   2
BRANCH   1  12
ATOM     12  C   UNL     1     174.255 181.337 198.513  1.00  0.00     0.000 C 
BRANCH  12  13
ATOM     13  C   UNL     1     172.777 181.135 198.885  1.00  0.00    -0.000 C 
BRANCH  13  14
ATOM     14  C   UNL     1     172.559 179.919 199.803  1.00  0.00    -0.000 C 
BRANCH  14  15
ATOM     15  C   UNL     1     172.385 178.611 199.016  1.00  0.00    -0.000 C 
BRANCH  15  16
ATOM     16  C   UNL     1     173.260 177.469 199.563  1.00  0.00    -0.000 C 
BRANCH  16  17
ATOM     17  C   UNL     1     174.713 177.904 199.805  1.00  0.00    -0.000 C 
BRANCH  17  18
ATOM     18  C   UNL     1     175.659 177.459 198.678  1.00  0.00    -0.000 C 
BRANCH  18  19
ATOM     19  C   UNL     1     176.669 178.563 198.343  1.00  0.00    -0.003 C 
ATOM     20  C   UNL     1     177.941 177.981 197.734  1.00  0.00     0.004 C 
ENDBRANCH  18  19
ENDBRANCH  17  18
ENDBRANCH  16  17
ENDBRANCH  15  16
ENDBRANCH  14  15
ENDBRANCH  13  14
ENDBRANCH  12  13
ENDBRANCH   1  12
TORSDOF 16
ENDMDL
MODEL 9
REMARK VINA RESULT:    -1.197      2.284      3.392
REMARK INTER + INTRA:          -5.321
REMARK INTER:                  -2.175
REMARK INTRA:                  -3.146
REMARK UNBOUND:                -3.004
REMARK SMILES CCCCCCCCCCCCCCCCCC(=O)[O-]
REMARK SMILES IDX 10 1 11 2 12 3 13 4 14 5 15 6 16 7 17 8 18 9 19 10 20 11
REMARK SMILES IDX 9 12 8 13 7 14 6 15 5 16 4 17 3 18 2 19 1 20
REMARK H PARENT
REMARK Flexibility Score: inf
ROOT
ATOM      1  C   UNL     1     174.475 181.252 194.819  1.00  0.00     0.000 C 
ENDROOT
BRANCH   1   2
ATOM      2  C   UNL     1     174.387 179.729 194.672  1.00  0.00     0.000 C 
BRANCH   2   3
ATOM      3  C   UNL     1     173.083 179.190 195.280  1.00  0.00     0.000 C 
BRANCH   3   4
ATOM      4  C   UNL     1     173.140 177.680 195.557  1.00  0.00     0.000 C 
BRANCH   4   5
ATOM      5  C   UNL     1     173.266 177.358 197.056  1.00  0.00     0.000 C 
BRANCH   5   6
ATOM      6  C   UNL     1     172.973 178.573 197.955  1.00  0.00     0.000 C 
BRANCH   6   7
ATOM      7  C   UNL     1     174.121 178.971 198.900  1.00  0.00     0.006 C 
BRANCH   7   8
ATOM      8  C   UNL     1     174.846 180.247 198.456  1.00  0.00     0.053 C 
BRANCH   8   9
ATOM      9  C   UNL     1     176.177 179.914 197.862  1.00  0.00     0.041 C 
ATOM     10  O   UNL     1     176.945 180.832 197.472  1.00  0.00    -0.550 OA
ATOM     11  O   UNL     1     176.550 178.587 197.690  1.00  0.00    -0.550 OA
ENDBRANCH   8   9
ENDBRANCH   7   8
ENDBRANCH   6   7
ENDBRANCH   5   6
ENDBRANCH   4   5
ENDBRANCH   3   4
ENDBRANCH   2   3
ENDBRANCH   1   2
BRANCH   1  12
ATOM     12  C   UNL     1     173.171 181.824 195.397  1.00  0.00     0.000 C 
BRANCH  12  13
ATOM     13  C   UNL     1     172.517 182.864 194.473  1.00  0.00    -0.000 C 
BRANCH  13  14
ATOM     14  C   UNL     1     173.202 182.948 193.098  1.00  0.00    -0.000 C 
BRANCH  14  15
ATOM     15  C   UNL     1     172.294 182.461 191.958  1.00  0.00    -0.000 C 
BRANCH  15  16
ATOM     16  C   UNL     1     172.533 180.983 191.600  1.00  0.00    -0.000 C 
BRANCH  16  17
ATOM     17  C   UNL     1     171.370 180.076 192.028  1.00  0.00    -0.000 C 
BRANCH  17  18
ATOM     18  C   UNL     1     171.702 178.583 191.885  1.00  0.00    -0.000 C 
BRANCH  18  19
ATOM     19  C   UNL     1     173.155 178.384 191.438  1.00  0.00    -0.003 C 
ATOM     20  C   UNL     1     173.698 177.038 191.907  1.00  0.00     0.004 C 
ENDBRANCH  18  19
ENDBRANCH  17  18
ENDBRANCH  16  17
ENDBRANCH  15  16
ENDBRANCH  14  15
ENDBRANCH  13  14
ENDBRANCH  12  13
ENDBRANCH   1  12
TORSDOF 16
ENDMDL
