MODEL 1
REMARK VINA RESULT:    -4.880      0.000      0.000
REMARK INTER + INTRA:         -13.980
REMARK INTER:                 -10.585
REMARK INTRA:                  -3.395
REMARK UNBOUND:                -3.395
REMARK SMILES CCCCCCCCCCCCCCCCCCCCCC(=O)[O-]
REMARK SMILES IDX 12 1 11 2 10 3 9 4 8 5 7 6 6 7 5 8 4 9 3 10 2 11 1 12 13 13
REMARK SMILES IDX 14 14 15 15 16 16 17 17 18 18 19 19 20 20 21 21 22 22 23 23
REMARK SMILES IDX 24 24
REMARK H PARENT
REMARK Flexibility Score: inf
ROOT
ATOM      1  C   UNL     1      40.715  58.384  58.310  1.00  0.00     0.000 C 
ENDROOT
BRANCH   1   2
ATOM      2  C   UNL     1      40.996  59.729  57.620  1.00  0.00     0.000 C 
BRANCH   2   3
ATOM      3  C   UNL     1      42.463  60.167  57.755  1.00  0.00     0.000 C 
BRANCH   3   4
ATOM      4  C   UNL     1      42.610  61.658  58.100  1.00  0.00    -0.000 C 
BRANCH   4   5
ATOM      5  C   UNL     1      42.575  61.987  59.605  1.00  0.00    -0.000 C 
BRANCH   5   6
ATOM      6  C   UNL     1      43.757  61.392  60.402  1.00  0.00    -0.000 C 
BRANCH   6   7
ATOM      7  C   UNL     1      43.305  60.268  61.350  1.00  0.00    -0.000 C 
BRANCH   7   8
ATOM      8  C   UNL     1      44.404  59.218  61.597  1.00  0.00    -0.000 C 
BRANCH   8   9
ATOM      9  C   UNL     1      45.589  59.287  60.614  1.00  0.00    -0.000 C 
BRANCH   9  10
ATOM     10  C   UNL     1      45.746  58.010  59.774  1.00  0.00    -0.000 C 
BRANCH  10  11
ATOM     11  C   UNL     1      45.676  58.330  58.276  1.00  0.00    -0.003 C 
ATOM     12  C   UNL     1      46.096  59.771  57.998  1.00  0.00     0.004 C 
ENDBRANCH  10  11
ENDBRANCH   9  10
ENDBRANCH   8   9
ENDBRANCH   7   8
ENDBRANCH   6   7
ENDBRANCH   5   6
ENDBRANCH   4   5
ENDBRANCH   3   4
ENDBRANCH   2   3
ENDBRANCH   1   2
BRANCH   1  13
ATOM     13  C   UNL     1      41.841  57.969  59.271  1.00  0.00     0.000 C 
BRANCH  13  14
ATOM     14  C   UNL     1      42.289  56.513  59.063  1.00  0.00     0.000 C 
BRANCH  14  15
ATOM     15  C   UNL     1      43.035  55.942  60.283  1.00  0.00     0.000 C 
BRANCH  15  16
ATOM     16  C   UNL     1      42.542  54.540  60.672  1.00  0.00     0.000 C 
BRANCH  16  17
ATOM     17  C   UNL     1      41.168  54.208  60.064  1.00  0.00     0.000 C 
BRANCH  17  18
ATOM     18  C   UNL     1      40.109  53.898  61.135  1.00  0.00     0.000 C 
BRANCH  18  19
ATOM     19  C   UNL     1      38.732  54.494  60.793  1.00  0.00     0.000 C 
BRANCH  19  20
ATOM     20  C   UNL     1      38.772  56.023  60.619  1.00  0.00     0.006 C 
BRANCH  20  21
ATOM     21  C   UNL     1      37.922  56.554  59.454  1.00  0.00     0.053 C 
BRANCH  21  22
ATOM     22  C   UNL     1      36.473  56.210  59.612  1.00  0.00     0.041 C 
ATOM     23  O   UNL     1      35.969  55.272  58.940  1.00  0.00    -0.550 OA
ATOM     24  O   UNL     1      35.685  56.909  60.519  1.00  0.00    -0.550 OA
ENDBRANCH  21  22
ENDBRANCH  20  21
ENDBRANCH  19  20
ENDBRANCH  18  19
ENDBRANCH  17  18
ENDBRANCH  16  17
ENDBRANCH  15  16
ENDBRANCH  14  15
ENDBRANCH  13  14
ENDBRANCH   1  13
TORSDOF 20
ENDMDL
MODEL 2
REMARK VINA RESULT:    -4.870      2.428      7.538
REMARK INTER + INTRA:         -13.960
REMARK INTER:                 -11.685
REMARK INTRA:                  -2.275
REMARK UNBOUND:                -3.395
REMARK SMILES CCCCCCCCCCCCCCCCCCCCCC(=O)[O-]
REMARK SMILES IDX 12 1 11 2 10 3 9 4 8 5 7 6 6 7 5 8 4 9 3 10 2 11 1 12 13 13
REMARK SMILES IDX 14 14 15 15 16 16 17 17 18 18 19 19 20 20 21 21 22 22 23 23
REMARK SMILES IDX 24 24
REMARK H PARENT
REMARK Flexibility Score: inf
ROOT
ATOM      1  C   UNL     1      42.364  56.635  58.846  1.00  0.00     0.000 C 
ENDROOT
BRANCH   1   2
ATOM      2  C   UNL     1      42.261  55.151  59.233  1.00  0.00     0.000 C 
BRANCH   2   3
ATOM      3  C   UNL     1      41.649  54.944  60.627  1.00  0.00     0.000 C 
BRANCH   3   4
ATOM      4  C   UNL     1      40.560  53.859  60.644  1.00  0.00    -0.000 C 
BRANCH   4   5
ATOM      5  C   UNL     1      39.118  54.381  60.791  1.00  0.00    -0.000 C 
BRANCH   5   6
ATOM      6  C   UNL     1      39.011  55.921  60.810  1.00  0.00    -0.000 C 
BRANCH   6   7
ATOM      7  C   UNL     1      38.165  56.457  59.641  1.00  0.00    -0.000 C 
BRANCH   7   8
ATOM      8  C   UNL     1      36.651  56.316  59.887  1.00  0.00    -0.000 C 
BRANCH   8   9
ATOM      9  C   UNL     1      35.903  55.493  58.820  1.00  0.00    -0.000 C 
BRANCH   9  10
ATOM     10  C   UNL     1      36.030  53.976  59.035  1.00  0.00    -0.000 C 
BRANCH  10  11
ATOM     11  C   UNL     1      34.962  53.220  58.235  1.00  0.00    -0.003 C 
ATOM     12  C   UNL     1      35.423  51.805  57.896  1.00  0.00     0.004 C 
ENDBRANCH  10  11
ENDBRANCH   9  10
ENDBRANCH   8   9
ENDBRANCH   7   8
ENDBRANCH   6   7
ENDBRANCH   5   6
ENDBRANCH   4   5
ENDBRANCH   3   4
ENDBRANCH   2   3
ENDBRANCH   1   2
BRANCH   1  13
ATOM     13  C   UNL     1      43.820  57.102  58.678  1.00  0.00     0.000 C 
BRANCH  13  14
ATOM     14  C   UNL     1      44.501  57.409  60.021  1.00  0.00     0.000 C 
BRANCH  14  15
ATOM     15  C   UNL     1      43.588  58.188  60.985  1.00  0.00     0.000 C 
BRANCH  15  16
ATOM     16  C   UNL     1      44.068  59.628  61.219  1.00  0.00     0.000 C 
BRANCH  16  17
ATOM     17  C   UNL     1      45.169  60.050  60.229  1.00  0.00     0.000 C 
BRANCH  17  18
ATOM     18  C   UNL     1      44.647  61.000  59.138  1.00  0.00     0.000 C 
BRANCH  18  19
ATOM     19  C   UNL     1      43.236  61.531  59.445  1.00  0.00     0.000 C 
BRANCH  19  20
ATOM     20  C   UNL     1      42.312  61.513  58.214  1.00  0.00     0.006 C 
BRANCH  20  21
ATOM     21  C   UNL     1      41.936  60.107  57.720  1.00  0.00     0.053 C 
BRANCH  21  22
ATOM     22  C   UNL     1      40.531  60.049  57.204  1.00  0.00     0.041 C 
ATOM     23  O   UNL     1      40.123  60.911  56.383  1.00  0.00    -0.550 OA
ATOM     24  O   UNL     1      39.680  59.028  57.611  1.00  0.00    -0.550 OA
ENDBRANCH  21  22
ENDBRANCH  20  21
ENDBRANCH  19  20
ENDBRANCH  18  19
ENDBRANCH  17  18
ENDBRANCH  16  17
ENDBRANCH  15  16
ENDBRANCH  14  15
ENDBRANCH  13  14
ENDBRANCH   1  13
TORSDOF 20
ENDMDL
MODEL 3
REMARK VINA RESULT:    -4.740      1.994      3.868
REMARK INTER + INTRA:         -13.677
REMARK INTER:                 -11.033
REMARK INTRA:                  -2.643
REMARK UNBOUND:                -3.395
REMARK SMILES CCCCCCCCCCCCCCCCCCCCCC(=O)[O-]
REMARK SMILES IDX 12 1 11 2 10 3 9 4 8 5 7 6 6 7 5 8 4 9 3 10 2 11 1 12 13 13
REMARK SMILES IDX 14 14 15 15 16 16 17 17 18 18 19 19 20 20 21 21 22 22 23 23
REMARK SMILES IDX 24 24
REMARK H PARENT
REMARK Flexibility Score: inf
ROOT
ATOM      1  C   UNL     1      43.103  54.988  60.188  1.00  0.00     0.000 C 
ENDROOT
BRANCH   1   2
ATOM      2  C   UNL     1      43.294  56.398  59.607  1.00  0.00     0.000 C 
BRANCH   2   3
ATOM      3  C   UNL     1      42.341  57.429  60.234  1.00  0.00     0.000 C 
BRANCH   3   4
ATOM      4  C   UNL     1      41.419  58.093  59.198  1.00  0.00    -0.000 C 
BRANCH   4   5
ATOM      5  C   UNL     1      42.096  58.471  57.867  1.00  0.00    -0.000 C 
BRANCH   5   6
ATOM      6  C   UNL     1      41.739  59.888  57.365  1.00  0.00    -0.000 C 
BRANCH   6   7
ATOM      7  C   UNL     1      42.289  60.984  58.295  1.00  0.00    -0.000 C 
BRANCH   7   8
ATOM      8  C   UNL     1      43.777  60.786  58.637  1.00  0.00    -0.000 C 
BRANCH   8   9
ATOM      9  C   UNL     1      44.092  60.770  60.145  1.00  0.00    -0.000 C 
BRANCH   9  10
ATOM     10  C   UNL     1      45.484  60.201  60.461  1.00  0.00    -0.000 C 
BRANCH  10  11
ATOM     11  C   UNL     1      45.873  59.117  59.448  1.00  0.00    -0.003 C 
ATOM     12  C   UNL     1      46.662  57.993  60.116  1.00  0.00     0.004 C 
ENDBRANCH  10  11
ENDBRANCH   9  10
ENDBRANCH   8   9
ENDBRANCH   7   8
ENDBRANCH   6   7
ENDBRANCH   5   6
ENDBRANCH   4   5
ENDBRANCH   3   4
ENDBRANCH   2   3
ENDBRANCH   1   2
BRANCH   1  13
ATOM     13  C   UNL     1      41.782  54.340  59.741  1.00  0.00     0.000 C 
BRANCH  13  14
ATOM     14  C   UNL     1      40.719  54.337  60.852  1.00  0.00     0.000 C 
BRANCH  14  15
ATOM     15  C   UNL     1      39.298  54.582  60.313  1.00  0.00     0.000 C 
BRANCH  15  16
ATOM     16  C   UNL     1      38.756  55.970  60.689  1.00  0.00     0.000 C 
BRANCH  16  17
ATOM     17  C   UNL     1      37.885  56.583  59.578  1.00  0.00     0.000 C 
BRANCH  17  18
ATOM     18  C   UNL     1      36.384  56.329  59.799  1.00  0.00     0.000 C 
BRANCH  18  19
ATOM     19  C   UNL     1      35.820  55.261  58.846  1.00  0.00     0.000 C 
BRANCH  19  20
ATOM     20  C   UNL     1      35.920  53.837  59.422  1.00  0.00     0.006 C 
BRANCH  20  21
ATOM     21  C   UNL     1      36.281  52.756  58.391  1.00  0.00     0.053 C 
BRANCH  21  22
ATOM     22  C   UNL     1      35.112  51.878  58.063  1.00  0.00     0.041 C 
ATOM     23  O   UNL     1      35.293  50.669  57.767  1.00  0.00    -0.550 OA
ATOM     24  O   UNL     1      33.821  52.391  58.111  1.00  0.00    -0.550 OA
ENDBRANCH  21  22
ENDBRANCH  20  21
ENDBRANCH  19  20
ENDBRANCH  18  19
ENDBRANCH  17  18
ENDBRANCH  16  17
ENDBRANCH  15  16
ENDBRANCH  14  15
ENDBRANCH  13  14
ENDBRANCH   1  13
TORSDOF 20
ENDMDL
MODEL 4
REMARK VINA RESULT:    -4.731      2.243      4.688
REMARK INTER + INTRA:         -13.658
REMARK INTER:                 -11.485
REMARK INTRA:                  -2.173
REMARK UNBOUND:                -3.395
REMARK SMILES CCCCCCCCCCCCCCCCCCCCCC(=O)[O-]
REMARK SMILES IDX 12 1 11 2 10 3 9 4 8 5 7 6 6 7 5 8 4 9 3 10 2 11 1 12 13 13
REMARK SMILES IDX 14 14 15 15 16 16 17 17 18 18 19 19 20 20 21 21 22 22 23 23
REMARK SMILES IDX 24 24
REMARK H PARENT
REMARK Flexibility Score: inf
ROOT
ATOM      1  C   UNL     1      42.941  55.374  59.471  1.00  0.00     0.000 C 
ENDROOT
BRANCH   1   2
ATOM      2  C   UNL     1      43.826  56.561  59.884  1.00  0.00     0.000 C 
BRANCH   2   3
ATOM      3  C   UNL     1      43.005  57.782  60.331  1.00  0.00     0.000 C 
BRANCH   3   4
ATOM      4  C   UNL     1      42.976  58.899  59.275  1.00  0.00    -0.000 C 
BRANCH   4   5
ATOM      5  C   UNL     1      42.166  58.577  58.005  1.00  0.00    -0.000 C 
BRANCH   5   6
ATOM      6  C   UNL     1      40.637  58.665  58.201  1.00  0.00    -0.000 C 
BRANCH   6   7
ATOM      7  C   UNL     1      39.991  59.689  57.251  1.00  0.00    -0.000 C 
BRANCH   7   8
ATOM      8  C   UNL     1      41.011  60.673  56.651  1.00  0.00    -0.000 C 
BRANCH   8   9
ATOM      9  C   UNL     1      40.614  62.158  56.765  1.00  0.00    -0.000 C 
BRANCH   9  10
ATOM     10  C   UNL     1      41.819  63.086  56.981  1.00  0.00    -0.000 C 
BRANCH  10  11
ATOM     11  C   UNL     1      42.831  62.453  57.943  1.00  0.00    -0.003 C 
ATOM     12  C   UNL     1      42.328  62.499  59.384  1.00  0.00     0.004 C 
ENDBRANCH  10  11
ENDBRANCH   9  10
ENDBRANCH   8   9
ENDBRANCH   7   8
ENDBRANCH   6   7
ENDBRANCH   5   6
ENDBRANCH   4   5
ENDBRANCH   3   4
ENDBRANCH   2   3
ENDBRANCH   1   2
BRANCH   1  13
ATOM     13  C   UNL     1      42.037  54.886  60.616  1.00  0.00     0.000 C 
BRANCH  13  14
ATOM     14  C   UNL     1      40.893  53.984  60.122  1.00  0.00     0.000 C 
BRANCH  14  15
ATOM     15  C   UNL     1      39.513  54.454  60.617  1.00  0.00     0.000 C 
BRANCH  15  16
ATOM     16  C   UNL     1      39.345  55.979  60.536  1.00  0.00     0.000 C 
BRANCH  16  17
ATOM     17  C   UNL     1      38.005  56.391  59.901  1.00  0.00     0.000 C 
BRANCH  17  18
ATOM     18  C   UNL     1      37.034  55.207  59.753  1.00  0.00     0.000 C 
BRANCH  18  19
ATOM     19  C   UNL     1      35.911  55.488  58.740  1.00  0.00     0.000 C 
BRANCH  19  20
ATOM     20  C   UNL     1      35.209  54.205  58.260  1.00  0.00     0.006 C 
BRANCH  20  21
ATOM     21  C   UNL     1      35.933  52.903  58.636  1.00  0.00     0.053 C 
BRANCH  21  22
ATOM     22  C   UNL     1      35.249  51.696  58.072  1.00  0.00     0.041 C 
ATOM     23  O   UNL     1      34.018  51.518  58.266  1.00  0.00    -0.550 OA
ATOM     24  O   UNL     1      35.966  50.780  57.311  1.00  0.00    -0.550 OA
ENDBRANCH  21  22
ENDBRANCH  20  21
ENDBRANCH  19  20
ENDBRANCH  18  19
ENDBRANCH  17  18
ENDBRANCH  16  17
ENDBRANCH  15  16
ENDBRANCH  14  15
ENDBRANCH  13  14
ENDBRANCH   1  13
TORSDOF 20
ENDMDL
MODEL 5
REMARK VINA RESULT:    -4.699      2.569      7.563
REMARK INTER + INTRA:         -13.589
REMARK INTER:                 -11.286
REMARK INTRA:                  -2.303
REMARK UNBOUND:                -3.395
REMARK SMILES CCCCCCCCCCCCCCCCCCCCCC(=O)[O-]
REMARK SMILES IDX 12 1 11 2 10 3 9 4 8 5 7 6 6 7 5 8 4 9 3 10 2 11 1 12 13 13
REMARK SMILES IDX 14 14 15 15 16 16 17 17 18 18 19 19 20 20 21 21 22 22 23 23
REMARK SMILES IDX 24 24
REMARK H PARENT
REMARK Flexibility Score: inf
ROOT
ATOM      1  C   UNL     1      44.422  57.144  60.247  1.00  0.00     0.000 C 
ENDROOT
BRANCH   1   2
ATOM      2  C   UNL     1      43.747  56.927  58.883  1.00  0.00     0.000 C 
BRANCH   2   3
ATOM      3  C   UNL     1      42.351  56.295  59.009  1.00  0.00     0.000 C 
BRANCH   3   4
ATOM      4  C   UNL     1      42.354  55.010  59.853  1.00  0.00    -0.000 C 
BRANCH   4   5
ATOM      5  C   UNL     1      41.056  54.182  59.788  1.00  0.00    -0.000 C 
BRANCH   5   6
ATOM      6  C   UNL     1      40.442  53.874  61.171  1.00  0.00    -0.000 C 
BRANCH   6   7
ATOM      7  C   UNL     1      38.921  54.108  61.193  1.00  0.00    -0.000 C 
BRANCH   7   8
ATOM      8  C   UNL     1      38.512  55.431  60.522  1.00  0.00    -0.000 C 
BRANCH   8   9
ATOM      9  C   UNL     1      37.209  55.358  59.701  1.00  0.00    -0.000 C 
BRANCH   9  10
ATOM     10  C   UNL     1      36.541  53.976  59.759  1.00  0.00    -0.000 C 
BRANCH  10  11
ATOM     11  C   UNL     1      35.545  53.802  58.605  1.00  0.00    -0.003 C 
ATOM     12  C   UNL     1      35.497  52.352  58.130  1.00  0.00     0.004 C 
ENDBRANCH  10  11
ENDBRANCH   9  10
ENDBRANCH   8   9
ENDBRANCH   7   8
ENDBRANCH   6   7
ENDBRANCH   5   6
ENDBRANCH   4   5
ENDBRANCH   3   4
ENDBRANCH   2   3
ENDBRANCH   1   2
BRANCH   1  13
ATOM     13  C   UNL     1      45.578  58.158  60.177  1.00  0.00     0.000 C 
BRANCH  13  14
ATOM     14  C   UNL     1      46.065  58.401  58.739  1.00  0.00     0.000 C 
BRANCH  14  15
ATOM     15  C   UNL     1      46.563  59.841  58.519  1.00  0.00     0.000 C 
BRANCH  15  16
ATOM     16  C   UNL     1      46.168  60.784  59.665  1.00  0.00     0.000 C 
BRANCH  16  17
ATOM     17  C   UNL     1      45.024  61.738  59.275  1.00  0.00     0.000 C 
BRANCH  17  18
ATOM     18  C   UNL     1      43.779  61.557  60.159  1.00  0.00     0.000 C 
BRANCH  18  19
ATOM     19  C   UNL     1      42.847  60.446  59.644  1.00  0.00     0.000 C 
BRANCH  19  20
ATOM     20  C   UNL     1      42.729  60.433  58.110  1.00  0.00     0.006 C 
BRANCH  20  21
ATOM     21  C   UNL     1      41.766  61.485  57.535  1.00  0.00     0.053 C 
BRANCH  21  22
ATOM     22  C   UNL     1      40.669  60.862  56.729  1.00  0.00     0.041 C 
ATOM     23  O   UNL     1      39.928  59.983  57.241  1.00  0.00    -0.550 OA
ATOM     24  O   UNL     1      40.448  61.271  55.418  1.00  0.00    -0.550 OA
ENDBRANCH  21  22
ENDBRANCH  20  21
ENDBRANCH  19  20
ENDBRANCH  18  19
ENDBRANCH  17  18
ENDBRANCH  16  17
ENDBRANCH  15  16
ENDBRANCH  14  15
ENDBRANCH  13  14
ENDBRANCH   1  13
TORSDOF 20
ENDMDL
MODEL 6
REMARK VINA RESULT:    -4.690      3.351      8.417
REMARK INTER + INTRA:         -13.569
REMARK INTER:                 -12.587
REMARK INTRA:                  -0.982
REMARK UNBOUND:                -3.395
REMARK SMILES CCCCCCCCCCCCCCCCCCCCCC(=O)[O-]
REMARK SMILES IDX 12 1 11 2 10 3 9 4 8 5 7 6 6 7 5 8 4 9 3 10 2 11 1 12 13 13
REMARK SMILES IDX 14 14 15 15 16 16 17 17 18 18 19 19 20 20 21 21 22 22 23 23
REMARK SMILES IDX 24 24
REMARK H PARENT
REMARK Flexibility Score: inf
ROOT
ATOM      1  C   UNL     1      40.788  54.790  60.657  1.00  0.00     0.000 C 
ENDROOT
BRANCH   1   2
ATOM      2  C   UNL     1      39.760  53.766  61.162  1.00  0.00     0.000 C 
BRANCH   2   3
ATOM      3  C   UNL     1      38.327  54.096  60.712  1.00  0.00     0.000 C 
BRANCH   3   4
ATOM      4  C   UNL     1      38.122  55.593  60.429  1.00  0.00    -0.000 C 
BRANCH   4   5
ATOM      5  C   UNL     1      36.718  55.977  59.925  1.00  0.00    -0.000 C 
BRANCH   5   6
ATOM      6  C   UNL     1      36.249  55.160  58.702  1.00  0.00    -0.000 C 
BRANCH   6   7
ATOM      7  C   UNL     1      35.850  53.723  59.085  1.00  0.00    -0.000 C 
BRANCH   7   8
ATOM      8  C   UNL     1      35.036  53.017  57.986  1.00  0.00    -0.000 C 
BRANCH   8   9
ATOM      9  C   UNL     1      35.000  51.480  58.102  1.00  0.00    -0.000 C 
BRANCH   9  10
ATOM     10  C   UNL     1      36.001  50.785  57.166  1.00  0.00    -0.000 C 
BRANCH  10  11
ATOM     11  C   UNL     1      35.612  49.318  56.945  1.00  0.00    -0.003 C 
ATOM     12  C   UNL     1      34.113  49.107  57.141  1.00  0.00     0.004 C 
ENDBRANCH  10  11
ENDBRANCH   9  10
ENDBRANCH   8   9
ENDBRANCH   7   8
ENDBRANCH   6   7
ENDBRANCH   5   6
ENDBRANCH   4   5
ENDBRANCH   3   4
ENDBRANCH   2   3
ENDBRANCH   1   2
BRANCH   1  13
ATOM     13  C   UNL     1      41.799  54.175  59.674  1.00  0.00     0.000 C 
BRANCH  13  14
ATOM     14  C   UNL     1      42.856  55.188  59.203  1.00  0.00     0.000 C 
BRANCH  14  15
ATOM     15  C   UNL     1      43.358  56.093  60.342  1.00  0.00     0.000 C 
BRANCH  15  16
ATOM     16  C   UNL     1      44.416  57.102  59.870  1.00  0.00     0.000 C 
BRANCH  16  17
ATOM     17  C   UNL     1      44.430  58.384  60.723  1.00  0.00     0.000 C 
BRANCH  17  18
ATOM     18  C   UNL     1      44.806  59.631  59.905  1.00  0.00     0.000 C 
BRANCH  18  19
ATOM     19  C   UNL     1      44.162  59.636  58.508  1.00  0.00     0.000 C 
BRANCH  19  20
ATOM     20  C   UNL     1      42.692  60.089  58.532  1.00  0.00     0.006 C 
BRANCH  20  21
ATOM     21  C   UNL     1      41.808  59.445  57.453  1.00  0.00     0.053 C 
BRANCH  21  22
ATOM     22  C   UNL     1      40.583  58.808  58.034  1.00  0.00     0.041 C 
ATOM     23  O   UNL     1      39.450  59.051  57.543  1.00  0.00    -0.550 OA
ATOM     24  O   UNL     1      40.696  57.926  59.103  1.00  0.00    -0.550 OA
ENDBRANCH  21  22
ENDBRANCH  20  21
ENDBRANCH  19  20
ENDBRANCH  18  19
ENDBRANCH  17  18
ENDBRANCH  16  17
ENDBRANCH  15  16
ENDBRANCH  14  15
ENDBRANCH  13  14
ENDBRANCH   1  13
TORSDOF 20
ENDMDL
MODEL 7
REMARK VINA RESULT:    -4.668      1.702      3.992
REMARK INTER + INTRA:         -13.522
REMARK INTER:                 -11.383
REMARK INTRA:                  -2.138
REMARK UNBOUND:                -3.395
REMARK SMILES CCCCCCCCCCCCCCCCCCCCCC(=O)[O-]
REMARK SMILES IDX 12 1 11 2 10 3 9 4 8 5 7 6 6 7 5 8 4 9 3 10 2 11 1 12 13 13
REMARK SMILES IDX 14 14 15 15 16 16 17 17 18 18 19 19 20 20 21 21 22 22 23 23
REMARK SMILES IDX 24 24
REMARK H PARENT
REMARK Flexibility Score: inf
ROOT
ATOM      1  C   UNL     1      42.586  56.566  59.937  1.00  0.00     0.000 C 
ENDROOT
BRANCH   1   2
ATOM      2  C   UNL     1      43.886  57.259  60.375  1.00  0.00     0.000 C 
BRANCH   2   3
ATOM      3  C   UNL     1      44.843  57.517  59.200  1.00  0.00     0.000 C 
BRANCH   3   4
ATOM      4  C   UNL     1      46.214  58.046  59.654  1.00  0.00    -0.000 C 
BRANCH   4   5
ATOM      5  C   UNL     1      46.302  59.575  59.820  1.00  0.00    -0.000 C 
BRANCH   5   6
ATOM      6  C   UNL     1      45.823  60.366  58.584  1.00  0.00    -0.000 C 
BRANCH   6   7
ATOM      7  C   UNL     1      45.078  61.655  58.976  1.00  0.00    -0.000 C 
BRANCH   7   8
ATOM      8  C   UNL     1      43.651  61.717  58.402  1.00  0.00    -0.000 C 
BRANCH   8   9
ATOM      9  C   UNL     1      42.698  60.628  58.932  1.00  0.00    -0.000 C 
BRANCH   9  10
ATOM     10  C   UNL     1      42.270  59.626  57.848  1.00  0.00    -0.000 C 
BRANCH  10  11
ATOM     11  C   UNL     1      40.759  59.707  57.597  1.00  0.00    -0.003 C 
ATOM     12  C   UNL     1      40.075  58.378  57.911  1.00  0.00     0.004 C 
ENDBRANCH  10  11
ENDBRANCH   9  10
ENDBRANCH   8   9
ENDBRANCH   7   8
ENDBRANCH   6   7
ENDBRANCH   5   6
ENDBRANCH   4   5
ENDBRANCH   3   4
ENDBRANCH   2   3
ENDBRANCH   1   2
BRANCH   1  13
ATOM     13  C   UNL     1      42.772  55.057  59.706  1.00  0.00     0.000 C 
BRANCH  13  14
ATOM     14  C   UNL     1      41.437  54.320  59.507  1.00  0.00     0.000 C 
BRANCH  14  15
ATOM     15  C   UNL     1      40.685  54.090  60.831  1.00  0.00     0.000 C 
BRANCH  15  16
ATOM     16  C   UNL     1      39.164  54.248  60.680  1.00  0.00     0.000 C 
BRANCH  16  17
ATOM     17  C   UNL     1      38.695  55.695  60.913  1.00  0.00     0.000 C 
BRANCH  17  18
ATOM     18  C   UNL     1      37.912  56.260  59.716  1.00  0.00     0.000 C 
BRANCH  18  19
ATOM     19  C   UNL     1      36.400  55.992  59.820  1.00  0.00     0.000 C 
BRANCH  19  20
ATOM     20  C   UNL     1      35.893  55.021  58.738  1.00  0.00     0.006 C 
BRANCH  20  21
ATOM     21  C   UNL     1      36.027  53.534  59.103  1.00  0.00     0.053 C 
BRANCH  21  22
ATOM     22  C   UNL     1      35.244  52.655  58.177  1.00  0.00     0.041 C 
ATOM     23  O   UNL     1      34.071  52.971  57.846  1.00  0.00    -0.550 OA
ATOM     24  O   UNL     1      35.818  51.500  57.659  1.00  0.00    -0.550 OA
ENDBRANCH  21  22
ENDBRANCH  20  21
ENDBRANCH  19  20
ENDBRANCH  18  19
ENDBRANCH  17  18
ENDBRANCH  16  17
ENDBRANCH  15  16
ENDBRANCH  14  15
ENDBRANCH  13  14
ENDBRANCH   1  13
TORSDOF 20
ENDMDL
MODEL 8
REMARK VINA RESULT:    -4.638      3.252      8.180
REMARK INTER + INTRA:         -13.457
REMARK INTER:                 -11.873
REMARK INTRA:                  -1.584
REMARK UNBOUND:                -3.395
REMARK SMILES CCCCCCCCCCCCCCCCCCCCCC(=O)[O-]
REMARK SMILES IDX 12 1 11 2 10 3 9 4 8 5 7 6 6 7 5 8 4 9 3 10 2 11 1 12 13 13
REMARK SMILES IDX 14 14 15 15 16 16 17 17 18 18 19 19 20 20 21 21 22 22 23 23
REMARK SMILES IDX 24 24
REMARK H PARENT
REMARK Flexibility Score: inf
ROOT
ATOM      1  C   UNL     1      41.680  56.436  58.906  1.00  0.00     0.000 C 
ENDROOT
BRANCH   1   2
ATOM      2  C   UNL     1      41.064  57.461  59.873  1.00  0.00     0.000 C 
BRANCH   2   3
ATOM      3  C   UNL     1      39.620  57.109  60.265  1.00  0.00     0.000 C 
BRANCH   3   4
ATOM      4  C   UNL     1      39.452  55.630  60.653  1.00  0.00    -0.000 C 
BRANCH   4   5
ATOM      5  C   UNL     1      38.134  54.979  60.192  1.00  0.00    -0.000 C 
BRANCH   5   6
ATOM      6  C   UNL     1      37.070  55.992  59.716  1.00  0.00    -0.000 C 
BRANCH   6   7
ATOM      7  C   UNL     1      35.998  55.330  58.832  1.00  0.00    -0.000 C 
BRANCH   7   8
ATOM      8  C   UNL     1      35.862  53.819  59.089  1.00  0.00    -0.000 C 
BRANCH   8   9
ATOM      9  C   UNL     1      35.099  53.048  57.994  1.00  0.00    -0.000 C 
BRANCH   9  10
ATOM     10  C   UNL     1      35.033  51.536  58.260  1.00  0.00    -0.000 C 
BRANCH  10  11
ATOM     11  C   UNL     1      35.899  50.766  57.256  1.00  0.00    -0.003 C 
ATOM     12  C   UNL     1      35.327  49.377  56.982  1.00  0.00     0.004 C 
ENDBRANCH  10  11
ENDBRANCH   9  10
ENDBRANCH   8   9
ENDBRANCH   7   8
ENDBRANCH   6   7
ENDBRANCH   5   6
ENDBRANCH   4   5
ENDBRANCH   3   4
ENDBRANCH   2   3
ENDBRANCH   1   2
BRANCH   1  13
ATOM     13  C   UNL     1      42.869  55.683  59.526  1.00  0.00     0.000 C 
BRANCH  13  14
ATOM     14  C   UNL     1      43.829  56.614  60.285  1.00  0.00     0.000 C 
BRANCH  14  15
ATOM     15  C   UNL     1      44.691  57.473  59.341  1.00  0.00     0.000 C 
BRANCH  15  16
ATOM     16  C   UNL     1      45.848  58.172  60.072  1.00  0.00     0.000 C 
BRANCH  16  17
ATOM     17  C   UNL     1      45.742  59.706  60.011  1.00  0.00     0.000 C 
BRANCH  17  18
ATOM     18  C   UNL     1      44.414  60.228  60.584  1.00  0.00     0.000 C 
BRANCH  18  19
ATOM     19  C   UNL     1      44.176  61.714  60.262  1.00  0.00     0.000 C 
BRANCH  19  20
ATOM     20  C   UNL     1      42.989  61.932  59.307  1.00  0.00     0.006 C 
BRANCH  20  21
ATOM     21  C   UNL     1      42.706  60.754  58.362  1.00  0.00     0.053 C 
BRANCH  21  22
ATOM     22  C   UNL     1      41.346  60.846  57.740  1.00  0.00     0.041 C 
ATOM     23  O   UNL     1      40.742  59.801  57.384  1.00  0.00    -0.550 OA
ATOM     24  O   UNL     1      40.737  62.084  57.577  1.00  0.00    -0.550 OA
ENDBRANCH  21  22
ENDBRANCH  20  21
ENDBRANCH  19  20
ENDBRANCH  18  19
ENDBRANCH  17  18
ENDBRANCH  16  17
ENDBRANCH  15  16
ENDBRANCH  14  15
ENDBRANCH  13  14
ENDBRANCH   1  13
TORSDOF 20
ENDMDL
MODEL 9
REMARK VINA RESULT:    -4.560      2.316      7.034
REMARK INTER + INTRA:         -13.286
REMARK INTER:                 -10.501
REMARK INTRA:                  -2.785
REMARK UNBOUND:                -3.395
REMARK SMILES CCCCCCCCCCCCCCCCCCCCCC(=O)[O-]
REMARK SMILES IDX 12 1 11 2 10 3 9 4 8 5 7 6 6 7 5 8 4 9 3 10 2 11 1 12 13 13
REMARK SMILES IDX 14 14 15 15 16 16 17 17 18 18 19 19 20 20 21 21 22 22 23 23
REMARK SMILES IDX 24 24
REMARK H PARENT
REMARK Flexibility Score: inf
ROOT
ATOM      1  C   UNL     1      44.332  58.437  60.986  1.00  0.00     0.000 C 
ENDROOT
BRANCH   1   2
ATOM      2  C   UNL     1      42.925  58.545  60.377  1.00  0.00     0.000 C 
BRANCH   2   3
ATOM      3  C   UNL     1      42.857  57.989  58.945  1.00  0.00     0.000 C 
BRANCH   3   4
ATOM      4  C   UNL     1      41.969  56.739  58.834  1.00  0.00    -0.000 C 
BRANCH   4   5
ATOM      5  C   UNL     1      42.649  55.416  59.237  1.00  0.00    -0.000 C 
BRANCH   5   6
ATOM      6  C   UNL     1      42.170  54.857  60.594  1.00  0.00    -0.000 C 
BRANCH   6   7
ATOM      7  C   UNL     1      41.075  53.788  60.424  1.00  0.00    -0.000 C 
BRANCH   7   8
ATOM      8  C   UNL     1      39.801  54.106  61.228  1.00  0.00    -0.000 C 
BRANCH   8   9
ATOM      9  C   UNL     1      38.585  54.505  60.370  1.00  0.00    -0.000 C 
BRANCH   9  10
ATOM     10  C   UNL     1      38.373  56.025  60.299  1.00  0.00    -0.000 C 
BRANCH  10  11
ATOM     11  C   UNL     1      36.930  56.358  59.901  1.00  0.00    -0.003 C 
ATOM     12  C   UNL     1      36.227  55.142  59.302  1.00  0.00     0.004 C 
ENDBRANCH  10  11
ENDBRANCH   9  10
ENDBRANCH   8   9
ENDBRANCH   7   8
ENDBRANCH   6   7
ENDBRANCH   5   6
ENDBRANCH   4   5
ENDBRANCH   3   4
ENDBRANCH   2   3
ENDBRANCH   1   2
BRANCH   1  13
ATOM     13  C   UNL     1      45.343  57.791  60.023  1.00  0.00     0.000 C 
BRANCH  13  14
ATOM     14  C   UNL     1      46.759  58.370  60.178  1.00  0.00     0.000 C 
BRANCH  14  15
ATOM     15  C   UNL     1      46.868  59.817  59.662  1.00  0.00     0.000 C 
BRANCH  15  16
ATOM     16  C   UNL     1      46.248  59.993  58.268  1.00  0.00     0.000 C 
BRANCH  16  17
ATOM     17  C   UNL     1      45.458  61.308  58.136  1.00  0.00     0.000 C 
BRANCH  17  18
ATOM     18  C   UNL     1      44.768  61.714  59.449  1.00  0.00     0.000 C 
BRANCH  18  19
ATOM     19  C   UNL     1      43.307  62.147  59.239  1.00  0.00     0.000 C 
BRANCH  19  20
ATOM     20  C   UNL     1      42.656  61.469  58.019  1.00  0.00     0.006 C 
BRANCH  20  21
ATOM     21  C   UNL     1      41.232  61.955  57.705  1.00  0.00     0.053 C 
BRANCH  21  22
ATOM     22  C   UNL     1      40.519  61.034  56.763  1.00  0.00     0.041 C 
ATOM     23  O   UNL     1      40.497  61.284  55.530  1.00  0.00    -0.550 OA
ATOM     24  O   UNL     1      39.900  59.887  57.245  1.00  0.00    -0.550 OA
ENDBRANCH  21  22
ENDBRANCH  20  21
ENDBRANCH  19  20
ENDBRANCH  18  19
ENDBRANCH  17  18
ENDBRANCH  16  17
ENDBRANCH  15  16
ENDBRANCH  14  15
ENDBRANCH  13  14
ENDBRANCH   1  13
TORSDOF 20
ENDMDL
