MODEL 1
REMARK VINA RESULT:    -7.359      0.000      0.000
REMARK INTER + INTRA:         -12.622
REMARK INTER:                 -10.801
REMARK INTRA:                  -1.821
REMARK UNBOUND:                -1.821
REMARK SMILES O=c1c(O[C@@H]2O[C@@H](CO)[C@@H](O)[C@@H](O)[C@H]2O)c(-c2ccc(O)c(O)c2)oc2cc(O)cc(O)c12
REMARK SMILES IDX 4 1 3 2 16 3 25 4 2 5 26 6 1 7 33 8 27 9 31 10 28 11 30 12
REMARK SMILES IDX 17 13 20 14 19 15 22 16 18 17 24 18 21 19 23 21 32 23 29 25
REMARK SMILES IDX 5 27 14 28 6 29 12 30 7 31 10 32 15 33 13 35 8 37 9 38 11 40
REMARK H PARENT 21 20 23 22 32 24 29 26 15 34 13 36 9 39 11 41
REMARK Flexibility Score: inf
ROOT
ATOM      1  O   UNL     1       0.146 -22.007  26.425  1.00  0.00    -0.454 OA
ENDROOT
BRANCH   1   2
ATOM      2  C   UNL     1       0.822 -22.861  27.321  1.00  0.00     0.214 A 
ATOM      3  C   UNL     1       0.814 -22.530  28.688  1.00  0.00     0.180 A 
ATOM      4  O   UNL     1       1.394 -23.327  29.578  1.00  0.00    -0.452 OA
ATOM      5  C   UNL     1       1.493 -24.042  26.929  1.00  0.00     0.239 A 
ATOM      6  C   UNL     1       2.021 -24.447  29.256  1.00  0.00     0.146 A 
ATOM      7  O   UNL     1       1.577 -24.357  25.710  1.00  0.00    -0.285 OA
ATOM      8  C   UNL     1       2.110 -24.854  27.908  1.00  0.00     0.111 A 
ATOM      9  C   UNL     1       2.605 -25.215  30.273  1.00  0.00     0.094 A 
ATOM     10  C   UNL     1       2.748 -26.081  27.603  1.00  0.00     0.134 A 
ATOM     11  C   UNL     1       3.215 -26.437  29.965  1.00  0.00     0.123 A 
ATOM     12  C   UNL     1       3.292 -26.859  28.634  1.00  0.00     0.093 A 
BRANCH   3  13
ATOM     13  C   UNL     1       0.288 -21.234  29.179  1.00  0.00     0.025 A 
ATOM     14  C   UNL     1      -0.655 -18.708  30.001  1.00  0.00     0.157 A 
ATOM     15  C   UNL     1       0.713 -18.924  29.817  1.00  0.00     0.051 A 
ATOM     16  C   UNL     1      -1.561 -19.768  29.805  1.00  0.00     0.158 A 
ATOM     17  C   UNL     1       1.186 -20.179  29.420  1.00  0.00     0.016 A 
ATOM     18  C   UNL     1      -1.084 -21.026  29.402  1.00  0.00     0.062 A 
BRANCH  14  19
ATOM     19  O   UNL     1      -1.105 -17.438  30.372  1.00  0.00    -0.504 OA
ATOM     20  H   UNL     1      -0.702 -16.930  31.152  1.00  0.00     0.293 HD
ENDBRANCH  14  19
BRANCH  16  21
ATOM     21  O   UNL     1      -2.925 -19.565  30.010  1.00  0.00    -0.504 OA
ATOM     22  H   UNL     1      -3.525 -19.183  29.282  1.00  0.00     0.293 HD
ENDBRANCH  16  21
ENDBRANCH   3  13
BRANCH  10  23
ATOM     23  O   UNL     1       2.838 -26.535  26.285  1.00  0.00    -0.507 OA
ATOM     24  H   UNL     1       3.462 -26.103  25.611  1.00  0.00     0.293 HD
ENDBRANCH  10  23
BRANCH  11  25
ATOM     25  O   UNL     1       3.743 -27.242  30.968  1.00  0.00    -0.508 OA
ATOM     26  H   UNL     1       3.358 -28.157  31.173  1.00  0.00     0.293 HD
ENDBRANCH  11  25
ENDBRANCH   1   2
BRANCH   1  27
ATOM     27  C   UNL     1       0.737 -21.009  25.591  1.00  0.00     0.339 C 
ATOM     28  C   UNL     1       0.373 -21.302  24.102  1.00  0.00     0.214 C 
ATOM     29  O   UNL     1       0.318 -19.722  26.038  1.00  0.00    -0.332 OA
ATOM     30  C   UNL     1       0.271 -19.981  23.297  1.00  0.00     0.180 C 
ATOM     31  C   UNL     1      -0.924 -19.360  25.476  1.00  0.00     0.179 C 
ATOM     32  C   UNL     1      -0.718 -18.997  23.984  1.00  0.00     0.177 C 
BRANCH  28  33
ATOM     33  O   UNL     1       1.312 -22.182  23.534  1.00  0.00    -0.384 OA
ATOM     34  H   UNL     1       1.258 -23.028  24.057  1.00  0.00     0.211 HD
ENDBRANCH  28  33
BRANCH  30  35
ATOM     35  O   UNL     1       1.546 -19.395  23.166  1.00  0.00    -0.387 OA
ATOM     36  H   UNL     1       1.413 -18.483  22.786  1.00  0.00     0.211 HD
ENDBRANCH  30  35
BRANCH  31  37
ATOM     37  C   UNL     1      -1.566 -18.245  26.319  1.00  0.00     0.191 C 
BRANCH  37  38
ATOM     38  O   UNL     1      -2.726 -18.688  26.973  1.00  0.00    -0.394 OA
ATOM     39  H   UNL     1      -2.588 -18.516  27.946  1.00  0.00     0.210 HD
ENDBRANCH  37  38
ENDBRANCH  31  37
BRANCH  32  40
ATOM     40  O   UNL     1      -0.282 -17.672  23.829  1.00  0.00    -0.387 OA
ATOM     41  H   UNL     1      -0.410 -17.238  24.713  1.00  0.00     0.211 HD
ENDBRANCH  32  40
ENDBRANCH   1  27
TORSDOF 12
ENDMDL
MODEL 2
REMARK VINA RESULT:    -7.348      1.928      6.837
REMARK INTER + INTRA:         -12.605
REMARK INTER:                 -11.029
REMARK INTRA:                  -1.576
REMARK UNBOUND:                -1.821
REMARK SMILES O=c1c(O[C@@H]2O[C@@H](CO)[C@@H](O)[C@@H](O)[C@H]2O)c(-c2ccc(O)c(O)c2)oc2cc(O)cc(O)c12
REMARK SMILES IDX 4 1 3 2 16 3 25 4 2 5 26 6 1 7 33 8 27 9 31 10 28 11 30 12
REMARK SMILES IDX 17 13 20 14 19 15 22 16 18 17 24 18 21 19 23 21 32 23 29 25
REMARK SMILES IDX 5 27 14 28 6 29 12 30 7 31 10 32 15 33 13 35 8 37 9 38 11 40
REMARK H PARENT 21 20 23 22 32 24 29 26 15 34 13 36 9 39 11 41
REMARK Flexibility Score: inf
ROOT
ATOM      1  O   UNL     1       2.204 -23.226  27.933  1.00  0.00    -0.454 OA
ENDROOT
BRANCH   1   2
ATOM      2  C   UNL     1       1.431 -22.412  27.080  1.00  0.00     0.214 A 
ATOM      3  C   UNL     1       0.292 -21.782  27.616  1.00  0.00     0.180 A 
ATOM      4  O   UNL     1      -0.443 -20.967  26.867  1.00  0.00    -0.452 OA
ATOM      5  C   UNL     1       1.742 -22.175  25.721  1.00  0.00     0.239 A 
ATOM      6  C   UNL     1      -0.181 -20.708  25.596  1.00  0.00     0.146 A 
ATOM      7  O   UNL     1       2.719 -22.756  25.177  1.00  0.00    -0.285 OA
ATOM      8  C   UNL     1       0.924 -21.311  24.958  1.00  0.00     0.111 A 
ATOM      9  C   UNL     1      -1.023 -19.835  24.894  1.00  0.00     0.094 A 
ATOM     10  C   UNL     1       1.202 -20.976  23.610  1.00  0.00     0.134 A 
ATOM     11  C   UNL     1      -0.727 -19.493  23.568  1.00  0.00     0.123 A 
ATOM     12  C   UNL     1       0.375 -20.070  22.931  1.00  0.00     0.093 A 
BRANCH   3  13
ATOM     13  C   UNL     1      -0.214 -22.098  28.973  1.00  0.00     0.025 A 
ATOM     14  C   UNL     1      -1.172 -22.832  31.521  1.00  0.00     0.157 A 
ATOM     15  C   UNL     1      -1.880 -23.190  30.371  1.00  0.00     0.051 A 
ATOM     16  C   UNL     1       0.008 -22.073  31.404  1.00  0.00     0.158 A 
ATOM     17  C   UNL     1      -1.414 -22.817  29.105  1.00  0.00     0.016 A 
ATOM     18  C   UNL     1       0.477 -21.704  30.132  1.00  0.00     0.062 A 
BRANCH  14  19
ATOM     19  O   UNL     1      -1.644 -23.238  32.771  1.00  0.00    -0.504 OA
ATOM     20  H   UNL     1      -2.476 -22.837  33.189  1.00  0.00     0.293 HD
ENDBRANCH  14  19
BRANCH  16  21
ATOM     21  O   UNL     1       0.707 -21.692  32.549  1.00  0.00    -0.504 OA
ATOM     22  H   UNL     1       0.573 -22.163  33.441  1.00  0.00     0.293 HD
ENDBRANCH  16  21
ENDBRANCH   3  13
BRANCH  10  23
ATOM     23  O   UNL     1       2.298 -21.530  22.944  1.00  0.00    -0.507 OA
ATOM     24  H   UNL     1       2.696 -22.422  23.218  1.00  0.00     0.293 HD
ENDBRANCH  10  23
BRANCH  11  25
ATOM     25  O   UNL     1      -1.515 -18.580  22.877  1.00  0.00    -0.508 OA
ATOM     26  H   UNL     1      -1.147 -17.689  22.565  1.00  0.00     0.293 HD
ENDBRANCH  11  25
ENDBRANCH   1   2
BRANCH   1  27
ATOM     27  C   UNL     1       1.966 -24.599  28.246  1.00  0.00     0.339 C 
ATOM     28  C   UNL     1       2.905 -25.494  27.377  1.00  0.00     0.214 C 
ATOM     29  O   UNL     1       2.130 -24.792  29.649  1.00  0.00    -0.332 OA
ATOM     30  C   UNL     1       3.279 -26.791  28.142  1.00  0.00     0.180 C 
ATOM     31  C   UNL     1       3.482 -25.020  29.983  1.00  0.00     0.179 C 
ATOM     32  C   UNL     1       3.879 -26.450  29.536  1.00  0.00     0.177 C 
BRANCH  28  33
ATOM     33  O   UNL     1       2.300 -25.780  26.141  1.00  0.00    -0.384 OA
ATOM     34  H   UNL     1       2.861 -26.480  25.707  1.00  0.00     0.211 HD
ENDBRANCH  28  33
BRANCH  30  35
ATOM     35  O   UNL     1       2.146 -27.616  28.275  1.00  0.00    -0.387 OA
ATOM     36  H   UNL     1       1.361 -27.094  27.950  1.00  0.00     0.211 HD
ENDBRANCH  30  35
BRANCH  31  37
ATOM     37  C   UNL     1       3.697 -24.739  31.479  1.00  0.00     0.191 C 
BRANCH  37  38
ATOM     38  O   UNL     1       3.109 -23.527  31.872  1.00  0.00    -0.394 OA
ATOM     39  H   UNL     1       3.847 -22.953  32.221  1.00  0.00     0.210 HD
ENDBRANCH  37  38
ENDBRANCH  31  37
BRANCH  32  40
ATOM     40  O   UNL     1       3.500 -27.412  30.483  1.00  0.00    -0.387 OA
ATOM     41  H   UNL     1       4.126 -27.305  31.247  1.00  0.00     0.211 HD
ENDBRANCH  32  40
ENDBRANCH   1  27
TORSDOF 12
ENDMDL
MODEL 3
REMARK VINA RESULT:    -7.319      2.140      7.066
REMARK INTER + INTRA:         -12.562
REMARK INTER:                 -11.005
REMARK INTRA:                  -1.557
REMARK UNBOUND:                -1.821
REMARK SMILES O=c1c(O[C@@H]2O[C@@H](CO)[C@@H](O)[C@@H](O)[C@H]2O)c(-c2ccc(O)c(O)c2)oc2cc(O)cc(O)c12
REMARK SMILES IDX 4 1 3 2 16 3 25 4 2 5 26 6 1 7 33 8 27 9 31 10 28 11 30 12
REMARK SMILES IDX 17 13 20 14 19 15 22 16 18 17 24 18 21 19 23 21 32 23 29 25
REMARK SMILES IDX 5 27 14 28 6 29 12 30 7 31 10 32 15 33 13 35 8 37 9 38 11 40
REMARK H PARENT 21 20 23 22 32 24 29 26 15 34 13 36 9 39 11 41
REMARK Flexibility Score: inf
ROOT
ATOM      1  O   UNL     1       0.689 -20.348  26.479  1.00  0.00    -0.454 OA
ENDROOT
BRANCH   1   2
ATOM      2  C   UNL     1      -0.105 -19.195  26.649  1.00  0.00     0.214 A 
ATOM      3  C   UNL     1      -0.736 -19.000  27.892  1.00  0.00     0.180 A 
ATOM      4  O   UNL     1      -1.456 -17.907  28.118  1.00  0.00    -0.452 OA
ATOM      5  C   UNL     1      -0.292 -18.213  25.649  1.00  0.00     0.239 A 
ATOM      6  C   UNL     1      -1.646 -16.957  27.216  1.00  0.00     0.146 A 
ATOM      7  O   UNL     1       0.205 -18.365  24.501  1.00  0.00    -0.285 OA
ATOM      8  C   UNL     1      -1.078 -17.072  25.929  1.00  0.00     0.111 A 
ATOM      9  C   UNL     1      -2.427 -15.845  27.555  1.00  0.00     0.094 A 
ATOM     10  C   UNL     1      -1.263 -16.016  25.003  1.00  0.00     0.134 A 
ATOM     11  C   UNL     1      -2.586 -14.796  26.641  1.00  0.00     0.123 A 
ATOM     12  C   UNL     1      -2.013 -14.890  25.369  1.00  0.00     0.093 A 
BRANCH   3  13
ATOM     13  C   UNL     1      -0.743 -20.046  28.941  1.00  0.00     0.025 A 
ATOM     14  C   UNL     1      -0.787 -21.939  31.030  1.00  0.00     0.157 A 
ATOM     15  C   UNL     1       0.087 -20.850  31.083  1.00  0.00     0.051 A 
ATOM     16  C   UNL     1      -1.625 -22.106  29.911  1.00  0.00     0.158 A 
ATOM     17  C   UNL     1       0.120 -19.915  30.043  1.00  0.00     0.016 A 
ATOM     18  C   UNL     1      -1.594 -21.163  28.870  1.00  0.00     0.062 A 
BRANCH  14  19
ATOM     19  O   UNL     1      -0.820 -22.844  32.094  1.00  0.00    -0.504 OA
ATOM     20  H   UNL     1      -0.810 -23.847  31.948  1.00  0.00     0.293 HD
ENDBRANCH  14  19
BRANCH  16  21
ATOM     21  O   UNL     1      -2.483 -23.203  29.841  1.00  0.00    -0.504 OA
ATOM     22  H   UNL     1      -2.203 -24.075  29.396  1.00  0.00     0.293 HD
ENDBRANCH  16  21
ENDBRANCH   3  13
BRANCH  10  23
ATOM     23  O   UNL     1      -0.701 -16.075  23.725  1.00  0.00    -0.507 OA
ATOM     24  H   UNL     1      -0.820 -16.883  23.124  1.00  0.00     0.293 HD
ENDBRANCH  10  23
BRANCH  11  25
ATOM     25  O   UNL     1      -3.305 -13.656  26.984  1.00  0.00    -0.508 OA
ATOM     26  H   UNL     1      -3.659 -13.514  27.923  1.00  0.00     0.293 HD
ENDBRANCH  11  25
ENDBRANCH   1   2
BRANCH   1  27
ATOM     27  C   UNL     1       0.292 -21.572  25.860  1.00  0.00     0.339 C 
ATOM     28  C   UNL     1       0.798 -21.588  24.383  1.00  0.00     0.214 C 
ATOM     29  O   UNL     1       0.771 -22.665  26.640  1.00  0.00    -0.332 OA
ATOM     30  C   UNL     1       1.111 -23.039  23.933  1.00  0.00     0.180 C 
ATOM     31  C   UNL     1       2.098 -23.000  26.297  1.00  0.00     0.179 C 
ATOM     32  C   UNL     1       2.100 -23.718  24.923  1.00  0.00     0.177 C 
BRANCH  28  33
ATOM     33  O   UNL     1      -0.146 -20.977  23.538  1.00  0.00    -0.384 OA
ATOM     34  H   UNL     1      -1.043 -21.251  23.873  1.00  0.00     0.211 HD
ENDBRANCH  28  33
BRANCH  30  35
ATOM     35  O   UNL     1      -0.082 -23.782  23.831  1.00  0.00    -0.387 OA
ATOM     36  H   UNL     1      -0.055 -24.262  22.958  1.00  0.00     0.211 HD
ENDBRANCH  30  35
BRANCH  31  37
ATOM     37  C   UNL     1       2.737 -23.809  27.437  1.00  0.00     0.191 C 
BRANCH  37  38
ATOM     38  O   UNL     1       3.832 -24.564  26.992  1.00  0.00    -0.394 OA
ATOM     39  H   UNL     1       4.033 -24.256  26.065  1.00  0.00     0.210 HD
ENDBRANCH  37  38
ENDBRANCH  31  37
BRANCH  32  40
ATOM     40  O   UNL     1       1.806 -25.083  25.053  1.00  0.00    -0.387 OA
ATOM     41  H   UNL     1       1.008 -25.136  25.641  1.00  0.00     0.211 HD
ENDBRANCH  32  40
ENDBRANCH   1  27
TORSDOF 12
ENDMDL
MODEL 4
REMARK VINA RESULT:    -7.275      2.432      5.094
REMARK INTER + INTRA:         -12.499
REMARK INTER:                 -10.580
REMARK INTRA:                  -1.919
REMARK UNBOUND:                -1.821
REMARK SMILES O=c1c(O[C@@H]2O[C@@H](CO)[C@@H](O)[C@@H](O)[C@H]2O)c(-c2ccc(O)c(O)c2)oc2cc(O)cc(O)c12
REMARK SMILES IDX 4 1 3 2 16 3 25 4 2 5 26 6 1 7 33 8 27 9 31 10 28 11 30 12
REMARK SMILES IDX 17 13 20 14 19 15 22 16 18 17 24 18 21 19 23 21 32 23 29 25
REMARK SMILES IDX 5 27 14 28 6 29 12 30 7 31 10 32 15 33 13 35 8 37 9 38 11 40
REMARK H PARENT 21 20 23 22 32 24 29 26 15 34 13 36 9 39 11 41
REMARK Flexibility Score: inf
ROOT
ATOM      1  O   UNL     1      -0.235 -20.771  28.329  1.00  0.00    -0.454 OA
ENDROOT
BRANCH   1   2
ATOM      2  C   UNL     1      -0.398 -22.114  28.728  1.00  0.00     0.214 A 
ATOM      3  C   UNL     1       0.295 -23.108  28.011  1.00  0.00     0.180 A 
ATOM      4  O   UNL     1       0.214 -24.382  28.377  1.00  0.00    -0.452 OA
ATOM      5  C   UNL     1      -1.202 -22.521  29.817  1.00  0.00     0.239 A 
ATOM      6  C   UNL     1      -0.516 -24.805  29.397  1.00  0.00     0.146 A 
ATOM      7  O   UNL     1      -1.886 -21.678  30.458  1.00  0.00    -0.285 OA
ATOM      8  C   UNL     1      -1.271 -23.890  30.162  1.00  0.00     0.111 A 
ATOM      9  C   UNL     1      -0.537 -26.174  29.697  1.00  0.00     0.094 A 
ATOM     10  C   UNL     1      -2.005 -24.369  31.274  1.00  0.00     0.134 A 
ATOM     11  C   UNL     1      -1.247 -26.635  30.812  1.00  0.00     0.123 A 
ATOM     12  C   UNL     1      -1.984 -25.735  31.588  1.00  0.00     0.093 A 
BRANCH   3  13
ATOM     13  C   UNL     1       1.025 -22.807  26.757  1.00  0.00     0.025 A 
ATOM     14  C   UNL     1       2.475 -22.358  24.381  1.00  0.00     0.157 A 
ATOM     15  C   UNL     1       3.146 -22.597  25.583  1.00  0.00     0.051 A 
ATOM     16  C   UNL     1       1.068 -22.310  24.367  1.00  0.00     0.158 A 
ATOM     17  C   UNL     1       2.430 -22.808  26.766  1.00  0.00     0.016 A 
ATOM     18  C   UNL     1       0.350 -22.528  25.555  1.00  0.00     0.062 A 
BRANCH  14  19
ATOM     19  O   UNL     1       3.212 -22.176  23.208  1.00  0.00    -0.504 OA
ATOM     20  H   UNL     1       4.225 -22.147  23.208  1.00  0.00     0.293 HD
ENDBRANCH  14  19
BRANCH  16  21
ATOM     21  O   UNL     1       0.391 -22.049  23.176  1.00  0.00    -0.504 OA
ATOM     22  H   UNL     1       0.095 -22.797  22.553  1.00  0.00     0.293 HD
ENDBRANCH  16  21
ENDBRANCH   3  13
BRANCH  10  23
ATOM     23  O   UNL     1      -2.747 -23.498  32.075  1.00  0.00    -0.507 OA
ATOM     24  H   UNL     1      -3.592 -23.048  31.737  1.00  0.00     0.293 HD
ENDBRANCH  10  23
BRANCH  11  25
ATOM     25  O   UNL     1      -1.227 -27.981  31.161  1.00  0.00    -0.508 OA
ATOM     26  H   UNL     1      -2.078 -28.487  31.377  1.00  0.00     0.293 HD
ENDBRANCH  11  25
ENDBRANCH   1   2
BRANCH   1  27
ATOM     27  C   UNL     1      -1.243 -19.917  27.786  1.00  0.00     0.339 C 
ATOM     28  C   UNL     1      -1.323 -18.611  28.638  1.00  0.00     0.214 C 
ATOM     29  O   UNL     1      -0.962 -19.683  26.408  1.00  0.00    -0.332 OA
ATOM     30  C   UNL     1      -1.742 -17.409  27.752  1.00  0.00     0.180 C 
ATOM     31  C   UNL     1      -0.058 -18.612  26.241  1.00  0.00     0.179 C 
ATOM     32  C   UNL     1      -0.796 -17.278  26.525  1.00  0.00     0.177 C 
BRANCH  28  33
ATOM     33  O   UNL     1      -2.204 -18.788  29.719  1.00  0.00    -0.384 OA
ATOM     34  H   UNL     1      -2.900 -19.433  29.414  1.00  0.00     0.211 HD
ENDBRANCH  28  33
BRANCH  30  35
ATOM     35  O   UNL     1      -3.080 -17.558  27.337  1.00  0.00    -0.387 OA
ATOM     36  H   UNL     1      -3.317 -16.744  26.812  1.00  0.00     0.211 HD
ENDBRANCH  30  35
BRANCH  31  37
ATOM     37  C   UNL     1       0.589 -18.697  24.849  1.00  0.00     0.191 C 
BRANCH  37  38
ATOM     38  O   UNL     1      -0.316 -19.153  23.879  1.00  0.00    -0.394 OA
ATOM     39  H   UNL     1      -0.454 -20.126  24.053  1.00  0.00     0.210 HD
ENDBRANCH  37  38
ENDBRANCH  31  37
BRANCH  32  40
ATOM     40  O   UNL     1      -1.507 -16.832  25.401  1.00  0.00    -0.387 OA
ATOM     41  H   UNL     1      -2.468 -16.972  25.612  1.00  0.00     0.211 HD
ENDBRANCH  32  40
ENDBRANCH   1  27
TORSDOF 12
ENDMDL
MODEL 5
REMARK VINA RESULT:    -6.864      3.761      8.366
REMARK INTER + INTRA:         -11.895
REMARK INTER:                 -10.055
REMARK INTRA:                  -1.840
REMARK UNBOUND:                -1.821
REMARK SMILES O=c1c(O[C@@H]2O[C@@H](CO)[C@@H](O)[C@@H](O)[C@H]2O)c(-c2ccc(O)c(O)c2)oc2cc(O)cc(O)c12
REMARK SMILES IDX 4 1 3 2 16 3 25 4 2 5 26 6 1 7 33 8 27 9 31 10 28 11 30 12
REMARK SMILES IDX 17 13 20 14 19 15 22 16 18 17 24 18 21 19 23 21 32 23 29 25
REMARK SMILES IDX 5 27 14 28 6 29 12 30 7 31 10 32 15 33 13 35 8 37 9 38 11 40
REMARK H PARENT 21 20 23 22 32 24 29 26 15 34 13 36 9 39 11 41
REMARK Flexibility Score: inf
ROOT
ATOM      1  O   UNL     1      -0.639 -16.717  27.288  1.00  0.00    -0.454 OA
ENDROOT
BRANCH   1   2
ATOM      2  C   UNL     1      -1.230 -15.885  28.262  1.00  0.00     0.214 A 
ATOM      3  C   UNL     1      -1.348 -16.379  29.574  1.00  0.00     0.180 A 
ATOM      4  O   UNL     1      -1.853 -15.616  30.537  1.00  0.00    -0.452 OA
ATOM      5  C   UNL     1      -1.695 -14.575  28.001  1.00  0.00     0.239 A 
ATOM      6  C   UNL     1      -2.288 -14.382  30.341  1.00  0.00     0.146 A 
ATOM      7  O   UNL     1      -1.663 -14.105  26.832  1.00  0.00    -0.285 OA
ATOM      8  C   UNL     1      -2.238 -13.805  29.054  1.00  0.00     0.111 A 
ATOM      9  C   UNL     1      -2.807 -13.664  31.426  1.00  0.00     0.094 A 
ATOM     10  C   UNL     1      -2.670 -12.466  28.887  1.00  0.00     0.134 A 
ATOM     11  C   UNL     1      -3.210 -12.333  31.256  1.00  0.00     0.123 A 
ATOM     12  C   UNL     1      -3.149 -11.745  29.990  1.00  0.00     0.093 A 
BRANCH   3  13
ATOM     13  C   UNL     1      -1.049 -17.790  29.912  1.00  0.00     0.025 A 
ATOM     14  C   UNL     1      -0.482 -20.440  30.688  1.00  0.00     0.157 A 
ATOM     15  C   UNL     1       0.379 -19.400  31.049  1.00  0.00     0.051 A 
ATOM     16  C   UNL     1      -1.619 -20.164  29.906  1.00  0.00     0.158 A 
ATOM     17  C   UNL     1       0.107 -18.085  30.655  1.00  0.00     0.016 A 
ATOM     18  C   UNL     1      -1.893 -18.843  29.516  1.00  0.00     0.062 A 
BRANCH  14  19
ATOM     19  O   UNL     1      -0.202 -21.741  31.115  1.00  0.00    -0.504 OA
ATOM     20  H   UNL     1      -0.848 -22.508  30.965  1.00  0.00     0.293 HD
ENDBRANCH  14  19
BRANCH  16  21
ATOM     21  O   UNL     1      -2.469 -21.201  29.522  1.00  0.00    -0.504 OA
ATOM     22  H   UNL     1      -3.114 -21.635  30.178  1.00  0.00     0.293 HD
ENDBRANCH  16  21
ENDBRANCH   3  13
BRANCH  10  23
ATOM     23  O   UNL     1      -2.617 -11.845  27.637  1.00  0.00    -0.507 OA
ATOM     24  H   UNL     1      -3.446 -11.461  27.195  1.00  0.00     0.293 HD
ENDBRANCH  10  23
BRANCH  11  25
ATOM     25  O   UNL     1      -3.669 -11.586  32.335  1.00  0.00    -0.508 OA
ATOM     26  H   UNL     1      -3.051 -10.982  32.865  1.00  0.00     0.293 HD
ENDBRANCH  11  25
ENDBRANCH   1   2
BRANCH   1  27
ATOM     27  C   UNL     1      -1.220 -17.121  26.048  1.00  0.00     0.339 C 
ATOM     28  C   UNL     1      -0.223 -16.807  24.888  1.00  0.00     0.214 C 
ATOM     29  O   UNL     1      -1.585 -18.496  26.130  1.00  0.00    -0.332 OA
ATOM     30  C   UNL     1      -0.380 -17.841  23.742  1.00  0.00     0.180 C 
ATOM     31  C   UNL     1      -0.497 -19.338  25.818  1.00  0.00     0.179 C 
ATOM     32  C   UNL     1      -0.242 -19.290  24.290  1.00  0.00     0.177 C 
BRANCH  28  33
ATOM     33  O   UNL     1      -0.409 -15.492  24.426  1.00  0.00    -0.384 OA
ATOM     34  H   UNL     1      -1.360 -15.261  24.610  1.00  0.00     0.211 HD
ENDBRANCH  28  33
BRANCH  30  35
ATOM     35  O   UNL     1      -1.623 -17.666  23.101  1.00  0.00    -0.387 OA
ATOM     36  H   UNL     1      -2.060 -16.873  23.518  1.00  0.00     0.211 HD
ENDBRANCH  30  35
BRANCH  31  37
ATOM     37  C   UNL     1      -0.760 -20.747  26.374  1.00  0.00     0.191 C 
BRANCH  37  38
ATOM     38  O   UNL     1      -2.132 -21.022  26.473  1.00  0.00    -0.394 OA
ATOM     39  H   UNL     1      -2.328 -21.152  27.442  1.00  0.00     0.210 HD
ENDBRANCH  37  38
ENDBRANCH  31  37
BRANCH  32  40
ATOM     40  O   UNL     1      -1.094 -20.162  23.596  1.00  0.00    -0.387 OA
ATOM     41  H   UNL     1      -1.211 -20.954  24.183  1.00  0.00     0.211 HD
ENDBRANCH  32  40
ENDBRANCH   1  27
TORSDOF 12
ENDMDL
MODEL 6
REMARK VINA RESULT:    -6.819      4.964      8.078
REMARK INTER + INTRA:         -11.828
REMARK INTER:                 -10.187
REMARK INTRA:                  -1.641
REMARK UNBOUND:                -1.821
REMARK SMILES O=c1c(O[C@@H]2O[C@@H](CO)[C@@H](O)[C@@H](O)[C@H]2O)c(-c2ccc(O)c(O)c2)oc2cc(O)cc(O)c12
REMARK SMILES IDX 4 1 3 2 16 3 25 4 2 5 26 6 1 7 33 8 27 9 31 10 28 11 30 12
REMARK SMILES IDX 17 13 20 14 19 15 22 16 18 17 24 18 21 19 23 21 32 23 29 25
REMARK SMILES IDX 5 27 14 28 6 29 12 30 7 31 10 32 15 33 13 35 8 37 9 38 11 40
REMARK H PARENT 21 20 23 22 32 24 29 26 15 34 13 36 9 39 11 41
REMARK Flexibility Score: inf
ROOT
ATOM      1  O   UNL     1      -0.620 -14.148  27.357  1.00  0.00    -0.454 OA
ENDROOT
BRANCH   1   2
ATOM      2  C   UNL     1      -0.855 -15.511  27.081  1.00  0.00     0.214 A 
ATOM      3  C   UNL     1      -2.095 -16.060  27.455  1.00  0.00     0.180 A 
ATOM      4  O   UNL     1      -2.384 -17.326  27.175  1.00  0.00    -0.452 OA
ATOM      5  C   UNL     1       0.076 -16.355  26.433  1.00  0.00     0.239 A 
ATOM      6  C   UNL     1      -1.548 -18.147  26.559  1.00  0.00     0.146 A 
ATOM      7  O   UNL     1       1.222 -15.929  26.125  1.00  0.00    -0.285 OA
ATOM      8  C   UNL     1      -0.268 -17.700  26.167  1.00  0.00     0.111 A 
ATOM      9  C   UNL     1      -1.950 -19.467  26.315  1.00  0.00     0.094 A 
ATOM     10  C   UNL     1       0.584 -18.591  25.470  1.00  0.00     0.134 A 
ATOM     11  C   UNL     1      -1.109 -20.333  25.605  1.00  0.00     0.123 A 
ATOM     12  C   UNL     1       0.154 -19.897  25.195  1.00  0.00     0.093 A 
BRANCH   3  13
ATOM     13  C   UNL     1      -3.067 -15.310  28.286  1.00  0.00     0.025 A 
ATOM     14  C   UNL     1      -4.810 -13.808  29.915  1.00  0.00     0.157 A 
ATOM     15  C   UNL     1      -3.759 -14.530  30.485  1.00  0.00     0.051 A 
ATOM     16  C   UNL     1      -5.017 -13.860  28.523  1.00  0.00     0.158 A 
ATOM     17  C   UNL     1      -2.898 -15.286  29.681  1.00  0.00     0.016 A 
ATOM     18  C   UNL     1      -4.149 -14.615  27.717  1.00  0.00     0.062 A 
BRANCH  14  19
ATOM     19  O   UNL     1      -5.639 -13.040  30.736  1.00  0.00    -0.504 OA
ATOM     20  H   UNL     1      -5.362 -12.759  31.670  1.00  0.00     0.293 HD
ENDBRANCH  14  19
BRANCH  16  21
ATOM     21  O   UNL     1      -6.079 -13.161  27.950  1.00  0.00    -0.504 OA
ATOM     22  H   UNL     1      -6.277 -12.193  28.193  1.00  0.00     0.293 HD
ENDBRANCH  16  21
ENDBRANCH   3  13
BRANCH  10  23
ATOM     23  O   UNL     1       1.850 -18.186  25.041  1.00  0.00    -0.507 OA
ATOM     24  H   UNL     1       2.010 -17.271  24.633  1.00  0.00     0.293 HD
ENDBRANCH  10  23
BRANCH  11  25
ATOM     25  O   UNL     1      -1.518 -21.627  25.298  1.00  0.00    -0.508 OA
ATOM     26  H   UNL     1      -2.013 -22.201  25.970  1.00  0.00     0.293 HD
ENDBRANCH  11  25
ENDBRANCH   1   2
BRANCH   1  27
ATOM     27  C   UNL     1      -0.964 -13.039  26.525  1.00  0.00     0.339 C 
ATOM     28  C   UNL     1      -1.123 -11.763  27.410  1.00  0.00     0.214 C 
ATOM     29  O   UNL     1       0.016 -12.904  25.500  1.00  0.00    -0.332 OA
ATOM     30  C   UNL     1      -0.721 -10.495  26.612  1.00  0.00     0.180 C 
ATOM     31  C   UNL     1       1.121 -12.145  25.940  1.00  0.00     0.179 C 
ATOM     32  C   UNL     1       0.709 -10.652  26.021  1.00  0.00     0.177 C 
BRANCH  28  33
ATOM     33  O   UNL     1      -2.438 -11.669  27.899  1.00  0.00    -0.384 OA
ATOM     34  H   UNL     1      -2.383 -11.803  28.885  1.00  0.00     0.211 HD
ENDBRANCH  28  33
BRANCH  30  35
ATOM     35  O   UNL     1      -1.658 -10.249  25.591  1.00  0.00    -0.387 OA
ATOM     36  H   UNL     1      -1.826  -9.266  25.575  1.00  0.00     0.211 HD
ENDBRANCH  30  35
BRANCH  31  37
ATOM     37  C   UNL     1       2.331 -12.422  25.032  1.00  0.00     0.191 C 
BRANCH  37  38
ATOM     38  O   UNL     1       2.233 -13.669  24.398  1.00  0.00    -0.394 OA
ATOM     39  H   UNL     1       2.687 -13.577  23.515  1.00  0.00     0.210 HD
ENDBRANCH  37  38
ENDBRANCH  31  37
BRANCH  32  40
ATOM     40  O   UNL     1       0.796 -10.023  24.770  1.00  0.00    -0.387 OA
ATOM     41  H   UNL     1       0.057  -9.360  24.746  1.00  0.00     0.211 HD
ENDBRANCH  32  40
ENDBRANCH   1  27
TORSDOF 12
ENDMDL
MODEL 7
REMARK VINA RESULT:    -6.808      3.134      9.129
REMARK INTER + INTRA:         -11.813
REMARK INTER:                 -10.717
REMARK INTRA:                  -1.096
REMARK UNBOUND:                -1.821
REMARK SMILES O=c1c(O[C@@H]2O[C@@H](CO)[C@@H](O)[C@@H](O)[C@H]2O)c(-c2ccc(O)c(O)c2)oc2cc(O)cc(O)c12
REMARK SMILES IDX 4 1 3 2 16 3 25 4 2 5 26 6 1 7 33 8 27 9 31 10 28 11 30 12
REMARK SMILES IDX 17 13 20 14 19 15 22 16 18 17 24 18 21 19 23 21 32 23 29 25
REMARK SMILES IDX 5 27 14 28 6 29 12 30 7 31 10 32 15 33 13 35 8 37 9 38 11 40
REMARK H PARENT 21 20 23 22 32 24 29 26 15 34 13 36 9 39 11 41
REMARK Flexibility Score: inf
ROOT
ATOM      1  O   UNL     1      -0.429 -18.064  29.198  1.00  0.00    -0.454 OA
ENDROOT
BRANCH   1   2
ATOM      2  C   UNL     1      -1.300 -16.976  28.978  1.00  0.00     0.214 A 
ATOM      3  C   UNL     1      -1.946 -16.885  27.731  1.00  0.00     0.180 A 
ATOM      4  O   UNL     1      -2.812 -15.907  27.492  1.00  0.00    -0.452 OA
ATOM      5  C   UNL     1      -1.576 -15.981  29.943  1.00  0.00     0.239 A 
ATOM      6  C   UNL     1      -3.110 -14.963  28.370  1.00  0.00     0.146 A 
ATOM      7  O   UNL     1      -0.984 -15.985  31.056  1.00  0.00    -0.285 OA
ATOM      8  C   UNL     1      -2.494 -14.950  29.640  1.00  0.00     0.111 A 
ATOM      9  C   UNL     1      -4.035 -13.972  28.015  1.00  0.00     0.094 A 
ATOM     10  C   UNL     1      -2.870 -13.952  30.572  1.00  0.00     0.134 A 
ATOM     11  C   UNL     1      -4.416 -13.003  28.951  1.00  0.00     0.123 A 
ATOM     12  C   UNL     1      -3.827 -12.991  30.219  1.00  0.00     0.093 A 
BRANCH   3  13
ATOM     13  C   UNL     1      -1.597 -17.776  26.599  1.00  0.00     0.025 A 
ATOM     14  C   UNL     1      -0.801 -19.435  24.464  1.00  0.00     0.157 A 
ATOM     15  C   UNL     1      -0.522 -18.066  24.436  1.00  0.00     0.051 A 
ATOM     16  C   UNL     1      -1.513 -19.979  25.550  1.00  0.00     0.158 A 
ATOM     17  C   UNL     1      -0.925 -17.237  25.488  1.00  0.00     0.016 A 
ATOM     18  C   UNL     1      -1.913 -19.146  26.608  1.00  0.00     0.062 A 
BRANCH  14  19
ATOM     19  O   UNL     1      -0.364 -20.246  23.413  1.00  0.00    -0.504 OA
ATOM     20  H   UNL     1       0.609 -20.505  23.301  1.00  0.00     0.293 HD
ENDBRANCH  14  19
BRANCH  16  21
ATOM     21  O   UNL     1      -1.816 -21.339  25.574  1.00  0.00    -0.504 OA
ATOM     22  H   UNL     1      -1.264 -22.002  26.113  1.00  0.00     0.293 HD
ENDBRANCH  16  21
ENDBRANCH   3  13
BRANCH  10  23
ATOM     23  O   UNL     1      -2.305 -13.914  31.850  1.00  0.00    -0.507 OA
ATOM     24  H   UNL     1      -1.351 -14.214  32.023  1.00  0.00     0.293 HD
ENDBRANCH  10  23
BRANCH  11  25
ATOM     25  O   UNL     1      -5.380 -12.051  28.637  1.00  0.00    -0.508 OA
ATOM     26  H   UNL     1      -5.928 -11.592  29.355  1.00  0.00     0.293 HD
ENDBRANCH  11  25
ENDBRANCH   1   2
BRANCH   1  27
ATOM     27  C   UNL     1      -0.537 -19.046  30.230  1.00  0.00     0.339 C 
ATOM     28  C   UNL     1      -1.570 -20.134  29.796  1.00  0.00     0.214 C 
ATOM     29  O   UNL     1       0.758 -19.569  30.512  1.00  0.00    -0.332 OA
ATOM     30  C   UNL     1      -1.190 -21.513  30.395  1.00  0.00     0.180 C 
ATOM     31  C   UNL     1       1.091 -20.624  29.636  1.00  0.00     0.179 C 
ATOM     32  C   UNL     1       0.276 -21.883  30.027  1.00  0.00     0.177 C 
BRANCH  28  33
ATOM     33  O   UNL     1      -2.870 -19.749  30.171  1.00  0.00    -0.384 OA
ATOM     34  H   UNL     1      -3.462 -20.524  29.971  1.00  0.00     0.211 HD
ENDBRANCH  28  33
BRANCH  30  35
ATOM     35  O   UNL     1      -1.364 -21.498  31.793  1.00  0.00    -0.387 OA
ATOM     36  H   UNL     1      -2.281 -21.148  31.971  1.00  0.00     0.211 HD
ENDBRANCH  30  35
BRANCH  31  37
ATOM     37  C   UNL     1       2.614 -20.829  29.631  1.00  0.00     0.191 C 
BRANCH  37  38
ATOM     38  O   UNL     1       3.159 -20.726  30.920  1.00  0.00    -0.394 OA
ATOM     39  H   UNL     1       3.366 -19.761  31.066  1.00  0.00     0.210 HD
ENDBRANCH  37  38
ENDBRANCH  31  37
BRANCH  32  40
ATOM     40  O   UNL     1       0.884 -22.586  31.077  1.00  0.00    -0.387 OA
ATOM     41  H   UNL     1       0.233 -22.574  31.828  1.00  0.00     0.211 HD
ENDBRANCH  32  40
ENDBRANCH   1  27
TORSDOF 12
ENDMDL
MODEL 8
REMARK VINA RESULT:    -6.803      4.533      9.018
REMARK INTER + INTRA:         -11.805
REMARK INTER:                 -10.849
REMARK INTRA:                  -0.956
REMARK UNBOUND:                -1.821
REMARK SMILES O=c1c(O[C@@H]2O[C@@H](CO)[C@@H](O)[C@@H](O)[C@H]2O)c(-c2ccc(O)c(O)c2)oc2cc(O)cc(O)c12
REMARK SMILES IDX 4 1 3 2 16 3 25 4 2 5 26 6 1 7 33 8 27 9 31 10 28 11 30 12
REMARK SMILES IDX 17 13 20 14 19 15 22 16 18 17 24 18 21 19 23 21 32 23 29 25
REMARK SMILES IDX 5 27 14 28 6 29 12 30 7 31 10 32 15 33 13 35 8 37 9 38 11 40
REMARK H PARENT 21 20 23 22 32 24 29 26 15 34 13 36 9 39 11 41
REMARK Flexibility Score: inf
ROOT
ATOM      1  O   UNL     1      -1.505 -15.740  27.604  1.00  0.00    -0.454 OA
ENDROOT
BRANCH   1   2
ATOM      2  C   UNL     1      -2.399 -15.226  28.567  1.00  0.00     0.214 A 
ATOM      3  C   UNL     1      -2.103 -15.435  29.926  1.00  0.00     0.180 A 
ATOM      4  O   UNL     1      -2.887 -14.929  30.872  1.00  0.00    -0.452 OA
ATOM      5  C   UNL     1      -3.566 -14.495  28.247  1.00  0.00     0.239 A 
ATOM      6  C   UNL     1      -3.981 -14.229  30.617  1.00  0.00     0.146 A 
ATOM      7  O   UNL     1      -3.907 -14.325  27.044  1.00  0.00    -0.285 OA
ATOM      8  C   UNL     1      -4.379 -13.987  29.285  1.00  0.00     0.111 A 
ATOM      9  C   UNL     1      -4.741 -13.743  31.689  1.00  0.00     0.094 A 
ATOM     10  C   UNL     1      -5.530 -13.196  29.048  1.00  0.00     0.134 A 
ATOM     11  C   UNL     1      -5.864 -12.943  31.445  1.00  0.00     0.123 A 
ATOM     12  C   UNL     1      -6.258 -12.682  30.129  1.00  0.00     0.093 A 
BRANCH   3  13
ATOM     13  C   UNL     1      -1.003 -16.327  30.362  1.00  0.00     0.025 A 
ATOM     14  C   UNL     1       1.052 -18.001  31.322  1.00  0.00     0.157 A 
ATOM     15  C   UNL     1       1.000 -16.658  31.703  1.00  0.00     0.051 A 
ATOM     16  C   UNL     1       0.091 -18.509  30.428  1.00  0.00     0.158 A 
ATOM     17  C   UNL     1      -0.011 -15.821  31.220  1.00  0.00     0.016 A 
ATOM     18  C   UNL     1      -0.927 -17.669  29.948  1.00  0.00     0.062 A 
BRANCH  14  19
ATOM     19  O   UNL     1       2.057 -18.822  31.840  1.00  0.00    -0.504 OA
ATOM     20  H   UNL     1       2.702 -18.500  32.553  1.00  0.00     0.293 HD
ENDBRANCH  14  19
BRANCH  16  21
ATOM     21  O   UNL     1       0.150 -19.843  30.025  1.00  0.00    -0.504 OA
ATOM     22  H   UNL     1       0.791 -20.505  30.456  1.00  0.00     0.293 HD
ENDBRANCH  16  21
ENDBRANCH   3  13
BRANCH  10  23
ATOM     23  O   UNL     1      -5.949 -12.910  27.746  1.00  0.00    -0.507 OA
ATOM     24  H   UNL     1      -6.796 -12.384  27.560  1.00  0.00     0.293 HD
ENDBRANCH  10  23
BRANCH  11  25
ATOM     25  O   UNL     1      -6.593 -12.401  32.497  1.00  0.00    -0.508 OA
ATOM     26  H   UNL     1      -7.412 -12.866  32.872  1.00  0.00     0.293 HD
ENDBRANCH  11  25
ENDBRANCH   1   2
BRANCH   1  27
ATOM     27  C   UNL     1      -1.838 -16.194  26.291  1.00  0.00     0.339 C 
ATOM     28  C   UNL     1      -0.694 -15.795  25.306  1.00  0.00     0.214 C 
ATOM     29  O   UNL     1      -2.091 -17.596  26.334  1.00  0.00    -0.332 OA
ATOM     30  C   UNL     1      -0.571 -16.838  24.165  1.00  0.00     0.180 C 
ATOM     31  C   UNL     1      -0.898 -18.339  26.216  1.00  0.00     0.179 C 
ATOM     32  C   UNL     1      -0.400 -18.270  24.750  1.00  0.00     0.177 C 
BRANCH  28  33
ATOM     33  O   UNL     1      -0.915 -14.502  24.800  1.00  0.00    -0.384 OA
ATOM     34  H   UNL     1      -1.129 -13.925  25.584  1.00  0.00     0.211 HD
ENDBRANCH  28  33
BRANCH  30  35
ATOM     35  O   UNL     1      -1.702 -16.774  23.328  1.00  0.00    -0.387 OA
ATOM     36  H   UNL     1      -2.254 -17.583  23.515  1.00  0.00     0.211 HD
ENDBRANCH  30  35
BRANCH  31  37
ATOM     37  C   UNL     1      -1.125 -19.766  26.743  1.00  0.00     0.191 C 
BRANCH  37  38
ATOM     38  O   UNL     1      -2.359 -20.286  26.324  1.00  0.00    -0.394 OA
ATOM     39  H   UNL     1      -2.718 -20.818  27.087  1.00  0.00     0.210 HD
ENDBRANCH  37  38
ENDBRANCH  31  37
BRANCH  32  40
ATOM     40  O   UNL     1      -1.048 -19.213  23.939  1.00  0.00    -0.387 OA
ATOM     41  H   UNL     1      -1.236 -19.994  24.524  1.00  0.00     0.211 HD
ENDBRANCH  32  40
ENDBRANCH   1  27
TORSDOF 12
ENDMDL
MODEL 9
REMARK VINA RESULT:    -6.775      5.160      9.221
REMARK INTER + INTRA:         -11.765
REMARK INTER:                 -10.171
REMARK INTRA:                  -1.594
REMARK UNBOUND:                -1.821
REMARK SMILES O=c1c(O[C@@H]2O[C@@H](CO)[C@@H](O)[C@@H](O)[C@H]2O)c(-c2ccc(O)c(O)c2)oc2cc(O)cc(O)c12
REMARK SMILES IDX 4 1 3 2 16 3 25 4 2 5 26 6 1 7 33 8 27 9 31 10 28 11 30 12
REMARK SMILES IDX 17 13 20 14 19 15 22 16 18 17 24 18 21 19 23 21 32 23 29 25
REMARK SMILES IDX 5 27 14 28 6 29 12 30 7 31 10 32 15 33 13 35 8 37 9 38 11 40
REMARK H PARENT 21 20 23 22 32 24 29 26 15 34 13 36 9 39 11 41
REMARK Flexibility Score: inf
ROOT
ATOM      1  O   UNL     1      -1.456 -14.506  28.203  1.00  0.00    -0.454 OA
ENDROOT
BRANCH   1   2
ATOM      2  C   UNL     1      -1.254 -15.430  27.156  1.00  0.00     0.214 A 
ATOM      3  C   UNL     1      -0.589 -14.986  25.998  1.00  0.00     0.180 A 
ATOM      4  O   UNL     1      -0.332 -15.829  25.004  1.00  0.00    -0.452 OA
ATOM      5  C   UNL     1      -1.663 -16.782  27.209  1.00  0.00     0.239 A 
ATOM      6  C   UNL     1      -0.685 -17.104  25.017  1.00  0.00     0.146 A 
ATOM      7  O   UNL     1      -2.310 -17.218  28.199  1.00  0.00    -0.285 OA
ATOM      8  C   UNL     1      -1.380 -17.640  26.122  1.00  0.00     0.111 A 
ATOM      9  C   UNL     1      -0.368 -17.908  23.914  1.00  0.00     0.094 A 
ATOM     10  C   UNL     1      -1.704 -19.019  26.123  1.00  0.00     0.134 A 
ATOM     11  C   UNL     1      -0.672 -19.275  23.934  1.00  0.00     0.123 A 
ATOM     12  C   UNL     1      -1.345 -19.821  25.031  1.00  0.00     0.093 A 
BRANCH   3  13
ATOM     13  C   UNL     1      -0.272 -13.555  25.774  1.00  0.00     0.025 A 
ATOM     14  C   UNL     1       0.384 -10.869  25.226  1.00  0.00     0.157 A 
ATOM     15  C   UNL     1       1.382 -11.847  25.257  1.00  0.00     0.051 A 
ATOM     16  C   UNL     1      -0.949 -11.225  25.502  1.00  0.00     0.158 A 
ATOM     17  C   UNL     1       1.062 -13.179  25.540  1.00  0.00     0.016 A 
ATOM     18  C   UNL     1      -1.270 -12.565  25.782  1.00  0.00     0.062 A 
BRANCH  14  19
ATOM     19  O   UNL     1       0.726  -9.551  24.914  1.00  0.00    -0.504 OA
ATOM     20  H   UNL     1       0.256  -9.031  24.181  1.00  0.00     0.293 HD
ENDBRANCH  14  19
BRANCH  16  21
ATOM     21  O   UNL     1      -1.947 -10.251  25.496  1.00  0.00    -0.504 OA
ATOM     22  H   UNL     1      -2.882 -10.439  25.850  1.00  0.00     0.293 HD
ENDBRANCH  16  21
ENDBRANCH   3  13
BRANCH  10  23
ATOM     23  O   UNL     1      -2.370 -19.600  27.205  1.00  0.00    -0.507 OA
ATOM     24  H   UNL     1      -2.449 -20.606  27.308  1.00  0.00     0.293 HD
ENDBRANCH  10  23
BRANCH  11  25
ATOM     25  O   UNL     1      -0.308 -20.100  22.875  1.00  0.00    -0.508 OA
ATOM     26  H   UNL     1       0.207 -20.959  23.024  1.00  0.00     0.293 HD
ENDBRANCH  11  25
ENDBRANCH   1   2
BRANCH   1  27
ATOM     27  C   UNL     1      -2.713 -14.083  28.733  1.00  0.00     0.339 C 
ATOM     28  C   UNL     1      -2.793 -14.478  30.241  1.00  0.00     0.214 C 
ATOM     29  O   UNL     1      -2.869 -12.685  28.499  1.00  0.00    -0.332 OA
ATOM     30  C   UNL     1      -3.652 -13.452  31.026  1.00  0.00     0.180 C 
ATOM     31  C   UNL     1      -2.258 -11.921  29.517  1.00  0.00     0.179 C 
ATOM     32  C   UNL     1      -3.121 -12.008  30.802  1.00  0.00     0.177 C 
BRANCH  28  33
ATOM     33  O   UNL     1      -3.295 -15.784  30.378  1.00  0.00    -0.384 OA
ATOM     34  H   UNL     1      -2.643 -16.385  29.924  1.00  0.00     0.211 HD
ENDBRANCH  28  33
BRANCH  30  35
ATOM     35  O   UNL     1      -5.001 -13.553  30.635  1.00  0.00    -0.387 OA
ATOM     36  H   UNL     1      -5.487 -14.019  31.372  1.00  0.00     0.211 HD
ENDBRANCH  30  35
BRANCH  31  37
ATOM     37  C   UNL     1      -2.014 -10.490  29.010  1.00  0.00     0.191 C 
BRANCH  37  38
ATOM     38  O   UNL     1      -3.046 -10.052  28.167  1.00  0.00    -0.394 OA
ATOM     39  H   UNL     1      -2.701  -9.249  27.687  1.00  0.00     0.210 HD
ENDBRANCH  37  38
ENDBRANCH  31  37
BRANCH  32  40
ATOM     40  O   UNL     1      -4.182 -11.092  30.774  1.00  0.00    -0.387 OA
ATOM     41  H   UNL     1      -3.829 -10.252  31.170  1.00  0.00     0.211 HD
ENDBRANCH  32  40
ENDBRANCH   1  27
TORSDOF 12
ENDMDL
