MODEL 1
REMARK VINA RESULT:    -4.599      0.000      0.000
REMARK INTER + INTRA:          -9.766
REMARK INTER:                  -8.363
REMARK INTRA:                  -1.404
REMARK UNBOUND:                -1.404
REMARK SMILES CCCCCCCCCCCCCCCC(=O)[O-]
REMARK SMILES IDX 9 1 10 2 11 3 12 4 13 5 14 6 15 7 16 8 17 9 18 10 8 11 7 12
REMARK SMILES IDX 6 13 5 14 4 15 3 16 2 17 1 18
REMARK H PARENT
REMARK Flexibility Score: inf
ROOT
ATOM      1  C   UNL     1      69.032 -36.655   8.193  1.00  0.00     0.000 C 
ENDROOT
BRANCH   1   2
ATOM      2  C   UNL     1      70.444 -37.201   8.467  1.00  0.00     0.000 C 
BRANCH   2   3
ATOM      3  C   UNL     1      70.694 -37.470   9.961  1.00  0.00     0.000 C 
BRANCH   3   4
ATOM      4  C   UNL     1      72.163 -37.266  10.362  1.00  0.00     0.000 C 
BRANCH   4   5
ATOM      5  C   UNL     1      72.513 -38.094  11.607  1.00  0.00     0.000 C 
BRANCH   5   6
ATOM      6  C   UNL     1      74.022 -38.124  11.909  1.00  0.00     0.006 C 
BRANCH   6   7
ATOM      7  C   UNL     1      74.883 -37.403  10.857  1.00  0.00     0.053 C 
BRANCH   7   8
ATOM      8  C   UNL     1      76.247 -37.054  11.372  1.00  0.00     0.041 C 
ATOM      9  O   UNL     1      76.658 -35.865  11.320  1.00  0.00    -0.550 OA
ATOM     10  O   UNL     1      77.080 -38.045  11.877  1.00  0.00    -0.550 OA
ENDBRANCH   7   8
ENDBRANCH   6   7
ENDBRANCH   5   6
ENDBRANCH   4   5
ENDBRANCH   3   4
ENDBRANCH   2   3
ENDBRANCH   1   2
BRANCH   1  11
ATOM     11  C   UNL     1      68.999 -35.673   7.011  1.00  0.00     0.000 C 
BRANCH  11  12
ATOM     12  C   UNL     1      68.915 -34.206   7.461  1.00  0.00    -0.000 C 
BRANCH  12  13
ATOM     13  C   UNL     1      70.083 -33.389   6.894  1.00  0.00    -0.000 C 
BRANCH  13  14
ATOM     14  C   UNL     1      70.997 -34.266   6.026  1.00  0.00    -0.000 C 
BRANCH  14  15
ATOM     15  C   UNL     1      72.488 -33.964   6.245  1.00  0.00    -0.000 C 
BRANCH  15  16
ATOM     16  C   UNL     1      73.382 -35.194   6.010  1.00  0.00    -0.000 C 
BRANCH  16  17
ATOM     17  C   UNL     1      73.695 -35.951   7.311  1.00  0.00    -0.003 C 
ATOM     18  C   UNL     1      74.778 -37.013   7.129  1.00  0.00     0.004 C 
ENDBRANCH  16  17
ENDBRANCH  15  16
ENDBRANCH  14  15
ENDBRANCH  13  14
ENDBRANCH  12  13
ENDBRANCH  11  12
ENDBRANCH   1  11
TORSDOF 14
ENDMDL
MODEL 2
REMARK VINA RESULT:    -4.254      1.300      3.907
REMARK INTER + INTRA:          -9.140
REMARK INTER:                  -7.460
REMARK INTRA:                  -1.680
REMARK UNBOUND:                -1.404
REMARK SMILES CCCCCCCCCCCCCCCC(=O)[O-]
REMARK SMILES IDX 9 1 10 2 11 3 12 4 13 5 14 6 15 7 16 8 17 9 18 10 8 11 7 12
REMARK SMILES IDX 6 13 5 14 4 15 3 16 2 17 1 18
REMARK H PARENT
REMARK Flexibility Score: inf
ROOT
ATOM      1  C   UNL     1      71.898 -33.390   5.432  1.00  0.00     0.000 C 
ENDROOT
BRANCH   1   2
ATOM      2  C   UNL     1      73.281 -34.057   5.531  1.00  0.00     0.000 C 
BRANCH   2   3
ATOM      3  C   UNL     1      73.195 -35.592   5.577  1.00  0.00     0.000 C 
BRANCH   3   4
ATOM      4  C   UNL     1      73.777 -36.179   6.872  1.00  0.00     0.000 C 
BRANCH   4   5
ATOM      5  C   UNL     1      72.787 -36.029   8.037  1.00  0.00     0.000 C 
BRANCH   5   6
ATOM      6  C   UNL     1      73.291 -36.668   9.343  1.00  0.00     0.006 C 
BRANCH   6   7
ATOM      7  C   UNL     1      74.805 -36.941   9.363  1.00  0.00     0.053 C 
BRANCH   7   8
ATOM      8  C   UNL     1      75.324 -37.207  10.744  1.00  0.00     0.041 C 
ATOM      9  O   UNL     1      76.374 -36.641  11.145  1.00  0.00    -0.550 OA
ATOM     10  O   UNL     1      74.669 -38.107  11.576  1.00  0.00    -0.550 OA
ENDBRANCH   7   8
ENDBRANCH   6   7
ENDBRANCH   5   6
ENDBRANCH   4   5
ENDBRANCH   3   4
ENDBRANCH   2   3
ENDBRANCH   1   2
BRANCH   1  11
ATOM     11  C   UNL     1      71.367 -32.929   6.799  1.00  0.00     0.000 C 
BRANCH  11  12
ATOM     12  C   UNL     1      69.900 -33.324   7.031  1.00  0.00    -0.000 C 
BRANCH  12  13
ATOM     13  C   UNL     1      69.645 -34.769   6.585  1.00  0.00    -0.000 C 
BRANCH  13  14
ATOM     14  C   UNL     1      68.840 -35.538   7.643  1.00  0.00    -0.000 C 
BRANCH  14  15
ATOM     15  C   UNL     1      68.675 -37.026   7.295  1.00  0.00    -0.000 C 
BRANCH  15  16
ATOM     16  C   UNL     1      69.770 -37.905   7.925  1.00  0.00    -0.000 C 
BRANCH  16  17
ATOM     17  C   UNL     1      69.327 -38.535   9.254  1.00  0.00    -0.003 C 
ATOM     18  C   UNL     1      69.945 -37.845  10.469  1.00  0.00     0.004 C 
ENDBRANCH  16  17
ENDBRANCH  15  16
ENDBRANCH  14  15
ENDBRANCH  13  14
ENDBRANCH  12  13
ENDBRANCH  11  12
ENDBRANCH   1  11
TORSDOF 14
ENDMDL
MODEL 3
REMARK VINA RESULT:    -4.163      1.739      3.104
REMARK INTER + INTRA:          -8.975
REMARK INTER:                  -7.592
REMARK INTRA:                  -1.383
REMARK UNBOUND:                -1.404
REMARK SMILES CCCCCCCCCCCCCCCC(=O)[O-]
REMARK SMILES IDX 9 1 10 2 11 3 12 4 13 5 14 6 15 7 16 8 17 9 18 10 8 11 7 12
REMARK SMILES IDX 6 13 5 14 4 15 3 16 2 17 1 18
REMARK H PARENT
REMARK Flexibility Score: inf
ROOT
ATOM      1  C   UNL     1      68.156 -39.348   8.613  1.00  0.00     0.000 C 
ENDROOT
BRANCH   1   2
ATOM      2  C   UNL     1      68.599 -39.727  10.036  1.00  0.00     0.000 C 
BRANCH   2   3
ATOM      3  C   UNL     1      70.075 -40.155  10.102  1.00  0.00     0.000 C 
BRANCH   3   4
ATOM      4  C   UNL     1      70.850 -39.439  11.219  1.00  0.00     0.000 C 
BRANCH   4   5
ATOM      5  C   UNL     1      70.818 -37.916  11.021  1.00  0.00     0.000 C 
BRANCH   5   6
ATOM      6  C   UNL     1      72.155 -37.345  10.515  1.00  0.00     0.006 C 
BRANCH   6   7
ATOM      7  C   UNL     1      73.374 -37.771  11.352  1.00  0.00     0.053 C 
BRANCH   7   8
ATOM      8  C   UNL     1      74.668 -37.283  10.775  1.00  0.00     0.041 C 
ATOM      9  O   UNL     1      75.611 -36.940  11.535  1.00  0.00    -0.550 OA
ATOM     10  O   UNL     1      74.823 -37.173   9.398  1.00  0.00    -0.550 OA
ENDBRANCH   7   8
ENDBRANCH   6   7
ENDBRANCH   5   6
ENDBRANCH   4   5
ENDBRANCH   3   4
ENDBRANCH   2   3
ENDBRANCH   1   2
BRANCH   1  11
ATOM     11  C   UNL     1      67.913 -37.838   8.454  1.00  0.00     0.000 C 
BRANCH  11  12
ATOM     12  C   UNL     1      68.231 -37.331   7.038  1.00  0.00    -0.000 C 
BRANCH  12  13
ATOM     13  C   UNL     1      69.712 -36.956   6.909  1.00  0.00    -0.000 C 
BRANCH  13  14
ATOM     14  C   UNL     1      70.030 -35.686   7.712  1.00  0.00    -0.000 C 
BRANCH  14  15
ATOM     15  C   UNL     1      69.104 -34.513   7.354  1.00  0.00    -0.000 C 
BRANCH  15  16
ATOM     16  C   UNL     1      69.881 -33.259   6.915  1.00  0.00    -0.000 C 
BRANCH  16  17
ATOM     17  C   UNL     1      70.600 -33.453   5.572  1.00  0.00    -0.003 C 
ATOM     18  C   UNL     1      72.111 -33.249   5.677  1.00  0.00     0.004 C 
ENDBRANCH  16  17
ENDBRANCH  15  16
ENDBRANCH  14  15
ENDBRANCH  13  14
ENDBRANCH  12  13
ENDBRANCH  11  12
ENDBRANCH   1  11
TORSDOF 14
ENDMDL
MODEL 4
REMARK VINA RESULT:    -4.151      2.695      5.903
REMARK INTER + INTRA:          -8.952
REMARK INTER:                  -7.908
REMARK INTRA:                  -1.043
REMARK UNBOUND:                -1.404
REMARK SMILES CCCCCCCCCCCCCCCC(=O)[O-]
REMARK SMILES IDX 9 1 10 2 11 3 12 4 13 5 14 6 15 7 16 8 17 9 18 10 8 11 7 12
REMARK SMILES IDX 6 13 5 14 4 15 3 16 2 17 1 18
REMARK H PARENT
REMARK Flexibility Score: inf
ROOT
ATOM      1  C   UNL     1      68.223 -37.944   9.754  1.00  0.00     0.000 C 
ENDROOT
BRANCH   1   2
ATOM      2  C   UNL     1      67.665 -38.335   8.375  1.00  0.00     0.000 C 
BRANCH   2   3
ATOM      3  C   UNL     1      67.743 -37.183   7.358  1.00  0.00     0.000 C 
BRANCH   3   4
ATOM      4  C   UNL     1      67.626 -35.800   8.019  1.00  0.00     0.000 C 
BRANCH   4   5
ATOM      5  C   UNL     1      68.709 -34.847   7.492  1.00  0.00     0.000 C 
BRANCH   5   6
ATOM      6  C   UNL     1      69.710 -35.534   6.546  1.00  0.00     0.006 C 
BRANCH   6   7
ATOM      7  C   UNL     1      70.731 -34.573   5.911  1.00  0.00     0.053 C 
BRANCH   7   8
ATOM      8  C   UNL     1      71.503 -33.795   6.934  1.00  0.00     0.041 C 
ATOM      9  O   UNL     1      72.448 -34.341   7.562  1.00  0.00    -0.550 OA
ATOM     10  O   UNL     1      71.158 -32.480   7.221  1.00  0.00    -0.550 OA
ENDBRANCH   7   8
ENDBRANCH   6   7
ENDBRANCH   5   6
ENDBRANCH   4   5
ENDBRANCH   3   4
ENDBRANCH   2   3
ENDBRANCH   1   2
BRANCH   1  11
ATOM     11  C   UNL     1      69.760 -37.948   9.792  1.00  0.00     0.000 C 
BRANCH  11  12
ATOM     12  C   UNL     1      70.326 -38.965  10.796  1.00  0.00    -0.000 C 
BRANCH  12  13
ATOM     13  C   UNL     1      71.683 -38.501  11.340  1.00  0.00    -0.000 C 
BRANCH  13  14
ATOM     14  C   UNL     1      72.224 -37.313  10.531  1.00  0.00    -0.000 C 
BRANCH  14  15
ATOM     15  C   UNL     1      73.760 -37.272  10.497  1.00  0.00    -0.000 C 
BRANCH  15  16
ATOM     16  C   UNL     1      74.397 -37.929  11.734  1.00  0.00    -0.000 C 
BRANCH  16  17
ATOM     17  C   UNL     1      75.932 -37.872  11.705  1.00  0.00    -0.003 C 
ATOM     18  C   UNL     1      76.465 -36.500  11.293  1.00  0.00     0.004 C 
ENDBRANCH  16  17
ENDBRANCH  15  16
ENDBRANCH  14  15
ENDBRANCH  13  14
ENDBRANCH  12  13
ENDBRANCH  11  12
ENDBRANCH   1  11
TORSDOF 14
ENDMDL
MODEL 5
REMARK VINA RESULT:    -4.140      1.802      2.852
REMARK INTER + INTRA:          -8.931
REMARK INTER:                  -7.216
REMARK INTRA:                  -1.715
REMARK UNBOUND:                -1.404
REMARK SMILES CCCCCCCCCCCCCCCC(=O)[O-]
REMARK SMILES IDX 9 1 10 2 11 3 12 4 13 5 14 6 15 7 16 8 17 9 18 10 8 11 7 12
REMARK SMILES IDX 6 13 5 14 4 15 3 16 2 17 1 18
REMARK H PARENT
REMARK Flexibility Score: inf
ROOT
ATOM      1  C   UNL     1      69.207 -34.243   7.362  1.00  0.00     0.000 C 
ENDROOT
BRANCH   1   2
ATOM      2  C   UNL     1      69.483 -35.730   7.084  1.00  0.00     0.000 C 
BRANCH   2   3
ATOM      3  C   UNL     1      69.916 -36.497   8.345  1.00  0.00     0.000 C 
BRANCH   3   4
ATOM      4  C   UNL     1      69.540 -37.986   8.291  1.00  0.00     0.000 C 
BRANCH   4   5
ATOM      5  C   UNL     1      69.185 -38.514   9.689  1.00  0.00     0.000 C 
BRANCH   5   6
ATOM      6  C   UNL     1      70.107 -37.967  10.793  1.00  0.00     0.006 C 
BRANCH   6   7
ATOM      7  C   UNL     1      71.431 -38.737  10.940  1.00  0.00     0.053 C 
BRANCH   7   8
ATOM      8  C   UNL     1      72.584 -37.841  11.277  1.00  0.00     0.041 C 
ATOM      9  O   UNL     1      72.548 -36.620  10.970  1.00  0.00    -0.550 OA
ATOM     10  O   UNL     1      73.714 -38.358  11.899  1.00  0.00    -0.550 OA
ENDBRANCH   7   8
ENDBRANCH   6   7
ENDBRANCH   5   6
ENDBRANCH   4   5
ENDBRANCH   3   4
ENDBRANCH   2   3
ENDBRANCH   1   2
BRANCH   1  11
ATOM     11  C   UNL     1      69.950 -33.313   6.390  1.00  0.00     0.000 C 
BRANCH  11  12
ATOM     12  C   UNL     1      71.384 -33.000   6.847  1.00  0.00    -0.000 C 
BRANCH  12  13
ATOM     13  C   UNL     1      72.345 -32.963   5.652  1.00  0.00    -0.000 C 
BRANCH  13  14
ATOM     14  C   UNL     1      72.400 -34.326   4.948  1.00  0.00    -0.000 C 
BRANCH  14  15
ATOM     15  C   UNL     1      73.552 -35.208   5.455  1.00  0.00    -0.000 C 
BRANCH  15  16
ATOM     16  C   UNL     1      73.058 -36.398   6.298  1.00  0.00    -0.000 C 
BRANCH  16  17
ATOM     17  C   UNL     1      73.555 -36.336   7.751  1.00  0.00    -0.003 C 
ATOM     18  C   UNL     1      74.995 -36.824   7.904  1.00  0.00     0.004 C 
ENDBRANCH  16  17
ENDBRANCH  15  16
ENDBRANCH  14  15
ENDBRANCH  13  14
ENDBRANCH  12  13
ENDBRANCH  11  12
ENDBRANCH   1  11
TORSDOF 14
ENDMDL
MODEL 6
REMARK VINA RESULT:    -4.135      9.790     12.042
REMARK INTER + INTRA:          -8.923
REMARK INTER:                  -7.929
REMARK INTRA:                  -0.994
REMARK UNBOUND:                -1.404
REMARK SMILES CCCCCCCCCCCCCCCC(=O)[O-]
REMARK SMILES IDX 9 1 10 2 11 3 12 4 13 5 14 6 15 7 16 8 17 9 18 10 8 11 7 12
REMARK SMILES IDX 6 13 5 14 4 15 3 16 2 17 1 18
REMARK H PARENT
REMARK Flexibility Score: inf
ROOT
ATOM      1  C   UNL     1      63.146 -34.155  15.251  1.00  0.00     0.000 C 
ENDROOT
BRANCH   1   2
ATOM      2  C   UNL     1      63.729 -35.234  14.322  1.00  0.00     0.000 C 
BRANCH   2   3
ATOM      3  C   UNL     1      65.226 -35.483  14.572  1.00  0.00     0.000 C 
BRANCH   3   4
ATOM      4  C   UNL     1      66.089 -35.202  13.333  1.00  0.00     0.000 C 
BRANCH   4   5
ATOM      5  C   UNL     1      66.079 -36.400  12.372  1.00  0.00     0.000 C 
BRANCH   5   6
ATOM      6  C   UNL     1      65.339 -36.111  11.054  1.00  0.00     0.006 C 
BRANCH   6   7
ATOM      7  C   UNL     1      65.080 -34.616  10.797  1.00  0.00     0.053 C 
BRANCH   7   8
ATOM      8  C   UNL     1      63.625 -34.263  10.867  1.00  0.00     0.041 C 
ATOM      9  O   UNL     1      63.272 -33.073  11.077  1.00  0.00    -0.550 OA
ATOM     10  O   UNL     1      62.658 -35.252  10.736  1.00  0.00    -0.550 OA
ENDBRANCH   7   8
ENDBRANCH   6   7
ENDBRANCH   5   6
ENDBRANCH   4   5
ENDBRANCH   3   4
ENDBRANCH   2   3
ENDBRANCH   1   2
BRANCH   1  11
ATOM     11  C   UNL     1      62.237 -33.164  14.506  1.00  0.00     0.000 C 
BRANCH  11  12
ATOM     12  C   UNL     1      61.076 -32.655  15.374  1.00  0.00    -0.000 C 
BRANCH  12  13
ATOM     13  C   UNL     1      61.483 -31.397  16.153  1.00  0.00    -0.000 C 
BRANCH  13  14
ATOM     14  C   UNL     1      61.463 -30.158  15.246  1.00  0.00    -0.000 C 
BRANCH  14  15
ATOM     15  C   UNL     1      62.869 -29.598  14.980  1.00  0.00    -0.000 C 
BRANCH  15  16
ATOM     16  C   UNL     1      62.916 -28.683  13.743  1.00  0.00    -0.000 C 
BRANCH  16  17
ATOM     17  C   UNL     1      62.781 -27.196  14.105  1.00  0.00    -0.003 C 
ATOM     18  C   UNL     1      62.512 -26.314  12.887  1.00  0.00     0.004 C 
ENDBRANCH  16  17
ENDBRANCH  15  16
ENDBRANCH  14  15
ENDBRANCH  13  14
ENDBRANCH  12  13
ENDBRANCH  11  12
ENDBRANCH   1  11
TORSDOF 14
ENDMDL
MODEL 7
REMARK VINA RESULT:    -4.131      1.727      5.002
REMARK INTER + INTRA:          -8.915
REMARK INTER:                  -7.272
REMARK INTRA:                  -1.644
REMARK UNBOUND:                -1.404
REMARK SMILES CCCCCCCCCCCCCCCC(=O)[O-]
REMARK SMILES IDX 9 1 10 2 11 3 12 4 13 5 14 6 15 7 16 8 17 9 18 10 8 11 7 12
REMARK SMILES IDX 6 13 5 14 4 15 3 16 2 17 1 18
REMARK H PARENT
REMARK Flexibility Score: inf
ROOT
ATOM      1  C   UNL     1      69.321 -34.133   7.158  1.00  0.00     0.000 C 
ENDROOT
BRANCH   1   2
ATOM      2  C   UNL     1      70.261 -33.398   6.188  1.00  0.00     0.000 C 
BRANCH   2   3
ATOM      3  C   UNL     1      71.679 -33.222   6.758  1.00  0.00     0.000 C 
BRANCH   3   4
ATOM      4  C   UNL     1      72.771 -33.696   5.786  1.00  0.00     0.000 C 
BRANCH   4   5
ATOM      5  C   UNL     1      72.418 -35.066   5.189  1.00  0.00     0.000 C 
BRANCH   5   6
ATOM      6  C   UNL     1      73.372 -36.186   5.641  1.00  0.00     0.006 C 
BRANCH   6   7
ATOM      7  C   UNL     1      73.580 -36.253   7.164  1.00  0.00     0.053 C 
BRANCH   7   8
ATOM      8  C   UNL     1      74.884 -36.890   7.539  1.00  0.00     0.041 C 
ATOM      9  O   UNL     1      75.426 -37.724   6.768  1.00  0.00    -0.550 OA
ATOM     10  O   UNL     1      75.484 -36.591   8.756  1.00  0.00    -0.550 OA
ENDBRANCH   7   8
ENDBRANCH   6   7
ENDBRANCH   5   6
ENDBRANCH   4   5
ENDBRANCH   3   4
ENDBRANCH   2   3
ENDBRANCH   1   2
BRANCH   1  11
ATOM     11  C   UNL     1      69.952 -35.411   7.735  1.00  0.00     0.000 C 
BRANCH  11  12
ATOM     12  C   UNL     1      69.358 -36.692   7.130  1.00  0.00    -0.000 C 
BRANCH  12  13
ATOM     13  C   UNL     1      69.899 -37.938   7.842  1.00  0.00    -0.000 C 
BRANCH  13  14
ATOM     14  C   UNL     1      68.940 -38.403   8.947  1.00  0.00    -0.000 C 
BRANCH  14  15
ATOM     15  C   UNL     1      69.444 -38.050  10.355  1.00  0.00    -0.000 C 
BRANCH  15  16
ATOM     16  C   UNL     1      70.677 -38.874  10.765  1.00  0.00    -0.000 C 
BRANCH  16  17
ATOM     17  C   UNL     1      71.623 -38.097  11.694  1.00  0.00    -0.003 C 
ATOM     18  C   UNL     1      72.816 -37.496  10.952  1.00  0.00     0.004 C 
ENDBRANCH  16  17
ENDBRANCH  15  16
ENDBRANCH  14  15
ENDBRANCH  13  14
ENDBRANCH  12  13
ENDBRANCH  11  12
ENDBRANCH   1  11
TORSDOF 14
ENDMDL
MODEL 8
REMARK VINA RESULT:    -4.097     11.197     14.056
REMARK INTER + INTRA:          -8.853
REMARK INTER:                  -7.077
REMARK INTRA:                  -1.777
REMARK UNBOUND:                -1.404
REMARK SMILES CCCCCCCCCCCCCCCC(=O)[O-]
REMARK SMILES IDX 9 1 10 2 11 3 12 4 13 5 14 6 15 7 16 8 17 9 18 10 8 11 7 12
REMARK SMILES IDX 6 13 5 14 4 15 3 16 2 17 1 18
REMARK H PARENT
REMARK Flexibility Score: inf
ROOT
ATOM      1  C   UNL     1      72.601 -31.203  23.062  1.00  0.00     0.000 C 
ENDROOT
BRANCH   1   2
ATOM      2  C   UNL     1      72.244 -32.318  22.065  1.00  0.00     0.000 C 
BRANCH   2   3
ATOM      3  C   UNL     1      71.264 -31.846  20.976  1.00  0.00     0.000 C 
BRANCH   3   4
ATOM      4  C   UNL     1      71.814 -32.047  19.556  1.00  0.00     0.000 C 
BRANCH   4   5
ATOM      5  C   UNL     1      73.234 -31.476  19.431  1.00  0.00     0.000 C 
BRANCH   5   6
ATOM      6  C   UNL     1      73.253 -29.964  19.141  1.00  0.00     0.006 C 
BRANCH   6   7
ATOM      7  C   UNL     1      72.057 -29.473  18.307  1.00  0.00     0.053 C 
BRANCH   7   8
ATOM      8  C   UNL     1      72.320 -29.535  16.833  1.00  0.00     0.041 C 
ATOM      9  O   UNL     1      72.402 -28.475  16.159  1.00  0.00    -0.550 OA
ATOM     10  O   UNL     1      72.438 -30.764  16.194  1.00  0.00    -0.550 OA
ENDBRANCH   7   8
ENDBRANCH   6   7
ENDBRANCH   5   6
ENDBRANCH   4   5
ENDBRANCH   3   4
ENDBRANCH   2   3
ENDBRANCH   1   2
BRANCH   1  11
ATOM     11  C   UNL     1      73.969 -31.425  23.729  1.00  0.00     0.000 C 
BRANCH  11  12
ATOM     12  C   UNL     1      75.123 -30.778  22.946  1.00  0.00    -0.000 C 
BRANCH  12  13
ATOM     13  C   UNL     1      75.818 -31.805  22.044  1.00  0.00    -0.000 C 
BRANCH  13  14
ATOM     14  C   UNL     1      75.978 -33.152  22.764  1.00  0.00    -0.000 C 
BRANCH  14  15
ATOM     15  C   UNL     1      75.314 -34.311  22.006  1.00  0.00    -0.000 C 
BRANCH  15  16
ATOM     16  C   UNL     1      74.847 -35.440  22.941  1.00  0.00    -0.000 C 
BRANCH  16  17
ATOM     17  C   UNL     1      73.381 -35.833  22.704  1.00  0.00    -0.003 C 
ATOM     18  C   UNL     1      73.190 -36.657  21.431  1.00  0.00     0.004 C 
ENDBRANCH  16  17
ENDBRANCH  15  16
ENDBRANCH  14  15
ENDBRANCH  13  14
ENDBRANCH  12  13
ENDBRANCH  11  12
ENDBRANCH   1  11
TORSDOF 14
ENDMDL
MODEL 9
REMARK VINA RESULT:    -4.037      2.100      5.400
REMARK INTER + INTRA:          -8.744
REMARK INTER:                  -7.580
REMARK INTRA:                  -1.165
REMARK UNBOUND:                -1.404
REMARK SMILES CCCCCCCCCCCCCCCC(=O)[O-]
REMARK SMILES IDX 9 1 10 2 11 3 12 4 13 5 14 6 15 7 16 8 17 9 18 10 8 11 7 12
REMARK SMILES IDX 6 13 5 14 4 15 3 16 2 17 1 18
REMARK H PARENT
REMARK Flexibility Score: inf
ROOT
ATOM      1  C   UNL     1      67.846 -35.566   7.812  1.00  0.00     0.000 C 
ENDROOT
BRANCH   1   2
ATOM      2  C   UNL     1      69.272 -35.247   7.330  1.00  0.00     0.000 C 
BRANCH   2   3
ATOM      3  C   UNL     1      69.505 -33.739   7.132  1.00  0.00     0.000 C 
BRANCH   3   4
ATOM      4  C   UNL     1      70.382 -33.431   5.908  1.00  0.00     0.000 C 
BRANCH   4   5
ATOM      5  C   UNL     1      71.797 -33.016   6.337  1.00  0.00     0.000 C 
BRANCH   5   6
ATOM      6  C   UNL     1      72.897 -33.910   5.735  1.00  0.00     0.006 C 
BRANCH   6   7
ATOM      7  C   UNL     1      72.638 -35.418   5.903  1.00  0.00     0.053 C 
BRANCH   7   8
ATOM      8  C   UNL     1      73.260 -35.973   7.149  1.00  0.00     0.041 C 
ATOM      9  O   UNL     1      74.446 -36.396   7.129  1.00  0.00    -0.550 OA
ATOM     10  O   UNL     1      72.521 -36.058   8.322  1.00  0.00    -0.550 OA
ENDBRANCH   7   8
ENDBRANCH   6   7
ENDBRANCH   5   6
ENDBRANCH   4   5
ENDBRANCH   3   4
ENDBRANCH   2   3
ENDBRANCH   1   2
BRANCH   1  11
ATOM     11  C   UNL     1      67.618 -37.071   8.021  1.00  0.00     0.000 C 
BRANCH  11  12
ATOM     12  C   UNL     1      67.822 -37.505   9.481  1.00  0.00    -0.000 C 
BRANCH  12  13
ATOM     13  C   UNL     1      68.404 -38.922   9.557  1.00  0.00    -0.000 C 
BRANCH  13  14
ATOM     14  C   UNL     1      69.928 -38.882   9.747  1.00  0.00    -0.000 C 
BRANCH  14  15
ATOM     15  C   UNL     1      70.359 -37.922  10.867  1.00  0.00    -0.000 C 
BRANCH  15  16
ATOM     16  C   UNL     1      71.654 -38.373  11.565  1.00  0.00    -0.000 C 
BRANCH  16  17
ATOM     17  C   UNL     1      72.738 -37.284  11.553  1.00  0.00    -0.003 C 
ATOM     18  C   UNL     1      74.123 -37.835  11.213  1.00  0.00     0.004 C 
ENDBRANCH  16  17
ENDBRANCH  15  16
ENDBRANCH  14  15
ENDBRANCH  13  14
ENDBRANCH  12  13
ENDBRANCH  11  12
ENDBRANCH   1  11
TORSDOF 14
ENDMDL
