MODEL 1
REMARK VINA RESULT:    -0.362      0.000      0.000
REMARK INTER + INTRA:          -1.225
REMARK INTER:                  -0.658
REMARK INTRA:                  -0.567
REMARK UNBOUND:                -0.567
REMARK SMILES CCCCCCCCCCCCCCCC(=O)[O-]
REMARK SMILES IDX 9 1 10 2 11 3 12 4 13 5 14 6 15 7 16 8 17 9 18 10 8 11 7 12
REMARK SMILES IDX 6 13 5 14 4 15 3 16 2 17 1 18
REMARK H PARENT
REMARK Flexibility Score: inf
ROOT
ATOM      1  C   UNL     1      41.062  43.995  20.828  1.00  0.00     0.000 C 
ENDROOT
BRANCH   1   2
ATOM      2  C   UNL     1      41.124  45.519  21.006  1.00  0.00     0.000 C 
BRANCH   2   3
ATOM      3  C   UNL     1      40.289  45.966  22.211  1.00  0.00     0.000 C 
BRANCH   3   4
ATOM      4  C   UNL     1      40.441  44.986  23.381  1.00  0.00     0.000 C 
BRANCH   4   5
ATOM      5  C   UNL     1      39.342  45.205  24.429  1.00  0.00     0.000 C 
BRANCH   5   6
ATOM      6  C   UNL     1      38.084  45.810  23.789  1.00  0.00     0.006 C 
BRANCH   6   7
ATOM      7  C   UNL     1      37.023  46.182  24.833  1.00  0.00     0.053 C 
BRANCH   7   8
ATOM      8  C   UNL     1      35.736  46.600  24.190  1.00  0.00     0.041 C 
ATOM      9  O   UNL     1      34.636  46.190  24.648  1.00  0.00    -0.550 OA
ATOM     10  O   UNL     1      35.752  47.414  23.065  1.00  0.00    -0.550 OA
ENDBRANCH   7   8
ENDBRANCH   6   7
ENDBRANCH   5   6
ENDBRANCH   4   5
ENDBRANCH   3   4
ENDBRANCH   2   3
ENDBRANCH   1   2
BRANCH   1  11
ATOM     11  C   UNL     1      41.125  43.562  19.352  1.00  0.00     0.000 C 
BRANCH  11  12
ATOM     12  C   UNL     1      41.030  42.041  19.115  1.00  0.00    -0.000 C 
BRANCH  12  13
ATOM     13  C   UNL     1      39.633  41.433  19.337  1.00  0.00    -0.000 C 
BRANCH  13  14
ATOM     14  C   UNL     1      39.236  40.327  18.338  1.00  0.00    -0.000 C 
BRANCH  14  15
ATOM     15  C   UNL     1      39.471  38.889  18.835  1.00  0.00    -0.000 C 
BRANCH  15  16
ATOM     16  C   UNL     1      38.254  38.302  19.563  1.00  0.00    -0.000 C 
BRANCH  16  17
ATOM     17  C   UNL     1      38.347  36.775  19.645  1.00  0.00    -0.003 C 
ATOM     18  C   UNL     1      37.486  36.229  20.781  1.00  0.00     0.004 C 
ENDBRANCH  16  17
ENDBRANCH  15  16
ENDBRANCH  14  15
ENDBRANCH  13  14
ENDBRANCH  12  13
ENDBRANCH  11  12
ENDBRANCH   1  11
TORSDOF 14
ENDMDL
MODEL 2
REMARK VINA RESULT:    -0.331      2.403      4.400
REMARK INTER + INTRA:          -1.168
REMARK INTER:                  -0.293
REMARK INTRA:                  -0.876
REMARK UNBOUND:                -0.567
REMARK SMILES CCCCCCCCCCCCCCCC(=O)[O-]
REMARK SMILES IDX 9 1 10 2 11 3 12 4 13 5 14 6 15 7 16 8 17 9 18 10 8 11 7 12
REMARK SMILES IDX 6 13 5 14 4 15 3 16 2 17 1 18
REMARK H PARENT
REMARK Flexibility Score: inf
ROOT
ATOM      1  C   UNL     1      40.229  40.037  18.371  1.00  0.00     0.000 C 
ENDROOT
BRANCH   1   2
ATOM      2  C   UNL     1      40.363  41.532  18.045  1.00  0.00     0.000 C 
BRANCH   2   3
ATOM      3  C   UNL     1      40.147  42.389  19.298  1.00  0.00     0.000 C 
BRANCH   3   4
ATOM      4  C   UNL     1      41.122  43.572  19.332  1.00  0.00     0.000 C 
BRANCH   4   5
ATOM      5  C   UNL     1      40.644  44.652  20.311  1.00  0.00     0.000 C 
BRANCH   5   6
ATOM      6  C   UNL     1      40.999  44.278  21.758  1.00  0.00     0.006 C 
BRANCH   6   7
ATOM      7  C   UNL     1      40.967  45.491  22.696  1.00  0.00     0.053 C 
BRANCH   7   8
ATOM      8  C   UNL     1      40.319  45.162  24.006  1.00  0.00     0.041 C 
ATOM      9  O   UNL     1      39.069  45.246  24.135  1.00  0.00    -0.550 OA
ATOM     10  O   UNL     1      41.100  44.795  25.095  1.00  0.00    -0.550 OA
ENDBRANCH   7   8
ENDBRANCH   6   7
ENDBRANCH   5   6
ENDBRANCH   4   5
ENDBRANCH   3   4
ENDBRANCH   2   3
ENDBRANCH   1   2
BRANCH   1  11
ATOM     11  C   UNL     1      40.007  39.170  17.119  1.00  0.00     0.000 C 
BRANCH  11  12
ATOM     12  C   UNL     1      40.904  37.919  17.027  1.00  0.00    -0.000 C 
BRANCH  12  13
ATOM     13  C   UNL     1      40.322  36.759  16.197  1.00  0.00    -0.000 C 
BRANCH  13  14
ATOM     14  C   UNL     1      39.856  35.540  17.016  1.00  0.00    -0.000 C 
BRANCH  14  15
ATOM     15  C   UNL     1      39.972  35.700  18.543  1.00  0.00    -0.000 C 
BRANCH  15  16
ATOM     16  C   UNL     1      38.610  35.865  19.231  1.00  0.00    -0.000 C 
BRANCH  16  17
ATOM     17  C   UNL     1      38.489  37.247  19.883  1.00  0.00    -0.003 C 
ATOM     18  C   UNL     1      37.135  37.419  20.566  1.00  0.00     0.004 C 
ENDBRANCH  16  17
ENDBRANCH  15  16
ENDBRANCH  14  15
ENDBRANCH  13  14
ENDBRANCH  12  13
ENDBRANCH  11  12
ENDBRANCH   1  11
TORSDOF 14
ENDMDL
MODEL 3
REMARK VINA RESULT:    -0.018      3.346      5.834
REMARK INTER + INTRA:          -0.600
REMARK INTER:                   0.624
REMARK INTRA:                  -1.224
REMARK UNBOUND:                -0.567
REMARK SMILES CCCCCCCCCCCCCCCC(=O)[O-]
REMARK SMILES IDX 9 1 10 2 11 3 12 4 13 5 14 6 15 7 16 8 17 9 18 10 8 11 7 12
REMARK SMILES IDX 6 13 5 14 4 15 3 16 2 17 1 18
REMARK H PARENT
REMARK Flexibility Score: inf
ROOT
ATOM      1  C   UNL     1      37.475  39.487  20.635  1.00  0.00     0.000 C 
ENDROOT
BRANCH   1   2
ATOM      2  C   UNL     1      37.707  40.317  19.363  1.00  0.00     0.000 C 
BRANCH   2   3
ATOM      3  C   UNL     1      39.172  40.245  18.919  1.00  0.00     0.000 C 
BRANCH   3   4
ATOM      4  C   UNL     1      40.016  41.312  19.628  1.00  0.00     0.000 C 
BRANCH   4   5
ATOM      5  C   UNL     1      40.780  42.172  18.613  1.00  0.00     0.000 C 
BRANCH   5   6
ATOM      6  C   UNL     1      40.815  43.643  19.056  1.00  0.00     0.006 C 
BRANCH   6   7
ATOM      7  C   UNL     1      41.125  43.791  20.551  1.00  0.00     0.053 C 
BRANCH   7   8
ATOM      8  C   UNL     1      41.098  45.226  20.983  1.00  0.00     0.041 C 
ATOM      9  O   UNL     1      41.125  46.147  20.125  1.00  0.00    -0.550 OA
ATOM     10  O   UNL     1      41.076  45.545  22.335  1.00  0.00    -0.550 OA
ENDBRANCH   7   8
ENDBRANCH   6   7
ENDBRANCH   5   6
ENDBRANCH   4   5
ENDBRANCH   3   4
ENDBRANCH   2   3
ENDBRANCH   1   2
BRANCH   1  11
ATOM     11  C   UNL     1      36.350  38.449  20.475  1.00  0.00     0.000 C 
BRANCH  11  12
ATOM     12  C   UNL     1      36.793  36.980  20.630  1.00  0.00    -0.000 C 
BRANCH  12  13
ATOM     13  C   UNL     1      38.185  36.654  20.057  1.00  0.00    -0.000 C 
BRANCH  13  14
ATOM     14  C   UNL     1      38.189  35.662  18.877  1.00  0.00    -0.000 C 
BRANCH  14  15
ATOM     15  C   UNL     1      39.515  35.585  18.098  1.00  0.00    -0.000 C 
BRANCH  15  16
ATOM     16  C   UNL     1      40.402  36.820  18.305  1.00  0.00    -0.000 C 
BRANCH  16  17
ATOM     17  C   UNL     1      40.910  37.361  16.964  1.00  0.00    -0.003 C 
ATOM     18  C   UNL     1      39.824  37.295  15.894  1.00  0.00     0.004 C 
ENDBRANCH  16  17
ENDBRANCH  15  16
ENDBRANCH  14  15
ENDBRANCH  13  14
ENDBRANCH  12  13
ENDBRANCH  11  12
ENDBRANCH   1  11
TORSDOF 14
ENDMDL
MODEL 4
REMARK VINA RESULT:     0.268     18.518     21.955
REMARK INTER + INTRA:          -0.079
REMARK INTER:                   0.114
REMARK INTRA:                  -0.194
REMARK UNBOUND:                -0.567
REMARK SMILES CCCCCCCCCCCCCCCC(=O)[O-]
REMARK SMILES IDX 9 1 10 2 11 3 12 4 13 5 14 6 15 7 16 8 17 9 18 10 8 11 7 12
REMARK SMILES IDX 6 13 5 14 4 15 3 16 2 17 1 18
REMARK H PARENT
REMARK Flexibility Score: inf
ROOT
ATOM      1  C   UNL     1      21.040  55.090  29.987  1.00  0.00     0.000 C 
ENDROOT
BRANCH   1   2
ATOM      2  C   UNL     1      22.368  54.986  30.751  1.00  0.00     0.000 C 
BRANCH   2   3
ATOM      3  C   UNL     1      22.132  54.980  32.266  1.00  0.00     0.000 C 
BRANCH   3   4
ATOM      4  C   UNL     1      21.117  53.900  32.660  1.00  0.00     0.000 C 
BRANCH   4   5
ATOM      5  C   UNL     1      21.124  53.666  34.176  1.00  0.00     0.000 C 
BRANCH   5   6
ATOM      6  C   UNL     1      20.925  54.985  34.937  1.00  0.00     0.006 C 
BRANCH   6   7
ATOM      7  C   UNL     1      21.886  55.121  36.125  1.00  0.00     0.053 C 
BRANCH   7   8
ATOM      8  C   UNL     1      23.154  54.353  35.903  1.00  0.00     0.041 C 
ATOM      9  O   UNL     1      24.198  54.947  35.528  1.00  0.00    -0.550 OA
ATOM     10  O   UNL     1      23.172  52.975  36.080  1.00  0.00    -0.550 OA
ENDBRANCH   7   8
ENDBRANCH   6   7
ENDBRANCH   5   6
ENDBRANCH   4   5
ENDBRANCH   3   4
ENDBRANCH   2   3
ENDBRANCH   1   2
BRANCH   1  11
ATOM     11  C   UNL     1      21.198  54.842  28.476  1.00  0.00     0.000 C 
BRANCH  11  12
ATOM     12  C   UNL     1      22.490  54.106  28.068  1.00  0.00    -0.000 C 
BRANCH  12  13
ATOM     13  C   UNL     1      22.654  52.695  28.664  1.00  0.00    -0.000 C 
BRANCH  13  14
ATOM     14  C   UNL     1      23.976  51.987  28.312  1.00  0.00    -0.000 C 
BRANCH  14  15
ATOM     15  C   UNL     1      23.913  51.070  27.076  1.00  0.00    -0.000 C 
BRANCH  15  16
ATOM     16  C   UNL     1      23.639  51.839  25.776  1.00  0.00    -0.000 C 
BRANCH  16  17
ATOM     17  C   UNL     1      24.832  52.725  25.401  1.00  0.00    -0.003 C 
ATOM     18  C   UNL     1      24.421  54.192  25.305  1.00  0.00     0.004 C 
ENDBRANCH  16  17
ENDBRANCH  15  16
ENDBRANCH  14  15
ENDBRANCH  13  14
ENDBRANCH  12  13
ENDBRANCH  11  12
ENDBRANCH   1  11
TORSDOF 14
ENDMDL
MODEL 5
REMARK VINA RESULT:     0.665      1.390      2.428
REMARK INTER + INTRA:           0.643
REMARK INTER:                   1.316
REMARK INTRA:                  -0.673
REMARK UNBOUND:                -0.567
REMARK SMILES CCCCCCCCCCCCCCCC(=O)[O-]
REMARK SMILES IDX 9 1 10 2 11 3 12 4 13 5 14 6 15 7 16 8 17 9 18 10 8 11 7 12
REMARK SMILES IDX 6 13 5 14 4 15 3 16 2 17 1 18
REMARK H PARENT
REMARK Flexibility Score: inf
ROOT
ATOM      1  C   UNL     1      40.858  44.645  22.631  1.00  0.00     0.000 C 
ENDROOT
BRANCH   1   2
ATOM      2  C   UNL     1      39.873  45.666  23.219  1.00  0.00     0.000 C 
BRANCH   2   3
ATOM      3  C   UNL     1      39.413  45.242  24.619  1.00  0.00     0.000 C 
BRANCH   3   4
ATOM      4  C   UNL     1      38.074  45.897  24.980  1.00  0.00     0.000 C 
BRANCH   4   5
ATOM      5  C   UNL     1      37.183  46.048  23.741  1.00  0.00     0.000 C 
BRANCH   5   6
ATOM      6  C   UNL     1      35.958  46.922  24.048  1.00  0.00     0.006 C 
BRANCH   6   7
ATOM      7  C   UNL     1      34.666  46.338  23.462  1.00  0.00     0.053 C 
BRANCH   7   8
ATOM      8  C   UNL     1      33.718  45.900  24.536  1.00  0.00     0.041 C 
ATOM      9  O   UNL     1      32.581  45.452  24.234  1.00  0.00    -0.550 OA
ATOM     10  O   UNL     1      34.078  46.019  25.872  1.00  0.00    -0.550 OA
ENDBRANCH   7   8
ENDBRANCH   6   7
ENDBRANCH   5   6
ENDBRANCH   4   5
ENDBRANCH   3   4
ENDBRANCH   2   3
ENDBRANCH   1   2
BRANCH   1  11
ATOM     11  C   UNL     1      40.781  44.554  21.096  1.00  0.00     0.000 C 
BRANCH  11  12
ATOM     12  C   UNL     1      41.120  43.170  20.508  1.00  0.00    -0.000 C 
BRANCH  12  13
ATOM     13  C   UNL     1      40.436  42.846  19.167  1.00  0.00    -0.000 C 
BRANCH  13  14
ATOM     14  C   UNL     1      41.093  41.712  18.356  1.00  0.00    -0.000 C 
BRANCH  14  15
ATOM     15  C   UNL     1      40.394  40.344  18.467  1.00  0.00    -0.000 C 
BRANCH  15  16
ATOM     16  C   UNL     1      38.875  40.463  18.651  1.00  0.00    -0.000 C 
BRANCH  16  17
ATOM     17  C   UNL     1      38.373  39.487  19.721  1.00  0.00    -0.003 C 
ATOM     18  C   UNL     1      38.585  38.039  19.290  1.00  0.00     0.004 C 
ENDBRANCH  16  17
ENDBRANCH  15  16
ENDBRANCH  14  15
ENDBRANCH  13  14
ENDBRANCH  12  13
ENDBRANCH  11  12
ENDBRANCH   1  11
TORSDOF 14
ENDMDL
MODEL 6
REMARK VINA RESULT:     0.722      3.269      7.721
REMARK INTER + INTRA:           0.746
REMARK INTER:                   1.312
REMARK INTRA:                  -0.566
REMARK UNBOUND:                -0.567
REMARK SMILES CCCCCCCCCCCCCCCC(=O)[O-]
REMARK SMILES IDX 9 1 10 2 11 3 12 4 13 5 14 6 15 7 16 8 17 9 18 10 8 11 7 12
REMARK SMILES IDX 6 13 5 14 4 15 3 16 2 17 1 18
REMARK H PARENT
REMARK Flexibility Score: inf
ROOT
ATOM      1  C   UNL     1      40.933  45.122  21.348  1.00  0.00     0.000 C 
ENDROOT
BRANCH   1   2
ATOM      2  C   UNL     1      41.125  44.604  19.915  1.00  0.00     0.000 C 
BRANCH   2   3
ATOM      3  C   UNL     1      41.083  43.072  19.874  1.00  0.00     0.000 C 
BRANCH   3   4
ATOM      4  C   UNL     1      40.420  42.573  18.584  1.00  0.00     0.000 C 
BRANCH   4   5
ATOM      5  C   UNL     1      41.018  41.232  18.141  1.00  0.00     0.000 C 
BRANCH   5   6
ATOM      6  C   UNL     1      40.091  40.066  18.514  1.00  0.00     0.006 C 
BRANCH   6   7
ATOM      7  C   UNL     1      38.972  40.497  19.471  1.00  0.00     0.053 C 
BRANCH   7   8
ATOM      8  C   UNL     1      37.999  39.386  19.723  1.00  0.00     0.041 C 
ATOM      9  O   UNL     1      36.822  39.644  20.090  1.00  0.00    -0.550 OA
ATOM     10  O   UNL     1      38.403  38.064  19.586  1.00  0.00    -0.550 OA
ENDBRANCH   7   8
ENDBRANCH   6   7
ENDBRANCH   5   6
ENDBRANCH   4   5
ENDBRANCH   3   4
ENDBRANCH   2   3
ENDBRANCH   1   2
BRANCH   1  11
ATOM     11  C   UNL     1      41.125  44.025  22.411  1.00  0.00     0.000 C 
BRANCH  11  12
ATOM     12  C   UNL     1      41.057  44.515  23.872  1.00  0.00    -0.000 C 
BRANCH  12  13
ATOM     13  C   UNL     1      40.045  45.645  24.134  1.00  0.00    -0.000 C 
BRANCH  13  14
ATOM     14  C   UNL     1      38.651  45.179  24.599  1.00  0.00    -0.000 C 
BRANCH  14  15
ATOM     15  C   UNL     1      37.468  45.837  23.866  1.00  0.00    -0.000 C 
BRANCH  15  16
ATOM     16  C   UNL     1      36.447  46.467  24.825  1.00  0.00    -0.000 C 
BRANCH  16  17
ATOM     17  C   UNL     1      35.037  46.433  24.224  1.00  0.00    -0.003 C 
ATOM     18  C   UNL     1      33.981  46.759  25.277  1.00  0.00     0.004 C 
ENDBRANCH  16  17
ENDBRANCH  15  16
ENDBRANCH  14  15
ENDBRANCH  13  14
ENDBRANCH  12  13
ENDBRANCH  11  12
ENDBRANCH   1  11
TORSDOF 14
ENDMDL
