MODEL 1
REMARK VINA RESULT:    -2.535      0.000      0.000
REMARK INTER + INTRA:          -6.706
REMARK INTER:                  -4.610
REMARK INTRA:                  -2.095
REMARK UNBOUND:                -2.095
REMARK SMILES CCCCCCCCCCCCCCCC(=O)[O-]
REMARK SMILES IDX 9 1 10 2 11 3 12 4 13 5 14 6 15 7 16 8 17 9 18 10 8 11 7 12
REMARK SMILES IDX 6 13 5 14 4 15 3 16 2 17 1 18
REMARK H PARENT
REMARK Flexibility Score: inf
ROOT
ATOM      1  C   UNL     1     -11.643 -18.953  15.748  1.00  0.00     0.000 C 
ENDROOT
BRANCH   1   2
ATOM      2  C   UNL     1     -10.509 -17.950  16.018  1.00  0.00     0.000 C 
BRANCH   2   3
ATOM      3  C   UNL     1     -10.439 -16.825  14.969  1.00  0.00     0.000 C 
BRANCH   3   4
ATOM      4  C   UNL     1      -9.037 -16.546  14.398  1.00  0.00     0.000 C 
BRANCH   4   5
ATOM      5  C   UNL     1      -8.372 -17.798  13.800  1.00  0.00     0.000 C 
BRANCH   5   6
ATOM      6  C   UNL     1      -8.278 -17.736  12.261  1.00  0.00     0.006 C 
BRANCH   6   7
ATOM      7  C   UNL     1      -9.607 -18.047  11.554  1.00  0.00     0.053 C 
BRANCH   7   8
ATOM      8  C   UNL     1      -9.561 -17.725  10.093  1.00  0.00     0.041 C 
ATOM      9  O   UNL     1      -9.788 -16.551   9.696  1.00  0.00    -0.550 OA
ATOM     10  O   UNL     1      -9.243 -18.714   9.172  1.00  0.00    -0.550 OA
ENDBRANCH   7   8
ENDBRANCH   6   7
ENDBRANCH   5   6
ENDBRANCH   4   5
ENDBRANCH   3   4
ENDBRANCH   2   3
ENDBRANCH   1   2
BRANCH   1  11
ATOM     11  C   UNL     1     -11.185 -20.419  15.861  1.00  0.00     0.000 C 
BRANCH  11  12
ATOM     12  C   UNL     1      -9.662 -20.641  15.757  1.00  0.00    -0.000 C 
BRANCH  12  13
ATOM     13  C   UNL     1      -9.227 -21.793  14.828  1.00  0.00    -0.000 C 
BRANCH  13  14
ATOM     14  C   UNL     1      -8.593 -21.353  13.495  1.00  0.00    -0.000 C 
BRANCH  14  15
ATOM     15  C   UNL     1      -9.376 -21.853  12.268  1.00  0.00    -0.000 C 
BRANCH  15  16
ATOM     16  C   UNL     1     -10.867 -21.473  12.314  1.00  0.00    -0.000 C 
BRANCH  16  17
ATOM     17  C   UNL     1     -11.846 -22.658  12.239  1.00  0.00    -0.003 C 
ATOM     18  C   UNL     1     -12.845 -22.685  13.394  1.00  0.00     0.004 C 
ENDBRANCH  16  17
ENDBRANCH  15  16
ENDBRANCH  14  15
ENDBRANCH  13  14
ENDBRANCH  12  13
ENDBRANCH  11  12
ENDBRANCH   1  11
TORSDOF 14
ENDMDL
MODEL 2
REMARK VINA RESULT:    -2.469      2.445      4.889
REMARK INTER + INTRA:          -6.586
REMARK INTER:                  -4.779
REMARK INTRA:                  -1.807
REMARK UNBOUND:                -2.095
REMARK SMILES CCCCCCCCCCCCCCCC(=O)[O-]
REMARK SMILES IDX 9 1 10 2 11 3 12 4 13 5 14 6 15 7 16 8 17 9 18 10 8 11 7 12
REMARK SMILES IDX 6 13 5 14 4 15 3 16 2 17 1 18
REMARK H PARENT
REMARK Flexibility Score: inf
ROOT
ATOM      1  C   UNL     1     -11.072 -17.378  14.789  1.00  0.00     0.000 C 
ENDROOT
BRANCH   1   2
ATOM      2  C   UNL     1     -11.546 -18.311  15.916  1.00  0.00     0.000 C 
BRANCH   2   3
ATOM      3  C   UNL     1     -11.438 -19.802  15.545  1.00  0.00     0.000 C 
BRANCH   3   4
ATOM      4  C   UNL     1     -10.079 -20.457  15.853  1.00  0.00     0.000 C 
BRANCH   4   5
ATOM      5  C   UNL     1      -9.600 -21.398  14.733  1.00  0.00     0.000 C 
BRANCH   5   6
ATOM      6  C   UNL     1     -10.669 -21.606  13.641  1.00  0.00     0.006 C 
BRANCH   6   7
ATOM      7  C   UNL     1     -11.417 -22.944  13.763  1.00  0.00     0.053 C 
BRANCH   7   8
ATOM      8  C   UNL     1     -12.660 -22.978  12.931  1.00  0.00     0.041 C 
ATOM      9  O   UNL     1     -13.792 -22.966  13.483  1.00  0.00    -0.550 OA
ATOM     10  O   UNL     1     -12.570 -22.995  11.546  1.00  0.00    -0.550 OA
ENDBRANCH   7   8
ENDBRANCH   6   7
ENDBRANCH   5   6
ENDBRANCH   4   5
ENDBRANCH   3   4
ENDBRANCH   2   3
ENDBRANCH   1   2
BRANCH   1  11
ATOM     11  C   UNL     1      -9.826 -16.558  15.176  1.00  0.00     0.000 C 
BRANCH  11  12
ATOM     12  C   UNL     1      -8.476 -17.260  14.928  1.00  0.00    -0.000 C 
BRANCH  12  13
ATOM     13  C   UNL     1      -7.990 -17.254  13.464  1.00  0.00    -0.000 C 
BRANCH  13  14
ATOM     14  C   UNL     1      -8.101 -18.604  12.732  1.00  0.00    -0.000 C 
BRANCH  14  15
ATOM     15  C   UNL     1      -9.389 -18.727  11.899  1.00  0.00    -0.000 C 
BRANCH  15  16
ATOM     16  C   UNL     1      -9.143 -19.325  10.502  1.00  0.00    -0.000 C 
BRANCH  16  17
ATOM     17  C   UNL     1      -9.434 -18.376   9.326  1.00  0.00    -0.003 C 
ATOM     18  C   UNL     1      -9.468 -16.904   9.737  1.00  0.00     0.004 C 
ENDBRANCH  16  17
ENDBRANCH  15  16
ENDBRANCH  14  15
ENDBRANCH  13  14
ENDBRANCH  12  13
ENDBRANCH  11  12
ENDBRANCH   1  11
TORSDOF 14
ENDMDL
MODEL 3
REMARK VINA RESULT:    -2.399      2.083      3.842
REMARK INTER + INTRA:          -6.458
REMARK INTER:                  -4.476
REMARK INTRA:                  -1.981
REMARK UNBOUND:                -2.095
REMARK SMILES CCCCCCCCCCCCCCCC(=O)[O-]
REMARK SMILES IDX 9 1 10 2 11 3 12 4 13 5 14 6 15 7 16 8 17 9 18 10 8 11 7 12
REMARK SMILES IDX 6 13 5 14 4 15 3 16 2 17 1 18
REMARK H PARENT
REMARK Flexibility Score: inf
ROOT
ATOM      1  C   UNL     1      -8.622 -21.235  11.800  1.00  0.00     0.000 C 
ENDROOT
BRANCH   1   2
ATOM      2  C   UNL     1      -9.861 -20.362  11.536  1.00  0.00     0.000 C 
BRANCH   2   3
ATOM      3  C   UNL     1      -9.564 -19.160  10.620  1.00  0.00     0.000 C 
BRANCH   3   4
ATOM      4  C   UNL     1      -9.581 -17.787  11.315  1.00  0.00     0.000 C 
BRANCH   4   5
ATOM      5  C   UNL     1      -8.267 -17.470  12.051  1.00  0.00     0.000 C 
BRANCH   5   6
ATOM      6  C   UNL     1      -8.325 -17.842  13.547  1.00  0.00     0.006 C 
BRANCH   6   7
ATOM      7  C   UNL     1      -8.797 -16.688  14.447  1.00  0.00     0.053 C 
BRANCH   7   8
ATOM      8  C   UNL     1     -10.203 -16.877  14.922  1.00  0.00     0.041 C 
ATOM      9  O   UNL     1     -10.427 -17.285  16.092  1.00  0.00    -0.550 OA
ATOM     10  O   UNL     1     -11.267 -16.579  14.081  1.00  0.00    -0.550 OA
ENDBRANCH   7   8
ENDBRANCH   6   7
ENDBRANCH   5   6
ENDBRANCH   4   5
ENDBRANCH   3   4
ENDBRANCH   2   3
ENDBRANCH   1   2
BRANCH   1  11
ATOM     11  C   UNL     1      -8.781 -22.139  13.037  1.00  0.00     0.000 C 
BRANCH  11  12
ATOM     12  C   UNL     1      -8.196 -21.568  14.346  1.00  0.00    -0.000 C 
BRANCH  12  13
ATOM     13  C   UNL     1      -9.230 -21.259  15.448  1.00  0.00    -0.000 C 
BRANCH  13  14
ATOM     14  C   UNL     1     -10.573 -20.698  14.946  1.00  0.00    -0.000 C 
BRANCH  14  15
ATOM     15  C   UNL     1     -11.783 -21.507  15.445  1.00  0.00    -0.000 C 
BRANCH  15  16
ATOM     16  C   UNL     1     -11.993 -22.814  14.660  1.00  0.00    -0.000 C 
BRANCH  16  17
ATOM     17  C   UNL     1     -12.994 -22.721  13.493  1.00  0.00    -0.003 C 
ATOM     18  C   UNL     1     -12.357 -23.002  12.133  1.00  0.00     0.004 C 
ENDBRANCH  16  17
ENDBRANCH  15  16
ENDBRANCH  14  15
ENDBRANCH  13  14
ENDBRANCH  12  13
ENDBRANCH  11  12
ENDBRANCH   1  11
TORSDOF 14
ENDMDL
MODEL 4
REMARK VINA RESULT:    -2.343      2.230      4.900
REMARK INTER + INTRA:          -6.357
REMARK INTER:                  -4.789
REMARK INTRA:                  -1.568
REMARK UNBOUND:                -2.095
REMARK SMILES CCCCCCCCCCCCCCCC(=O)[O-]
REMARK SMILES IDX 9 1 10 2 11 3 12 4 13 5 14 6 15 7 16 8 17 9 18 10 8 11 7 12
REMARK SMILES IDX 6 13 5 14 4 15 3 16 2 17 1 18
REMARK H PARENT
REMARK Flexibility Score: inf
ROOT
ATOM      1  C   UNL     1     -11.858 -22.392  13.042  1.00  0.00     0.000 C 
ENDROOT
BRANCH   1   2
ATOM      2  C   UNL     1     -12.765 -22.882  14.183  1.00  0.00     0.000 C 
BRANCH   2   3
ATOM      3  C   UNL     1     -13.816 -21.839  14.604  1.00  0.00     0.000 C 
BRANCH   3   4
ATOM      4  C   UNL     1     -13.566 -21.169  15.968  1.00  0.00     0.000 C 
BRANCH   4   5
ATOM      5  C   UNL     1     -12.128 -20.646  16.125  1.00  0.00     0.000 C 
BRANCH   5   6
ATOM      6  C   UNL     1     -11.946 -19.235  15.528  1.00  0.00     0.006 C 
BRANCH   6   7
ATOM      7  C   UNL     1     -10.488 -18.906  15.167  1.00  0.00     0.053 C 
BRANCH   7   8
ATOM      8  C   UNL     1     -10.280 -17.445  14.920  1.00  0.00     0.041 C 
ATOM      9  O   UNL     1     -11.268 -16.667  14.848  1.00  0.00    -0.550 OA
ATOM     10  O   UNL     1      -8.994 -16.937  14.796  1.00  0.00    -0.550 OA
ENDBRANCH   7   8
ENDBRANCH   6   7
ENDBRANCH   5   6
ENDBRANCH   4   5
ENDBRANCH   3   4
ENDBRANCH   2   3
ENDBRANCH   1   2
BRANCH   1  11
ATOM     11  C   UNL     1     -10.379 -22.767  13.250  1.00  0.00     0.000 C 
BRANCH  11  12
ATOM     12  C   UNL     1      -9.414 -22.262  12.159  1.00  0.00    -0.000 C 
BRANCH  12  13
ATOM     13  C   UNL     1      -8.244 -21.394  12.665  1.00  0.00    -0.000 C 
BRANCH  13  14
ATOM     14  C   UNL     1      -8.387 -19.883  12.401  1.00  0.00    -0.000 C 
BRANCH  14  15
ATOM     15  C   UNL     1      -9.680 -19.530  11.646  1.00  0.00    -0.000 C 
BRANCH  15  16
ATOM     16  C   UNL     1      -9.753 -18.045  11.246  1.00  0.00    -0.000 C 
BRANCH  16  17
ATOM     17  C   UNL     1      -9.302 -17.733   9.808  1.00  0.00    -0.003 C 
ATOM     18  C   UNL     1      -8.841 -18.974   9.043  1.00  0.00     0.004 C 
ENDBRANCH  16  17
ENDBRANCH  15  16
ENDBRANCH  14  15
ENDBRANCH  13  14
ENDBRANCH  12  13
ENDBRANCH  11  12
ENDBRANCH   1  11
TORSDOF 14
ENDMDL
MODEL 5
REMARK VINA RESULT:    -2.288      1.318      2.733
REMARK INTER + INTRA:          -6.256
REMARK INTER:                  -4.514
REMARK INTRA:                  -1.743
REMARK UNBOUND:                -2.095
REMARK SMILES CCCCCCCCCCCCCCCC(=O)[O-]
REMARK SMILES IDX 9 1 10 2 11 3 12 4 13 5 14 6 15 7 16 8 17 9 18 10 8 11 7 12
REMARK SMILES IDX 6 13 5 14 4 15 3 16 2 17 1 18
REMARK H PARENT
REMARK Flexibility Score: inf
ROOT
ATOM      1  C   UNL     1     -10.482 -16.733  13.963  1.00  0.00     0.000 C 
ENDROOT
BRANCH   1   2
ATOM      2  C   UNL     1      -9.004 -16.799  14.382  1.00  0.00     0.000 C 
BRANCH   2   3
ATOM      3  C   UNL     1      -8.153 -17.676  13.445  1.00  0.00     0.000 C 
BRANCH   3   4
ATOM      4  C   UNL     1      -8.055 -19.159  13.845  1.00  0.00     0.000 C 
BRANCH   4   5
ATOM      5  C   UNL     1      -8.412 -20.116  12.694  1.00  0.00     0.000 C 
BRANCH   5   6
ATOM      6  C   UNL     1      -9.579 -19.591  11.832  1.00  0.00     0.006 C 
BRANCH   6   7
ATOM      7  C   UNL     1      -9.176 -19.269  10.384  1.00  0.00     0.053 C 
BRANCH   7   8
ATOM      8  C   UNL     1      -9.004 -17.800  10.156  1.00  0.00     0.041 C 
ATOM      9  O   UNL     1      -7.878 -17.335   9.840  1.00  0.00    -0.550 OA
ATOM     10  O   UNL     1     -10.094 -16.947  10.267  1.00  0.00    -0.550 OA
ENDBRANCH   7   8
ENDBRANCH   6   7
ENDBRANCH   5   6
ENDBRANCH   4   5
ENDBRANCH   3   4
ENDBRANCH   2   3
ENDBRANCH   1   2
BRANCH   1  11
ATOM     11  C   UNL     1     -11.418 -17.449  14.955  1.00  0.00     0.000 C 
BRANCH  11  12
ATOM     12  C   UNL     1     -10.711 -18.164  16.125  1.00  0.00    -0.000 C 
BRANCH  12  13
ATOM     13  C   UNL     1     -10.830 -19.702  16.124  1.00  0.00    -0.000 C 
BRANCH  13  14
ATOM     14  C   UNL     1     -12.099 -20.259  15.453  1.00  0.00    -0.000 C 
BRANCH  14  15
ATOM     15  C   UNL     1     -12.371 -21.729  15.819  1.00  0.00    -0.000 C 
BRANCH  15  16
ATOM     16  C   UNL     1     -11.951 -22.709  14.709  1.00  0.00    -0.000 C 
BRANCH  16  17
ATOM     17  C   UNL     1     -12.735 -22.576  13.391  1.00  0.00    -0.003 C 
ATOM     18  C   UNL     1     -11.833 -22.557  12.157  1.00  0.00     0.004 C 
ENDBRANCH  16  17
ENDBRANCH  15  16
ENDBRANCH  14  15
ENDBRANCH  13  14
ENDBRANCH  12  13
ENDBRANCH  11  12
ENDBRANCH   1  11
TORSDOF 14
ENDMDL
MODEL 6
REMARK VINA RESULT:    -2.209      2.881      4.928
REMARK INTER + INTRA:          -6.113
REMARK INTER:                  -4.573
REMARK INTRA:                  -1.540
REMARK UNBOUND:                -2.095
REMARK SMILES CCCCCCCCCCCCCCCC(=O)[O-]
REMARK SMILES IDX 9 1 10 2 11 3 12 4 13 5 14 6 15 7 16 8 17 9 18 10 8 11 7 12
REMARK SMILES IDX 6 13 5 14 4 15 3 16 2 17 1 18
REMARK H PARENT
REMARK Flexibility Score: inf
ROOT
ATOM      1  C   UNL     1     -10.699 -17.222  14.202  1.00  0.00     0.000 C 
ENDROOT
BRANCH   1   2
ATOM      2  C   UNL     1     -11.295 -17.478  15.596  1.00  0.00     0.000 C 
BRANCH   2   3
ATOM      3  C   UNL     1     -11.424 -18.977  15.927  1.00  0.00     0.000 C 
BRANCH   3   4
ATOM      4  C   UNL     1     -10.737 -19.930  14.931  1.00  0.00     0.000 C 
BRANCH   4   5
ATOM      5  C   UNL     1     -10.386 -21.294  15.550  1.00  0.00     0.000 C 
BRANCH   5   6
ATOM      6  C   UNL     1     -11.610 -22.227  15.650  1.00  0.00     0.006 C 
BRANCH   6   7
ATOM      7  C   UNL     1     -12.143 -22.688  14.284  1.00  0.00     0.053 C 
BRANCH   7   8
ATOM      8  C   UNL     1     -13.594 -22.371  14.104  1.00  0.00     0.041 C 
ATOM      9  O   UNL     1     -14.114 -21.407  14.726  1.00  0.00    -0.550 OA
ATOM     10  O   UNL     1     -14.368 -23.124  13.231  1.00  0.00    -0.550 OA
ENDBRANCH   7   8
ENDBRANCH   6   7
ENDBRANCH   5   6
ENDBRANCH   4   5
ENDBRANCH   3   4
ENDBRANCH   2   3
ENDBRANCH   1   2
BRANCH   1  11
ATOM     11  C   UNL     1      -9.238 -16.736  14.257  1.00  0.00     0.000 C 
BRANCH  11  12
ATOM     12  C   UNL     1      -8.215 -17.656  13.562  1.00  0.00    -0.000 C 
BRANCH  12  13
ATOM     13  C   UNL     1      -8.178 -17.557  12.024  1.00  0.00    -0.000 C 
BRANCH  13  14
ATOM     14  C   UNL     1      -9.503 -17.893  11.314  1.00  0.00    -0.000 C 
BRANCH  14  15
ATOM     15  C   UNL     1      -9.753 -19.407  11.202  1.00  0.00    -0.000 C 
BRANCH  15  16
ATOM     16  C   UNL     1      -8.452 -20.218  11.052  1.00  0.00    -0.000 C 
BRANCH  16  17
ATOM     17  C   UNL     1      -8.177 -21.223  12.184  1.00  0.00    -0.003 C 
ATOM     18  C   UNL     1      -9.120 -22.425  12.161  1.00  0.00     0.004 C 
ENDBRANCH  16  17
ENDBRANCH  15  16
ENDBRANCH  14  15
ENDBRANCH  13  14
ENDBRANCH  12  13
ENDBRANCH  11  12
ENDBRANCH   1  11
TORSDOF 14
ENDMDL
MODEL 7
REMARK VINA RESULT:    -2.208      2.623      4.294
REMARK INTER + INTRA:          -6.111
REMARK INTER:                  -4.599
REMARK INTRA:                  -1.512
REMARK UNBOUND:                -2.095
REMARK SMILES CCCCCCCCCCCCCCCC(=O)[O-]
REMARK SMILES IDX 9 1 10 2 11 3 12 4 13 5 14 6 15 7 16 8 17 9 18 10 8 11 7 12
REMARK SMILES IDX 6 13 5 14 4 15 3 16 2 17 1 18
REMARK H PARENT
REMARK Flexibility Score: inf
ROOT
ATOM      1  C   UNL     1      -9.672 -18.878  10.188  1.00  0.00     0.000 C 
ENDROOT
BRANCH   1   2
ATOM      2  C   UNL     1      -9.662 -17.502  10.876  1.00  0.00     0.000 C 
BRANCH   2   3
ATOM      3  C   UNL     1      -9.839 -17.595  12.403  1.00  0.00     0.000 C 
BRANCH   3   4
ATOM      4  C   UNL     1      -8.626 -17.139  13.233  1.00  0.00     0.000 C 
BRANCH   4   5
ATOM      5  C   UNL     1      -8.660 -17.657  14.682  1.00  0.00     0.000 C 
BRANCH   5   6
ATOM      6  C   UNL     1      -9.361 -19.027  14.800  1.00  0.00     0.006 C 
BRANCH   6   7
ATOM      7  C   UNL     1     -10.172 -19.190  16.096  1.00  0.00     0.053 C 
BRANCH   7   8
ATOM      8  C   UNL     1     -11.585 -18.720  15.944  1.00  0.00     0.041 C 
ATOM      9  O   UNL     1     -12.541 -19.519  16.125  1.00  0.00    -0.550 OA
ATOM     10  O   UNL     1     -11.846 -17.393  15.629  1.00  0.00    -0.550 OA
ENDBRANCH   7   8
ENDBRANCH   6   7
ENDBRANCH   5   6
ENDBRANCH   4   5
ENDBRANCH   3   4
ENDBRANCH   2   3
ENDBRANCH   1   2
BRANCH   1  11
ATOM     11  C   UNL     1      -8.325 -19.616  10.307  1.00  0.00     0.000 C 
BRANCH  11  12
ATOM     12  C   UNL     1      -8.109 -20.377  11.631  1.00  0.00    -0.000 C 
BRANCH  12  13
ATOM     13  C   UNL     1      -7.875 -21.895  11.487  1.00  0.00    -0.000 C 
BRANCH  13  14
ATOM     14  C   UNL     1      -9.033 -22.785  11.978  1.00  0.00    -0.000 C 
BRANCH  14  15
ATOM     15  C   UNL     1     -10.117 -21.992  12.730  1.00  0.00    -0.000 C 
BRANCH  15  16
ATOM     16  C   UNL     1     -11.509 -22.123  12.086  1.00  0.00    -0.000 C 
BRANCH  16  17
ATOM     17  C   UNL     1     -12.559 -22.850  12.944  1.00  0.00    -0.003 C 
ATOM     18  C   UNL     1     -12.457 -22.511  14.431  1.00  0.00     0.004 C 
ENDBRANCH  16  17
ENDBRANCH  15  16
ENDBRANCH  14  15
ENDBRANCH  13  14
ENDBRANCH  12  13
ENDBRANCH  11  12
ENDBRANCH   1  11
TORSDOF 14
ENDMDL
MODEL 8
REMARK VINA RESULT:    -2.178      1.073      3.856
REMARK INTER + INTRA:          -6.056
REMARK INTER:                  -4.091
REMARK INTRA:                  -1.966
REMARK UNBOUND:                -2.095
REMARK SMILES CCCCCCCCCCCCCCCC(=O)[O-]
REMARK SMILES IDX 9 1 10 2 11 3 12 4 13 5 14 6 15 7 16 8 17 9 18 10 8 11 7 12
REMARK SMILES IDX 6 13 5 14 4 15 3 16 2 17 1 18
REMARK H PARENT
REMARK Flexibility Score: inf
ROOT
ATOM      1  C   UNL     1     -10.770 -21.234  11.967  1.00  0.00     0.000 C 
ENDROOT
BRANCH   1   2
ATOM      2  C   UNL     1      -9.280 -21.490  12.252  1.00  0.00     0.000 C 
BRANCH   2   3
ATOM      3  C   UNL     1      -8.889 -21.193  13.711  1.00  0.00     0.000 C 
BRANCH   3   4
ATOM      4  C   UNL     1      -8.075 -19.903  13.922  1.00  0.00     0.000 C 
BRANCH   4   5
ATOM      5  C   UNL     1      -7.883 -19.096  12.626  1.00  0.00     0.000 C 
BRANCH   5   6
ATOM      6  C   UNL     1      -8.654 -17.760  12.645  1.00  0.00     0.006 C 
BRANCH   6   7
ATOM      7  C   UNL     1      -9.736 -17.662  11.557  1.00  0.00     0.053 C 
BRANCH   7   8
ATOM      8  C   UNL     1      -9.158 -17.696  10.178  1.00  0.00     0.041 C 
ATOM      9  O   UNL     1      -8.459 -16.736   9.760  1.00  0.00    -0.550 OA
ATOM     10  O   UNL     1      -9.370 -18.799   9.362  1.00  0.00    -0.550 OA
ENDBRANCH   7   8
ENDBRANCH   6   7
ENDBRANCH   5   6
ENDBRANCH   4   5
ENDBRANCH   3   4
ENDBRANCH   2   3
ENDBRANCH   1   2
BRANCH   1  11
ATOM     11  C   UNL     1     -11.621 -22.516  12.035  1.00  0.00     0.000 C 
BRANCH  11  12
ATOM     12  C   UNL     1     -11.989 -22.984  13.458  1.00  0.00    -0.000 C 
BRANCH  12  13
ATOM     13  C   UNL     1     -13.285 -22.380  14.035  1.00  0.00    -0.000 C 
BRANCH  13  14
ATOM     14  C   UNL     1     -13.321 -22.255  15.570  1.00  0.00    -0.000 C 
BRANCH  14  15
ATOM     15  C   UNL     1     -12.183 -21.381  16.125  1.00  0.00    -0.000 C 
BRANCH  15  16
ATOM     16  C   UNL     1     -12.364 -19.887  15.802  1.00  0.00    -0.000 C 
BRANCH  16  17
ATOM     17  C   UNL     1     -11.060 -19.072  15.729  1.00  0.00    -0.003 C 
ATOM     18  C   UNL     1     -11.287 -17.611  15.344  1.00  0.00     0.004 C 
ENDBRANCH  16  17
ENDBRANCH  15  16
ENDBRANCH  14  15
ENDBRANCH  13  14
ENDBRANCH  12  13
ENDBRANCH  11  12
ENDBRANCH   1  11
TORSDOF 14
ENDMDL
