MODEL 1
REMARK VINA RESULT:     9.456      0.000      0.000
REMARK INTER + INTRA:          15.465
REMARK INTER:                  13.878
REMARK INTRA:                   1.587
REMARK UNBOUND:                 1.587
REMARK SMILES O=c1c(O[C@@H]2O[C@H](CO)[C@H](O)[C@H](O)[C@H]2O)c(-c2ccc(O)c(O)c2)oc2cc(O)cc(O)c12
REMARK SMILES IDX 4 1 3 2 16 3 25 4 2 5 26 6 1 7 33 8 27 9 31 10 28 11 30 12
REMARK SMILES IDX 17 13 18 14 19 15 20 16 24 17 22 18 21 19 23 21 32 23 29 25
REMARK SMILES IDX 5 27 14 28 6 29 12 30 7 31 10 32 15 33 13 35 8 37 9 38 11 40
REMARK H PARENT 21 20 23 22 32 24 29 26 15 34 13 36 9 39 11 41
REMARK Flexibility Score: inf
ROOT
ATOM      1  O   UNL     1     -24.711  25.298 -30.189  1.00  0.00    -0.454 OA
ENDROOT
BRANCH   1   2
ATOM      2  C   UNL     1     -24.252  26.099 -31.237  1.00  0.00     0.214 A 
ATOM      3  C   UNL     1     -23.594  27.311 -30.966  1.00  0.00     0.180 A 
ATOM      4  O   UNL     1     -23.122  28.042 -31.967  1.00  0.00    -0.452 OA
ATOM      5  C   UNL     1     -24.431  25.701 -32.568  1.00  0.00     0.239 A 
ATOM      6  C   UNL     1     -23.242  27.695 -33.244  1.00  0.00     0.146 A 
ATOM      7  O   UNL     1     -25.109  24.667 -32.798  1.00  0.00    -0.285 OA
ATOM      8  C   UNL     1     -23.884  26.481 -33.615  1.00  0.00     0.111 A 
ATOM      9  C   UNL     1     -22.731  28.555 -34.219  1.00  0.00     0.094 A 
ATOM     10  C   UNL     1     -23.952  26.145 -35.002  1.00  0.00     0.134 A 
ATOM     11  C   UNL     1     -22.849  28.242 -35.570  1.00  0.00     0.123 A 
ATOM     12  C   UNL     1     -23.460  27.045 -35.954  1.00  0.00     0.093 A 
BRANCH   3  13
ATOM     13  C   UNL     1     -23.392  27.795 -29.583  1.00  0.00     0.025 A 
ATOM     14  C   UNL     1     -24.320  28.653 -28.966  1.00  0.00     0.016 A 
ATOM     15  C   UNL     1     -24.116  29.090 -27.656  1.00  0.00     0.051 A 
ATOM     16  C   UNL     1     -22.975  28.692 -26.947  1.00  0.00     0.157 A 
ATOM     17  C   UNL     1     -22.237  27.418 -28.878  1.00  0.00     0.062 A 
ATOM     18  C   UNL     1     -22.029  27.857 -27.565  1.00  0.00     0.158 A 
BRANCH  16  19
ATOM     19  O   UNL     1     -22.778  29.125 -25.636  1.00  0.00    -0.504 OA
ATOM     20  H   UNL     1     -21.889  29.501 -25.330  1.00  0.00     0.293 HD
ENDBRANCH  16  19
BRANCH  18  21
ATOM     21  O   UNL     1     -20.876  27.453 -26.891  1.00  0.00    -0.504 OA
ATOM     22  H   UNL     1     -20.790  27.520 -25.884  1.00  0.00     0.293 HD
ENDBRANCH  18  21
ENDBRANCH   3  13
BRANCH  10  23
ATOM     23  O   UNL     1     -24.462  24.938 -35.492  1.00  0.00    -0.507 OA
ATOM     24  H   UNL     1     -25.044  24.843 -36.310  1.00  0.00     0.293 HD
ENDBRANCH  10  23
BRANCH  11  25
ATOM     25  O   UNL     1     -22.350  29.125 -36.525  1.00  0.00    -0.508 OA
ATOM     26  H   UNL     1     -22.247  30.114 -36.331  1.00  0.00     0.293 HD
ENDBRANCH  11  25
ENDBRANCH   1   2
BRANCH   1  27
ATOM     27  C   UNL     1     -24.624  23.875 -30.232  1.00  0.00     0.339 C 
ATOM     28  C   UNL     1     -23.209  23.460 -30.691  1.00  0.00     0.214 C 
ATOM     29  O   UNL     1     -25.039  23.331 -28.980  1.00  0.00    -0.332 OA
ATOM     30  C   UNL     1     -22.144  23.797 -29.610  1.00  0.00     0.180 C 
ATOM     31  C   UNL     1     -23.985  22.943 -28.104  1.00  0.00     0.179 C 
ATOM     32  C   UNL     1     -22.751  23.876 -28.186  1.00  0.00     0.177 C 
BRANCH  28  33
ATOM     33  O   UNL     1     -23.210  22.082 -30.965  1.00  0.00    -0.384 OA
ATOM     34  H   UNL     1     -24.161  21.793 -30.982  1.00  0.00     0.211 HD
ENDBRANCH  28  33
BRANCH  30  35
ATOM     35  O   UNL     1     -21.430  24.965 -29.935  1.00  0.00    -0.387 OA
ATOM     36  H   UNL     1     -20.569  24.692 -30.350  1.00  0.00     0.211 HD
ENDBRANCH  30  35
BRANCH  31  37
ATOM     37  C   UNL     1     -24.547  22.876 -26.674  1.00  0.00     0.191 C 
BRANCH  37  38
ATOM     38  O   UNL     1     -24.830  21.550 -26.309  1.00  0.00    -0.394 OA
ATOM     39  H   UNL     1     -24.596  21.456 -25.349  1.00  0.00     0.210 HD
ENDBRANCH  37  38
ENDBRANCH  31  37
BRANCH  32  40
ATOM     40  O   UNL     1     -23.136  25.189 -27.861  1.00  0.00    -0.387 OA
ATOM     41  H   UNL     1     -24.116  25.174 -27.702  1.00  0.00     0.211 HD
ENDBRANCH  32  40
ENDBRANCH   1  27
TORSDOF 12
ENDMDL
MODEL 2
REMARK VINA RESULT:     9.568      2.426      6.435
REMARK INTER + INTRA:          15.629
REMARK INTER:                  14.796
REMARK INTRA:                   0.833
REMARK UNBOUND:                 1.587
REMARK SMILES O=c1c(O[C@@H]2O[C@H](CO)[C@H](O)[C@H](O)[C@H]2O)c(-c2ccc(O)c(O)c2)oc2cc(O)cc(O)c12
REMARK SMILES IDX 4 1 3 2 16 3 25 4 2 5 26 6 1 7 33 8 27 9 31 10 28 11 30 12
REMARK SMILES IDX 17 13 18 14 19 15 20 16 24 17 22 18 21 19 23 21 32 23 29 25
REMARK SMILES IDX 5 27 14 28 6 29 12 30 7 31 10 32 15 33 13 35 8 37 9 38 11 40
REMARK H PARENT 21 20 23 22 32 24 29 26 15 34 13 36 9 39 11 41
REMARK Flexibility Score: inf
ROOT
ATOM      1  O   UNL     1     -23.419  26.079 -31.718  1.00  0.00    -0.454 OA
ENDROOT
BRANCH   1   2
ATOM      2  C   UNL     1     -24.507  25.426 -32.303  1.00  0.00     0.214 A 
ATOM      3  C   UNL     1     -24.725  25.517 -33.688  1.00  0.00     0.180 A 
ATOM      4  O   UNL     1     -25.734  24.856 -34.240  1.00  0.00    -0.452 OA
ATOM      5  C   UNL     1     -25.386  24.666 -31.521  1.00  0.00     0.239 A 
ATOM      6  C   UNL     1     -26.579  24.101 -33.547  1.00  0.00     0.146 A 
ATOM      7  O   UNL     1     -25.238  24.677 -30.272  1.00  0.00    -0.285 OA
ATOM      8  C   UNL     1     -26.431  23.941 -32.142  1.00  0.00     0.111 A 
ATOM      9  C   UNL     1     -27.623  23.472 -34.229  1.00  0.00     0.094 A 
ATOM     10  C   UNL     1     -27.349  23.089 -31.454  1.00  0.00     0.134 A 
ATOM     11  C   UNL     1     -28.543  22.685 -33.541  1.00  0.00     0.123 A 
ATOM     12  C   UNL     1     -28.405  22.501 -32.162  1.00  0.00     0.093 A 
BRANCH   3  13
ATOM     13  C   UNL     1     -23.844  26.320 -34.564  1.00  0.00     0.025 A 
ATOM     14  C   UNL     1     -22.456  26.096 -34.609  1.00  0.00     0.016 A 
ATOM     15  C   UNL     1     -21.644  26.858 -35.451  1.00  0.00     0.051 A 
ATOM     16  C   UNL     1     -22.201  27.866 -36.249  1.00  0.00     0.157 A 
ATOM     17  C   UNL     1     -24.395  27.348 -35.347  1.00  0.00     0.062 A 
ATOM     18  C   UNL     1     -23.583  28.115 -36.190  1.00  0.00     0.158 A 
BRANCH  16  19
ATOM     19  O   UNL     1     -21.388  28.620 -37.094  1.00  0.00    -0.504 OA
ATOM     20  H   UNL     1     -21.522  29.617 -37.209  1.00  0.00     0.293 HD
ENDBRANCH  16  19
BRANCH  18  21
ATOM     21  O   UNL     1     -24.167  29.120 -36.963  1.00  0.00    -0.504 OA
ATOM     22  H   UNL     1     -23.634  29.908 -37.312  1.00  0.00     0.293 HD
ENDBRANCH  18  21
ENDBRANCH   3  13
BRANCH  10  23
ATOM     23  O   UNL     1     -27.255  22.766 -30.097  1.00  0.00    -0.507 OA
ATOM     24  H   UNL     1     -27.547  23.360 -29.336  1.00  0.00     0.293 HD
ENDBRANCH  10  23
BRANCH  11  25
ATOM     25  O   UNL     1     -29.589  22.084 -34.238  1.00  0.00    -0.508 OA
ATOM     26  H   UNL     1     -30.499  22.522 -34.309  1.00  0.00     0.293 HD
ENDBRANCH  11  25
ENDBRANCH   1   2
BRANCH   1  27
ATOM     27  C   UNL     1     -23.354  26.326 -30.315  1.00  0.00     0.339 C 
ATOM     28  C   UNL     1     -22.007  27.001 -29.973  1.00  0.00     0.214 C 
ATOM     29  O   UNL     1     -24.514  27.046 -29.900  1.00  0.00    -0.332 OA
ATOM     30  C   UNL     1     -21.941  28.446 -30.540  1.00  0.00     0.180 C 
ATOM     31  C   UNL     1     -24.333  28.447 -29.724  1.00  0.00     0.179 C 
ATOM     32  C   UNL     1     -23.347  29.067 -30.745  1.00  0.00     0.177 C 
BRANCH  28  33
ATOM     33  O   UNL     1     -21.851  27.014 -28.577  1.00  0.00    -0.384 OA
ATOM     34  H   UNL     1     -21.463  26.136 -28.322  1.00  0.00     0.211 HD
ENDBRANCH  28  33
BRANCH  30  35
ATOM     35  O   UNL     1     -21.171  28.506 -31.717  1.00  0.00    -0.387 OA
ATOM     36  H   UNL     1     -21.695  29.001 -32.400  1.00  0.00     0.211 HD
ENDBRANCH  30  35
BRANCH  31  37
ATOM     37  C   UNL     1     -25.712  29.124 -29.790  1.00  0.00     0.191 C 
BRANCH  37  38
ATOM     38  O   UNL     1     -26.428  28.918 -28.600  1.00  0.00    -0.394 OA
ATOM     39  H   UNL     1     -27.072  28.182 -28.770  1.00  0.00     0.210 HD
ENDBRANCH  37  38
ENDBRANCH  31  37
BRANCH  32  40
ATOM     40  O   UNL     1     -23.824  28.842 -32.050  1.00  0.00    -0.387 OA
ATOM     41  H   UNL     1     -24.782  28.593 -31.970  1.00  0.00     0.211 HD
ENDBRANCH  32  40
ENDBRANCH   1  27
TORSDOF 12
ENDMDL
MODEL 3
REMARK VINA RESULT:     9.640      2.217      5.171
REMARK INTER + INTRA:          15.735
REMARK INTER:                  14.827
REMARK INTRA:                   0.908
REMARK UNBOUND:                 1.587
REMARK SMILES O=c1c(O[C@@H]2O[C@H](CO)[C@H](O)[C@H](O)[C@H]2O)c(-c2ccc(O)c(O)c2)oc2cc(O)cc(O)c12
REMARK SMILES IDX 4 1 3 2 16 3 25 4 2 5 26 6 1 7 33 8 27 9 31 10 28 11 30 12
REMARK SMILES IDX 17 13 18 14 19 15 20 16 24 17 22 18 21 19 23 21 32 23 29 25
REMARK SMILES IDX 5 27 14 28 6 29 12 30 7 31 10 32 15 33 13 35 8 37 9 38 11 40
REMARK H PARENT 21 20 23 22 32 24 29 26 15 34 13 36 9 39 11 41
REMARK Flexibility Score: inf
ROOT
ATOM      1  O   UNL     1     -23.467  25.116 -32.212  1.00  0.00    -0.454 OA
ENDROOT
BRANCH   1   2
ATOM      2  C   UNL     1     -23.928  25.746 -33.370  1.00  0.00     0.214 A 
ATOM      3  C   UNL     1     -25.199  25.439 -33.883  1.00  0.00     0.180 A 
ATOM      4  O   UNL     1     -25.647  26.076 -34.958  1.00  0.00    -0.452 OA
ATOM      5  C   UNL     1     -23.137  26.696 -34.027  1.00  0.00     0.239 A 
ATOM      6  C   UNL     1     -24.947  27.004 -35.601  1.00  0.00     0.146 A 
ATOM      7  O   UNL     1     -21.964  26.886 -33.616  1.00  0.00    -0.285 OA
ATOM      8  C   UNL     1     -23.654  27.388 -35.149  1.00  0.00     0.111 A 
ATOM      9  C   UNL     1     -25.506  27.590 -36.739  1.00  0.00     0.094 A 
ATOM     10  C   UNL     1     -22.963  28.416 -35.861  1.00  0.00     0.134 A 
ATOM     11  C   UNL     1     -24.802  28.555 -37.455  1.00  0.00     0.123 A 
ATOM     12  C   UNL     1     -23.537  28.959 -37.017  1.00  0.00     0.093 A 
BRANCH   3  13
ATOM     13  C   UNL     1     -26.074  24.430 -33.246  1.00  0.00     0.025 A 
ATOM     14  C   UNL     1     -26.730  23.446 -34.008  1.00  0.00     0.016 A 
ATOM     15  C   UNL     1     -27.543  22.496 -33.386  1.00  0.00     0.051 A 
ATOM     16  C   UNL     1     -27.727  22.523 -31.998  1.00  0.00     0.157 A 
ATOM     17  C   UNL     1     -26.282  24.469 -31.858  1.00  0.00     0.062 A 
ATOM     18  C   UNL     1     -27.098  23.520 -31.232  1.00  0.00     0.158 A 
BRANCH  16  19
ATOM     19  O   UNL     1     -28.534  21.569 -31.379  1.00  0.00    -0.504 OA
ATOM     20  H   UNL     1     -29.541  21.573 -31.491  1.00  0.00     0.293 HD
ENDBRANCH  16  19
BRANCH  18  21
ATOM     21  O   UNL     1     -27.271  23.582 -29.849  1.00  0.00    -0.504 OA
ATOM     22  H   UNL     1     -27.002  22.821 -29.238  1.00  0.00     0.293 HD
ENDBRANCH  18  21
ENDBRANCH   3  13
BRANCH  10  23
ATOM     23  O   UNL     1     -21.736  28.957 -35.463  1.00  0.00    -0.507 OA
ATOM     24  H   UNL     1     -21.618  29.815 -34.947  1.00  0.00     0.293 HD
ENDBRANCH  10  23
BRANCH  11  25
ATOM     25  O   UNL     1     -25.370  29.111 -38.599  1.00  0.00    -0.508 OA
ATOM     26  H   UNL     1     -26.356  29.336 -38.644  1.00  0.00     0.293 HD
ENDBRANCH  11  25
ENDBRANCH   1   2
BRANCH   1  27
ATOM     27  C   UNL     1     -24.175  25.196 -30.976  1.00  0.00     0.339 C 
ATOM     28  C   UNL     1     -23.484  24.296 -29.928  1.00  0.00     0.214 C 
ATOM     29  O   UNL     1     -24.325  26.564 -30.597  1.00  0.00    -0.332 OA
ATOM     30  C   UNL     1     -22.098  24.869 -29.521  1.00  0.00     0.180 C 
ATOM     31  C   UNL     1     -23.408  27.028 -29.611  1.00  0.00     0.179 C 
ATOM     32  C   UNL     1     -21.999  26.399 -29.747  1.00  0.00     0.177 C 
BRANCH  28  33
ATOM     33  O   UNL     1     -24.320  24.192 -28.804  1.00  0.00    -0.384 OA
ATOM     34  H   UNL     1     -24.831  23.345 -28.902  1.00  0.00     0.211 HD
ENDBRANCH  28  33
BRANCH  30  35
ATOM     35  O   UNL     1     -21.047  24.181 -30.158  1.00  0.00    -0.387 OA
ATOM     36  H   UNL     1     -20.536  24.839 -30.700  1.00  0.00     0.211 HD
ENDBRANCH  30  35
BRANCH  31  37
ATOM     37  C   UNL     1     -23.351  28.562 -29.691  1.00  0.00     0.191 C 
BRANCH  37  38
ATOM     38  O   UNL     1     -22.031  29.021 -29.554  1.00  0.00    -0.394 OA
ATOM     39  H   UNL     1     -22.076  30.004 -29.423  1.00  0.00     0.210 HD
ENDBRANCH  37  38
ENDBRANCH  31  37
BRANCH  32  40
ATOM     40  O   UNL     1     -21.473  26.700 -31.017  1.00  0.00    -0.387 OA
ATOM     41  H   UNL     1     -21.533  25.870 -31.560  1.00  0.00     0.211 HD
ENDBRANCH  32  40
ENDBRANCH   1  27
TORSDOF 12
ENDMDL
MODEL 4
REMARK VINA RESULT:    11.472      2.481      6.467
REMARK INTER + INTRA:          18.424
REMARK INTER:                  17.839
REMARK INTRA:                   0.585
REMARK UNBOUND:                 1.587
REMARK SMILES O=c1c(O[C@@H]2O[C@H](CO)[C@H](O)[C@H](O)[C@H]2O)c(-c2ccc(O)c(O)c2)oc2cc(O)cc(O)c12
REMARK SMILES IDX 4 1 3 2 16 3 25 4 2 5 26 6 1 7 33 8 27 9 31 10 28 11 30 12
REMARK SMILES IDX 17 13 18 14 19 15 20 16 24 17 22 18 21 19 23 21 32 23 29 25
REMARK SMILES IDX 5 27 14 28 6 29 12 30 7 31 10 32 15 33 13 35 8 37 9 38 11 40
REMARK H PARENT 21 20 23 22 32 24 29 26 15 34 13 36 9 39 11 41
REMARK Flexibility Score: inf
ROOT
ATOM      1  O   UNL     1     -23.766  25.606 -31.420  1.00  0.00    -0.454 OA
ENDROOT
BRANCH   1   2
ATOM      2  C   UNL     1     -24.843  25.008 -32.078  1.00  0.00     0.214 A 
ATOM      3  C   UNL     1     -24.972  25.124 -33.472  1.00  0.00     0.180 A 
ATOM      4  O   UNL     1     -25.973  24.514 -34.094  1.00  0.00    -0.452 OA
ATOM      5  C   UNL     1     -25.800  24.280 -31.361  1.00  0.00     0.239 A 
ATOM      6  C   UNL     1     -26.890  23.789 -33.463  1.00  0.00     0.146 A 
ATOM      7  O   UNL     1     -25.728  24.270 -30.106  1.00  0.00    -0.285 OA
ATOM      8  C   UNL     1     -26.836  23.608 -32.053  1.00  0.00     0.111 A 
ATOM      9  C   UNL     1     -27.918  23.214 -34.215  1.00  0.00     0.094 A 
ATOM     10  C   UNL     1     -27.831  22.790 -31.434  1.00  0.00     0.134 A 
ATOM     11  C   UNL     1     -28.911  22.462 -33.594  1.00  0.00     0.123 A 
ATOM     12  C   UNL     1     -28.866  22.257 -32.212  1.00  0.00     0.093 A 
BRANCH   3  13
ATOM     13  C   UNL     1     -24.005  25.896 -34.283  1.00  0.00     0.025 A 
ATOM     14  C   UNL     1     -22.698  25.427 -34.505  1.00  0.00     0.016 A 
ATOM     15  C   UNL     1     -21.804  26.167 -35.282  1.00  0.00     0.051 A 
ATOM     16  C   UNL     1     -22.196  27.392 -35.837  1.00  0.00     0.157 A 
ATOM     17  C   UNL     1     -24.386  27.137 -34.820  1.00  0.00     0.062 A 
ATOM     18  C   UNL     1     -23.491  27.882 -35.598  1.00  0.00     0.158 A 
BRANCH  16  19
ATOM     19  O   UNL     1     -21.303  28.125 -36.618  1.00  0.00    -0.504 OA
ATOM     20  H   UNL     1     -20.460  27.707 -36.995  1.00  0.00     0.293 HD
ENDBRANCH  16  19
BRANCH  18  21
ATOM     21  O   UNL     1     -23.908  29.105 -36.125  1.00  0.00    -0.504 OA
ATOM     22  H   UNL     1     -23.286  29.701 -36.658  1.00  0.00     0.293 HD
ENDBRANCH  18  21
ENDBRANCH   3  13
BRANCH  10  23
ATOM     23  O   UNL     1     -27.833  22.448 -30.078  1.00  0.00    -0.507 OA
ATOM     24  H   UNL     1     -28.122  21.558 -29.703  1.00  0.00     0.293 HD
ENDBRANCH  10  23
BRANCH  11  25
ATOM     25  O   UNL     1     -29.938  21.915 -34.361  1.00  0.00    -0.508 OA
ATOM     26  H   UNL     1     -30.172  20.931 -34.309  1.00  0.00     0.293 HD
ENDBRANCH  11  25
ENDBRANCH   1   2
BRANCH   1  27
ATOM     27  C   UNL     1     -23.235  26.865 -31.830  1.00  0.00     0.339 C 
ATOM     28  C   UNL     1     -24.322  27.953 -31.688  1.00  0.00     0.214 C 
ATOM     29  O   UNL     1     -22.020  27.125 -31.127  1.00  0.00    -0.332 OA
ATOM     30  C   UNL     1     -24.646  28.232 -30.194  1.00  0.00     0.180 C 
ATOM     31  C   UNL     1     -22.134  28.015 -30.021  1.00  0.00     0.179 C 
ATOM     32  C   UNL     1     -23.471  27.863 -29.253  1.00  0.00     0.177 C 
BRANCH  28  33
ATOM     33  O   UNL     1     -23.871  29.124 -32.319  1.00  0.00    -0.384 OA
ATOM     34  H   UNL     1     -23.530  28.857 -33.213  1.00  0.00     0.211 HD
ENDBRANCH  28  33
BRANCH  30  35
ATOM     35  O   UNL     1     -25.843  27.606 -29.799  1.00  0.00    -0.387 OA
ATOM     36  H   UNL     1     -25.851  27.560 -28.807  1.00  0.00     0.211 HD
ENDBRANCH  30  35
BRANCH  31  37
ATOM     37  C   UNL     1     -20.925  27.793 -29.097  1.00  0.00     0.191 C 
BRANCH  37  38
ATOM     38  O   UNL     1     -21.083  28.492 -27.890  1.00  0.00    -0.394 OA
ATOM     39  H   UNL     1     -20.982  27.832 -27.155  1.00  0.00     0.210 HD
ENDBRANCH  37  38
ENDBRANCH  31  37
BRANCH  32  40
ATOM     40  O   UNL     1     -23.588  26.545 -28.775  1.00  0.00    -0.387 OA
ATOM     41  H   UNL     1     -24.030  26.596 -27.886  1.00  0.00     0.211 HD
ENDBRANCH  32  40
ENDBRANCH   1  27
TORSDOF 12
ENDMDL
MODEL 5
REMARK VINA RESULT:    11.516      2.111      4.755
REMARK INTER + INTRA:          18.488
REMARK INTER:                  17.254
REMARK INTRA:                   1.235
REMARK UNBOUND:                 1.587
REMARK SMILES O=c1c(O[C@@H]2O[C@H](CO)[C@H](O)[C@H](O)[C@H]2O)c(-c2ccc(O)c(O)c2)oc2cc(O)cc(O)c12
REMARK SMILES IDX 4 1 3 2 16 3 25 4 2 5 26 6 1 7 33 8 27 9 31 10 28 11 30 12
REMARK SMILES IDX 17 13 18 14 19 15 20 16 24 17 22 18 21 19 23 21 32 23 29 25
REMARK SMILES IDX 5 27 14 28 6 29 12 30 7 31 10 32 15 33 13 35 8 37 9 38 11 40
REMARK H PARENT 21 20 23 22 32 24 29 26 15 34 13 36 9 39 11 41
REMARK Flexibility Score: inf
ROOT
ATOM      1  O   UNL     1     -24.529  25.048 -30.112  1.00  0.00    -0.454 OA
ENDROOT
BRANCH   1   2
ATOM      2  C   UNL     1     -24.375  25.537 -31.411  1.00  0.00     0.214 A 
ATOM      3  C   UNL     1     -25.260  25.136 -32.427  1.00  0.00     0.180 A 
ATOM      4  O   UNL     1     -25.133  25.641 -33.647  1.00  0.00    -0.452 OA
ATOM      5  C   UNL     1     -23.348  26.439 -31.716  1.00  0.00     0.239 A 
ATOM      6  C   UNL     1     -24.193  26.519 -33.980  1.00  0.00     0.146 A 
ATOM      7  O   UNL     1     -22.505  26.709 -30.824  1.00  0.00    -0.285 OA
ATOM      8  C   UNL     1     -23.259  26.991 -33.017  1.00  0.00     0.111 A 
ATOM      9  C   UNL     1     -24.136  26.963 -35.303  1.00  0.00     0.094 A 
ATOM     10  C   UNL     1     -22.293  27.960 -33.425  1.00  0.00     0.134 A 
ATOM     11  C   UNL     1     -23.157  27.869 -35.702  1.00  0.00     0.123 A 
ATOM     12  C   UNL     1     -22.241  28.359 -34.766  1.00  0.00     0.093 A 
BRANCH   3  13
ATOM     13  C   UNL     1     -26.352  24.171 -32.173  1.00  0.00     0.025 A 
ATOM     14  C   UNL     1     -26.788  23.888 -30.866  1.00  0.00     0.016 A 
ATOM     15  C   UNL     1     -27.828  22.983 -30.648  1.00  0.00     0.051 A 
ATOM     16  C   UNL     1     -28.439  22.334 -31.730  1.00  0.00     0.157 A 
ATOM     17  C   UNL     1     -26.950  23.500 -33.252  1.00  0.00     0.062 A 
ATOM     18  C   UNL     1     -27.992  22.591 -33.037  1.00  0.00     0.158 A 
BRANCH  16  19
ATOM     19  O   UNL     1     -29.482  21.436 -31.510  1.00  0.00    -0.504 OA
ATOM     20  H   UNL     1     -29.957  21.383 -30.617  1.00  0.00     0.293 HD
ENDBRANCH  16  19
BRANCH  18  21
ATOM     21  O   UNL     1     -28.570  21.951 -34.135  1.00  0.00    -0.504 OA
ATOM     22  H   UNL     1     -29.188  22.435 -34.775  1.00  0.00     0.293 HD
ENDBRANCH  18  21
ENDBRANCH   3  13
BRANCH  10  23
ATOM     23  O   UNL     1     -21.388  28.580 -32.557  1.00  0.00    -0.507 OA
ATOM     24  H   UNL     1     -21.255  28.338 -31.587  1.00  0.00     0.293 HD
ENDBRANCH  10  23
BRANCH  11  25
ATOM     25  O   UNL     1     -23.106  28.283 -37.032  1.00  0.00    -0.508 OA
ATOM     26  H   UNL     1     -23.920  28.238 -37.632  1.00  0.00     0.293 HD
ENDBRANCH  11  25
ENDBRANCH   1   2
BRANCH   1  27
ATOM     27  C   UNL     1     -24.454  23.655 -29.816  1.00  0.00     0.339 C 
ATOM     28  C   UNL     1     -23.100  23.097 -30.308  1.00  0.00     0.214 C 
ATOM     29  O   UNL     1     -24.729  23.444 -28.431  1.00  0.00    -0.332 OA
ATOM     30  C   UNL     1     -21.921  23.652 -29.463  1.00  0.00     0.180 C 
ATOM     31  C   UNL     1     -23.586  23.247 -27.605  1.00  0.00     0.179 C 
ATOM     32  C   UNL     1     -22.364  24.092 -28.044  1.00  0.00     0.177 C 
BRANCH  28  33
ATOM     33  O   UNL     1     -23.139  21.694 -30.235  1.00  0.00    -0.384 OA
ATOM     34  H   UNL     1     -22.852  21.446 -29.317  1.00  0.00     0.211 HD
ENDBRANCH  28  33
BRANCH  30  35
ATOM     35  O   UNL     1     -21.241  24.684 -30.137  1.00  0.00    -0.387 OA
ATOM     36  H   UNL     1     -20.499  24.993 -29.554  1.00  0.00     0.211 HD
ENDBRANCH  30  35
BRANCH  31  37
ATOM     37  C   UNL     1     -23.985  23.546 -26.151  1.00  0.00     0.191 C 
BRANCH  37  38
ATOM     38  O   UNL     1     -24.995  22.671 -25.719  1.00  0.00    -0.394 OA
ATOM     39  H   UNL     1     -25.576  23.181 -25.096  1.00  0.00     0.210 HD
ENDBRANCH  37  38
ENDBRANCH  31  37
BRANCH  32  40
ATOM     40  O   UNL     1     -22.704  25.457 -28.011  1.00  0.00    -0.387 OA
ATOM     41  H   UNL     1     -21.904  25.963 -28.312  1.00  0.00     0.211 HD
ENDBRANCH  32  40
ENDBRANCH   1  27
TORSDOF 12
ENDMDL
MODEL 6
REMARK VINA RESULT:    11.526      2.542      5.953
REMARK INTER + INTRA:          18.503
REMARK INTER:                  17.548
REMARK INTRA:                   0.955
REMARK UNBOUND:                 1.587
REMARK SMILES O=c1c(O[C@@H]2O[C@H](CO)[C@H](O)[C@H](O)[C@H]2O)c(-c2ccc(O)c(O)c2)oc2cc(O)cc(O)c12
REMARK SMILES IDX 4 1 3 2 16 3 25 4 2 5 26 6 1 7 33 8 27 9 31 10 28 11 30 12
REMARK SMILES IDX 17 13 18 14 19 15 20 16 24 17 22 18 21 19 23 21 32 23 29 25
REMARK SMILES IDX 5 27 14 28 6 29 12 30 7 31 10 32 15 33 13 35 8 37 9 38 11 40
REMARK H PARENT 21 20 23 22 32 24 29 26 15 34 13 36 9 39 11 41
REMARK Flexibility Score: inf
ROOT
ATOM      1  O   UNL     1     -24.778  26.193 -33.467  1.00  0.00    -0.454 OA
ENDROOT
BRANCH   1   2
ATOM      2  C   UNL     1     -25.540  25.317 -32.690  1.00  0.00     0.214 A 
ATOM      3  C   UNL     1     -25.502  25.399 -31.288  1.00  0.00     0.180 A 
ATOM      4  O   UNL     1     -26.264  24.593 -30.560  1.00  0.00    -0.452 OA
ATOM      5  C   UNL     1     -26.358  24.355 -33.296  1.00  0.00     0.239 A 
ATOM      6  C   UNL     1     -27.076  23.684 -31.087  1.00  0.00     0.146 A 
ATOM      7  O   UNL     1     -26.305  24.226 -34.546  1.00  0.00    -0.285 OA
ATOM      8  C   UNL     1     -27.189  23.534 -32.496  1.00  0.00     0.111 A 
ATOM      9  C   UNL     1     -27.812  22.869 -30.223  1.00  0.00     0.094 A 
ATOM     10  C   UNL     1     -28.105  22.562 -33.005  1.00  0.00     0.134 A 
ATOM     11  C   UNL     1     -28.663  21.889 -30.730  1.00  0.00     0.123 A 
ATOM     12  C   UNL     1     -28.802  21.739 -32.113  1.00  0.00     0.093 A 
BRANCH   3  13
ATOM     13  C   UNL     1     -24.643  26.380 -30.588  1.00  0.00     0.025 A 
ATOM     14  C   UNL     1     -25.040  27.720 -30.434  1.00  0.00     0.016 A 
ATOM     15  C   UNL     1     -24.220  28.628 -29.761  1.00  0.00     0.051 A 
ATOM     16  C   UNL     1     -22.984  28.216 -29.246  1.00  0.00     0.157 A 
ATOM     17  C   UNL     1     -23.392  25.977 -30.093  1.00  0.00     0.062 A 
ATOM     18  C   UNL     1     -22.566  26.885 -29.419  1.00  0.00     0.158 A 
BRANCH  16  19
ATOM     19  O   UNL     1     -22.170  29.123 -28.568  1.00  0.00    -0.504 OA
ATOM     20  H   UNL     1     -21.160  29.071 -28.620  1.00  0.00     0.293 HD
ENDBRANCH  16  19
BRANCH  18  21
ATOM     21  O   UNL     1     -21.335  26.447 -28.930  1.00  0.00    -0.504 OA
ATOM     22  H   UNL     1     -21.247  25.609 -28.368  1.00  0.00     0.293 HD
ENDBRANCH  18  21
ENDBRANCH   3  13
BRANCH  10  23
ATOM     23  O   UNL     1     -28.386  22.385 -34.364  1.00  0.00    -0.507 OA
ATOM     24  H   UNL     1     -27.714  22.118 -35.067  1.00  0.00     0.293 HD
ENDBRANCH  10  23
BRANCH  11  25
ATOM     25  O   UNL     1     -29.372  21.075 -29.850  1.00  0.00    -0.508 OA
ATOM     26  H   UNL     1     -29.608  21.384 -28.915  1.00  0.00     0.293 HD
ENDBRANCH  11  25
ENDBRANCH   1   2
BRANCH   1  27
ATOM     27  C   UNL     1     -23.371  26.029 -33.628  1.00  0.00     0.339 C 
ATOM     28  C   UNL     1     -23.002  26.187 -35.120  1.00  0.00     0.214 C 
ATOM     29  O   UNL     1     -22.681  26.904 -32.737  1.00  0.00    -0.332 OA
ATOM     30  C   UNL     1     -23.193  27.654 -35.594  1.00  0.00     0.180 C 
ATOM     31  C   UNL     1     -22.179  28.101 -33.323  1.00  0.00     0.179 C 
ATOM     32  C   UNL     1     -23.103  28.671 -34.428  1.00  0.00     0.177 C 
BRANCH  28  33
ATOM     33  O   UNL     1     -21.668  25.784 -35.298  1.00  0.00    -0.384 OA
ATOM     34  H   UNL     1     -21.562  25.556 -36.259  1.00  0.00     0.211 HD
ENDBRANCH  28  33
BRANCH  30  35
ATOM     35  O   UNL     1     -24.386  27.809 -36.326  1.00  0.00    -0.387 OA
ATOM     36  H   UNL     1     -24.842  28.628 -35.997  1.00  0.00     0.211 HD
ENDBRANCH  30  35
BRANCH  31  37
ATOM     37  C   UNL     1     -21.943  29.125 -32.201  1.00  0.00     0.191 C 
BRANCH  37  38
ATOM     38  O   UNL     1     -21.239  28.545 -31.133  1.00  0.00    -0.394 OA
ATOM     39  H   UNL     1     -21.441  27.573 -31.145  1.00  0.00     0.210 HD
ENDBRANCH  37  38
ENDBRANCH  31  37
BRANCH  32  40
ATOM     40  O   UNL     1     -24.370  28.944 -33.882  1.00  0.00    -0.387 OA
ATOM     41  H   UNL     1     -24.818  28.069 -33.735  1.00  0.00     0.211 HD
ENDBRANCH  32  40
ENDBRANCH   1  27
TORSDOF 12
ENDMDL
