MODEL 1
REMARK VINA RESULT:    -4.362      0.000      0.000
REMARK INTER + INTRA:          -9.087
REMARK INTER:                  -7.932
REMARK INTRA:                  -1.155
REMARK UNBOUND:                -1.155
REMARK SMILES CCCCCCCCCCCCCCCC(=O)[O-]
REMARK SMILES IDX 9 1 10 2 11 3 12 4 13 5 14 6 15 7 16 8 17 9 18 10 8 11 7 12
REMARK SMILES IDX 6 13 5 14 4 15 3 16 2 17 1 18
REMARK H PARENT
REMARK Flexibility Score: inf
ROOT
ATOM      1  C   UNL     1      45.019  65.448  51.967  1.00  0.00     0.000 C 
ENDROOT
BRANCH   1   2
ATOM      2  C   UNL     1      45.352  65.790  50.506  1.00  0.00     0.000 C 
BRANCH   2   3
ATOM      3  C   UNL     1      44.335  66.783  49.930  1.00  0.00     0.000 C 
BRANCH   3   4
ATOM      4  C   UNL     1      44.205  66.620  48.411  1.00  0.00     0.000 C 
BRANCH   4   5
ATOM      5  C   UNL     1      43.110  67.534  47.850  1.00  0.00     0.000 C 
BRANCH   5   6
ATOM      6  C   UNL     1      41.721  66.905  48.031  1.00  0.00     0.006 C 
BRANCH   6   7
ATOM      7  C   UNL     1      41.157  66.355  46.715  1.00  0.00     0.053 C 
BRANCH   7   8
ATOM      8  C   UNL     1      41.432  64.890  46.560  1.00  0.00     0.041 C 
ATOM      9  O   UNL     1      42.530  64.499  46.084  1.00  0.00    -0.550 OA
ATOM     10  O   UNL     1      40.490  63.956  46.974  1.00  0.00    -0.550 OA
ENDBRANCH   7   8
ENDBRANCH   6   7
ENDBRANCH   5   6
ENDBRANCH   4   5
ENDBRANCH   3   4
ENDBRANCH   2   3
ENDBRANCH   1   2
BRANCH   1  11
ATOM     11  C   UNL     1      44.002  66.419  52.586  1.00  0.00     0.000 C 
BRANCH  11  12
ATOM     12  C   UNL     1      43.054  65.730  53.578  1.00  0.00    -0.000 C 
BRANCH  12  13
ATOM     13  C   UNL     1      43.611  64.370  54.020  1.00  0.00    -0.000 C 
BRANCH  13  14
ATOM     14  C   UNL     1      43.626  64.196  55.549  1.00  0.00    -0.000 C 
BRANCH  14  15
ATOM     15  C   UNL     1      42.808  65.268  56.300  1.00  0.00    -0.000 C 
BRANCH  15  16
ATOM     16  C   UNL     1      41.513  64.693  56.902  1.00  0.00    -0.000 C 
BRANCH  16  17
ATOM     17  C   UNL     1      40.251  65.362  56.338  1.00  0.00    -0.003 C 
ATOM     18  C   UNL     1      39.736  64.680  55.071  1.00  0.00     0.004 C 
ENDBRANCH  16  17
ENDBRANCH  15  16
ENDBRANCH  14  15
ENDBRANCH  13  14
ENDBRANCH  12  13
ENDBRANCH  11  12
ENDBRANCH   1  11
TORSDOF 14
ENDMDL
MODEL 2
REMARK VINA RESULT:    -4.251      3.504      7.247
REMARK INTER + INTRA:          -8.887
REMARK INTER:                  -7.204
REMARK INTRA:                  -1.682
REMARK UNBOUND:                -1.155
REMARK SMILES CCCCCCCCCCCCCCCC(=O)[O-]
REMARK SMILES IDX 9 1 10 2 11 3 12 4 13 5 14 6 15 7 16 8 17 9 18 10 8 11 7 12
REMARK SMILES IDX 6 13 5 14 4 15 3 16 2 17 1 18
REMARK H PARENT
REMARK Flexibility Score: inf
ROOT
ATOM      1  C   UNL     1      44.418  66.368  49.214  1.00  0.00     0.000 C 
ENDROOT
BRANCH   1   2
ATOM      2  C   UNL     1      45.132  66.597  50.555  1.00  0.00     0.000 C 
BRANCH   2   3
ATOM      3  C   UNL     1      45.364  65.270  51.287  1.00  0.00     0.000 C 
BRANCH   3   4
ATOM      4  C   UNL     1      44.421  65.131  52.489  1.00  0.00     0.000 C 
BRANCH   4   5
ATOM      5  C   UNL     1      43.859  66.494  52.908  1.00  0.00     0.000 C 
BRANCH   5   6
ATOM      6  C   UNL     1      42.419  66.361  53.424  1.00  0.00     0.006 C 
BRANCH   6   7
ATOM      7  C   UNL     1      42.189  65.042  54.174  1.00  0.00     0.053 C 
BRANCH   7   8
ATOM      8  C   UNL     1      42.619  65.133  55.605  1.00  0.00     0.041 C 
ATOM      9  O   UNL     1      43.617  64.479  56.009  1.00  0.00    -0.550 OA
ATOM     10  O   UNL     1      41.940  65.966  56.486  1.00  0.00    -0.550 OA
ENDBRANCH   7   8
ENDBRANCH   6   7
ENDBRANCH   5   6
ENDBRANCH   4   5
ENDBRANCH   3   4
ENDBRANCH   2   3
ENDBRANCH   1   2
BRANCH   1  11
ATOM     11  C   UNL     1      43.491  67.531  48.831  1.00  0.00     0.000 C 
BRANCH  11  12
ATOM     12  C   UNL     1      42.562  67.951  49.979  1.00  0.00    -0.000 C 
BRANCH  12  13
ATOM     13  C   UNL     1      41.088  67.775  49.588  1.00  0.00    -0.000 C 
BRANCH  13  14
ATOM     14  C   UNL     1      40.881  67.655  48.068  1.00  0.00    -0.000 C 
BRANCH  14  15
ATOM     15  C   UNL     1      39.876  66.555  47.667  1.00  0.00    -0.000 C 
BRANCH  15  16
ATOM     16  C   UNL     1      40.561  65.195  47.443  1.00  0.00    -0.000 C 
BRANCH  16  17
ATOM     17  C   UNL     1      41.260  65.103  46.078  1.00  0.00    -0.003 C 
ATOM     18  C   UNL     1      42.769  64.901  46.200  1.00  0.00     0.004 C 
ENDBRANCH  16  17
ENDBRANCH  15  16
ENDBRANCH  14  15
ENDBRANCH  13  14
ENDBRANCH  12  13
ENDBRANCH  11  12
ENDBRANCH   1  11
TORSDOF 14
ENDMDL
MODEL 3
REMARK VINA RESULT:    -4.250      1.878      3.905
REMARK INTER + INTRA:          -8.884
REMARK INTER:                  -7.258
REMARK INTRA:                  -1.626
REMARK UNBOUND:                -1.155
REMARK SMILES CCCCCCCCCCCCCCCC(=O)[O-]
REMARK SMILES IDX 9 1 10 2 11 3 12 4 13 5 14 6 15 7 16 8 17 9 18 10 8 11 7 12
REMARK SMILES IDX 6 13 5 14 4 15 3 16 2 17 1 18
REMARK H PARENT
REMARK Flexibility Score: inf
ROOT
ATOM      1  C   UNL     1      42.550  67.839  49.953  1.00  0.00     0.000 C 
ENDROOT
BRANCH   1   2
ATOM      2  C   UNL     1      41.035  67.765  49.702  1.00  0.00     0.000 C 
BRANCH   2   3
ATOM      3  C   UNL     1      40.731  67.692  48.201  1.00  0.00     0.000 C 
BRANCH   3   4
ATOM      4  C   UNL     1      39.758  66.548  47.892  1.00  0.00     0.000 C 
BRANCH   4   5
ATOM      5  C   UNL     1      40.511  65.291  47.440  1.00  0.00     0.000 C 
BRANCH   5   6
ATOM      6  C   UNL     1      41.317  65.562  46.162  1.00  0.00     0.006 C 
BRANCH   6   7
ATOM      7  C   UNL     1      42.653  64.807  46.146  1.00  0.00     0.053 C 
BRANCH   7   8
ATOM      8  C   UNL     1      43.610  65.391  45.153  1.00  0.00     0.041 C 
ATOM      9  O   UNL     1      43.650  64.945  43.975  1.00  0.00    -0.550 OA
ATOM     10  O   UNL     1      44.434  66.449  45.516  1.00  0.00    -0.550 OA
ENDBRANCH   7   8
ENDBRANCH   6   7
ENDBRANCH   5   6
ENDBRANCH   4   5
ENDBRANCH   3   4
ENDBRANCH   2   3
ENDBRANCH   1   2
BRANCH   1  11
ATOM     11  C   UNL     1      43.374  67.420  48.726  1.00  0.00     0.000 C 
BRANCH  11  12
ATOM     12  C   UNL     1      44.523  66.467  49.083  1.00  0.00    -0.000 C 
BRANCH  12  13
ATOM     13  C   UNL     1      44.925  66.614  50.556  1.00  0.00    -0.000 C 
BRANCH  13  14
ATOM     14  C   UNL     1      45.482  65.311  51.159  1.00  0.00    -0.000 C 
BRANCH  14  15
ATOM     15  C   UNL     1      44.741  64.853  52.432  1.00  0.00    -0.000 C 
BRANCH  15  16
ATOM     16  C   UNL     1      43.644  65.847  52.855  1.00  0.00    -0.000 C 
BRANCH  16  17
ATOM     17  C   UNL     1      42.963  65.451  54.173  1.00  0.00    -0.003 C 
ATOM     18  C   UNL     1      41.458  65.238  54.019  1.00  0.00     0.004 C 
ENDBRANCH  16  17
ENDBRANCH  15  16
ENDBRANCH  14  15
ENDBRANCH  13  14
ENDBRANCH  12  13
ENDBRANCH  11  12
ENDBRANCH   1  11
TORSDOF 14
ENDMDL
MODEL 4
REMARK VINA RESULT:    -4.242      1.656      3.077
REMARK INTER + INTRA:          -8.870
REMARK INTER:                  -7.658
REMARK INTRA:                  -1.212
REMARK UNBOUND:                -1.155
REMARK SMILES CCCCCCCCCCCCCCCC(=O)[O-]
REMARK SMILES IDX 9 1 10 2 11 3 12 4 13 5 14 6 15 7 16 8 17 9 18 10 8 11 7 12
REMARK SMILES IDX 6 13 5 14 4 15 3 16 2 17 1 18
REMARK H PARENT
REMARK Flexibility Score: inf
ROOT
ATOM      1  C   UNL     1      43.504  67.790  49.474  1.00  0.00     0.000 C 
ENDROOT
BRANCH   1   2
ATOM      2  C   UNL     1      42.374  67.985  50.497  1.00  0.00     0.000 C 
BRANCH   2   3
ATOM      3  C   UNL     1      41.001  67.799  49.839  1.00  0.00     0.000 C 
BRANCH   3   4
ATOM      4  C   UNL     1      41.112  67.836  48.310  1.00  0.00     0.000 C 
BRANCH   4   5
ATOM      5  C   UNL     1      40.438  66.613  47.679  1.00  0.00     0.000 C 
BRANCH   5   6
ATOM      6  C   UNL     1      41.482  65.641  47.112  1.00  0.00     0.006 C 
BRANCH   6   7
ATOM      7  C   UNL     1      42.446  66.326  46.135  1.00  0.00     0.053 C 
BRANCH   7   8
ATOM      8  C   UNL     1      42.868  65.405  45.031  1.00  0.00     0.041 C 
ATOM      9  O   UNL     1      42.769  65.770  43.830  1.00  0.00    -0.550 OA
ATOM     10  O   UNL     1      43.403  64.158  45.330  1.00  0.00    -0.550 OA
ENDBRANCH   7   8
ENDBRANCH   6   7
ENDBRANCH   5   6
ENDBRANCH   4   5
ENDBRANCH   3   4
ENDBRANCH   2   3
ENDBRANCH   1   2
BRANCH   1  11
ATOM     11  C   UNL     1      44.319  66.513  49.730  1.00  0.00     0.000 C 
BRANCH  11  12
ATOM     12  C   UNL     1      45.147  66.587  51.020  1.00  0.00    -0.000 C 
BRANCH  12  13
ATOM     13  C   UNL     1      44.883  65.370  51.917  1.00  0.00    -0.000 C 
BRANCH  13  14
ATOM     14  C   UNL     1      43.744  65.605  52.925  1.00  0.00    -0.000 C 
BRANCH  14  15
ATOM     15  C   UNL     1      43.643  64.511  54.008  1.00  0.00    -0.000 C 
BRANCH  15  16
ATOM     16  C   UNL     1      43.020  65.040  55.312  1.00  0.00    -0.000 C 
BRANCH  16  17
ATOM     17  C   UNL     1      43.521  64.289  56.554  1.00  0.00    -0.003 C 
ATOM     18  C   UNL     1      44.344  63.050  56.204  1.00  0.00     0.004 C 
ENDBRANCH  16  17
ENDBRANCH  15  16
ENDBRANCH  14  15
ENDBRANCH  13  14
ENDBRANCH  12  13
ENDBRANCH  11  12
ENDBRANCH   1  11
TORSDOF 14
ENDMDL
MODEL 5
REMARK VINA RESULT:    -4.219      1.256      2.139
REMARK INTER + INTRA:          -8.827
REMARK INTER:                  -7.844
REMARK INTRA:                  -0.983
REMARK UNBOUND:                -1.155
REMARK SMILES CCCCCCCCCCCCCCCC(=O)[O-]
REMARK SMILES IDX 9 1 10 2 11 3 12 4 13 5 14 6 15 7 16 8 17 9 18 10 8 11 7 12
REMARK SMILES IDX 6 13 5 14 4 15 3 16 2 17 1 18
REMARK H PARENT
REMARK Flexibility Score: inf
ROOT
ATOM      1  C   UNL     1      45.131  65.180  51.730  1.00  0.00     0.000 C 
ENDROOT
BRANCH   1   2
ATOM      2  C   UNL     1      45.410  65.923  50.414  1.00  0.00     0.000 C 
BRANCH   2   3
ATOM      3  C   UNL     1      44.490  67.141  50.266  1.00  0.00     0.000 C 
BRANCH   3   4
ATOM      4  C   UNL     1      43.589  67.004  49.034  1.00  0.00     0.000 C 
BRANCH   4   5
ATOM      5  C   UNL     1      44.267  66.165  47.945  1.00  0.00     0.000 C 
BRANCH   5   6
ATOM      6  C   UNL     1      43.540  66.315  46.601  1.00  0.00     0.006 C 
BRANCH   6   7
ATOM      7  C   UNL     1      42.815  65.029  46.185  1.00  0.00     0.053 C 
BRANCH   7   8
ATOM      8  C   UNL     1      41.350  65.092  46.492  1.00  0.00     0.041 C 
ATOM      9  O   UNL     1      40.716  64.040  46.773  1.00  0.00    -0.550 OA
ATOM     10  O   UNL     1      40.691  66.315  46.500  1.00  0.00    -0.550 OA
ENDBRANCH   7   8
ENDBRANCH   6   7
ENDBRANCH   5   6
ENDBRANCH   4   5
ENDBRANCH   3   4
ENDBRANCH   2   3
ENDBRANCH   1   2
BRANCH   1  11
ATOM     11  C   UNL     1      43.981  65.808  52.533  1.00  0.00     0.000 C 
BRANCH  11  12
ATOM     12  C   UNL     1      43.524  64.925  53.702  1.00  0.00    -0.000 C 
BRANCH  12  13
ATOM     13  C   UNL     1      42.085  65.260  54.116  1.00  0.00    -0.000 C 
BRANCH  13  14
ATOM     14  C   UNL     1      41.987  65.812  55.550  1.00  0.00    -0.000 C 
BRANCH  14  15
ATOM     15  C   UNL     1      41.699  64.728  56.610  1.00  0.00    -0.000 C 
BRANCH  15  16
ATOM     16  C   UNL     1      42.868  64.557  57.597  1.00  0.00    -0.000 C 
BRANCH  16  17
ATOM     17  C   UNL     1      43.434  63.129  57.601  1.00  0.00    -0.003 C 
ATOM     18  C   UNL     1      44.418  62.881  56.459  1.00  0.00     0.004 C 
ENDBRANCH  16  17
ENDBRANCH  15  16
ENDBRANCH  14  15
ENDBRANCH  13  14
ENDBRANCH  12  13
ENDBRANCH  11  12
ENDBRANCH   1  11
TORSDOF 14
ENDMDL
MODEL 6
REMARK VINA RESULT:    -4.108      3.200      7.601
REMARK INTER + INTRA:          -8.626
REMARK INTER:                  -7.448
REMARK INTRA:                  -1.178
REMARK UNBOUND:                -1.155
REMARK SMILES CCCCCCCCCCCCCCCC(=O)[O-]
REMARK SMILES IDX 9 1 10 2 11 3 12 4 13 5 14 6 15 7 16 8 17 9 18 10 8 11 7 12
REMARK SMILES IDX 6 13 5 14 4 15 3 16 2 17 1 18
REMARK H PARENT
REMARK Flexibility Score: inf
ROOT
ATOM      1  C   UNL     1      44.903  66.112  50.293  1.00  0.00     0.000 C 
ENDROOT
BRANCH   1   2
ATOM      2  C   UNL     1      44.903  65.802  51.798  1.00  0.00     0.000 C 
BRANCH   2   3
ATOM      3  C   UNL     1      44.097  66.850  52.574  1.00  0.00     0.000 C 
BRANCH   3   4
ATOM      4  C   UNL     1      43.004  66.188  53.422  1.00  0.00     0.000 C 
BRANCH   4   5
ATOM      5  C   UNL     1      43.396  64.756  53.804  1.00  0.00     0.000 C 
BRANCH   5   6
ATOM      6  C   UNL     1      43.292  64.543  55.322  1.00  0.00     0.006 C 
BRANCH   6   7
ATOM      7  C   UNL     1      42.270  65.483  55.973  1.00  0.00     0.053 C 
BRANCH   7   8
ATOM      8  C   UNL     1      40.904  64.870  56.025  1.00  0.00     0.041 C 
ATOM      9  O   UNL     1      40.114  64.999  55.052  1.00  0.00    -0.550 OA
ATOM     10  O   UNL     1      40.515  64.127  57.133  1.00  0.00    -0.550 OA
ENDBRANCH   7   8
ENDBRANCH   6   7
ENDBRANCH   5   6
ENDBRANCH   4   5
ENDBRANCH   3   4
ENDBRANCH   2   3
ENDBRANCH   1   2
BRANCH   1  11
ATOM     11  C   UNL     1      44.014  67.313  49.936  1.00  0.00     0.000 C 
BRANCH  11  12
ATOM     12  C   UNL     1      43.822  67.478  48.422  1.00  0.00    -0.000 C 
BRANCH  12  13
ATOM     13  C   UNL     1      44.250  66.210  47.670  1.00  0.00    -0.000 C 
BRANCH  13  14
ATOM     14  C   UNL     1      43.587  66.080  46.288  1.00  0.00    -0.000 C 
BRANCH  14  15
ATOM     15  C   UNL     1      42.788  64.772  46.106  1.00  0.00    -0.000 C 
BRANCH  15  16
ATOM     16  C   UNL     1      41.380  64.862  46.720  1.00  0.00    -0.000 C 
BRANCH  16  17
ATOM     17  C   UNL     1      40.808  66.287  46.682  1.00  0.00    -0.003 C 
ATOM     18  C   UNL     1      39.915  66.597  47.883  1.00  0.00     0.004 C 
ENDBRANCH  16  17
ENDBRANCH  15  16
ENDBRANCH  14  15
ENDBRANCH  13  14
ENDBRANCH  12  13
ENDBRANCH  11  12
ENDBRANCH   1  11
TORSDOF 14
ENDMDL
MODEL 7
REMARK VINA RESULT:    -4.086      8.806     10.959
REMARK INTER + INTRA:          -8.585
REMARK INTER:                  -7.513
REMARK INTRA:                  -1.072
REMARK UNBOUND:                -1.155
REMARK SMILES CCCCCCCCCCCCCCCC(=O)[O-]
REMARK SMILES IDX 9 1 10 2 11 3 12 4 13 5 14 6 15 7 16 8 17 9 18 10 8 11 7 12
REMARK SMILES IDX 6 13 5 14 4 15 3 16 2 17 1 18
REMARK H PARENT
REMARK Flexibility Score: inf
ROOT
ATOM      1  C   UNL     1      36.069  64.745  54.659  1.00  0.00     0.000 C 
ENDROOT
BRANCH   1   2
ATOM      2  C   UNL     1      36.156  63.370  55.340  1.00  0.00     0.000 C 
BRANCH   2   3
ATOM      3  C   UNL     1      36.526  63.513  56.821  1.00  0.00     0.000 C 
BRANCH   3   4
ATOM      4  C   UNL     1      36.456  62.161  57.541  1.00  0.00     0.000 C 
BRANCH   4   5
ATOM      5  C   UNL     1      36.168  61.025  56.552  1.00  0.00     0.000 C 
BRANCH   5   6
ATOM      6  C   UNL     1      37.456  60.271  56.191  1.00  0.00     0.006 C 
BRANCH   6   7
ATOM      7  C   UNL     1      37.203  59.133  55.194  1.00  0.00     0.053 C 
BRANCH   7   8
ATOM      8  C   UNL     1      37.326  57.788  55.843  1.00  0.00     0.041 C 
ATOM      9  O   UNL     1      36.852  56.767  55.277  1.00  0.00    -0.550 OA
ATOM     10  O   UNL     1      37.991  57.656  57.055  1.00  0.00    -0.550 OA
ENDBRANCH   7   8
ENDBRANCH   6   7
ENDBRANCH   5   6
ENDBRANCH   4   5
ENDBRANCH   3   4
ENDBRANCH   2   3
ENDBRANCH   1   2
BRANCH   1  11
ATOM     11  C   UNL     1      34.856  65.562  55.128  1.00  0.00     0.000 C 
BRANCH  11  12
ATOM     12  C   UNL     1      35.254  66.786  55.965  1.00  0.00    -0.000 C 
BRANCH  12  13
ATOM     13  C   UNL     1      34.017  67.583  56.401  1.00  0.00    -0.000 C 
BRANCH  13  14
ATOM     14  C   UNL     1      32.697  66.937  55.945  1.00  0.00    -0.000 C 
BRANCH  14  15
ATOM     15  C   UNL     1      31.938  67.764  54.887  1.00  0.00    -0.000 C 
BRANCH  15  16
ATOM     16  C   UNL     1      31.826  67.023  53.542  1.00  0.00    -0.000 C 
BRANCH  16  17
ATOM     17  C   UNL     1      32.416  67.827  52.374  1.00  0.00    -0.003 C 
ATOM     18  C   UNL     1      33.841  67.401  52.024  1.00  0.00     0.004 C 
ENDBRANCH  16  17
ENDBRANCH  15  16
ENDBRANCH  14  15
ENDBRANCH  13  14
ENDBRANCH  12  13
ENDBRANCH  11  12
ENDBRANCH   1  11
TORSDOF 14
ENDMDL
MODEL 8
REMARK VINA RESULT:    -4.050      8.801     11.477
REMARK INTER + INTRA:          -8.521
REMARK INTER:                  -7.879
REMARK INTRA:                  -0.642
REMARK UNBOUND:                -1.155
REMARK SMILES CCCCCCCCCCCCCCCC(=O)[O-]
REMARK SMILES IDX 9 1 10 2 11 3 12 4 13 5 14 6 15 7 16 8 17 9 18 10 8 11 7 12
REMARK SMILES IDX 6 13 5 14 4 15 3 16 2 17 1 18
REMARK H PARENT
REMARK Flexibility Score: inf
ROOT
ATOM      1  C   UNL     1      36.216  63.132  55.611  1.00  0.00     0.000 C 
ENDROOT
BRANCH   1   2
ATOM      2  C   UNL     1      36.755  61.827  56.218  1.00  0.00     0.000 C 
BRANCH   2   3
ATOM      3  C   UNL     1      36.189  60.605  55.484  1.00  0.00     0.000 C 
BRANCH   3   4
ATOM      4  C   UNL     1      37.183  59.438  55.507  1.00  0.00     0.000 C 
BRANCH   4   5
ATOM      5  C   UNL     1      37.378  58.909  56.933  1.00  0.00     0.000 C 
BRANCH   5   6
ATOM      6  C   UNL     1      38.008  57.509  56.919  1.00  0.00     0.006 C 
BRANCH   6   7
ATOM      7  C   UNL     1      37.080  56.446  57.520  1.00  0.00     0.053 C 
BRANCH   7   8
ATOM      8  C   UNL     1      36.588  55.485  56.482  1.00  0.00     0.041 C 
ATOM      9  O   UNL     1      36.402  55.872  55.298  1.00  0.00    -0.550 OA
ATOM     10  O   UNL     1      36.369  54.153  56.813  1.00  0.00    -0.550 OA
ENDBRANCH   7   8
ENDBRANCH   6   7
ENDBRANCH   5   6
ENDBRANCH   4   5
ENDBRANCH   3   4
ENDBRANCH   2   3
ENDBRANCH   1   2
BRANCH   1  11
ATOM     11  C   UNL     1      37.055  64.358  56.004  1.00  0.00     0.000 C 
BRANCH  11  12
ATOM     12  C   UNL     1      36.498  65.666  55.425  1.00  0.00    -0.000 C 
BRANCH  12  13
ATOM     13  C   UNL     1      35.086  65.461  54.859  1.00  0.00    -0.000 C 
BRANCH  13  14
ATOM     14  C   UNL     1      34.092  66.540  55.324  1.00  0.00    -0.000 C 
BRANCH  14  15
ATOM     15  C   UNL     1      32.624  66.219  54.976  1.00  0.00    -0.000 C 
BRANCH  15  16
ATOM     16  C   UNL     1      31.877  67.444  54.421  1.00  0.00    -0.000 C 
BRANCH  16  17
ATOM     17  C   UNL     1      31.656  67.366  52.903  1.00  0.00    -0.003 C 
ATOM     18  C   UNL     1      32.962  67.431  52.112  1.00  0.00     0.004 C 
ENDBRANCH  16  17
ENDBRANCH  15  16
ENDBRANCH  14  15
ENDBRANCH  13  14
ENDBRANCH  12  13
ENDBRANCH  11  12
ENDBRANCH   1  11
TORSDOF 14
ENDMDL
MODEL 9
REMARK VINA RESULT:    -3.962      4.079      8.033
REMARK INTER + INTRA:          -8.360
REMARK INTER:                  -7.284
REMARK INTRA:                  -1.076
REMARK UNBOUND:                -1.155
REMARK SMILES CCCCCCCCCCCCCCCC(=O)[O-]
REMARK SMILES IDX 9 1 10 2 11 3 12 4 13 5 14 6 15 7 16 8 17 9 18 10 8 11 7 12
REMARK SMILES IDX 6 13 5 14 4 15 3 16 2 17 1 18
REMARK H PARENT
REMARK Flexibility Score: inf
ROOT
ATOM      1  C   UNL     1      45.149  66.420  51.654  1.00  0.00     0.000 C 
ENDROOT
BRANCH   1   2
ATOM      2  C   UNL     1      44.355  65.434  52.526  1.00  0.00     0.000 C 
BRANCH   2   3
ATOM      3  C   UNL     1      43.188  66.139  53.227  1.00  0.00     0.000 C 
BRANCH   3   4
ATOM      4  C   UNL     1      42.679  65.314  54.415  1.00  0.00     0.000 C 
BRANCH   4   5
ATOM      5  C   UNL     1      43.548  64.070  54.635  1.00  0.00     0.000 C 
BRANCH   5   6
ATOM      6  C   UNL     1      43.938  63.925  56.113  1.00  0.00     0.006 C 
BRANCH   6   7
ATOM      7  C   UNL     1      43.061  64.783  57.033  1.00  0.00     0.053 C 
BRANCH   7   8
ATOM      8  C   UNL     1      42.073  63.953  57.794  1.00  0.00     0.041 C 
ATOM      9  O   UNL     1      40.959  64.438  58.124  1.00  0.00    -0.550 OA
ATOM     10  O   UNL     1      42.368  62.632  58.109  1.00  0.00    -0.550 OA
ENDBRANCH   7   8
ENDBRANCH   6   7
ENDBRANCH   5   6
ENDBRANCH   4   5
ENDBRANCH   3   4
ENDBRANCH   2   3
ENDBRANCH   1   2
BRANCH   1  11
ATOM     11  C   UNL     1      45.470  65.854  50.262  1.00  0.00     0.000 C 
BRANCH  11  12
ATOM     12  C   UNL     1      44.591  66.461  49.160  1.00  0.00    -0.000 C 
BRANCH  12  13
ATOM     13  C   UNL     1      43.865  67.717  49.662  1.00  0.00    -0.000 C 
BRANCH  13  14
ATOM     14  C   UNL     1      42.350  67.679  49.397  1.00  0.00    -0.000 C 
BRANCH  14  15
ATOM     15  C   UNL     1      41.985  67.679  47.898  1.00  0.00    -0.000 C 
BRANCH  15  16
ATOM     16  C   UNL     1      40.934  66.608  47.556  1.00  0.00    -0.000 C 
BRANCH  16  17
ATOM     17  C   UNL     1      41.452  65.569  46.551  1.00  0.00    -0.003 C 
ATOM     18  C   UNL     1      40.819  64.192  46.745  1.00  0.00     0.004 C 
ENDBRANCH  16  17
ENDBRANCH  15  16
ENDBRANCH  14  15
ENDBRANCH  13  14
ENDBRANCH  12  13
ENDBRANCH  11  12
ENDBRANCH   1  11
TORSDOF 14
ENDMDL
