MODEL 1
REMARK VINA RESULT:    -6.202      0.000      0.000
REMARK INTER + INTRA:          -7.802
REMARK INTER:                  -7.471
REMARK INTRA:                  -0.331
REMARK UNBOUND:                -0.331
REMARK SMILES O=c1c(O)c(-c2ccc(O)c(O)c2)oc2cc(O)cc(O)c12
REMARK SMILES IDX 5 1 3 2 2 3 1 4 22 5 20 6 19 7 17 8 16 9 15 10 14 11 6 12
REMARK SMILES IDX 7 13 8 14 9 15 13 16 11 17 10 18 12 20 4 22 21 24 18 26
REMARK H PARENT 10 19 12 21 4 23 21 25 18 27
REMARK Flexibility Score: inf
ROOT
ATOM      1  C   UNL     1      11.179  -6.334 -10.814  1.00  0.00     0.180 A 
ATOM      2  C   UNL     1      10.883  -6.565  -9.457  1.00  0.00     0.208 A 
ATOM      3  C   UNL     1       9.712  -7.264  -9.127  1.00  0.00     0.238 A 
ATOM      4  O   UNL     1       9.442  -7.487  -7.915  1.00  0.00    -0.285 OA
ATOM      5  C   UNL     1       8.850  -7.702 -10.153  1.00  0.00     0.111 A 
ATOM      6  C   UNL     1       7.648  -8.409  -9.905  1.00  0.00     0.134 A 
ATOM      7  C   UNL     1       6.838  -8.803 -10.980  1.00  0.00     0.093 A 
ATOM      8  C   UNL     1       7.205  -8.502 -12.297  1.00  0.00     0.123 A 
ATOM      9  C   UNL     1       8.389  -7.805 -12.546  1.00  0.00     0.094 A 
ATOM     10  C   UNL     1       9.211  -7.406 -11.487  1.00  0.00     0.146 A 
ATOM     11  O   UNL     1      10.334  -6.748 -11.753  1.00  0.00    -0.452 OA
ENDROOT
BRANCH   1  12
ATOM     12  C   UNL     1      12.404  -5.621 -11.243  1.00  0.00     0.025 A 
ATOM     13  C   UNL     1      13.611  -6.307 -11.462  1.00  0.00     0.016 A 
ATOM     14  C   UNL     1      14.748  -5.616 -11.890  1.00  0.00     0.051 A 
ATOM     15  C   UNL     1      14.693  -4.234 -12.117  1.00  0.00     0.157 A 
ATOM     16  C   UNL     1      12.348  -4.239 -11.491  1.00  0.00     0.062 A 
ATOM     17  C   UNL     1      13.485  -3.545 -11.919  1.00  0.00     0.158 A 
BRANCH  15  18
ATOM     18  O   UNL     1      15.829  -3.548 -12.540  1.00  0.00    -0.504 OA
ATOM     19  H   UNL     1      16.136  -3.574 -13.506  1.00  0.00     0.293 HD
ENDBRANCH  15  18
BRANCH  17  20
ATOM     20  O   UNL     1      13.395  -2.171 -12.142  1.00  0.00    -0.504 OA
ATOM     21  H   UNL     1      13.676  -1.493 -11.445  1.00  0.00     0.293 HD
ENDBRANCH  17  20
ENDBRANCH   1  12
BRANCH   2  22
ATOM     22  O   UNL     1      11.730  -6.078  -8.457  1.00  0.00    -0.502 OA
ATOM     23  H   UNL     1      12.739  -6.087  -8.549  1.00  0.00     0.293 HD
ENDBRANCH   2  22
BRANCH   6  24
ATOM     24  O   UNL     1       7.255  -8.723  -8.604  1.00  0.00    -0.507 OA
ATOM     25  H   UNL     1       6.349  -8.449  -8.239  1.00  0.00     0.293 HD
ENDBRANCH   6  24
BRANCH   8  26
ATOM     26  O   UNL     1       6.401  -8.891 -13.366  1.00  0.00    -0.508 OA
ATOM     27  H   UNL     1       5.394  -8.776 -13.339  1.00  0.00     0.293 HD
ENDBRANCH   8  26
TORSDOF 6
ENDMDL
MODEL 2
REMARK VINA RESULT:    -6.113     12.127     14.827
REMARK INTER + INTRA:          -7.695
REMARK INTER:                  -7.486
REMARK INTRA:                  -0.209
REMARK UNBOUND:                -0.331
REMARK SMILES O=c1c(O)c(-c2ccc(O)c(O)c2)oc2cc(O)cc(O)c12
REMARK SMILES IDX 5 1 3 2 2 3 1 4 22 5 20 6 19 7 17 8 16 9 15 10 14 11 6 12
REMARK SMILES IDX 7 13 8 14 9 15 13 16 11 17 10 18 12 20 4 22 21 24 18 26
REMARK H PARENT 10 19 12 21 4 23 21 25 18 27
REMARK Flexibility Score: inf
ROOT
ATOM      1  C   UNL     1      12.041   4.320 -18.190  1.00  0.00     0.180 A 
ATOM      2  C   UNL     1      12.435   3.810 -16.938  1.00  0.00     0.208 A 
ATOM      3  C   UNL     1      13.571   4.348 -16.314  1.00  0.00     0.238 A 
ATOM      4  O   UNL     1      13.928   3.906 -15.187  1.00  0.00    -0.285 OA
ATOM      5  C   UNL     1      14.301   5.369 -16.955  1.00  0.00     0.111 A 
ATOM      6  C   UNL     1      15.459   5.962 -16.396  1.00  0.00     0.134 A 
ATOM      7  C   UNL     1      16.136   6.967 -17.102  1.00  0.00     0.093 A 
ATOM      8  C   UNL     1      15.680   7.389 -18.355  1.00  0.00     0.123 A 
ATOM      9  C   UNL     1      14.539   6.807 -18.912  1.00  0.00     0.094 A 
ATOM     10  C   UNL     1      13.849   5.805 -18.222  1.00  0.00     0.146 A 
ATOM     11  O   UNL     1      12.764   5.272 -18.772  1.00  0.00    -0.452 OA
ENDROOT
BRANCH   1  12
ATOM     12  C   UNL     1      10.845   3.818 -18.904  1.00  0.00     0.025 A 
ATOM     13  C   UNL     1      10.960   3.038 -20.067  1.00  0.00     0.016 A 
ATOM     14  C   UNL     1       9.817   2.554 -20.710  1.00  0.00     0.051 A 
ATOM     15  C   UNL     1       8.545   2.832 -20.193  1.00  0.00     0.157 A 
ATOM     16  C   UNL     1       9.567   4.076 -18.378  1.00  0.00     0.062 A 
ATOM     17  C   UNL     1       8.421   3.594 -19.020  1.00  0.00     0.158 A 
BRANCH  15  18
ATOM     18  O   UNL     1       7.407   2.351 -20.839  1.00  0.00    -0.504 OA
ATOM     19  H   UNL     1       7.448   1.556 -21.466  1.00  0.00     0.293 HD
ENDBRANCH  15  18
BRANCH  17  20
ATOM     20  O   UNL     1       7.169   3.883 -18.477  1.00  0.00    -0.504 OA
ATOM     21  H   UNL     1       7.020   4.667 -17.854  1.00  0.00     0.293 HD
ENDBRANCH  17  20
ENDBRANCH   1  12
BRANCH   2  22
ATOM     22  O   UNL     1      11.723   2.764 -16.346  1.00  0.00    -0.502 OA
ATOM     23  H   UNL     1      10.871   2.391 -16.750  1.00  0.00     0.293 HD
ENDBRANCH   2  22
BRANCH   6  24
ATOM     24  O   UNL     1      15.939   5.562 -15.148  1.00  0.00    -0.507 OA
ATOM     25  H   UNL     1      16.875   5.796 -14.836  1.00  0.00     0.293 HD
ENDBRANCH   6  24
BRANCH   8  26
ATOM     26  O   UNL     1      16.353   8.386 -19.059  1.00  0.00    -0.508 OA
ATOM     27  H   UNL     1      15.866   9.199 -19.420  1.00  0.00     0.293 HD
ENDBRANCH   8  26
TORSDOF 6
ENDMDL
MODEL 3
REMARK VINA RESULT:    -6.002      6.039      9.382
REMARK INTER + INTRA:          -7.561
REMARK INTER:                  -7.702
REMARK INTRA:                   0.141
REMARK UNBOUND:                -0.331
REMARK SMILES O=c1c(O)c(-c2ccc(O)c(O)c2)oc2cc(O)cc(O)c12
REMARK SMILES IDX 5 1 3 2 2 3 1 4 22 5 20 6 19 7 17 8 16 9 15 10 14 11 6 12
REMARK SMILES IDX 7 13 8 14 9 15 13 16 11 17 10 18 12 20 4 22 21 24 18 26
REMARK H PARENT 10 19 12 21 4 23 21 25 18 27
REMARK Flexibility Score: inf
ROOT
ATOM      1  C   UNL     1      17.660  -3.161 -16.004  1.00  0.00     0.180 A 
ATOM      2  C   UNL     1      17.502  -4.539 -15.759  1.00  0.00     0.208 A 
ATOM      3  C   UNL     1      16.626  -4.951 -14.744  1.00  0.00     0.238 A 
ATOM      4  O   UNL     1      16.467  -6.183 -14.522  1.00  0.00    -0.285 OA
ATOM      5  C   UNL     1      15.939  -3.985 -13.980  1.00  0.00     0.111 A 
ATOM      6  C   UNL     1      15.041  -4.317 -12.937  1.00  0.00     0.134 A 
ATOM      7  C   UNL     1      14.404  -3.296 -12.217  1.00  0.00     0.093 A 
ATOM      8  C   UNL     1      14.647  -1.951 -12.519  1.00  0.00     0.123 A 
ATOM      9  C   UNL     1      15.532  -1.618 -13.547  1.00  0.00     0.094 A 
ATOM     10  C   UNL     1      16.176  -2.622 -14.277  1.00  0.00     0.146 A 
ATOM     11  O   UNL     1      17.008  -2.278 -15.253  1.00  0.00    -0.452 OA
ENDROOT
BRANCH   1  12
ATOM     12  C   UNL     1      18.552  -2.648 -17.069  1.00  0.00     0.025 A 
ATOM     13  C   UNL     1      18.668  -3.306 -18.305  1.00  0.00     0.016 A 
ATOM     14  C   UNL     1      19.498  -2.790 -19.305  1.00  0.00     0.051 A 
ATOM     15  C   UNL     1      20.212  -1.604 -19.088  1.00  0.00     0.157 A 
ATOM     16  C   UNL     1      19.254  -1.449 -16.864  1.00  0.00     0.062 A 
ATOM     17  C   UNL     1      20.086  -0.930 -17.863  1.00  0.00     0.158 A 
BRANCH  15  18
ATOM     18  O   UNL     1      21.041  -1.094 -20.086  1.00  0.00    -0.504 OA
ATOM     19  H   UNL     1      21.503  -1.700 -20.754  1.00  0.00     0.293 HD
ENDBRANCH  15  18
BRANCH  17  20
ATOM     20  O   UNL     1      20.778   0.256 -17.619  1.00  0.00    -0.504 OA
ATOM     21  H   UNL     1      21.442   0.346 -16.859  1.00  0.00     0.293 HD
ENDBRANCH  17  20
ENDBRANCH   1  12
BRANCH   2  22
ATOM     22  O   UNL     1      18.232  -5.475 -16.497  1.00  0.00    -0.502 OA
ATOM     23  H   UNL     1      18.925  -6.080 -16.071  1.00  0.00     0.293 HD
ENDBRANCH   2  22
BRANCH   6  24
ATOM     24  O   UNL     1      14.779  -5.648 -12.612  1.00  0.00    -0.507 OA
ATOM     25  H   UNL     1      13.908  -5.928 -12.174  1.00  0.00     0.293 HD
ENDBRANCH   6  24
BRANCH   8  26
ATOM     26  O   UNL     1      14.016  -0.936 -11.803  1.00  0.00    -0.508 OA
ATOM     27  H   UNL     1      14.539  -0.308 -11.203  1.00  0.00     0.293 HD
ENDBRANCH   8  26
TORSDOF 6
ENDMDL
MODEL 4
REMARK VINA RESULT:    -5.957      6.074      9.824
REMARK INTER + INTRA:          -7.508
REMARK INTER:                  -7.277
REMARK INTRA:                  -0.231
REMARK UNBOUND:                -0.331
REMARK SMILES O=c1c(O)c(-c2ccc(O)c(O)c2)oc2cc(O)cc(O)c12
REMARK SMILES IDX 5 1 3 2 2 3 1 4 22 5 20 6 19 7 17 8 16 9 15 10 14 11 6 12
REMARK SMILES IDX 7 13 8 14 9 15 13 16 11 17 10 18 12 20 4 22 21 24 18 26
REMARK H PARENT 10 19 12 21 4 23 21 25 18 27
REMARK Flexibility Score: inf
ROOT
ATOM      1  C   UNL     1      17.499  -1.384 -15.796  1.00  0.00     0.180 A 
ATOM      2  C   UNL     1      17.022  -0.221 -15.162  1.00  0.00     0.208 A 
ATOM      3  C   UNL     1      16.141  -0.352 -14.077  1.00  0.00     0.238 A 
ATOM      4  O   UNL     1      15.715   0.683 -13.494  1.00  0.00    -0.285 OA
ATOM      5  C   UNL     1      15.739  -1.636 -13.658  1.00  0.00     0.111 A 
ATOM      6  C   UNL     1      14.851  -1.855 -12.576  1.00  0.00     0.134 A 
ATOM      7  C   UNL     1      14.491  -3.165 -12.226  1.00  0.00     0.093 A 
ATOM      8  C   UNL     1      15.000  -4.258 -12.936  1.00  0.00     0.123 A 
ATOM      9  C   UNL     1      15.875  -4.048 -14.004  1.00  0.00     0.094 A 
ATOM     10  C   UNL     1      16.247  -2.749 -14.366  1.00  0.00     0.146 A 
ATOM     11  O   UNL     1      17.085  -2.578 -15.382  1.00  0.00    -0.452 OA
ENDROOT
BRANCH   1  12
ATOM     12  C   UNL     1      18.445  -1.328 -16.934  1.00  0.00     0.025 A 
ATOM     13  C   UNL     1      18.028  -1.612 -18.246  1.00  0.00     0.016 A 
ATOM     14  C   UNL     1      18.933  -1.531 -19.308  1.00  0.00     0.051 A 
ATOM     15  C   UNL     1      20.262  -1.151 -19.076  1.00  0.00     0.157 A 
ATOM     16  C   UNL     1      19.773  -0.929 -16.710  1.00  0.00     0.062 A 
ATOM     17  C   UNL     1      20.681  -0.846 -17.771  1.00  0.00     0.158 A 
BRANCH  15  18
ATOM     18  O   UNL     1      21.163  -1.073 -20.137  1.00  0.00    -0.504 OA
ATOM     19  H   UNL     1      21.254  -0.232 -20.696  1.00  0.00     0.293 HD
ENDBRANCH  15  18
BRANCH  17  20
ATOM     20  O   UNL     1      21.996  -0.459 -17.509  1.00  0.00    -0.504 OA
ATOM     21  H   UNL     1      22.744  -0.609 -18.174  1.00  0.00     0.293 HD
ENDBRANCH  17  20
ENDBRANCH   1  12
BRANCH   2  22
ATOM     22  O   UNL     1      17.397   1.042 -15.628  1.00  0.00    -0.502 OA
ATOM     23  H   UNL     1      18.262   1.199 -16.134  1.00  0.00     0.293 HD
ENDBRANCH   2  22
BRANCH   6  24
ATOM     24  O   UNL     1      14.327  -0.786 -11.850  1.00  0.00    -0.507 OA
ATOM     25  H   UNL     1      13.606  -0.183 -12.232  1.00  0.00     0.293 HD
ENDBRANCH   6  24
BRANCH   8  26
ATOM     26  O   UNL     1      14.642  -5.559 -12.591  1.00  0.00    -0.508 OA
ATOM     27  H   UNL     1      13.707  -5.783 -12.269  1.00  0.00     0.293 HD
ENDBRANCH   8  26
TORSDOF 6
ENDMDL
MODEL 5
REMARK VINA RESULT:    -5.930     10.326     13.491
REMARK INTER + INTRA:          -7.474
REMARK INTER:                  -7.146
REMARK INTRA:                  -0.328
REMARK UNBOUND:                -0.331
REMARK SMILES O=c1c(O)c(-c2ccc(O)c(O)c2)oc2cc(O)cc(O)c12
REMARK SMILES IDX 5 1 3 2 2 3 1 4 22 5 20 6 19 7 17 8 16 9 15 10 14 11 6 12
REMARK SMILES IDX 7 13 8 14 9 15 13 16 11 17 10 18 12 20 4 22 21 24 18 26
REMARK H PARENT 10 19 12 21 4 23 21 25 18 27
REMARK Flexibility Score: inf
ROOT
ATOM      1  C   UNL     1       7.687   3.000 -17.075  1.00  0.00     0.180 A 
ATOM      2  C   UNL     1       8.104   4.194 -16.456  1.00  0.00     0.208 A 
ATOM      3  C   UNL     1       9.043   5.006 -17.111  1.00  0.00     0.238 A 
ATOM      4  O   UNL     1       9.416   6.083 -16.571  1.00  0.00    -0.285 OA
ATOM      5  C   UNL     1       9.561   4.604 -18.360  1.00  0.00     0.111 A 
ATOM      6  C   UNL     1      10.513   5.363 -19.083  1.00  0.00     0.134 A 
ATOM      7  C   UNL     1      10.987   4.890 -20.316  1.00  0.00     0.093 A 
ATOM      8  C   UNL     1      10.529   3.674 -20.837  1.00  0.00     0.123 A 
ATOM      9  C   UNL     1       9.591   2.923 -20.127  1.00  0.00     0.094 A 
ATOM     10  C   UNL     1       9.105   3.379 -18.898  1.00  0.00     0.146 A 
ATOM     11  O   UNL     1       8.209   2.646 -18.246  1.00  0.00    -0.452 OA
ENDROOT
BRANCH   1  12
ATOM     12  C   UNL     1       6.687   2.101 -16.456  1.00  0.00     0.025 A 
ATOM     13  C   UNL     1       5.318   2.214 -16.752  1.00  0.00     0.016 A 
ATOM     14  C   UNL     1       4.394   1.338 -16.174  1.00  0.00     0.051 A 
ATOM     15  C   UNL     1       4.827   0.329 -15.304  1.00  0.00     0.157 A 
ATOM     16  C   UNL     1       7.117   1.074 -15.599  1.00  0.00     0.062 A 
ATOM     17  C   UNL     1       6.196   0.196 -15.019  1.00  0.00     0.158 A 
BRANCH  15  18
ATOM     18  O   UNL     1       3.904  -0.541 -14.727  1.00  0.00    -0.504 OA
ATOM     19  H   UNL     1       2.958  -0.624 -15.082  1.00  0.00     0.293 HD
ENDBRANCH  15  18
BRANCH  17  20
ATOM     20  O   UNL     1       6.659  -0.802 -14.161  1.00  0.00    -0.504 OA
ATOM     21  H   UNL     1       6.157  -1.671 -14.026  1.00  0.00     0.293 HD
ENDBRANCH  17  20
ENDBRANCH   1  12
BRANCH   2  22
ATOM     22  O   UNL     1       7.613   4.545 -15.196  1.00  0.00    -0.502 OA
ATOM     23  H   UNL     1       6.649   4.823 -15.047  1.00  0.00     0.293 HD
ENDBRANCH   2  22
BRANCH   6  24
ATOM     24  O   UNL     1      10.988   6.578 -18.589  1.00  0.00    -0.507 OA
ATOM     25  H   UNL     1      11.953   6.864 -18.715  1.00  0.00     0.293 HD
ENDBRANCH   6  24
BRANCH   8  26
ATOM     26  O   UNL     1      11.001   3.203 -22.060  1.00  0.00    -0.508 OA
ATOM     27  H   UNL     1      10.499   3.378 -22.924  1.00  0.00     0.293 HD
ENDBRANCH   8  26
TORSDOF 6
ENDMDL
MODEL 6
REMARK VINA RESULT:    -5.914      7.346      9.749
REMARK INTER + INTRA:          -7.455
REMARK INTER:                  -7.166
REMARK INTRA:                  -0.289
REMARK UNBOUND:                -0.331
REMARK SMILES O=c1c(O)c(-c2ccc(O)c(O)c2)oc2cc(O)cc(O)c12
REMARK SMILES IDX 5 1 3 2 2 3 1 4 22 5 20 6 19 7 17 8 16 9 15 10 14 11 6 12
REMARK SMILES IDX 7 13 8 14 9 15 13 16 11 17 10 18 12 20 4 22 21 24 18 26
REMARK H PARENT 10 19 12 21 4 23 21 25 18 27
REMARK Flexibility Score: inf
ROOT
ATOM      1  C   UNL     1      17.071  -1.051 -15.416  1.00  0.00     0.180 A 
ATOM      2  C   UNL     1      16.961  -1.902 -14.300  1.00  0.00     0.208 A 
ATOM      3  C   UNL     1      15.828  -1.801 -13.478  1.00  0.00     0.238 A 
ATOM      4  O   UNL     1      15.714  -2.565 -12.481  1.00  0.00    -0.285 OA
ATOM      5  C   UNL     1      14.837  -0.842 -13.772  1.00  0.00     0.111 A 
ATOM      6  C   UNL     1      13.667  -0.673 -12.992  1.00  0.00     0.134 A 
ATOM      7  C   UNL     1      12.732   0.310 -13.346  1.00  0.00     0.093 A 
ATOM      8  C   UNL     1      12.943   1.127 -14.462  1.00  0.00     0.123 A 
ATOM      9  C   UNL     1      14.095   0.964 -15.235  1.00  0.00     0.094 A 
ATOM     10  C   UNL     1      15.039  -0.012 -14.899  1.00  0.00     0.146 A 
ATOM     11  O   UNL     1      16.123  -0.149 -15.654  1.00  0.00    -0.452 OA
ENDROOT
BRANCH   1  12
ATOM     12  C   UNL     1      18.226  -1.110 -16.341  1.00  0.00     0.025 A 
ATOM     13  C   UNL     1      18.347  -2.133 -17.296  1.00  0.00     0.016 A 
ATOM     14  C   UNL     1      19.434  -2.155 -18.175  1.00  0.00     0.051 A 
ATOM     15  C   UNL     1      20.407  -1.148 -18.120  1.00  0.00     0.157 A 
ATOM     16  C   UNL     1      19.193  -0.092 -16.304  1.00  0.00     0.062 A 
ATOM     17  C   UNL     1      20.283  -0.111 -17.181  1.00  0.00     0.158 A 
BRANCH  15  18
ATOM     18  O   UNL     1      21.491  -1.174 -18.995  1.00  0.00    -0.504 OA
ATOM     19  H   UNL     1      22.378  -1.588 -18.729  1.00  0.00     0.293 HD
ENDBRANCH  15  18
BRANCH  17  20
ATOM     20  O   UNL     1      21.231   0.909 -17.105  1.00  0.00    -0.504 OA
ATOM     21  H   UNL     1      22.210   0.722 -16.926  1.00  0.00     0.293 HD
ENDBRANCH  17  20
ENDBRANCH   1  12
BRANCH   2  22
ATOM     22  O   UNL     1      17.981  -2.810 -14.001  1.00  0.00    -0.502 OA
ATOM     23  H   UNL     1      18.962  -2.573 -14.095  1.00  0.00     0.293 HD
ENDBRANCH   2  22
BRANCH   6  24
ATOM     24  O   UNL     1      13.428  -1.472 -11.874  1.00  0.00    -0.507 OA
ATOM     25  H   UNL     1      13.661  -1.162 -10.937  1.00  0.00     0.293 HD
ENDBRANCH   6  24
BRANCH   8  26
ATOM     26  O   UNL     1      12.016   2.105 -14.814  1.00  0.00    -0.508 OA
ATOM     27  H   UNL     1      11.449   2.021 -15.650  1.00  0.00     0.293 HD
ENDBRANCH   8  26
TORSDOF 6
ENDMDL
MODEL 7
REMARK VINA RESULT:    -5.875      5.224     10.246
REMARK INTER + INTRA:          -7.409
REMARK INTER:                  -7.110
REMARK INTRA:                  -0.299
REMARK UNBOUND:                -0.331
REMARK SMILES O=c1c(O)c(-c2ccc(O)c(O)c2)oc2cc(O)cc(O)c12
REMARK SMILES IDX 5 1 3 2 2 3 1 4 22 5 20 6 19 7 17 8 16 9 15 10 14 11 6 12
REMARK SMILES IDX 7 13 8 14 9 15 13 16 11 17 10 18 12 20 4 22 21 24 18 26
REMARK H PARENT 10 19 12 21 4 23 21 25 18 27
REMARK Flexibility Score: inf
ROOT
ATOM      1  C   UNL     1      16.744  -2.763 -14.215  1.00  0.00     0.180 A 
ATOM      2  C   UNL     1      17.085  -1.397 -14.246  1.00  0.00     0.208 A 
ATOM      3  C   UNL     1      17.812  -0.903 -15.340  1.00  0.00     0.238 A 
ATOM      4  O   UNL     1      18.113   0.321 -15.384  1.00  0.00    -0.285 OA
ATOM      5  C   UNL     1      18.201  -1.782 -16.372  1.00  0.00     0.111 A 
ATOM      6  C   UNL     1      18.938  -1.366 -17.507  1.00  0.00     0.134 A 
ATOM      7  C   UNL     1      19.295  -2.304 -18.486  1.00  0.00     0.093 A 
ATOM      8  C   UNL     1      18.932  -3.649 -18.352  1.00  0.00     0.123 A 
ATOM      9  C   UNL     1      18.205  -4.064 -17.234  1.00  0.00     0.094 A 
ATOM     10  C   UNL     1      17.837  -3.143 -16.248  1.00  0.00     0.146 A 
ATOM     11  O   UNL     1      17.142  -3.564 -15.198  1.00  0.00    -0.452 OA
ENDROOT
BRANCH   1  12
ATOM     12  C   UNL     1      15.964  -3.354 -13.104  1.00  0.00     0.025 A 
ATOM     13  C   UNL     1      16.594  -4.027 -12.044  1.00  0.00     0.016 A 
ATOM     14  C   UNL     1      15.839  -4.558 -10.994  1.00  0.00     0.051 A 
ATOM     15  C   UNL     1      14.445  -4.411 -10.982  1.00  0.00     0.157 A 
ATOM     16  C   UNL     1      14.569  -3.192 -13.077  1.00  0.00     0.062 A 
ATOM     17  C   UNL     1      13.809  -3.722 -12.028  1.00  0.00     0.158 A 
BRANCH  15  18
ATOM     18  O   UNL     1      13.694  -4.943  -9.936  1.00  0.00    -0.504 OA
ATOM     19  H   UNL     1      14.120  -5.511  -9.212  1.00  0.00     0.293 HD
ENDBRANCH  15  18
BRANCH  17  20
ATOM     20  O   UNL     1      12.425  -3.553 -12.042  1.00  0.00    -0.504 OA
ATOM     21  H   UNL     1      11.810  -4.184 -12.542  1.00  0.00     0.293 HD
ENDBRANCH  17  20
ENDBRANCH   1  12
BRANCH   2  22
ATOM     22  O   UNL     1      16.730  -0.556 -13.187  1.00  0.00    -0.502 OA
ATOM     23  H   UNL     1      16.613  -0.898 -12.240  1.00  0.00     0.293 HD
ENDBRANCH   2  22
BRANCH   6  24
ATOM     24  O   UNL     1      19.315  -0.032 -17.668  1.00  0.00    -0.507 OA
ATOM     25  H   UNL     1      19.817   0.285 -18.491  1.00  0.00     0.293 HD
ENDBRANCH   6  24
BRANCH   8  26
ATOM     26  O   UNL     1      19.287  -4.582 -19.323  1.00  0.00    -0.508 OA
ATOM     27  H   UNL     1      20.111  -5.164 -19.221  1.00  0.00     0.293 HD
ENDBRANCH   8  26
TORSDOF 6
ENDMDL
MODEL 8
REMARK VINA RESULT:    -5.861     12.581     14.374
REMARK INTER + INTRA:          -7.391
REMARK INTER:                  -7.191
REMARK INTRA:                  -0.200
REMARK UNBOUND:                -0.331
REMARK SMILES O=c1c(O)c(-c2ccc(O)c(O)c2)oc2cc(O)cc(O)c12
REMARK SMILES IDX 5 1 3 2 2 3 1 4 22 5 20 6 19 7 17 8 16 9 15 10 14 11 6 12
REMARK SMILES IDX 7 13 8 14 9 15 13 16 11 17 10 18 12 20 4 22 21 24 18 26
REMARK H PARENT 10 19 12 21 4 23 21 25 18 27
REMARK Flexibility Score: inf
ROOT
ATOM      1  C   UNL     1       4.773   5.550 -10.930  1.00  0.00     0.180 A 
ATOM      2  C   UNL     1       4.701   6.957 -10.940  1.00  0.00     0.208 A 
ATOM      3  C   UNL     1       4.445   7.614 -12.153  1.00  0.00     0.238 A 
ATOM      4  O   UNL     1       4.367   8.873 -12.174  1.00  0.00    -0.285 OA
ATOM      5  C   UNL     1       4.286   6.860 -13.334  1.00  0.00     0.111 A 
ATOM      6  C   UNL     1       4.030   7.445 -14.598  1.00  0.00     0.134 A 
ATOM      7  C   UNL     1       3.893   6.626 -15.729  1.00  0.00     0.093 A 
ATOM      8  C   UNL     1       4.009   5.236 -15.621  1.00  0.00     0.123 A 
ATOM      9  C   UNL     1       4.261   4.654 -14.376  1.00  0.00     0.094 A 
ATOM     10  C   UNL     1       4.399   5.453 -13.237  1.00  0.00     0.146 A 
ATOM     11  O   UNL     1       4.634   4.874 -12.066  1.00  0.00    -0.452 OA
ENDROOT
BRANCH   1  12
ATOM     12  C   UNL     1       5.021   4.784  -9.687  1.00  0.00     0.025 A 
ATOM     13  C   UNL     1       4.090   4.776  -8.634  1.00  0.00     0.016 A 
ATOM     14  C   UNL     1       4.334   4.027  -7.480  1.00  0.00     0.051 A 
ATOM     15  C   UNL     1       5.504   3.264  -7.367  1.00  0.00     0.157 A 
ATOM     16  C   UNL     1       6.182   4.002  -9.577  1.00  0.00     0.062 A 
ATOM     17  C   UNL     1       6.430   3.251  -8.423  1.00  0.00     0.158 A 
BRANCH  15  18
ATOM     18  O   UNL     1       5.746   2.520  -6.214  1.00  0.00    -0.504 OA
ATOM     19  H   UNL     1       6.218   2.922  -5.412  1.00  0.00     0.293 HD
ENDBRANCH  15  18
BRANCH  17  20
ATOM     20  O   UNL     1       7.601   2.497  -8.344  1.00  0.00    -0.504 OA
ATOM     21  H   UNL     1       7.748   1.668  -8.907  1.00  0.00     0.293 HD
ENDBRANCH  17  20
ENDBRANCH   1  12
BRANCH   2  22
ATOM     22  O   UNL     1       4.911   7.683  -9.765  1.00  0.00    -0.502 OA
ATOM     23  H   UNL     1       5.711   8.293  -9.640  1.00  0.00     0.293 HD
ENDBRANCH   2  22
BRANCH   6  24
ATOM     24  O   UNL     1       3.911   8.828 -14.738  1.00  0.00    -0.507 OA
ATOM     25  H   UNL     1       4.159   9.464 -13.988  1.00  0.00     0.293 HD
ENDBRANCH   6  24
BRANCH   8  26
ATOM     26  O   UNL     1       3.875   4.421 -16.743  1.00  0.00    -0.508 OA
ATOM     27  H   UNL     1       4.617   4.340 -17.429  1.00  0.00     0.293 HD
ENDBRANCH   8  26
TORSDOF 6
ENDMDL
MODEL 9
REMARK VINA RESULT:    -5.789      7.072     11.297
REMARK INTER + INTRA:          -7.305
REMARK INTER:                  -7.131
REMARK INTRA:                  -0.174
REMARK UNBOUND:                -0.331
REMARK SMILES O=c1c(O)c(-c2ccc(O)c(O)c2)oc2cc(O)cc(O)c12
REMARK SMILES IDX 5 1 3 2 2 3 1 4 22 5 20 6 19 7 17 8 16 9 15 10 14 11 6 12
REMARK SMILES IDX 7 13 8 14 9 15 13 16 11 17 10 18 12 20 4 22 21 24 18 26
REMARK H PARENT 10 19 12 21 4 23 21 25 18 27
REMARK Flexibility Score: inf
ROOT
ATOM      1  C   UNL     1      17.641  -4.290 -15.995  1.00  0.00     0.180 A 
ATOM      2  C   UNL     1      17.710  -3.175 -15.138  1.00  0.00     0.208 A 
ATOM      3  C   UNL     1      18.314  -1.997 -15.604  1.00  0.00     0.238 A 
ATOM      4  O   UNL     1      18.371  -0.988 -14.848  1.00  0.00    -0.285 OA
ATOM      5  C   UNL     1      18.853  -1.958 -16.906  1.00  0.00     0.111 A 
ATOM      6  C   UNL     1      19.482  -0.812 -17.450  1.00  0.00     0.134 A 
ATOM      7  C   UNL     1      20.003  -0.856 -18.751  1.00  0.00     0.093 A 
ATOM      8  C   UNL     1      19.909  -2.023 -19.518  1.00  0.00     0.123 A 
ATOM      9  C   UNL     1      19.290  -3.156 -18.986  1.00  0.00     0.094 A 
ATOM     10  C   UNL     1      18.763  -3.131 -17.691  1.00  0.00     0.146 A 
ATOM     11  O   UNL     1      18.176  -4.221 -17.211  1.00  0.00    -0.452 OA
ENDROOT
BRANCH   1  12
ATOM     12  C   UNL     1      17.004  -5.562 -15.584  1.00  0.00     0.025 A 
ATOM     13  C   UNL     1      17.538  -6.346 -14.547  1.00  0.00     0.016 A 
ATOM     14  C   UNL     1      16.906  -7.531 -14.160  1.00  0.00     0.051 A 
ATOM     15  C   UNL     1      15.725  -7.941 -14.793  1.00  0.00     0.157 A 
ATOM     16  C   UNL     1      15.809  -5.967 -16.201  1.00  0.00     0.062 A 
ATOM     17  C   UNL     1      15.174  -7.153 -15.816  1.00  0.00     0.158 A 
BRANCH  15  18
ATOM     18  O   UNL     1      15.099  -9.125 -14.406  1.00  0.00    -0.504 OA
ATOM     19  H   UNL     1      15.565  -9.804 -13.816  1.00  0.00     0.293 HD
ENDBRANCH  15  18
BRANCH  17  20
ATOM     20  O   UNL     1      13.996  -7.531 -16.461  1.00  0.00    -0.504 OA
ATOM     21  H   UNL     1      13.562  -6.954 -17.170  1.00  0.00     0.293 HD
ENDBRANCH  17  20
ENDBRANCH   1  12
BRANCH   2  22
ATOM     22  O   UNL     1      17.211  -3.255 -13.835  1.00  0.00    -0.502 OA
ATOM     23  H   UNL     1      17.677  -2.818 -13.048  1.00  0.00     0.293 HD
ENDBRANCH   2  22
BRANCH   6  24
ATOM     24  O   UNL     1      19.592   0.366 -16.710  1.00  0.00    -0.507 OA
ATOM     25  H   UNL     1      20.476   0.670 -16.318  1.00  0.00     0.293 HD
ENDBRANCH   6  24
BRANCH   8  26
ATOM     26  O   UNL     1      20.428  -2.069 -20.810  1.00  0.00    -0.508 OA
ATOM     27  H   UNL     1      21.357  -2.430 -20.994  1.00  0.00     0.293 HD
ENDBRANCH   8  26
TORSDOF 6
ENDMDL
