MODEL 1
REMARK VINA RESULT:    -6.443      0.000      0.000
REMARK INTER + INTRA:          -7.870
REMARK INTER:                  -7.573
REMARK INTRA:                  -0.297
REMARK UNBOUND:                -0.297
REMARK SMILES O=c1cc(-c2ccc(O)c(O)c2)oc2cc(O)cc(O)c12
REMARK SMILES IDX 4 1 3 2 2 3 1 4 21 5 19 6 18 7 16 8 15 9 14 10 13 11 5 12
REMARK SMILES IDX 6 13 7 14 8 15 12 16 10 17 9 18 11 20 20 22 17 24
REMARK H PARENT 9 19 11 21 20 23 17 25
REMARK Flexibility Score: inf
ROOT
ATOM      1  C   UNL     1      -0.081   3.864  -6.772  1.00  0.00     0.138 A 
ATOM      2  C   UNL     1       0.373   4.269  -8.035  1.00  0.00     0.100 A 
ATOM      3  C   UNL     1       1.268   5.336  -8.137  1.00  0.00     0.197 A 
ATOM      4  O   UNL     1       1.706   5.636  -9.277  1.00  0.00    -0.289 OA
ATOM      5  C   UNL     1       1.684   6.019  -6.969  1.00  0.00     0.107 A 
ATOM      6  C   UNL     1       2.560   7.145  -6.956  1.00  0.00     0.134 A 
ATOM      7  C   UNL     1       2.995   7.667  -5.731  1.00  0.00     0.093 A 
ATOM      8  C   UNL     1       2.538   7.143  -4.522  1.00  0.00     0.123 A 
ATOM      9  C   UNL     1       1.639   6.076  -4.523  1.00  0.00     0.094 A 
ATOM     10  C   UNL     1       1.214   5.512  -5.728  1.00  0.00     0.146 A 
ATOM     11  O   UNL     1       0.368   4.487  -5.687  1.00  0.00    -0.456 OA
ENDROOT
BRANCH   1  12
ATOM     12  C   UNL     1      -1.033   2.737  -6.606  1.00  0.00     0.021 A 
ATOM     13  C   UNL     1      -1.438   2.358  -5.315  1.00  0.00     0.016 A 
ATOM     14  C   UNL     1      -2.338   1.306  -5.132  1.00  0.00     0.051 A 
ATOM     15  C   UNL     1      -2.858   0.621  -6.233  1.00  0.00     0.157 A 
ATOM     16  C   UNL     1      -1.570   2.052  -7.714  1.00  0.00     0.062 A 
ATOM     17  C   UNL     1      -2.476   0.996  -7.531  1.00  0.00     0.158 A 
BRANCH  15  18
ATOM     18  O   UNL     1      -3.754  -0.427  -6.020  1.00  0.00    -0.504 OA
ATOM     19  H   UNL     1      -4.091  -0.668  -5.096  1.00  0.00     0.293 HD
ENDBRANCH  15  18
BRANCH  17  20
ATOM     20  O   UNL     1      -2.999   0.324  -8.635  1.00  0.00    -0.504 OA
ATOM     21  H   UNL     1      -2.710   0.548  -9.580  1.00  0.00     0.293 HD
ENDBRANCH  17  20
ENDBRANCH   1  12
BRANCH   6  22
ATOM     22  O   UNL     1       3.010   7.799  -8.107  1.00  0.00    -0.507 OA
ATOM     23  H   UNL     1       2.727   7.570  -9.048  1.00  0.00     0.293 HD
ENDBRANCH   6  22
BRANCH   8  24
ATOM     24  O   UNL     1       2.980   7.697  -3.323  1.00  0.00    -0.508 OA
ATOM     25  H   UNL     1       2.742   7.284  -2.428  1.00  0.00     0.293 HD
ENDBRANCH   8  24
TORSDOF 5
ENDMDL
MODEL 2
REMARK VINA RESULT:    -6.142      1.116      2.971
REMARK INTER + INTRA:          -7.516
REMARK INTER:                  -7.224
REMARK INTRA:                  -0.293
REMARK UNBOUND:                -0.297
REMARK SMILES O=c1cc(-c2ccc(O)c(O)c2)oc2cc(O)cc(O)c12
REMARK SMILES IDX 4 1 3 2 2 3 1 4 21 5 19 6 18 7 16 8 15 9 14 10 13 11 5 12
REMARK SMILES IDX 6 13 7 14 8 15 12 16 10 17 9 18 11 20 20 22 17 24
REMARK H PARENT 9 19 11 21 20 23 17 25
REMARK Flexibility Score: inf
ROOT
ATOM      1  C   UNL     1       0.011   4.058  -6.033  1.00  0.00     0.138 A 
ATOM      2  C   UNL     1       0.012   4.277  -4.649  1.00  0.00     0.100 A 
ATOM      3  C   UNL     1       0.792   5.304  -4.113  1.00  0.00     0.197 A 
ATOM      4  O   UNL     1       0.724   5.517  -2.875  1.00  0.00    -0.289 OA
ATOM      5  C   UNL     1       1.599   6.094  -4.967  1.00  0.00     0.107 A 
ATOM      6  C   UNL     1       2.464   7.139  -4.528  1.00  0.00     0.134 A 
ATOM      7  C   UNL     1       3.127   7.929  -5.476  1.00  0.00     0.093 A 
ATOM      8  C   UNL     1       3.002   7.674  -6.841  1.00  0.00     0.123 A 
ATOM      9  C   UNL     1       2.200   6.619  -7.280  1.00  0.00     0.094 A 
ATOM     10  C   UNL     1       1.500   5.835  -6.360  1.00  0.00     0.146 A 
ATOM     11  O   UNL     1       0.735   4.849  -6.819  1.00  0.00    -0.456 OA
ENDROOT
BRANCH   1  12
ATOM     12  C   UNL     1      -0.799   2.980  -6.656  1.00  0.00     0.021 A 
ATOM     13  C   UNL     1      -0.477   2.532  -7.948  1.00  0.00     0.016 A 
ATOM     14  C   UNL     1      -1.218   1.514  -8.552  1.00  0.00     0.051 A 
ATOM     15  C   UNL     1      -2.287   0.919  -7.875  1.00  0.00     0.157 A 
ATOM     16  C   UNL     1      -1.868   2.369  -5.971  1.00  0.00     0.062 A 
ATOM     17  C   UNL     1      -2.612   1.346  -6.577  1.00  0.00     0.158 A 
BRANCH  15  18
ATOM     18  O   UNL     1      -3.010  -0.093  -8.505  1.00  0.00    -0.504 OA
ATOM     19  H   UNL     1      -2.588  -0.977  -8.762  1.00  0.00     0.293 HD
ENDBRANCH  15  18
BRANCH  17  20
ATOM     20  O   UNL     1      -3.670   0.749  -5.892  1.00  0.00    -0.504 OA
ATOM     21  H   UNL     1      -4.213   1.259  -5.205  1.00  0.00     0.293 HD
ENDBRANCH  17  20
ENDBRANCH   1  12
BRANCH   6  22
ATOM     22  O   UNL     1       2.726   7.425  -3.185  1.00  0.00    -0.507 OA
ATOM     23  H   UNL     1       3.385   6.925  -2.607  1.00  0.00     0.293 HD
ENDBRANCH   6  22
BRANCH   8  24
ATOM     24  O   UNL     1       3.687   8.472  -7.755  1.00  0.00    -0.508 OA
ATOM     25  H   UNL     1       4.681   8.356  -7.919  1.00  0.00     0.293 HD
ENDBRANCH   8  24
TORSDOF 5
ENDMDL
MODEL 3
REMARK VINA RESULT:    -5.519      1.145      6.897
REMARK INTER + INTRA:          -6.784
REMARK INTER:                  -6.489
REMARK INTRA:                  -0.295
REMARK UNBOUND:                -0.297
REMARK SMILES O=c1cc(-c2ccc(O)c(O)c2)oc2cc(O)cc(O)c12
REMARK SMILES IDX 4 1 3 2 2 3 1 4 21 5 19 6 18 7 16 8 15 9 14 10 13 11 5 12
REMARK SMILES IDX 6 13 7 14 8 15 12 16 10 17 9 18 11 20 20 22 17 24
REMARK H PARENT 9 19 11 21 20 23 17 25
REMARK Flexibility Score: inf
ROOT
ATOM      1  C   UNL     1       0.028   3.843  -6.730  1.00  0.00     0.138 A 
ATOM      2  C   UNL     1      -0.012   3.296  -8.020  1.00  0.00     0.100 A 
ATOM      3  C   UNL     1      -0.807   2.176  -8.271  1.00  0.00     0.197 A 
ATOM      4  O   UNL     1      -0.872   1.746  -9.451  1.00  0.00    -0.289 OA
ATOM      5  C   UNL     1      -1.540   1.583  -7.214  1.00  0.00     0.107 A 
ATOM      6  C   UNL     1      -2.351   0.416  -7.344  1.00  0.00     0.134 A 
ATOM      7  C   UNL     1      -3.122  -0.012  -6.256  1.00  0.00     0.093 A 
ATOM      8  C   UNL     1      -3.066   0.648  -5.029  1.00  0.00     0.123 A 
ATOM      9  C   UNL     1      -2.235   1.759  -4.875  1.00  0.00     0.094 A 
ATOM     10  C   UNL     1      -1.480   2.230  -5.952  1.00  0.00     0.146 A 
ATOM     11  O   UNL     1      -0.712   3.300  -5.769  1.00  0.00    -0.456 OA
ENDROOT
BRANCH   1  12
ATOM     12  C   UNL     1       0.856   5.032  -6.408  1.00  0.00     0.021 A 
ATOM     13  C   UNL     1       1.073   5.382  -5.065  1.00  0.00     0.016 A 
ATOM     14  C   UNL     1       1.855   6.491  -4.736  1.00  0.00     0.051 A 
ATOM     15  C   UNL     1       2.442   7.265  -5.740  1.00  0.00     0.157 A 
ATOM     16  C   UNL     1       1.461   5.807  -7.418  1.00  0.00     0.062 A 
ATOM     17  C   UNL     1       2.248   6.921  -7.088  1.00  0.00     0.158 A 
BRANCH  15  18
ATOM     18  O   UNL     1       3.216   8.369  -5.381  1.00  0.00    -0.504 OA
ATOM     19  H   UNL     1       2.990   8.948  -4.583  1.00  0.00     0.293 HD
ENDBRANCH  15  18
BRANCH  17  20
ATOM     20  O   UNL     1       2.840   7.683  -8.094  1.00  0.00    -0.504 OA
ATOM     21  H   UNL     1       3.090   8.654  -7.948  1.00  0.00     0.293 HD
ENDBRANCH  17  20
ENDBRANCH   1  12
BRANCH   6  22
ATOM     22  O   UNL     1      -2.414  -0.368  -8.500  1.00  0.00    -0.507 OA
ATOM     23  H   UNL     1      -1.628  -0.583  -9.094  1.00  0.00     0.293 HD
ENDBRANCH   6  22
BRANCH   8  24
ATOM     24  O   UNL     1      -3.836   0.185  -3.964  1.00  0.00    -0.508 OA
ATOM     25  H   UNL     1      -3.410  -0.218  -3.137  1.00  0.00     0.293 HD
ENDBRANCH   8  24
TORSDOF 5
ENDMDL
MODEL 4
REMARK VINA RESULT:    -5.477      2.709      4.756
REMARK INTER + INTRA:          -6.735
REMARK INTER:                  -6.447
REMARK INTRA:                  -0.288
REMARK UNBOUND:                -0.297
REMARK SMILES O=c1cc(-c2ccc(O)c(O)c2)oc2cc(O)cc(O)c12
REMARK SMILES IDX 4 1 3 2 2 3 1 4 21 5 19 6 18 7 16 8 15 9 14 10 13 11 5 12
REMARK SMILES IDX 6 13 7 14 8 15 12 16 10 17 9 18 11 20 20 22 17 24
REMARK H PARENT 9 19 11 21 20 23 17 25
REMARK Flexibility Score: inf
ROOT
ATOM      1  C   UNL     1       2.999   6.924  -7.346  1.00  0.00     0.138 A 
ATOM      2  C   UNL     1       4.330   6.712  -7.732  1.00  0.00     0.100 A 
ATOM      3  C   UNL     1       5.268   7.732  -7.566  1.00  0.00     0.197 A 
ATOM      4  O   UNL     1       6.466   7.491  -7.862  1.00  0.00    -0.289 OA
ATOM      5  C   UNL     1       4.862   8.982  -7.040  1.00  0.00     0.107 A 
ATOM      6  C   UNL     1       5.722  10.107  -6.865  1.00  0.00     0.134 A 
ATOM      7  C   UNL     1       5.235  11.255  -6.227  1.00  0.00     0.093 A 
ATOM      8  C   UNL     1       3.906  11.340  -5.814  1.00  0.00     0.123 A 
ATOM      9  C   UNL     1       3.041  10.266  -6.028  1.00  0.00     0.094 A 
ATOM     10  C   UNL     1       3.507   9.095  -6.631  1.00  0.00     0.146 A 
ATOM     11  O   UNL     1       2.656   8.088  -6.804  1.00  0.00    -0.456 OA
ENDROOT
BRANCH   1  12
ATOM     12  C   UNL     1       1.961   5.874  -7.500  1.00  0.00     0.021 A 
ATOM     13  C   UNL     1       1.822   5.214  -8.733  1.00  0.00     0.016 A 
ATOM     14  C   UNL     1       0.859   4.217  -8.901  1.00  0.00     0.051 A 
ATOM     15  C   UNL     1       0.024   3.854  -7.841  1.00  0.00     0.157 A 
ATOM     16  C   UNL     1       1.127   5.496  -6.430  1.00  0.00     0.062 A 
ATOM     17  C   UNL     1       0.159   4.493  -6.598  1.00  0.00     0.158 A 
BRANCH  15  18
ATOM     18  O   UNL     1      -0.930   2.856  -8.039  1.00  0.00    -0.504 OA
ATOM     19  H   UNL     1      -0.944   2.007  -7.488  1.00  0.00     0.293 HD
ENDBRANCH  15  18
BRANCH  17  20
ATOM     20  O   UNL     1      -0.663   4.128  -5.533  1.00  0.00    -0.504 OA
ATOM     21  H   UNL     1      -0.530   4.510  -4.604  1.00  0.00     0.293 HD
ENDBRANCH  17  20
ENDBRANCH   1  12
BRANCH   6  22
ATOM     22  O   UNL     1       7.043  10.159  -7.318  1.00  0.00    -0.507 OA
ATOM     23  H   UNL     1       7.586   9.359  -7.606  1.00  0.00     0.293 HD
ENDBRANCH   6  22
BRANCH   8  24
ATOM     24  O   UNL     1       3.452  12.503  -5.195  1.00  0.00    -0.508 OA
ATOM     25  H   UNL     1       2.477  12.778  -5.232  1.00  0.00     0.293 HD
ENDBRANCH   8  24
TORSDOF 5
ENDMDL
MODEL 5
REMARK VINA RESULT:    -5.224      2.458      4.245
REMARK INTER + INTRA:          -6.437
REMARK INTER:                  -6.146
REMARK INTRA:                  -0.291
REMARK UNBOUND:                -0.297
REMARK SMILES O=c1cc(-c2ccc(O)c(O)c2)oc2cc(O)cc(O)c12
REMARK SMILES IDX 4 1 3 2 2 3 1 4 21 5 19 6 18 7 16 8 15 9 14 10 13 11 5 12
REMARK SMILES IDX 6 13 7 14 8 15 12 16 10 17 9 18 11 20 20 22 17 24
REMARK H PARENT 9 19 11 21 20 23 17 25
REMARK Flexibility Score: inf
ROOT
ATOM      1  C   UNL     1       2.077   6.582  -5.978  1.00  0.00     0.138 A 
ATOM      2  C   UNL     1       1.886   7.765  -5.251  1.00  0.00     0.100 A 
ATOM      3  C   UNL     1       2.817   8.800  -5.359  1.00  0.00     0.197 A 
ATOM      4  O   UNL     1       2.586   9.873  -4.744  1.00  0.00    -0.289 OA
ATOM      5  C   UNL     1       3.961   8.634  -6.177  1.00  0.00     0.107 A 
ATOM      6  C   UNL     1       4.995   9.604  -6.331  1.00  0.00     0.134 A 
ATOM      7  C   UNL     1       6.021   9.377  -7.257  1.00  0.00     0.093 A 
ATOM      8  C   UNL     1       6.082   8.192  -7.989  1.00  0.00     0.123 A 
ATOM      9  C   UNL     1       5.104   7.213  -7.807  1.00  0.00     0.094 A 
ATOM     10  C   UNL     1       4.050   7.425  -6.915  1.00  0.00     0.146 A 
ATOM     11  O   UNL     1       3.131   6.474  -6.781  1.00  0.00    -0.456 OA
ENDROOT
BRANCH   1  12
ATOM     12  C   UNL     1       1.119   5.450  -5.900  1.00  0.00     0.021 A 
ATOM     13  C   UNL     1       0.656   5.021  -4.645  1.00  0.00     0.016 A 
ATOM     14  C   UNL     1      -0.252   3.965  -4.545  1.00  0.00     0.051 A 
ATOM     15  C   UNL     1      -0.721   3.324  -5.695  1.00  0.00     0.157 A 
ATOM     16  C   UNL     1       0.634   4.811  -7.058  1.00  0.00     0.062 A 
ATOM     17  C   UNL     1      -0.279   3.750  -6.958  1.00  0.00     0.158 A 
BRANCH  15  18
ATOM     18  O   UNL     1      -1.625   2.270  -5.564  1.00  0.00    -0.504 OA
ATOM     19  H   UNL     1      -1.595   1.457  -6.167  1.00  0.00     0.293 HD
ENDBRANCH  15  18
BRANCH  17  20
ATOM     20  O   UNL     1      -0.751   3.122  -8.110  1.00  0.00    -0.504 OA
ATOM     21  H   UNL     1      -0.433   3.395  -9.033  1.00  0.00     0.293 HD
ENDBRANCH  17  20
ENDBRANCH   1  12
BRANCH   6  22
ATOM     22  O   UNL     1       5.077  10.785  -5.587  1.00  0.00    -0.507 OA
ATOM     23  H   UNL     1       4.555  11.627  -5.782  1.00  0.00     0.293 HD
ENDBRANCH   6  22
BRANCH   8  24
ATOM     24  O   UNL     1       7.125   7.994  -8.891  1.00  0.00    -0.508 OA
ATOM     25  H   UNL     1       7.159   7.179  -9.492  1.00  0.00     0.293 HD
ENDBRANCH   8  24
TORSDOF 5
ENDMDL
MODEL 6
REMARK VINA RESULT:    -5.204      1.845      7.408
REMARK INTER + INTRA:          -6.413
REMARK INTER:                  -6.110
REMARK INTRA:                  -0.303
REMARK UNBOUND:                -0.297
REMARK SMILES O=c1cc(-c2ccc(O)c(O)c2)oc2cc(O)cc(O)c12
REMARK SMILES IDX 4 1 3 2 2 3 1 4 21 5 19 6 18 7 16 8 15 9 14 10 13 11 5 12
REMARK SMILES IDX 6 13 7 14 8 15 12 16 10 17 9 18 11 20 20 22 17 24
REMARK H PARENT 9 19 11 21 20 23 17 25
REMARK Flexibility Score: inf
ROOT
ATOM      1  C   UNL     1       1.283   5.631  -6.381  1.00  0.00     0.138 A 
ATOM      2  C   UNL     1       0.690   5.377  -5.137  1.00  0.00     0.100 A 
ATOM      3  C   UNL     1      -0.208   4.317  -5.004  1.00  0.00     0.197 A 
ATOM      4  O   UNL     1      -0.676   4.074  -3.862  1.00  0.00    -0.289 OA
ATOM      5  C   UNL     1      -0.537   3.528  -6.133  1.00  0.00     0.107 A 
ATOM      6  C   UNL     1      -1.470   2.449  -6.124  1.00  0.00     0.134 A 
ATOM      7  C   UNL     1      -1.629   1.665  -7.274  1.00  0.00     0.093 A 
ATOM      8  C   UNL     1      -0.934   1.958  -8.447  1.00  0.00     0.123 A 
ATOM      9  C   UNL     1      -0.058   3.045  -8.483  1.00  0.00     0.094 A 
ATOM     10  C   UNL     1       0.146   3.824  -7.342  1.00  0.00     0.146 A 
ATOM     11  O   UNL     1       0.999   4.841  -7.412  1.00  0.00    -0.456 OA
ENDROOT
BRANCH   1  12
ATOM     12  C   UNL     1       2.245   6.745  -6.579  1.00  0.00     0.021 A 
ATOM     13  C   UNL     1       2.096   7.928  -5.835  1.00  0.00     0.016 A 
ATOM     14  C   UNL     1       2.992   8.987  -5.996  1.00  0.00     0.051 A 
ATOM     15  C   UNL     1       4.057   8.882  -6.894  1.00  0.00     0.157 A 
ATOM     16  C   UNL     1       3.328   6.637  -7.474  1.00  0.00     0.062 A 
ATOM     17  C   UNL     1       4.229   7.701  -7.635  1.00  0.00     0.158 A 
BRANCH  15  18
ATOM     18  O   UNL     1       4.934   9.956  -7.036  1.00  0.00    -0.504 OA
ATOM     19  H   UNL     1       5.668   9.965  -7.734  1.00  0.00     0.293 HD
ENDBRANCH  15  18
BRANCH  17  20
ATOM     20  O   UNL     1       5.296   7.585  -8.525  1.00  0.00    -0.504 OA
ATOM     21  H   UNL     1       5.657   6.681  -8.808  1.00  0.00     0.293 HD
ENDBRANCH  17  20
ENDBRANCH   1  12
BRANCH   6  22
ATOM     22  O   UNL     1      -2.279   2.122  -5.031  1.00  0.00    -0.507 OA
ATOM     23  H   UNL     1      -2.086   1.382  -4.373  1.00  0.00     0.293 HD
ENDBRANCH   6  22
BRANCH   8  24
ATOM     24  O   UNL     1      -1.127   1.166  -9.576  1.00  0.00    -0.508 OA
ATOM     25  H   UNL     1      -1.841   0.446  -9.604  1.00  0.00     0.293 HD
ENDBRANCH   8  24
TORSDOF 5
ENDMDL
MODEL 7
REMARK VINA RESULT:    -4.981      6.401      8.388
REMARK INTER + INTRA:          -6.152
REMARK INTER:                  -5.839
REMARK INTRA:                  -0.313
REMARK UNBOUND:                -0.297
REMARK SMILES O=c1cc(-c2ccc(O)c(O)c2)oc2cc(O)cc(O)c12
REMARK SMILES IDX 4 1 3 2 2 3 1 4 21 5 19 6 18 7 16 8 15 9 14 10 13 11 5 12
REMARK SMILES IDX 6 13 7 14 8 15 12 16 10 17 9 18 11 20 20 22 17 24
REMARK H PARENT 9 19 11 21 20 23 17 25
REMARK Flexibility Score: inf
ROOT
ATOM      1  C   UNL     1       3.426  10.413  -6.375  1.00  0.00     0.138 A 
ATOM      2  C   UNL     1       3.782  11.763  -6.250  1.00  0.00     0.100 A 
ATOM      3  C   UNL     1       2.862  12.675  -5.731  1.00  0.00     0.197 A 
ATOM      4  O   UNL     1       3.231  13.866  -5.572  1.00  0.00    -0.289 OA
ATOM      5  C   UNL     1       1.566  12.235  -5.365  1.00  0.00     0.107 A 
ATOM      6  C   UNL     1       0.534  13.082  -4.863  1.00  0.00     0.134 A 
ATOM      7  C   UNL     1      -0.670  12.516  -4.425  1.00  0.00     0.093 A 
ATOM      8  C   UNL     1      -0.900  11.144  -4.525  1.00  0.00     0.123 A 
ATOM      9  C   UNL     1       0.083  10.313  -5.064  1.00  0.00     0.094 A 
ATOM     10  C   UNL     1       1.307  10.843  -5.479  1.00  0.00     0.146 A 
ATOM     11  O   UNL     1       2.223  10.017  -5.973  1.00  0.00    -0.456 OA
ENDROOT
BRANCH   1  12
ATOM     12  C   UNL     1       4.366   9.401  -6.922  1.00  0.00     0.021 A 
ATOM     13  C   UNL     1       5.741   9.686  -6.964  1.00  0.00     0.016 A 
ATOM     14  C   UNL     1       6.646   8.749  -7.466  1.00  0.00     0.051 A 
ATOM     15  C   UNL     1       6.198   7.507  -7.924  1.00  0.00     0.157 A 
ATOM     16  C   UNL     1       3.918   8.144  -7.372  1.00  0.00     0.062 A 
ATOM     17  C   UNL     1       4.828   7.200  -7.875  1.00  0.00     0.158 A 
BRANCH  15  18
ATOM     18  O   UNL     1       7.125   6.592  -8.422  1.00  0.00    -0.504 OA
ATOM     19  H   UNL     1       7.212   6.397  -9.412  1.00  0.00     0.293 HD
ENDBRANCH  15  18
BRANCH  17  20
ATOM     20  O   UNL     1       4.375   5.960  -8.321  1.00  0.00    -0.504 OA
ATOM     21  H   UNL     1       3.460   5.848  -8.742  1.00  0.00     0.293 HD
ENDBRANCH  17  20
ENDBRANCH   1  12
BRANCH   6  22
ATOM     22  O   UNL     1       0.627  14.475  -4.798  1.00  0.00    -0.507 OA
ATOM     23  H   UNL     1       1.373  14.982  -4.346  1.00  0.00     0.293 HD
ENDBRANCH   6  22
BRANCH   8  24
ATOM     24  O   UNL     1      -2.115  10.618  -4.093  1.00  0.00    -0.508 OA
ATOM     25  H   UNL     1      -2.156   9.807  -3.485  1.00  0.00     0.293 HD
ENDBRANCH   8  24
TORSDOF 5
ENDMDL
MODEL 8
REMARK VINA RESULT:    -4.893      2.505      8.031
REMARK INTER + INTRA:          -6.047
REMARK INTER:                  -5.761
REMARK INTRA:                  -0.287
REMARK UNBOUND:                -0.297
REMARK SMILES O=c1cc(-c2ccc(O)c(O)c2)oc2cc(O)cc(O)c12
REMARK SMILES IDX 4 1 3 2 2 3 1 4 21 5 19 6 18 7 16 8 15 9 14 10 13 11 5 12
REMARK SMILES IDX 6 13 7 14 8 15 12 16 10 17 9 18 11 20 20 22 17 24
REMARK H PARENT 9 19 11 21 20 23 17 25
REMARK Flexibility Score: inf
ROOT
ATOM      1  C   UNL     1       3.139   7.066  -6.046  1.00  0.00     0.138 A 
ATOM      2  C   UNL     1       2.897   6.924  -4.672  1.00  0.00     0.100 A 
ATOM      3  C   UNL     1       1.902   6.048  -4.233  1.00  0.00     0.197 A 
ATOM      4  O   UNL     1       1.751   5.895  -2.994  1.00  0.00    -0.289 OA
ATOM      5  C   UNL     1       1.125   5.335  -5.179  1.00  0.00     0.107 A 
ATOM      6  C   UNL     1       0.059   4.448  -4.848  1.00  0.00     0.134 A 
ATOM      7  C   UNL     1      -0.563   3.709  -5.862  1.00  0.00     0.093 A 
ATOM      8  C   UNL     1      -0.198   3.871  -7.198  1.00  0.00     0.123 A 
ATOM      9  C   UNL     1       0.808   4.776  -7.539  1.00  0.00     0.094 A 
ATOM     10  C   UNL     1       1.470   5.502  -6.546  1.00  0.00     0.146 A 
ATOM     11  O   UNL     1       2.432   6.344  -6.910  1.00  0.00    -0.456 OA
ENDROOT
BRANCH   1  12
ATOM     12  C   UNL     1       4.184   7.982  -6.567  1.00  0.00     0.021 A 
ATOM     13  C   UNL     1       4.219   9.315  -6.124  1.00  0.00     0.016 A 
ATOM     14  C   UNL     1       5.197  10.195  -6.593  1.00  0.00     0.051 A 
ATOM     15  C   UNL     1       6.162   9.759  -7.504  1.00  0.00     0.157 A 
ATOM     16  C   UNL     1       5.167   7.543  -7.476  1.00  0.00     0.062 A 
ATOM     17  C   UNL     1       6.151   8.426  -7.947  1.00  0.00     0.158 A 
BRANCH  15  18
ATOM     18  O   UNL     1       7.125  10.661  -7.957  1.00  0.00    -0.504 OA
ATOM     19  H   UNL     1       7.142  11.627  -7.655  1.00  0.00     0.293 HD
ENDBRANCH  15  18
BRANCH  17  20
ATOM     20  O   UNL     1       7.117   7.982  -8.848  1.00  0.00    -0.504 OA
ATOM     21  H   UNL     1       7.316   6.996  -8.970  1.00  0.00     0.293 HD
ENDBRANCH  17  20
ENDBRANCH   1  12
BRANCH   6  22
ATOM     22  O   UNL     1      -0.443   4.275  -3.554  1.00  0.00    -0.507 OA
ATOM     23  H   UNL     1      -1.367   3.936  -3.335  1.00  0.00     0.293 HD
ENDBRANCH   6  22
BRANCH   8  24
ATOM     24  O   UNL     1      -0.849   3.130  -8.183  1.00  0.00    -0.508 OA
ATOM     25  H   UNL     1      -1.610   2.500  -7.957  1.00  0.00     0.293 HD
ENDBRANCH   8  24
TORSDOF 5
ENDMDL
MODEL 9
REMARK VINA RESULT:    -4.766      6.325      8.437
REMARK INTER + INTRA:          -5.899
REMARK INTER:                  -5.606
REMARK INTRA:                  -0.293
REMARK UNBOUND:                -0.297
REMARK SMILES O=c1cc(-c2ccc(O)c(O)c2)oc2cc(O)cc(O)c12
REMARK SMILES IDX 4 1 3 2 2 3 1 4 21 5 19 6 18 7 16 8 15 9 14 10 13 11 5 12
REMARK SMILES IDX 6 13 7 14 8 15 12 16 10 17 9 18 11 20 20 22 17 24
REMARK H PARENT 9 19 11 21 20 23 17 25
REMARK Flexibility Score: inf
ROOT
ATOM      1  C   UNL     1       3.074  10.135  -6.157  1.00  0.00     0.138 A 
ATOM      2  C   UNL     1       1.782   9.680  -5.858  1.00  0.00     0.100 A 
ATOM      3  C   UNL     1       0.847  10.563  -5.316  1.00  0.00     0.197 A 
ATOM      4  O   UNL     1      -0.322  10.141  -5.116  1.00  0.00    -0.289 OA
ATOM      5  C   UNL     1       1.219  11.901  -5.043  1.00  0.00     0.107 A 
ATOM      6  C   UNL     1       0.362  12.878  -4.454  1.00  0.00     0.134 A 
ATOM      7  C   UNL     1       0.802  14.202  -4.338  1.00  0.00     0.093 A 
ATOM      8  C   UNL     1       2.087  14.571  -4.734  1.00  0.00     0.123 A 
ATOM      9  C   UNL     1       2.953  13.613  -5.263  1.00  0.00     0.094 A 
ATOM     10  C   UNL     1       2.531  12.291  -5.422  1.00  0.00     0.146 A 
ATOM     11  O   UNL     1       3.380  11.411  -5.942  1.00  0.00    -0.456 OA
ENDROOT
BRANCH   1  12
ATOM     12  C   UNL     1       4.107   9.239  -6.735  1.00  0.00     0.021 A 
ATOM     13  C   UNL     1       5.462   9.602  -6.652  1.00  0.00     0.016 A 
ATOM     14  C   UNL     1       6.454   8.773  -7.180  1.00  0.00     0.051 A 
ATOM     15  C   UNL     1       6.113   7.563  -7.791  1.00  0.00     0.157 A 
ATOM     16  C   UNL     1       3.768   8.013  -7.339  1.00  0.00     0.062 A 
ATOM     17  C   UNL     1       4.765   7.178  -7.869  1.00  0.00     0.158 A 
BRANCH  15  18
ATOM     18  O   UNL     1       7.125   6.757  -8.311  1.00  0.00    -0.504 OA
ATOM     19  H   UNL     1       6.945   6.055  -9.018  1.00  0.00     0.293 HD
ENDBRANCH  15  18
BRANCH  17  20
ATOM     20  O   UNL     1       4.419   5.968  -8.468  1.00  0.00    -0.504 OA
ATOM     21  H   UNL     1       4.638   5.079  -8.033  1.00  0.00     0.293 HD
ENDBRANCH  17  20
ENDBRANCH   1  12
BRANCH   6  22
ATOM     22  O   UNL     1      -0.911  12.598  -3.946  1.00  0.00    -0.507 OA
ATOM     23  H   UNL     1      -1.521  13.275  -3.515  1.00  0.00     0.293 HD
ENDBRANCH   6  22
BRANCH   8  24
ATOM     24  O   UNL     1       2.496  15.895  -4.591  1.00  0.00    -0.508 OA
ATOM     25  H   UNL     1       3.336  16.243  -5.040  1.00  0.00     0.293 HD
ENDBRANCH   8  24
TORSDOF 5
ENDMDL
