MODEL 1
REMARK VINA RESULT:    -3.792      0.000      0.000
REMARK INTER + INTRA:          -7.413
REMARK INTER:                  -6.895
REMARK INTRA:                  -0.517
REMARK UNBOUND:                -0.517
REMARK SMILES CCCCCCCCCCCCCCCC(=O)[O-]
REMARK SMILES IDX 9 1 10 2 11 3 12 4 13 5 14 6 15 7 16 8 17 9 18 10 8 11 7 12
REMARK SMILES IDX 6 13 5 14 4 15 3 16 2 17 1 18
REMARK H PARENT
REMARK Flexibility Score: inf
ROOT
ATOM      1  C   UNL     1    -117.064 -99.543  40.263  1.00  0.00     0.000 C 
ENDROOT
BRANCH   1   2
ATOM      2  C   UNL     1    -117.764 -98.268  40.749  1.00  0.00     0.000 C 
BRANCH   2   3
ATOM      3  C   UNL     1    -118.502 -98.513  42.073  1.00  0.00     0.000 C 
BRANCH   3   4
ATOM      4  C   UNL     1    -117.583 -98.324  43.298  1.00  0.00     0.000 C 
BRANCH   4   5
ATOM      5  C   UNL     1    -117.919 -99.259  44.472  1.00  0.00     0.000 C 
BRANCH   5   6
ATOM      6  C   UNL     1    -118.213 -98.503  45.774  1.00  0.00     0.006 C 
BRANCH   6   7
ATOM      7  C   UNL     1    -118.386 -97.004  45.512  1.00  0.00     0.053 C 
BRANCH   7   8
ATOM      8  C   UNL     1    -118.378 -96.243  46.800  1.00  0.00     0.041 C 
ATOM      9  O   UNL     1    -118.322 -94.985  46.793  1.00  0.00    -0.550 OA
ATOM     10  O   UNL     1    -118.383 -96.924  48.011  1.00  0.00    -0.550 OA
ENDBRANCH   7   8
ENDBRANCH   6   7
ENDBRANCH   5   6
ENDBRANCH   4   5
ENDBRANCH   3   4
ENDBRANCH   2   3
ENDBRANCH   1   2
BRANCH   1  11
ATOM     11  C   UNL     1    -117.439 -99.854  38.805  1.00  0.00     0.000 C 
BRANCH  11  12
ATOM     12  C   UNL     1    -116.585 -99.071  37.795  1.00  0.00    -0.000 C 
BRANCH  12  13
ATOM     13  C   UNL     1    -116.458 -99.790  36.444  1.00  0.00    -0.000 C 
BRANCH  13  14
ATOM     14  C   UNL     1    -115.270 -99.246  35.641  1.00  0.00    -0.000 C 
BRANCH  14  15
ATOM     15  C   UNL     1    -115.728 -98.175  34.640  1.00  0.00    -0.000 C 
BRANCH  15  16
ATOM     16  C   UNL     1    -115.936 -98.731  33.220  1.00  0.00    -0.000 C 
BRANCH  16  17
ATOM     17  C   UNL     1    -117.183 -98.199  32.492  1.00  0.00    -0.003 C 
ATOM     18  C   UNL     1    -117.149 -96.687  32.275  1.00  0.00     0.004 C 
ENDBRANCH  16  17
ENDBRANCH  15  16
ENDBRANCH  14  15
ENDBRANCH  13  14
ENDBRANCH  12  13
ENDBRANCH  11  12
ENDBRANCH   1  11
TORSDOF 14
ENDMDL
MODEL 2
REMARK VINA RESULT:    -3.608      5.900     10.857
REMARK INTER + INTRA:          -7.078
REMARK INTER:                  -6.352
REMARK INTRA:                  -0.726
REMARK UNBOUND:                -0.517
REMARK SMILES CCCCCCCCCCCCCCCC(=O)[O-]
REMARK SMILES IDX 9 1 10 2 11 3 12 4 13 5 14 6 15 7 16 8 17 9 18 10 8 11 7 12
REMARK SMILES IDX 6 13 5 14 4 15 3 16 2 17 1 18
REMARK H PARENT
REMARK Flexibility Score: inf
ROOT
ATOM      1  C   UNL     1    -116.991-100.009  37.133  1.00  0.00     0.000 C 
ENDROOT
BRANCH   1   2
ATOM      2  C   UNL     1    -116.039 -99.124  36.320  1.00  0.00     0.000 C 
BRANCH   2   3
ATOM      3  C   UNL     1    -116.776 -98.437  35.161  1.00  0.00     0.000 C 
BRANCH   3   4
ATOM      4  C   UNL     1    -115.813 -97.978  34.046  1.00  0.00     0.000 C 
BRANCH   4   5
ATOM      5  C   UNL     1    -116.357 -98.211  32.626  1.00  0.00     0.000 C 
BRANCH   5   6
ATOM      6  C   UNL     1    -117.712 -98.931  32.615  1.00  0.00     0.006 C 
BRANCH   6   7
ATOM      7  C   UNL     1    -118.817 -98.013  32.084  1.00  0.00     0.053 C 
BRANCH   7   8
ATOM      8  C   UNL     1    -118.684 -97.837  30.604  1.00  0.00     0.041 C 
ATOM      9  O   UNL     1    -118.937 -98.794  29.826  1.00  0.00    -0.550 OA
ATOM     10  O   UNL     1    -118.234 -96.630  30.085  1.00  0.00    -0.550 OA
ENDBRANCH   7   8
ENDBRANCH   6   7
ENDBRANCH   5   6
ENDBRANCH   4   5
ENDBRANCH   3   4
ENDBRANCH   2   3
ENDBRANCH   1   2
BRANCH   1  11
ATOM     11  C   UNL     1    -116.876 -99.705  38.635  1.00  0.00     0.000 C 
BRANCH  11  12
ATOM     12  C   UNL     1    -118.135-100.111  39.418  1.00  0.00    -0.000 C 
BRANCH  12  13
ATOM     13  C   UNL     1    -118.016 -99.821  40.922  1.00  0.00    -0.000 C 
BRANCH  13  14
ATOM     14  C   UNL     1    -116.546 -99.712  41.345  1.00  0.00    -0.000 C 
BRANCH  14  15
ATOM     15  C   UNL     1    -116.350 -98.581  42.366  1.00  0.00    -0.000 C 
BRANCH  15  16
ATOM     16  C   UNL     1    -117.571 -98.381  43.281  1.00  0.00    -0.000 C 
BRANCH  16  17
ATOM     17  C   UNL     1    -117.558 -99.218  44.572  1.00  0.00    -0.003 C 
ATOM     18  C   UNL     1    -118.242 -98.518  45.745  1.00  0.00     0.004 C 
ENDBRANCH  16  17
ENDBRANCH  15  16
ENDBRANCH  14  15
ENDBRANCH  13  14
ENDBRANCH  12  13
ENDBRANCH  11  12
ENDBRANCH   1  11
TORSDOF 14
ENDMDL
MODEL 3
REMARK VINA RESULT:    -3.532      4.693     10.527
REMARK INTER + INTRA:          -6.940
REMARK INTER:                  -6.300
REMARK INTRA:                  -0.641
REMARK UNBOUND:                -0.517
REMARK SMILES CCCCCCCCCCCCCCCC(=O)[O-]
REMARK SMILES IDX 9 1 10 2 11 3 12 4 13 5 14 6 15 7 16 8 17 9 18 10 8 11 7 12
REMARK SMILES IDX 6 13 5 14 4 15 3 16 2 17 1 18
REMARK H PARENT
REMARK Flexibility Score: inf
ROOT
ATOM      1  C   UNL     1    -116.190 -99.093  41.906  1.00  0.00     0.000 C 
ENDROOT
BRANCH   1   2
ATOM      2  C   UNL     1    -116.999-100.035  41.005  1.00  0.00     0.000 C 
BRANCH   2   3
ATOM      3  C   UNL     1    -117.505 -99.303  39.753  1.00  0.00     0.000 C 
BRANCH   3   4
ATOM      4  C   UNL     1    -116.972 -99.937  38.451  1.00  0.00     0.000 C 
BRANCH   4   5
ATOM      5  C   UNL     1    -116.514 -98.905  37.406  1.00  0.00     0.000 C 
BRANCH   5   6
ATOM      6  C   UNL     1    -116.209 -99.533  36.039  1.00  0.00     0.006 C 
BRANCH   6   7
ATOM      7  C   UNL     1    -115.361 -98.592  35.179  1.00  0.00     0.053 C 
BRANCH   7   8
ATOM      8  C   UNL     1    -116.230 -97.822  34.233  1.00  0.00     0.041 C 
ATOM      9  O   UNL     1    -117.428 -98.164  34.053  1.00  0.00    -0.550 OA
ATOM     10  O   UNL     1    -115.702 -96.758  33.514  1.00  0.00    -0.550 OA
ENDBRANCH   7   8
ENDBRANCH   6   7
ENDBRANCH   5   6
ENDBRANCH   4   5
ENDBRANCH   3   4
ENDBRANCH   2   3
ENDBRANCH   1   2
BRANCH   1  11
ATOM     11  C   UNL     1    -117.043 -98.591  43.081  1.00  0.00     0.000 C 
BRANCH  11  12
ATOM     12  C   UNL     1    -118.031 -99.652  43.591  1.00  0.00    -0.000 C 
BRANCH  12  13
ATOM     13  C   UNL     1    -118.730 -99.233  44.893  1.00  0.00    -0.000 C 
BRANCH  13  14
ATOM     14  C   UNL     1    -117.792 -99.391  46.096  1.00  0.00    -0.000 C 
BRANCH  14  15
ATOM     15  C   UNL     1    -118.515 -99.047  47.406  1.00  0.00    -0.000 C 
BRANCH  15  16
ATOM     16  C   UNL     1    -117.723 -98.065  48.289  1.00  0.00    -0.000 C 
BRANCH  16  17
ATOM     17  C   UNL     1    -118.325 -96.652  48.386  1.00  0.00    -0.003 C 
ATOM     18  C   UNL     1    -118.275 -95.889  47.063  1.00  0.00     0.004 C 
ENDBRANCH  16  17
ENDBRANCH  15  16
ENDBRANCH  14  15
ENDBRANCH  13  14
ENDBRANCH  12  13
ENDBRANCH  11  12
ENDBRANCH   1  11
TORSDOF 14
ENDMDL
MODEL 4
REMARK VINA RESULT:    -3.494      1.055      2.055
REMARK INTER + INTRA:          -6.871
REMARK INTER:                  -6.026
REMARK INTRA:                  -0.846
REMARK UNBOUND:                -0.517
REMARK SMILES CCCCCCCCCCCCCCCC(=O)[O-]
REMARK SMILES IDX 9 1 10 2 11 3 12 4 13 5 14 6 15 7 16 8 17 9 18 10 8 11 7 12
REMARK SMILES IDX 6 13 5 14 4 15 3 16 2 17 1 18
REMARK H PARENT
REMARK Flexibility Score: inf
ROOT
ATOM      1  C   UNL     1    -116.103 -98.733  41.525  1.00  0.00     0.000 C 
ENDROOT
BRANCH   1   2
ATOM      2  C   UNL     1    -116.726 -99.168  42.857  1.00  0.00     0.000 C 
BRANCH   2   3
ATOM      3  C   UNL     1    -117.866 -98.224  43.270  1.00  0.00     0.000 C 
BRANCH   3   4
ATOM      4  C   UNL     1    -119.089 -98.990  43.815  1.00  0.00     0.000 C 
BRANCH   4   5
ATOM      5  C   UNL     1    -118.772 -99.868  45.038  1.00  0.00     0.000 C 
BRANCH   5   6
ATOM      6  C   UNL     1    -118.093 -99.090  46.173  1.00  0.00     0.006 C 
BRANCH   6   7
ATOM      7  C   UNL     1    -119.090 -98.167  46.880  1.00  0.00     0.053 C 
BRANCH   7   8
ATOM      8  C   UNL     1    -118.455 -96.846  47.185  1.00  0.00     0.041 C 
ATOM      9  O   UNL     1    -117.799 -96.690  48.248  1.00  0.00    -0.550 OA
ATOM     10  O   UNL     1    -118.630 -95.774  46.320  1.00  0.00    -0.550 OA
ENDBRANCH   7   8
ENDBRANCH   6   7
ENDBRANCH   5   6
ENDBRANCH   4   5
ENDBRANCH   3   4
ENDBRANCH   2   3
ENDBRANCH   1   2
BRANCH   1  11
ATOM     11  C   UNL     1    -117.173 -98.616  40.430  1.00  0.00     0.000 C 
BRANCH  11  12
ATOM     12  C   UNL     1    -117.747 -99.981  40.016  1.00  0.00    -0.000 C 
BRANCH  12  13
ATOM     13  C   UNL     1    -117.891-100.125  38.493  1.00  0.00    -0.000 C 
BRANCH  13  14
ATOM     14  C   UNL     1    -116.853 -99.268  37.760  1.00  0.00    -0.000 C 
BRANCH  14  15
ATOM     15  C   UNL     1    -116.438 -99.921  36.433  1.00  0.00    -0.000 C 
BRANCH  15  16
ATOM     16  C   UNL     1    -115.893 -98.909  35.410  1.00  0.00    -0.000 C 
BRANCH  16  17
ATOM     17  C   UNL     1    -116.879 -98.523  34.293  1.00  0.00    -0.003 C 
ATOM     18  C   UNL     1    -116.410 -98.959  32.905  1.00  0.00     0.004 C 
ENDBRANCH  16  17
ENDBRANCH  15  16
ENDBRANCH  14  15
ENDBRANCH  13  14
ENDBRANCH  12  13
ENDBRANCH  11  12
ENDBRANCH   1  11
TORSDOF 14
ENDMDL
MODEL 5
REMARK VINA RESULT:    -3.430      5.875     10.990
REMARK INTER + INTRA:          -6.754
REMARK INTER:                  -6.113
REMARK INTRA:                  -0.641
REMARK UNBOUND:                -0.517
REMARK SMILES CCCCCCCCCCCCCCCC(=O)[O-]
REMARK SMILES IDX 9 1 10 2 11 3 12 4 13 5 14 6 15 7 16 8 17 9 18 10 8 11 7 12
REMARK SMILES IDX 6 13 5 14 4 15 3 16 2 17 1 18
REMARK H PARENT
REMARK Flexibility Score: inf
ROOT
ATOM      1  C   UNL     1    -116.122 -99.056  36.305  1.00  0.00     0.000 C 
ENDROOT
BRANCH   1   2
ATOM      2  C   UNL     1    -115.846 -99.965  35.101  1.00  0.00     0.000 C 
BRANCH   2   3
ATOM      3  C   UNL     1    -115.506 -99.139  33.851  1.00  0.00     0.000 C 
BRANCH   3   4
ATOM      4  C   UNL     1    -116.463 -99.434  32.677  1.00  0.00     0.000 C 
BRANCH   4   5
ATOM      5  C   UNL     1    -117.950 -99.411  33.073  1.00  0.00     0.000 C 
BRANCH   5   6
ATOM      6  C   UNL     1    -118.599 -98.034  32.880  1.00  0.00     0.006 C 
BRANCH   6   7
ATOM      7  C   UNL     1    -117.798 -97.183  31.890  1.00  0.00     0.053 C 
BRANCH   7   8
ATOM      8  C   UNL     1    -118.570 -96.989  30.623  1.00  0.00     0.041 C 
ATOM      9  O   UNL     1    -118.858 -97.978  29.899  1.00  0.00    -0.550 OA
ATOM     10  O   UNL     1    -118.928 -95.710  30.216  1.00  0.00    -0.550 OA
ENDBRANCH   7   8
ENDBRANCH   6   7
ENDBRANCH   5   6
ENDBRANCH   4   5
ENDBRANCH   3   4
ENDBRANCH   2   3
ENDBRANCH   1   2
BRANCH   1  11
ATOM     11  C   UNL     1    -116.913 -99.804  37.389  1.00  0.00     0.000 C 
BRANCH  11  12
ATOM     12  C   UNL     1    -116.976 -99.030  38.715  1.00  0.00    -0.000 C 
BRANCH  12  13
ATOM     13  C   UNL     1    -117.591 -99.857  39.855  1.00  0.00    -0.000 C 
BRANCH  13  14
ATOM     14  C   UNL     1    -117.863 -98.981  41.083  1.00  0.00    -0.000 C 
BRANCH  14  15
ATOM     15  C   UNL     1    -117.747 -99.799  42.378  1.00  0.00    -0.000 C 
BRANCH  15  16
ATOM     16  C   UNL     1    -117.058 -99.024  43.516  1.00  0.00    -0.000 C 
BRANCH  16  17
ATOM     17  C   UNL     1    -117.996 -98.567  44.648  1.00  0.00    -0.003 C 
ATOM     18  C   UNL     1    -117.934 -99.471  45.878  1.00  0.00     0.004 C 
ENDBRANCH  16  17
ENDBRANCH  15  16
ENDBRANCH  14  15
ENDBRANCH  13  14
ENDBRANCH  12  13
ENDBRANCH  11  12
ENDBRANCH   1  11
TORSDOF 14
ENDMDL
MODEL 6
REMARK VINA RESULT:    -3.112      1.577      2.715
REMARK INTER + INTRA:          -6.177
REMARK INTER:                  -5.683
REMARK INTRA:                  -0.493
REMARK UNBOUND:                -0.517
REMARK SMILES CCCCCCCCCCCCCCCC(=O)[O-]
REMARK SMILES IDX 9 1 10 2 11 3 12 4 13 5 14 6 15 7 16 8 17 9 18 10 8 11 7 12
REMARK SMILES IDX 6 13 5 14 4 15 3 16 2 17 1 18
REMARK H PARENT
REMARK Flexibility Score: inf
ROOT
ATOM      1  C   UNL     1    -116.451 -98.762  41.969  1.00  0.00     0.000 C 
ENDROOT
BRANCH   1   2
ATOM      2  C   UNL     1    -116.919 -98.450  43.395  1.00  0.00     0.000 C 
BRANCH   2   3
ATOM      3  C   UNL     1    -117.936 -99.493  43.884  1.00  0.00     0.000 C 
BRANCH   3   4
ATOM      4  C   UNL     1    -118.180 -99.402  45.405  1.00  0.00     0.000 C 
BRANCH   4   5
ATOM      5  C   UNL     1    -118.832 -98.081  45.848  1.00  0.00     0.000 C 
BRANCH   5   6
ATOM      6  C   UNL     1    -118.092 -97.408  47.011  1.00  0.00     0.006 C 
BRANCH   6   7
ATOM      7  C   UNL     1    -119.054 -96.583  47.871  1.00  0.00     0.053 C 
BRANCH   7   8
ATOM      8  C   UNL     1    -118.556 -95.179  48.013  1.00  0.00     0.041 C 
ATOM      9  O   UNL     1    -118.704 -94.561  49.100  1.00  0.00    -0.550 OA
ATOM     10  O   UNL     1    -117.974 -94.535  46.929  1.00  0.00    -0.550 OA
ENDBRANCH   7   8
ENDBRANCH   6   7
ENDBRANCH   5   6
ENDBRANCH   4   5
ENDBRANCH   3   4
ENDBRANCH   2   3
ENDBRANCH   1   2
BRANCH   1  11
ATOM     11  C   UNL     1    -117.536 -98.401  40.943  1.00  0.00     0.000 C 
BRANCH  11  12
ATOM     12  C   UNL     1    -118.331 -99.627  40.465  1.00  0.00    -0.000 C 
BRANCH  12  13
ATOM     13  C   UNL     1    -117.881-100.122  39.082  1.00  0.00    -0.000 C 
BRANCH  13  14
ATOM     14  C   UNL     1    -116.809 -99.199  38.490  1.00  0.00    -0.000 C 
BRANCH  14  15
ATOM     15  C   UNL     1    -116.331 -99.717  37.126  1.00  0.00    -0.000 C 
BRANCH  15  16
ATOM     16  C   UNL     1    -116.516 -98.688  35.996  1.00  0.00    -0.000 C 
BRANCH  16  17
ATOM     17  C   UNL     1    -115.416 -98.703  34.919  1.00  0.00    -0.003 C 
ATOM     18  C   UNL     1    -115.234-100.075  34.271  1.00  0.00     0.004 C 
ENDBRANCH  16  17
ENDBRANCH  15  16
ENDBRANCH  14  15
ENDBRANCH  13  14
ENDBRANCH  12  13
ENDBRANCH  11  12
ENDBRANCH   1  11
TORSDOF 14
ENDMDL
MODEL 7
REMARK VINA RESULT:    -3.065      5.459     10.591
REMARK INTER + INTRA:          -6.091
REMARK INTER:                  -5.528
REMARK INTRA:                  -0.562
REMARK UNBOUND:                -0.517
REMARK SMILES CCCCCCCCCCCCCCCC(=O)[O-]
REMARK SMILES IDX 9 1 10 2 11 3 12 4 13 5 14 6 15 7 16 8 17 9 18 10 8 11 7 12
REMARK SMILES IDX 6 13 5 14 4 15 3 16 2 17 1 18
REMARK H PARENT
REMARK Flexibility Score: inf
ROOT
ATOM      1  C   UNL     1    -115.210 -98.369  35.422  1.00  0.00     0.000 C 
ENDROOT
BRANCH   1   2
ATOM      2  C   UNL     1    -116.126 -98.077  34.228  1.00  0.00     0.000 C 
BRANCH   2   3
ATOM      3  C   UNL     1    -115.717 -98.906  33.001  1.00  0.00     0.000 C 
BRANCH   3   4
ATOM      4  C   UNL     1    -116.650-100.114  32.776  1.00  0.00     0.000 C 
BRANCH   4   5
ATOM      5  C   UNL     1    -118.127 -99.819  33.088  1.00  0.00     0.000 C 
BRANCH   5   6
ATOM      6  C   UNL     1    -119.038 -99.965  31.862  1.00  0.00     0.006 C 
BRANCH   6   7
ATOM      7  C   UNL     1    -118.505 -99.148  30.682  1.00  0.00     0.053 C 
BRANCH   7   8
ATOM      8  C   UNL     1    -118.716 -97.685  30.919  1.00  0.00     0.041 C 
ATOM      9  O   UNL     1    -118.557 -96.862  29.980  1.00  0.00    -0.550 OA
ATOM     10  O   UNL     1    -119.040 -97.227  32.190  1.00  0.00    -0.550 OA
ENDBRANCH   7   8
ENDBRANCH   6   7
ENDBRANCH   5   6
ENDBRANCH   4   5
ENDBRANCH   3   4
ENDBRANCH   2   3
ENDBRANCH   1   2
BRANCH   1  11
ATOM     11  C   UNL     1    -115.574 -99.710  36.079  1.00  0.00     0.000 C 
BRANCH  11  12
ATOM     12  C   UNL     1    -116.963 -99.687  36.738  1.00  0.00    -0.000 C 
BRANCH  12  13
ATOM     13  C   UNL     1    -116.927-100.123  38.210  1.00  0.00    -0.000 C 
BRANCH  13  14
ATOM     14  C   UNL     1    -117.364 -98.979  39.132  1.00  0.00    -0.000 C 
BRANCH  14  15
ATOM     15  C   UNL     1    -116.597 -99.020  40.462  1.00  0.00    -0.000 C 
BRANCH  15  16
ATOM     16  C   UNL     1    -117.436 -98.524  41.654  1.00  0.00    -0.000 C 
BRANCH  16  17
ATOM     17  C   UNL     1    -117.145 -99.231  42.989  1.00  0.00    -0.003 C 
ATOM     18  C   UNL     1    -117.868 -98.593  44.174  1.00  0.00     0.004 C 
ENDBRANCH  16  17
ENDBRANCH  15  16
ENDBRANCH  14  15
ENDBRANCH  13  14
ENDBRANCH  12  13
ENDBRANCH  11  12
ENDBRANCH   1  11
TORSDOF 14
ENDMDL
