MODEL 1
REMARK VINA RESULT:    -4.460      0.000      0.000
REMARK INTER + INTRA:          -7.923
REMARK INTER:                  -7.067
REMARK INTRA:                  -0.856
REMARK UNBOUND:                -0.856
REMARK SMILES CCCCCCCCCCCC(=O)[O-]
REMARK SMILES IDX 7 1 8 2 9 3 10 4 11 5 12 6 13 7 14 8 6 9 5 10 4 11 3 12 2 13
REMARK SMILES IDX 1 14
REMARK H PARENT
REMARK Flexibility Score: inf
ROOT
ATOM      1  C   UNL     1      56.389  12.961  90.120  1.00  0.00     0.000 C 
ENDROOT
BRANCH   1   2
ATOM      2  C   UNL     1      56.216  12.446  88.681  1.00  0.00     0.000 C 
BRANCH   2   3
ATOM      3  C   UNL     1      57.106  11.227  88.369  1.00  0.00     0.000 C 
BRANCH   3   4
ATOM      4  C   UNL     1      58.554  11.316  88.891  1.00  0.00     0.006 C 
BRANCH   4   5
ATOM      5  C   UNL     1      58.917  10.271  89.957  1.00  0.00     0.053 C 
BRANCH   5   6
ATOM      6  C   UNL     1      59.849  10.823  90.990  1.00  0.00     0.041 C 
ATOM      7  O   UNL     1      61.028  10.388  91.075  1.00  0.00    -0.550 OA
ATOM      8  O   UNL     1      59.429  11.842  91.835  1.00  0.00    -0.550 OA
ENDBRANCH   5   6
ENDBRANCH   4   5
ENDBRANCH   3   4
ENDBRANCH   2   3
ENDBRANCH   1   2
BRANCH   1   9
ATOM      9  C   UNL     1      55.384  12.337  91.106  1.00  0.00     0.000 C 
BRANCH   9  10
ATOM     10  C   UNL     1      55.883  11.083  91.847  1.00  0.00    -0.000 C 
BRANCH  10  11
ATOM     11  C   UNL     1      55.787  11.210  93.375  1.00  0.00    -0.000 C 
BRANCH  11  12
ATOM     12  C   UNL     1      54.835  10.156  93.954  1.00  0.00    -0.000 C 
BRANCH  12  13
ATOM     13  C   UNL     1      54.438   9.128  92.888  1.00  0.00    -0.003 C 
ATOM     14  C   UNL     1      53.843   7.875  93.523  1.00  0.00     0.004 C 
ENDBRANCH  12  13
ENDBRANCH  11  12
ENDBRANCH  10  11
ENDBRANCH   9  10
ENDBRANCH   1   9
TORSDOF 10
ENDMDL
MODEL 2
REMARK VINA RESULT:    -4.420      2.524      4.650
REMARK INTER + INTRA:          -7.860
REMARK INTER:                  -6.205
REMARK INTRA:                  -1.655
REMARK UNBOUND:                -0.856
REMARK SMILES CCCCCCCCCCCC(=O)[O-]
REMARK SMILES IDX 7 1 8 2 9 3 10 4 11 5 12 6 13 7 14 8 6 9 5 10 4 11 3 12 2 13
REMARK SMILES IDX 1 14
REMARK H PARENT
REMARK Flexibility Score: inf
ROOT
ATOM      1  C   UNL     1      57.688  14.379  89.547  1.00  0.00     0.000 C 
ENDROOT
BRANCH   1   2
ATOM      2  C   UNL     1      57.795  14.629  91.061  1.00  0.00     0.000 C 
BRANCH   2   3
ATOM      3  C   UNL     1      58.776  13.669  91.760  1.00  0.00     0.000 C 
BRANCH   3   4
ATOM      4  C   UNL     1      58.127  12.608  92.671  1.00  0.00     0.006 C 
BRANCH   4   5
ATOM      5  C   UNL     1      56.593  12.667  92.729  1.00  0.00     0.053 C 
BRANCH   5   6
ATOM      6  C   UNL     1      56.006  11.426  93.329  1.00  0.00     0.041 C 
ATOM      7  O   UNL     1      55.647  10.474  92.588  1.00  0.00    -0.550 OA
ATOM      8  O   UNL     1      55.888  11.307  94.708  1.00  0.00    -0.550 OA
ENDBRANCH   5   6
ENDBRANCH   4   5
ENDBRANCH   3   4
ENDBRANCH   2   3
ENDBRANCH   1   2
BRANCH   1   9
ATOM      9  C   UNL     1      56.284  13.918  89.112  1.00  0.00     0.000 C 
BRANCH   9  10
ATOM     10  C   UNL     1      56.138  12.406  88.860  1.00  0.00    -0.000 C 
BRANCH  10  11
ATOM     11  C   UNL     1      57.487  11.677  88.783  1.00  0.00    -0.000 C 
BRANCH  11  12
ATOM     12  C   UNL     1      57.461  10.386  89.610  1.00  0.00    -0.000 C 
BRANCH  12  13
ATOM     13  C   UNL     1      58.845  10.078  90.194  1.00  0.00    -0.003 C 
ATOM     14  C   UNL     1      59.916  10.973  89.577  1.00  0.00     0.004 C 
ENDBRANCH  12  13
ENDBRANCH  11  12
ENDBRANCH  10  11
ENDBRANCH   9  10
ENDBRANCH   1   9
TORSDOF 10
ENDMDL
MODEL 3
REMARK VINA RESULT:    -4.295      2.991      5.414
REMARK INTER + INTRA:          -7.662
REMARK INTER:                  -6.610
REMARK INTRA:                  -1.051
REMARK UNBOUND:                -0.856
REMARK SMILES CCCCCCCCCCCC(=O)[O-]
REMARK SMILES IDX 7 1 8 2 9 3 10 4 11 5 12 6 13 7 14 8 6 9 5 10 4 11 3 12 2 13
REMARK SMILES IDX 1 14
REMARK H PARENT
REMARK Flexibility Score: inf
ROOT
ATOM      1  C   UNL     1      55.486  13.582  91.723  1.00  0.00     0.000 C 
ENDROOT
BRANCH   1   2
ATOM      2  C   UNL     1      54.932  12.151  91.821  1.00  0.00     0.000 C 
BRANCH   2   3
ATOM      3  C   UNL     1      55.759  11.249  92.756  1.00  0.00     0.000 C 
BRANCH   3   4
ATOM      4  C   UNL     1      54.949  10.215  93.564  1.00  0.00     0.006 C 
BRANCH   4   5
ATOM      5  C   UNL     1      54.447   9.015  92.746  1.00  0.00     0.053 C 
BRANCH   5   6
ATOM      6  C   UNL     1      53.986   7.892  93.622  1.00  0.00     0.041 C 
ATOM      7  O   UNL     1      54.552   7.677  94.726  1.00  0.00    -0.550 OA
ATOM      8  O   UNL     1      52.910   7.103  93.237  1.00  0.00    -0.550 OA
ENDBRANCH   5   6
ENDBRANCH   4   5
ENDBRANCH   3   4
ENDBRANCH   2   3
ENDBRANCH   1   2
BRANCH   1   9
ATOM      9  C   UNL     1      56.112  13.892  90.351  1.00  0.00     0.000 C 
BRANCH   9  10
ATOM     10  C   UNL     1      56.076  12.735  89.335  1.00  0.00    -0.000 C 
BRANCH  10  11
ATOM     11  C   UNL     1      57.424  12.010  89.202  1.00  0.00    -0.000 C 
BRANCH  11  12
ATOM     12  C   UNL     1      57.251  10.496  89.369  1.00  0.00    -0.000 C 
BRANCH  12  13
ATOM     13  C   UNL     1      58.302   9.925  90.329  1.00  0.00    -0.003 C 
ATOM     14  C   UNL     1      59.269  11.008  90.797  1.00  0.00     0.004 C 
ENDBRANCH  12  13
ENDBRANCH  11  12
ENDBRANCH  10  11
ENDBRANCH   9  10
ENDBRANCH   1   9
TORSDOF 10
ENDMDL
MODEL 4
REMARK VINA RESULT:    -4.273      3.509      5.006
REMARK INTER + INTRA:          -7.627
REMARK INTER:                  -6.399
REMARK INTRA:                  -1.228
REMARK UNBOUND:                -0.856
REMARK SMILES CCCCCCCCCCCC(=O)[O-]
REMARK SMILES IDX 7 1 8 2 9 3 10 4 11 5 12 6 13 7 14 8 6 9 5 10 4 11 3 12 2 13
REMARK SMILES IDX 1 14
REMARK H PARENT
REMARK Flexibility Score: inf
ROOT
ATOM      1  C   UNL     1      56.319  14.208  90.434  1.00  0.00     0.000 C 
ENDROOT
BRANCH   1   2
ATOM      2  C   UNL     1      57.216  14.905  89.398  1.00  0.00     0.000 C 
BRANCH   2   3
ATOM      3  C   UNL     1      58.687  14.999  89.844  1.00  0.00     0.000 C 
BRANCH   3   4
ATOM      4  C   UNL     1      58.975  14.512  91.279  1.00  0.00     0.006 C 
BRANCH   4   5
ATOM      5  C   UNL     1      59.774  15.499  92.143  1.00  0.00     0.053 C 
BRANCH   5   6
ATOM      6  C   UNL     1      59.147  15.705  93.487  1.00  0.00     0.041 C 
ATOM      7  O   UNL     1      59.796  16.263  94.410  1.00  0.00    -0.550 OA
ATOM      8  O   UNL     1      57.834  15.311  93.711  1.00  0.00    -0.550 OA
ENDBRANCH   5   6
ENDBRANCH   4   5
ENDBRANCH   3   4
ENDBRANCH   2   3
ENDBRANCH   1   2
BRANCH   1   9
ATOM      9  C   UNL     1      55.930  12.775  90.026  1.00  0.00     0.000 C 
BRANCH   9  10
ATOM     10  C   UNL     1      56.204  12.414  88.554  1.00  0.00    -0.000 C 
BRANCH  10  11
ATOM     11  C   UNL     1      57.200  11.255  88.396  1.00  0.00    -0.000 C 
BRANCH  11  12
ATOM     12  C   UNL     1      58.098  11.132  89.633  1.00  0.00    -0.000 C 
BRANCH  12  13
ATOM     13  C   UNL     1      59.574  11.310  89.262  1.00  0.00    -0.003 C 
ATOM     14  C   UNL     1      60.485  10.607  90.264  1.00  0.00     0.004 C 
ENDBRANCH  12  13
ENDBRANCH  11  12
ENDBRANCH  10  11
ENDBRANCH   9  10
ENDBRANCH   1   9
TORSDOF 10
ENDMDL
MODEL 5
REMARK VINA RESULT:    -4.272      2.651      5.294
REMARK INTER + INTRA:          -7.625
REMARK INTER:                  -6.385
REMARK INTRA:                  -1.240
REMARK UNBOUND:                -0.856
REMARK SMILES CCCCCCCCCCCC(=O)[O-]
REMARK SMILES IDX 7 1 8 2 9 3 10 4 11 5 12 6 13 7 14 8 6 9 5 10 4 11 3 12 2 13
REMARK SMILES IDX 1 14
REMARK H PARENT
REMARK Flexibility Score: inf
ROOT
ATOM      1  C   UNL     1      57.497  13.379  92.216  1.00  0.00     0.000 C 
ENDROOT
BRANCH   1   2
ATOM      2  C   UNL     1      57.181  12.031  92.885  1.00  0.00     0.000 C 
BRANCH   2   3
ATOM      3  C   UNL     1      55.815  11.458  92.465  1.00  0.00     0.000 C 
BRANCH   3   4
ATOM      4  C   UNL     1      55.191  10.448  93.449  1.00  0.00     0.006 C 
BRANCH   4   5
ATOM      5  C   UNL     1      54.991  10.983  94.875  1.00  0.00     0.053 C 
BRANCH   5   6
ATOM      6  C   UNL     1      55.818  10.238  95.876  1.00  0.00     0.041 C 
ATOM      7  O   UNL     1      55.656   9.000  96.036  1.00  0.00    -0.550 OA
ATOM      8  O   UNL     1      56.794  10.904  96.608  1.00  0.00    -0.550 OA
ENDBRANCH   5   6
ENDBRANCH   4   5
ENDBRANCH   3   4
ENDBRANCH   2   3
ENDBRANCH   1   2
BRANCH   1   9
ATOM      9  C   UNL     1      56.555  13.701  91.040  1.00  0.00     0.000 C 
BRANCH   9  10
ATOM     10  C   UNL     1      57.157  13.494  89.639  1.00  0.00    -0.000 C 
BRANCH  10  11
ATOM     11  C   UNL     1      56.368  12.488  88.788  1.00  0.00    -0.000 C 
BRANCH  11  12
ATOM     12  C   UNL     1      57.089  11.135  88.730  1.00  0.00    -0.000 C 
BRANCH  12  13
ATOM     13  C   UNL     1      58.555  11.275  89.154  1.00  0.00    -0.003 C 
ATOM     14  C   UNL     1      58.937  10.213  90.181  1.00  0.00     0.004 C 
ENDBRANCH  12  13
ENDBRANCH  11  12
ENDBRANCH  10  11
ENDBRANCH   9  10
ENDBRANCH   1   9
TORSDOF 10
ENDMDL
MODEL 6
REMARK VINA RESULT:    -4.193     13.780     15.717
REMARK INTER + INTRA:          -7.501
REMARK INTER:                  -6.287
REMARK INTRA:                  -1.214
REMARK UNBOUND:                -0.856
REMARK SMILES CCCCCCCCCCCC(=O)[O-]
REMARK SMILES IDX 7 1 8 2 9 3 10 4 11 5 12 6 13 7 14 8 6 9 5 10 4 11 3 12 2 13
REMARK SMILES IDX 1 14
REMARK H PARENT
REMARK Flexibility Score: inf
ROOT
ATOM      1  C   UNL     1      63.385   5.187 105.172  1.00  0.00     0.000 C 
ENDROOT
BRANCH   1   2
ATOM      2  C   UNL     1      62.461   6.114 105.979  1.00  0.00     0.000 C 
BRANCH   2   3
ATOM      3  C   UNL     1      61.709   7.129 105.096  1.00  0.00     0.000 C 
BRANCH   3   4
ATOM      4  C   UNL     1      62.148   7.171 103.618  1.00  0.00     0.006 C 
BRANCH   4   5
ATOM      5  C   UNL     1      61.027   6.880 102.609  1.00  0.00     0.053 C 
BRANCH   5   6
ATOM      6  C   UNL     1      60.225   8.104 102.292  1.00  0.00     0.041 C 
ATOM      7  O   UNL     1      58.967   8.052 102.282  1.00  0.00    -0.550 OA
ATOM      8  O   UNL     1      60.865   9.311 102.041  1.00  0.00    -0.550 OA
ENDBRANCH   5   6
ENDBRANCH   4   5
ENDBRANCH   3   4
ENDBRANCH   2   3
ENDBRANCH   1   2
BRANCH   1   9
ATOM      9  C   UNL     1      64.135   4.172 106.054  1.00  0.00     0.000 C 
BRANCH   9  10
ATOM     10  C   UNL     1      63.240   3.239 106.889  1.00  0.00    -0.000 C 
BRANCH  10  11
ATOM     11  C   UNL     1      62.414   2.270 106.029  1.00  0.00    -0.000 C 
BRANCH  11  12
ATOM     12  C   UNL     1      60.919   2.601 106.114  1.00  0.00    -0.000 C 
BRANCH  12  13
ATOM     13  C   UNL     1      60.346   2.916 104.727  1.00  0.00    -0.003 C 
ATOM     14  C   UNL     1      59.483   4.173 104.758  1.00  0.00     0.004 C 
ENDBRANCH  12  13
ENDBRANCH  11  12
ENDBRANCH  10  11
ENDBRANCH   9  10
ENDBRANCH   1   9
TORSDOF 10
ENDMDL
MODEL 7
REMARK VINA RESULT:    -4.172     14.088     16.374
REMARK INTER + INTRA:          -7.467
REMARK INTER:                  -6.215
REMARK INTRA:                  -1.252
REMARK UNBOUND:                -0.856
REMARK SMILES CCCCCCCCCCCC(=O)[O-]
REMARK SMILES IDX 7 1 8 2 9 3 10 4 11 5 12 6 13 7 14 8 6 9 5 10 4 11 3 12 2 13
REMARK SMILES IDX 1 14
REMARK H PARENT
REMARK Flexibility Score: inf
ROOT
ATOM      1  C   UNL     1      62.654   3.736 106.576  1.00  0.00     0.000 C 
ENDROOT
BRANCH   1   2
ATOM      2  C   UNL     1      61.581   3.168 105.632  1.00  0.00     0.000 C 
BRANCH   2   3
ATOM      3  C   UNL     1      60.181   3.757 105.891  1.00  0.00     0.000 C 
BRANCH   3   4
ATOM      4  C   UNL     1      59.289   3.913 104.642  1.00  0.00     0.006 C 
BRANCH   4   5
ATOM      5  C   UNL     1      57.894   4.491 104.921  1.00  0.00     0.053 C 
BRANCH   5   6
ATOM      6  C   UNL     1      57.751   5.888 104.402  1.00  0.00     0.041 C 
ATOM      7  O   UNL     1      57.325   6.090 103.235  1.00  0.00    -0.550 OA
ATOM      8  O   UNL     1      58.056   6.969 105.220  1.00  0.00    -0.550 OA
ENDBRANCH   5   6
ENDBRANCH   4   5
ENDBRANCH   3   4
ENDBRANCH   2   3
ENDBRANCH   1   2
BRANCH   1   9
ATOM      9  C   UNL     1      64.063   3.733 105.954  1.00  0.00     0.000 C 
BRANCH   9  10
ATOM     10  C   UNL     1      64.571   5.104 105.471  1.00  0.00    -0.000 C 
BRANCH  10  11
ATOM     11  C   UNL     1      63.599   6.250 105.788  1.00  0.00    -0.000 C 
BRANCH  11  12
ATOM     12  C   UNL     1      63.106   6.922 104.501  1.00  0.00    -0.000 C 
BRANCH  12  13
ATOM     13  C   UNL     1      61.575   6.887 104.414  1.00  0.00    -0.003 C 
ATOM     14  C   UNL     1      61.107   6.764 102.967  1.00  0.00     0.004 C 
ENDBRANCH  12  13
ENDBRANCH  11  12
ENDBRANCH  10  11
ENDBRANCH   9  10
ENDBRANCH   1   9
TORSDOF 10
ENDMDL
MODEL 8
REMARK VINA RESULT:    -4.166      2.633      5.369
REMARK INTER + INTRA:          -7.458
REMARK INTER:                  -6.391
REMARK INTRA:                  -1.067
REMARK UNBOUND:                -0.856
REMARK SMILES CCCCCCCCCCCC(=O)[O-]
REMARK SMILES IDX 7 1 8 2 9 3 10 4 11 5 12 6 13 7 14 8 6 9 5 10 4 11 3 12 2 13
REMARK SMILES IDX 1 14
REMARK H PARENT
REMARK Flexibility Score: inf
ROOT
ATOM      1  C   UNL     1      58.454  13.310  91.888  1.00  0.00     0.000 C 
ENDROOT
BRANCH   1   2
ATOM      2  C   UNL     1      57.407  12.392  92.540  1.00  0.00     0.000 C 
BRANCH   2   3
ATOM      3  C   UNL     1      56.222  13.169  93.145  1.00  0.00     0.000 C 
BRANCH   3   4
ATOM      4  C   UNL     1      54.895  12.387  93.232  1.00  0.00     0.006 C 
BRANCH   4   5
ATOM      5  C   UNL     1      54.867  11.082  92.422  1.00  0.00     0.053 C 
BRANCH   5   6
ATOM      6  C   UNL     1      54.768   9.876  93.305  1.00  0.00     0.041 C 
ATOM      7  O   UNL     1      54.392   8.772  92.829  1.00  0.00    -0.550 OA
ATOM      8  O   UNL     1      55.123   9.962  94.645  1.00  0.00    -0.550 OA
ENDBRANCH   5   6
ENDBRANCH   4   5
ENDBRANCH   3   4
ENDBRANCH   2   3
ENDBRANCH   1   2
BRANCH   1   9
ATOM      9  C   UNL     1      58.297  13.411  90.359  1.00  0.00     0.000 C 
BRANCH   9  10
ATOM     10  C   UNL     1      57.254  12.461  89.742  1.00  0.00    -0.000 C 
BRANCH  10  11
ATOM     11  C   UNL     1      57.884  11.358  88.879  1.00  0.00    -0.000 C 
BRANCH  11  12
ATOM     12  C   UNL     1      59.380  11.211  89.183  1.00  0.00    -0.000 C 
BRANCH  12  13
ATOM     13  C   UNL     1      59.621  10.136  90.251  1.00  0.00    -0.003 C 
ATOM     14  C   UNL     1      60.849  10.462  91.095  1.00  0.00     0.004 C 
ENDBRANCH  12  13
ENDBRANCH  11  12
ENDBRANCH  10  11
ENDBRANCH   9  10
ENDBRANCH   1   9
TORSDOF 10
ENDMDL
MODEL 9
REMARK VINA RESULT:    -4.132      3.178      4.643
REMARK INTER + INTRA:          -7.404
REMARK INTER:                  -5.740
REMARK INTRA:                  -1.664
REMARK UNBOUND:                -0.856
REMARK SMILES CCCCCCCCCCCC(=O)[O-]
REMARK SMILES IDX 7 1 8 2 9 3 10 4 11 5 12 6 13 7 14 8 6 9 5 10 4 11 3 12 2 13
REMARK SMILES IDX 1 14
REMARK H PARENT
REMARK Flexibility Score: inf
ROOT
ATOM      1  C   UNL     1      55.529  13.515  91.188  1.00  0.00     0.000 C 
ENDROOT
BRANCH   1   2
ATOM      2  C   UNL     1      56.164  14.822  90.682  1.00  0.00     0.000 C 
BRANCH   2   3
ATOM      3  C   UNL     1      56.965  14.634  89.380  1.00  0.00     0.000 C 
BRANCH   3   4
ATOM      4  C   UNL     1      58.472  14.949  89.481  1.00  0.00     0.006 C 
BRANCH   4   5
ATOM      5  C   UNL     1      58.981  15.189  90.910  1.00  0.00     0.053 C 
BRANCH   5   6
ATOM      6  C   UNL     1      59.674  16.510  91.045  1.00  0.00     0.041 C 
ATOM      7  O   UNL     1      59.441  17.433  90.222  1.00  0.00    -0.550 OA
ATOM      8  O   UNL     1      60.551  16.733  92.099  1.00  0.00    -0.550 OA
ENDBRANCH   5   6
ENDBRANCH   4   5
ENDBRANCH   3   4
ENDBRANCH   2   3
ENDBRANCH   1   2
BRANCH   1   9
ATOM      9  C   UNL     1      56.086  13.066  92.552  1.00  0.00     0.000 C 
BRANCH   9  10
ATOM     10  C   UNL     1      57.330  12.161  92.489  1.00  0.00    -0.000 C 
BRANCH  10  11
ATOM     11  C   UNL     1      57.397  11.322  91.204  1.00  0.00    -0.000 C 
BRANCH  11  12
ATOM     12  C   UNL     1      58.805  11.360  90.598  1.00  0.00    -0.000 C 
BRANCH  12  13
ATOM     13  C   UNL     1      58.750  11.246  89.070  1.00  0.00    -0.003 C 
ATOM     14  C   UNL     1      57.309  11.254  88.567  1.00  0.00     0.004 C 
ENDBRANCH  12  13
ENDBRANCH  11  12
ENDBRANCH  10  11
ENDBRANCH   9  10
ENDBRANCH   1   9
TORSDOF 10
ENDMDL
