MODEL 1
REMARK VINA RESULT:    -5.181      0.000      0.000
REMARK INTER + INTRA:          -6.545
REMARK INTER:                  -6.241
REMARK INTRA:                  -0.304
REMARK UNBOUND:                -0.304
REMARK SMILES O=c1c(O)c(-c2ccc(O)c(O)c2)oc2cc(O)cc(O)c12
REMARK SMILES IDX 5 1 3 2 2 3 1 4 22 5 20 6 19 7 17 8 16 9 15 10 14 11 6 12
REMARK SMILES IDX 7 13 8 14 9 15 13 16 11 17 10 18 12 20 4 22 21 24 18 26
REMARK H PARENT 10 19 12 21 4 23 21 25 18 27
REMARK Flexibility Score: inf
ROOT
ATOM      1  C   UNL     1       4.985   6.312   2.710  1.00  0.00     0.180 A 
ATOM      2  C   UNL     1       4.467   6.091   1.421  1.00  0.00     0.208 A 
ATOM      3  C   UNL     1       3.190   6.583   1.107  1.00  0.00     0.238 A 
ATOM      4  O   UNL     1       2.754   6.430  -0.063  1.00  0.00    -0.285 OA
ATOM      5  C   UNL     1       2.440   7.274   2.089  1.00  0.00     0.111 A 
ATOM      6  C   UNL     1       1.120   7.781   1.893  1.00  0.00     0.134 A 
ATOM      7  C   UNL     1       0.525   8.563   2.891  1.00  0.00     0.093 A 
ATOM      8  C   UNL     1       1.177   8.801   4.103  1.00  0.00     0.123 A 
ATOM      9  C   UNL     1       2.440   8.261   4.327  1.00  0.00     0.094 A 
ATOM     10  C   UNL     1       3.075   7.508   3.337  1.00  0.00     0.146 A 
ATOM     11  O   UNL     1       4.284   7.020   3.587  1.00  0.00    -0.452 OA
ENDROOT
BRANCH   1  12
ATOM     12  C   UNL     1       6.312   5.802   3.123  1.00  0.00     0.025 A 
ATOM     13  C   UNL     1       7.463   6.544   2.816  1.00  0.00     0.016 A 
ATOM     14  C   UNL     1       8.724   6.093   3.214  1.00  0.00     0.051 A 
ATOM     15  C   UNL     1       8.853   4.903   3.937  1.00  0.00     0.157 A 
ATOM     16  C   UNL     1       6.442   4.617   3.869  1.00  0.00     0.062 A 
ATOM     17  C   UNL     1       7.706   4.163   4.271  1.00  0.00     0.158 A 
BRANCH  15  18
ATOM     18  O   UNL     1      10.125   4.476   4.319  1.00  0.00    -0.504 OA
ATOM     19  H   UNL     1      10.646   3.794   3.783  1.00  0.00     0.293 HD
ENDBRANCH  15  18
BRANCH  17  20
ATOM     20  O   UNL     1       7.826   2.983   5.005  1.00  0.00    -0.504 OA
ATOM     21  H   UNL     1       7.764   2.074   4.562  1.00  0.00     0.293 HD
ENDBRANCH  17  20
ENDBRANCH   1  12
BRANCH   2  22
ATOM     22  O   UNL     1       5.232   5.426   0.460  1.00  0.00    -0.502 OA
ATOM     23  H   UNL     1       4.827   4.786  -0.211  1.00  0.00     0.293 HD
ENDBRANCH   2  22
BRANCH   6  24
ATOM     24  O   UNL     1       0.346   7.524   0.758  1.00  0.00    -0.507 OA
ATOM     25  H   UNL     1       0.717   7.281  -0.148  1.00  0.00     0.293 HD
ENDBRANCH   6  24
BRANCH   8  26
ATOM     26  O   UNL     1       0.571   9.567   5.097  1.00  0.00    -0.508 OA
ATOM     27  H   UNL     1       0.746  10.562   5.180  1.00  0.00     0.293 HD
ENDBRANCH   8  26
TORSDOF 6
ENDMDL
MODEL 2
REMARK VINA RESULT:    -5.030      1.754      6.715
REMARK INTER + INTRA:          -6.363
REMARK INTER:                  -6.093
REMARK INTRA:                  -0.270
REMARK UNBOUND:                -0.304
REMARK SMILES O=c1c(O)c(-c2ccc(O)c(O)c2)oc2cc(O)cc(O)c12
REMARK SMILES IDX 5 1 3 2 2 3 1 4 22 5 20 6 19 7 17 8 16 9 15 10 14 11 6 12
REMARK SMILES IDX 7 13 8 14 9 15 13 16 11 17 10 18 12 20 4 22 21 24 18 26
REMARK H PARENT 10 19 12 21 4 23 21 25 18 27
REMARK Flexibility Score: inf
ROOT
ATOM      1  C   UNL     1       4.472   6.709   2.212  1.00  0.00     0.180 A 
ATOM      2  C   UNL     1       4.918   7.261   0.997  1.00  0.00     0.208 A 
ATOM      3  C   UNL     1       6.224   6.986   0.563  1.00  0.00     0.238 A 
ATOM      4  O   UNL     1       6.599   7.438  -0.549  1.00  0.00    -0.285 OA
ATOM      5  C   UNL     1       7.074   6.177   1.356  1.00  0.00     0.111 A 
ATOM      6  C   UNL     1       8.429   5.866   1.033  1.00  0.00     0.134 A 
ATOM      7  C   UNL     1       9.135   4.950   1.823  1.00  0.00     0.093 A 
ATOM      8  C   UNL     1       8.555   4.383   2.960  1.00  0.00     0.123 A 
ATOM      9  C   UNL     1       7.253   4.726   3.317  1.00  0.00     0.094 A 
ATOM     10  C   UNL     1       6.512   5.609   2.528  1.00  0.00     0.146 A 
ATOM     11  O   UNL     1       5.270   5.901   2.899  1.00  0.00    -0.452 OA
ENDROOT
BRANCH   1  12
ATOM     12  C   UNL     1       3.117   6.973   2.747  1.00  0.00     0.025 A 
ATOM     13  C   UNL     1       2.016   6.286   2.212  1.00  0.00     0.016 A 
ATOM     14  C   UNL     1       0.732   6.504   2.716  1.00  0.00     0.051 A 
ATOM     15  C   UNL     1       0.528   7.400   3.769  1.00  0.00     0.157 A 
ATOM     16  C   UNL     1       2.914   7.858   3.821  1.00  0.00     0.062 A 
ATOM     17  C   UNL     1       1.625   8.078   4.329  1.00  0.00     0.158 A 
BRANCH  15  18
ATOM     18  O   UNL     1      -0.765   7.601   4.250  1.00  0.00    -0.504 OA
ATOM     19  H   UNL     1      -1.549   7.768   3.632  1.00  0.00     0.293 HD
ENDBRANCH  15  18
BRANCH  17  20
ATOM     20  O   UNL     1       1.432   8.962   5.390  1.00  0.00    -0.504 OA
ATOM     21  H   UNL     1       1.791   8.766   6.316  1.00  0.00     0.293 HD
ENDBRANCH  17  20
ENDBRANCH   1  12
BRANCH   2  22
ATOM     22  O   UNL     1       4.055   8.038   0.220  1.00  0.00    -0.502 OA
ATOM     23  H   UNL     1       3.811   8.989   0.464  1.00  0.00     0.293 HD
ENDBRANCH   2  22
BRANCH   6  24
ATOM     24  O   UNL     1       9.132   6.447  -0.027  1.00  0.00    -0.507 OA
ATOM     25  H   UNL     1       8.949   6.270  -1.004  1.00  0.00     0.293 HD
ENDBRANCH   6  24
BRANCH   8  26
ATOM     26  O   UNL     1       9.270   3.484   3.749  1.00  0.00    -0.508 OA
ATOM     27  H   UNL     1      10.258   3.611   3.935  1.00  0.00     0.293 HD
ENDBRANCH   8  26
TORSDOF 6
ENDMDL
MODEL 3
REMARK VINA RESULT:    -4.999      1.752      2.132
REMARK INTER + INTRA:          -6.325
REMARK INTER:                  -6.009
REMARK INTRA:                  -0.316
REMARK UNBOUND:                -0.304
REMARK SMILES O=c1c(O)c(-c2ccc(O)c(O)c2)oc2cc(O)cc(O)c12
REMARK SMILES IDX 5 1 3 2 2 3 1 4 22 5 20 6 19 7 17 8 16 9 15 10 14 11 6 12
REMARK SMILES IDX 7 13 8 14 9 15 13 16 11 17 10 18 12 20 4 22 21 24 18 26
REMARK H PARENT 10 19 12 21 4 23 21 25 18 27
REMARK Flexibility Score: inf
ROOT
ATOM      1  C   UNL     1       4.443   6.707   2.662  1.00  0.00     0.180 A 
ATOM      2  C   UNL     1       3.315   6.396   1.882  1.00  0.00     0.208 A 
ATOM      3  C   UNL     1       2.037   6.694   2.381  1.00  0.00     0.238 A 
ATOM      4  O   UNL     1       1.036   6.463   1.656  1.00  0.00    -0.285 OA
ATOM      5  C   UNL     1       1.902   7.284   3.661  1.00  0.00     0.111 A 
ATOM      6  C   UNL     1       0.655   7.593   4.283  1.00  0.00     0.134 A 
ATOM      7  C   UNL     1       0.642   8.295   5.495  1.00  0.00     0.093 A 
ATOM      8  C   UNL     1       1.833   8.642   6.138  1.00  0.00     0.123 A 
ATOM      9  C   UNL     1       3.054   8.293   5.569  1.00  0.00     0.094 A 
ATOM     10  C   UNL     1       3.099   7.625   4.343  1.00  0.00     0.146 A 
ATOM     11  O   UNL     1       4.285   7.319   3.829  1.00  0.00    -0.452 OA
ENDROOT
BRANCH   1  12
ATOM     12  C   UNL     1       5.819   6.400   2.214  1.00  0.00     0.025 A 
ATOM     13  C   UNL     1       6.506   7.321   1.407  1.00  0.00     0.016 A 
ATOM     14  C   UNL     1       7.813   7.061   0.990  1.00  0.00     0.051 A 
ATOM     15  C   UNL     1       8.461   5.887   1.383  1.00  0.00     0.157 A 
ATOM     16  C   UNL     1       6.480   5.229   2.627  1.00  0.00     0.062 A 
ATOM     17  C   UNL     1       7.794   4.967   2.211  1.00  0.00     0.158 A 
BRANCH  15  18
ATOM     18  O   UNL     1       9.765   5.653   0.950  1.00  0.00    -0.504 OA
ATOM     19  H   UNL     1      10.235   6.271   0.300  1.00  0.00     0.293 HD
ENDBRANCH  15  18
BRANCH  17  20
ATOM     20  O   UNL     1       8.439   3.800   2.619  1.00  0.00    -0.504 OA
ATOM     21  H   UNL     1       9.110   3.329   2.025  1.00  0.00     0.293 HD
ENDBRANCH  17  20
ENDBRANCH   1  12
BRANCH   2  22
ATOM     22  O   UNL     1       3.472   5.834   0.612  1.00  0.00    -0.502 OA
ATOM     23  H   UNL     1       3.012   6.207  -0.209  1.00  0.00     0.293 HD
ENDBRANCH   2  22
BRANCH   6  24
ATOM     24  O   UNL     1      -0.589   7.211   3.771  1.00  0.00    -0.507 OA
ATOM     25  H   UNL     1      -1.201   6.531   4.195  1.00  0.00     0.293 HD
ENDBRANCH   6  24
BRANCH   8  26
ATOM     26  O   UNL     1       1.811   9.327   7.352  1.00  0.00    -0.508 OA
ATOM     27  H   UNL     1       1.147  10.072   7.528  1.00  0.00     0.293 HD
ENDBRANCH   8  26
TORSDOF 6
ENDMDL
MODEL 4
REMARK VINA RESULT:    -4.759      8.166     11.408
REMARK INTER + INTRA:          -6.037
REMARK INTER:                  -5.800
REMARK INTRA:                  -0.237
REMARK UNBOUND:                -0.304
REMARK SMILES O=c1c(O)c(-c2ccc(O)c(O)c2)oc2cc(O)cc(O)c12
REMARK SMILES IDX 5 1 3 2 2 3 1 4 22 5 20 6 19 7 17 8 16 9 15 10 14 11 6 12
REMARK SMILES IDX 7 13 8 14 9 15 13 16 11 17 10 18 12 20 4 22 21 24 18 26
REMARK H PARENT 10 19 12 21 4 23 21 25 18 27
REMARK Flexibility Score: inf
ROOT
ATOM      1  C   UNL     1       6.841   4.650  -5.628  1.00  0.00     0.180 A 
ATOM      2  C   UNL     1       7.319   5.507  -4.620  1.00  0.00     0.208 A 
ATOM      3  C   UNL     1       8.270   5.023  -3.709  1.00  0.00     0.238 A 
ATOM      4  O   UNL     1       8.734   5.810  -2.844  1.00  0.00    -0.285 OA
ATOM      5  C   UNL     1       8.720   3.684  -3.806  1.00  0.00     0.111 A 
ATOM      6  C   UNL     1       9.652   3.076  -2.912  1.00  0.00     0.134 A 
ATOM      7  C   UNL     1      10.125   1.785  -3.180  1.00  0.00     0.093 A 
ATOM      8  C   UNL     1       9.650   1.057  -4.273  1.00  0.00     0.123 A 
ATOM      9  C   UNL     1       8.697   1.620  -5.117  1.00  0.00     0.094 A 
ATOM     10  C   UNL     1       8.233   2.919  -4.897  1.00  0.00     0.146 A 
ATOM     11  O   UNL     1       7.331   3.421  -5.732  1.00  0.00    -0.452 OA
ENDROOT
BRANCH   1  12
ATOM     12  C   UNL     1       5.820   5.081  -6.609  1.00  0.00     0.025 A 
ATOM     13  C   UNL     1       6.182   5.957  -7.645  1.00  0.00     0.016 A 
ATOM     14  C   UNL     1       5.239   6.359  -8.593  1.00  0.00     0.051 A 
ATOM     15  C   UNL     1       3.926   5.884  -8.532  1.00  0.00     0.157 A 
ATOM     16  C   UNL     1       4.504   4.586  -6.561  1.00  0.00     0.062 A 
ATOM     17  C   UNL     1       3.556   4.988  -7.514  1.00  0.00     0.158 A 
BRANCH  15  18
ATOM     18  O   UNL     1       3.006   6.305  -9.492  1.00  0.00    -0.504 OA
ATOM     19  H   UNL     1       2.793   7.283  -9.639  1.00  0.00     0.293 HD
ENDBRANCH  15  18
BRANCH  17  20
ATOM     20  O   UNL     1       2.252   4.498  -7.455  1.00  0.00    -0.504 OA
ATOM     21  H   UNL     1       1.715   4.519  -6.596  1.00  0.00     0.293 HD
ENDBRANCH  17  20
ENDBRANCH   1  12
BRANCH   2  22
ATOM     22  O   UNL     1       6.878   6.832  -4.557  1.00  0.00    -0.502 OA
ATOM     23  H   UNL     1       6.029   7.145  -5.009  1.00  0.00     0.293 HD
ENDBRANCH   2  22
BRANCH   6  24
ATOM     24  O   UNL     1      10.119   3.680  -1.741  1.00  0.00    -0.507 OA
ATOM     25  H   UNL     1       9.547   3.899  -0.939  1.00  0.00     0.293 HD
ENDBRANCH   6  24
BRANCH   8  26
ATOM     26  O   UNL     1      10.115  -0.233  -4.524  1.00  0.00    -0.508 OA
ATOM     27  H   UNL     1      10.720  -0.435  -5.311  1.00  0.00     0.293 HD
ENDBRANCH   8  26
TORSDOF 6
ENDMDL
MODEL 5
REMARK VINA RESULT:    -4.733      4.159      6.627
REMARK INTER + INTRA:          -6.005
REMARK INTER:                  -5.777
REMARK INTRA:                  -0.228
REMARK UNBOUND:                -0.304
REMARK SMILES O=c1c(O)c(-c2ccc(O)c(O)c2)oc2cc(O)cc(O)c12
REMARK SMILES IDX 5 1 3 2 2 3 1 4 22 5 20 6 19 7 17 8 16 9 15 10 14 11 6 12
REMARK SMILES IDX 7 13 8 14 9 15 13 16 11 17 10 18 12 20 4 22 21 24 18 26
REMARK H PARENT 10 19 12 21 4 23 21 25 18 27
REMARK Flexibility Score: inf
ROOT
ATOM      1  C   UNL     1       1.513   8.110   4.737  1.00  0.00     0.180 A 
ATOM      2  C   UNL     1       2.690   8.280   5.489  1.00  0.00     0.208 A 
ATOM      3  C   UNL     1       2.598   8.792   6.793  1.00  0.00     0.238 A 
ATOM      4  O   UNL     1       3.647   8.891   7.479  1.00  0.00    -0.285 OA
ATOM      5  C   UNL     1       1.333   9.143   7.323  1.00  0.00     0.111 A 
ATOM      6  C   UNL     1       1.126   9.708   8.618  1.00  0.00     0.134 A 
ATOM      7  C   UNL     1      -0.180   9.894   9.089  1.00  0.00     0.093 A 
ATOM      8  C   UNL     1      -1.284   9.597   8.288  1.00  0.00     0.123 A 
ATOM      9  C   UNL     1      -1.091   9.101   7.001  1.00  0.00     0.094 A 
ATOM     10  C   UNL     1       0.198   8.870   6.516  1.00  0.00     0.146 A 
ATOM     11  O   UNL     1       0.337   8.387   5.287  1.00  0.00    -0.452 OA
ENDROOT
BRANCH   1  12
ATOM     12  C   UNL     1       1.533   7.600   3.348  1.00  0.00     0.025 A 
ATOM     13  C   UNL     1       0.944   6.359   3.059  1.00  0.00     0.016 A 
ATOM     14  C   UNL     1       0.932   5.869   1.751  1.00  0.00     0.051 A 
ATOM     15  C   UNL     1       1.495   6.614   0.711  1.00  0.00     0.157 A 
ATOM     16  C   UNL     1       2.079   8.359   2.297  1.00  0.00     0.062 A 
ATOM     17  C   UNL     1       2.067   7.868   0.983  1.00  0.00     0.158 A 
BRANCH  15  18
ATOM     18  O   UNL     1       1.471   6.097  -0.584  1.00  0.00    -0.504 OA
ATOM     19  H   UNL     1       0.659   6.180  -1.182  1.00  0.00     0.293 HD
ENDBRANCH  15  18
BRANCH  17  20
ATOM     20  O   UNL     1       2.618   8.624  -0.052  1.00  0.00    -0.504 OA
ATOM     21  H   UNL     1       2.992   8.188  -0.886  1.00  0.00     0.293 HD
ENDBRANCH  17  20
ENDBRANCH   1  12
BRANCH   2  22
ATOM     22  O   UNL     1       3.926   7.906   4.954  1.00  0.00    -0.502 OA
ATOM     23  H   UNL     1       4.192   6.938   4.823  1.00  0.00     0.293 HD
ENDBRANCH   2  22
BRANCH   6  24
ATOM     24  O   UNL     1       2.159  10.125   9.462  1.00  0.00    -0.507 OA
ATOM     25  H   UNL     1       2.985  10.619   9.159  1.00  0.00     0.293 HD
ENDBRANCH   6  24
BRANCH   8  26
ATOM     26  O   UNL     1      -2.580   9.800   8.759  1.00  0.00    -0.508 OA
ATOM     27  H   UNL     1      -2.757  10.294   9.626  1.00  0.00     0.293 HD
ENDBRANCH   8  26
TORSDOF 6
ENDMDL
MODEL 6
REMARK VINA RESULT:    -4.654      1.639      2.016
REMARK INTER + INTRA:          -5.910
REMARK INTER:                  -5.583
REMARK INTRA:                  -0.327
REMARK UNBOUND:                -0.304
REMARK SMILES O=c1c(O)c(-c2ccc(O)c(O)c2)oc2cc(O)cc(O)c12
REMARK SMILES IDX 5 1 3 2 2 3 1 4 22 5 20 6 19 7 17 8 16 9 15 10 14 11 6 12
REMARK SMILES IDX 7 13 8 14 9 15 13 16 11 17 10 18 12 20 4 22 21 24 18 26
REMARK H PARENT 10 19 12 21 4 23 21 25 18 27
REMARK Flexibility Score: inf
ROOT
ATOM      1  C   UNL     1       6.000   5.818   3.550  1.00  0.00     0.180 A 
ATOM      2  C   UNL     1       6.006   5.674   2.151  1.00  0.00     0.208 A 
ATOM      3  C   UNL     1       5.107   6.433   1.384  1.00  0.00     0.238 A 
ATOM      4  O   UNL     1       5.153   6.341   0.131  1.00  0.00    -0.285 OA
ATOM      5  C   UNL     1       4.202   7.312   2.027  1.00  0.00     0.111 A 
ATOM      6  C   UNL     1       3.220   8.099   1.352  1.00  0.00     0.134 A 
ATOM      7  C   UNL     1       2.467   9.032   2.076  1.00  0.00     0.093 A 
ATOM      8  C   UNL     1       2.614   9.159   3.459  1.00  0.00     0.123 A 
ATOM      9  C   UNL     1       3.527   8.354   4.134  1.00  0.00     0.094 A 
ATOM     10  C   UNL     1       4.319   7.440   3.435  1.00  0.00     0.146 A 
ATOM     11  O   UNL     1       5.185   6.699   4.116  1.00  0.00    -0.452 OA
ENDROOT
BRANCH   1  12
ATOM     12  C   UNL     1       6.901   5.035   4.425  1.00  0.00     0.025 A 
ATOM     13  C   UNL     1       8.088   5.619   4.896  1.00  0.00     0.016 A 
ATOM     14  C   UNL     1       8.941   4.906   5.740  1.00  0.00     0.051 A 
ATOM     15  C   UNL     1       8.618   3.605   6.139  1.00  0.00     0.157 A 
ATOM     16  C   UNL     1       6.566   3.735   4.845  1.00  0.00     0.062 A 
ATOM     17  C   UNL     1       7.422   3.017   5.694  1.00  0.00     0.158 A 
BRANCH  15  18
ATOM     18  O   UNL     1       9.491   2.916   6.980  1.00  0.00    -0.504 OA
ATOM     19  H   UNL     1      10.111   2.194   6.637  1.00  0.00     0.293 HD
ENDBRANCH  15  18
BRANCH  17  20
ATOM     20  O   UNL     1       7.085   1.726   6.099  1.00  0.00    -0.504 OA
ATOM     21  H   UNL     1       7.468   1.319   6.944  1.00  0.00     0.293 HD
ENDBRANCH  17  20
ENDBRANCH   1  12
BRANCH   2  22
ATOM     22  O   UNL     1       6.923   4.818   1.536  1.00  0.00    -0.502 OA
ATOM     23  H   UNL     1       6.931   4.657   0.536  1.00  0.00     0.293 HD
ENDBRANCH   2  22
BRANCH   6  24
ATOM     24  O   UNL     1       2.929   7.984  -0.010  1.00  0.00    -0.507 OA
ATOM     25  H   UNL     1       3.283   7.258  -0.615  1.00  0.00     0.293 HD
ENDBRANCH   6  24
BRANCH   8  26
ATOM     26  O   UNL     1       1.849  10.079   4.173  1.00  0.00    -0.508 OA
ATOM     27  H   UNL     1       2.092  10.350   5.119  1.00  0.00     0.293 HD
ENDBRANCH   8  26
TORSDOF 6
ENDMDL
MODEL 7
REMARK VINA RESULT:    -4.493      1.415      3.054
REMARK INTER + INTRA:          -5.717
REMARK INTER:                  -5.682
REMARK INTRA:                  -0.034
REMARK UNBOUND:                -0.304
REMARK SMILES O=c1c(O)c(-c2ccc(O)c(O)c2)oc2cc(O)cc(O)c12
REMARK SMILES IDX 5 1 3 2 2 3 1 4 22 5 20 6 19 7 17 8 16 9 15 10 14 11 6 12
REMARK SMILES IDX 7 13 8 14 9 15 13 16 11 17 10 18 12 20 4 22 21 24 18 26
REMARK H PARENT 10 19 12 21 4 23 21 25 18 27
REMARK Flexibility Score: inf
ROOT
ATOM      1  C   UNL     1       4.907   6.816   3.732  1.00  0.00     0.180 A 
ATOM      2  C   UNL     1       4.114   7.685   4.502  1.00  0.00     0.208 A 
ATOM      3  C   UNL     1       2.846   8.053   4.025  1.00  0.00     0.238 A 
ATOM      4  O   UNL     1       2.119   8.787   4.743  1.00  0.00    -0.285 OA
ATOM      5  C   UNL     1       2.394   7.562   2.776  1.00  0.00     0.111 A 
ATOM      6  C   UNL     1       1.143   7.901   2.177  1.00  0.00     0.134 A 
ATOM      7  C   UNL     1       0.743   7.253   1.002  1.00  0.00     0.093 A 
ATOM      8  C   UNL     1       1.576   6.327   0.369  1.00  0.00     0.123 A 
ATOM      9  C   UNL     1       2.823   6.034   0.915  1.00  0.00     0.094 A 
ATOM     10  C   UNL     1       3.235   6.636   2.106  1.00  0.00     0.146 A 
ATOM     11  O   UNL     1       4.428   6.321   2.597  1.00  0.00    -0.452 OA
ENDROOT
BRANCH   1  12
ATOM     12  C   UNL     1       6.263   6.403   4.157  1.00  0.00     0.025 A 
ATOM     13  C   UNL     1       7.214   7.384   4.482  1.00  0.00     0.016 A 
ATOM     14  C   UNL     1       8.494   7.016   4.905  1.00  0.00     0.051 A 
ATOM     15  C   UNL     1       8.839   5.667   5.025  1.00  0.00     0.157 A 
ATOM     16  C   UNL     1       6.606   5.046   4.298  1.00  0.00     0.062 A 
ATOM     17  C   UNL     1       7.889   4.676   4.725  1.00  0.00     0.158 A 
BRANCH  15  18
ATOM     18  O   UNL     1      10.125   5.330   5.447  1.00  0.00    -0.504 OA
ATOM     19  H   UNL     1      10.432   5.473   6.401  1.00  0.00     0.293 HD
ENDBRANCH  15  18
BRANCH  17  20
ATOM     20  O   UNL     1       8.222   3.328   4.855  1.00  0.00    -0.504 OA
ATOM     21  H   UNL     1       9.081   3.034   5.304  1.00  0.00     0.293 HD
ENDBRANCH  17  20
ENDBRANCH   1  12
BRANCH   2  22
ATOM     22  O   UNL     1       4.570   8.141   5.742  1.00  0.00    -0.502 OA
ATOM     23  H   UNL     1       5.394   7.761   6.191  1.00  0.00     0.293 HD
ENDBRANCH   2  22
BRANCH   6  24
ATOM     24  O   UNL     1       0.278   8.879   2.676  1.00  0.00    -0.507 OA
ATOM     25  H   UNL     1      -0.520   9.248   2.181  1.00  0.00     0.293 HD
ENDBRANCH   6  24
BRANCH   8  26
ATOM     26  O   UNL     1       1.176   5.699  -0.808  1.00  0.00    -0.508 OA
ATOM     27  H   UNL     1       0.260   5.861  -1.211  1.00  0.00     0.293 HD
ENDBRANCH   8  26
TORSDOF 6
ENDMDL
MODEL 8
REMARK VINA RESULT:    -4.450      1.653      6.944
REMARK INTER + INTRA:          -5.665
REMARK INTER:                  -5.361
REMARK INTRA:                  -0.304
REMARK UNBOUND:                -0.304
REMARK SMILES O=c1c(O)c(-c2ccc(O)c(O)c2)oc2cc(O)cc(O)c12
REMARK SMILES IDX 5 1 3 2 2 3 1 4 22 5 20 6 19 7 17 8 16 9 15 10 14 11 6 12
REMARK SMILES IDX 7 13 8 14 9 15 13 16 11 17 10 18 12 20 4 22 21 24 18 26
REMARK H PARENT 10 19 12 21 4 23 21 25 18 27
REMARK Flexibility Score: inf
ROOT
ATOM      1  C   UNL     1       5.187   6.634   2.509  1.00  0.00     0.180 A 
ATOM      2  C   UNL     1       6.232   7.516   2.183  1.00  0.00     0.208 A 
ATOM      3  C   UNL     1       7.520   7.260   2.681  1.00  0.00     0.238 A 
ATOM      4  O   UNL     1       8.462   8.021   2.341  1.00  0.00    -0.285 OA
ATOM      5  C   UNL     1       7.742   6.135   3.512  1.00  0.00     0.111 A 
ATOM      6  C   UNL     1       8.998   5.802   4.105  1.00  0.00     0.134 A 
ATOM      7  C   UNL     1       9.133   4.595   4.802  1.00  0.00     0.093 A 
ATOM      8  C   UNL     1       8.042   3.742   4.983  1.00  0.00     0.123 A 
ATOM      9  C   UNL     1       6.799   4.087   4.459  1.00  0.00     0.094 A 
ATOM     10  C   UNL     1       6.642   5.266   3.728  1.00  0.00     0.146 A 
ATOM     11  O   UNL     1       5.441   5.553   3.237  1.00  0.00    -0.452 OA
ENDROOT
BRANCH   1  12
ATOM     12  C   UNL     1       3.799   6.851   2.043  1.00  0.00     0.025 A 
ATOM     13  C   UNL     1       2.976   7.763   2.723  1.00  0.00     0.016 A 
ATOM     14  C   UNL     1       1.670   7.999   2.287  1.00  0.00     0.051 A 
ATOM     15  C   UNL     1       1.170   7.341   1.160  1.00  0.00     0.157 A 
ATOM     16  C   UNL     1       3.302   6.206   0.896  1.00  0.00     0.062 A 
ATOM     17  C   UNL     1       1.991   6.443   0.457  1.00  0.00     0.158 A 
BRANCH  15  18
ATOM     18  O   UNL     1      -0.139   7.594   0.750  1.00  0.00    -0.504 OA
ATOM     19  H   UNL     1      -0.370   7.802  -0.213  1.00  0.00     0.293 HD
ENDBRANCH  15  18
BRANCH  17  20
ATOM     20  O   UNL     1       1.504   5.793  -0.677  1.00  0.00    -0.504 OA
ATOM     21  H   UNL     1       1.958   4.969  -1.052  1.00  0.00     0.293 HD
ENDBRANCH  17  20
ENDBRANCH   1  12
BRANCH   2  22
ATOM     22  O   UNL     1       5.995   8.607   1.343  1.00  0.00    -0.502 OA
ATOM     23  H   UNL     1       5.093   9.061   1.283  1.00  0.00     0.293 HD
ENDBRANCH   2  22
BRANCH   6  24
ATOM     24  O   UNL     1      10.125   6.628   4.062  1.00  0.00    -0.507 OA
ATOM     25  H   UNL     1      10.938   6.462   3.489  1.00  0.00     0.293 HD
ENDBRANCH   6  24
BRANCH   8  26
ATOM     26  O   UNL     1       8.183   2.550   5.692  1.00  0.00    -0.508 OA
ATOM     27  H   UNL     1       9.092   2.209   5.981  1.00  0.00     0.293 HD
ENDBRANCH   8  26
TORSDOF 6
ENDMDL
MODEL 9
REMARK VINA RESULT:    -4.351      3.030      4.356
REMARK INTER + INTRA:          -5.545
REMARK INTER:                  -5.222
REMARK INTRA:                  -0.323
REMARK UNBOUND:                -0.304
REMARK SMILES O=c1c(O)c(-c2ccc(O)c(O)c2)oc2cc(O)cc(O)c12
REMARK SMILES IDX 5 1 3 2 2 3 1 4 22 5 20 6 19 7 17 8 16 9 15 10 14 11 6 12
REMARK SMILES IDX 7 13 8 14 9 15 13 16 11 17 10 18 12 20 4 22 21 24 18 26
REMARK H PARENT 10 19 12 21 4 23 21 25 18 27
REMARK Flexibility Score: inf
ROOT
ATOM      1  C   UNL     1       5.978   6.943   0.779  1.00  0.00     0.180 A 
ATOM      2  C   UNL     1       6.265   7.024   2.154  1.00  0.00     0.208 A 
ATOM      3  C   UNL     1       5.207   7.178   3.063  1.00  0.00     0.238 A 
ATOM      4  O   UNL     1       5.465   7.196   4.294  1.00  0.00    -0.285 OA
ATOM      5  C   UNL     1       3.876   7.266   2.586  1.00  0.00     0.111 A 
ATOM      6  C   UNL     1       2.730   7.462   3.415  1.00  0.00     0.134 A 
ATOM      7  C   UNL     1       1.451   7.402   2.849  1.00  0.00     0.093 A 
ATOM      8  C   UNL     1       1.279   7.218   1.475  1.00  0.00     0.123 A 
ATOM      9  C   UNL     1       2.393   7.084   0.650  1.00  0.00     0.094 A 
ATOM     10  C   UNL     1       3.681   7.103   1.190  1.00  0.00     0.146 A 
ATOM     11  O   UNL     1       4.715   6.963   0.370  1.00  0.00    -0.452 OA
ENDROOT
BRANCH   1  12
ATOM     12  C   UNL     1       7.041   6.806  -0.241  1.00  0.00     0.025 A 
ATOM     13  C   UNL     1       7.626   7.958  -0.790  1.00  0.00     0.016 A 
ATOM     14  C   UNL     1       8.646   7.852  -1.738  1.00  0.00     0.051 A 
ATOM     15  C   UNL     1       9.108   6.595  -2.143  1.00  0.00     0.157 A 
ATOM     16  C   UNL     1       7.522   5.543  -0.633  1.00  0.00     0.062 A 
ATOM     17  C   UNL     1       8.547   5.434  -1.584  1.00  0.00     0.158 A 
BRANCH  15  18
ATOM     18  O   UNL     1      10.125   6.520  -3.093  1.00  0.00    -0.504 OA
ATOM     19  H   UNL     1      10.742   7.299  -3.284  1.00  0.00     0.293 HD
ENDBRANCH  15  18
BRANCH  17  20
ATOM     20  O   UNL     1       9.013   4.178  -1.971  1.00  0.00    -0.504 OA
ATOM     21  H   UNL     1       8.377   3.436  -2.238  1.00  0.00     0.293 HD
ENDBRANCH  17  20
ENDBRANCH   1  12
BRANCH   2  22
ATOM     22  O   UNL     1       7.583   6.913   2.604  1.00  0.00    -0.502 OA
ATOM     23  H   UNL     1       7.913   7.376   3.442  1.00  0.00     0.293 HD
ENDBRANCH   2  22
BRANCH   6  24
ATOM     24  O   UNL     1       2.795   7.746   4.782  1.00  0.00    -0.507 OA
ATOM     25  H   UNL     1       2.074   8.219   5.306  1.00  0.00     0.293 HD
ENDBRANCH   6  24
BRANCH   8  26
ATOM     26  O   UNL     1       0.002   7.175   0.918  1.00  0.00    -0.508 OA
ATOM     27  H   UNL     1      -0.650   7.943   1.026  1.00  0.00     0.293 HD
ENDBRANCH   8  26
TORSDOF 6
ENDMDL
