MODEL 1
REMARK VINA RESULT:    -3.662      0.000      0.000
REMARK INTER + INTRA:          -6.868
REMARK INTER:                  -6.231
REMARK INTRA:                  -0.637
REMARK UNBOUND:                -0.637
REMARK SMILES CCCCCCCCCCCCCC(=O)[O-]
REMARK SMILES IDX 8 1 9 2 10 3 11 4 12 5 13 6 14 7 15 8 16 9 7 10 6 11 5 12
REMARK SMILES IDX 4 13 3 14 2 15 1 16
REMARK H PARENT
REMARK Flexibility Score: inf
ROOT
ATOM      1  C   UNL     1       3.903 -36.337  19.592  1.00  0.00     0.000 C 
ENDROOT
BRANCH   1   2
ATOM      2  C   UNL     1       3.696 -36.702  18.110  1.00  0.00     0.000 C 
BRANCH   2   3
ATOM      3  C   UNL     1       2.227 -36.864  17.677  1.00  0.00     0.000 C 
BRANCH   3   4
ATOM      4  C   UNL     1       1.885 -36.139  16.357  1.00  0.00     0.000 C 
BRANCH   4   5
ATOM      5  C   UNL     1       3.105 -35.430  15.745  1.00  0.00     0.006 C 
BRANCH   5   6
ATOM      6  C   UNL     1       3.337 -35.831  14.282  1.00  0.00     0.053 C 
BRANCH   6   7
ATOM      7  C   UNL     1       4.455 -36.819  14.145  1.00  0.00     0.041 C 
ATOM      8  O   UNL     1       5.619 -36.424  13.877  1.00  0.00    -0.550 OA
ATOM      9  O   UNL     1       4.216 -38.173  14.347  1.00  0.00    -0.550 OA
ENDBRANCH   6   7
ENDBRANCH   5   6
ENDBRANCH   4   5
ENDBRANCH   3   4
ENDBRANCH   2   3
ENDBRANCH   1   2
BRANCH   1  10
ATOM     10  C   UNL     1       5.372 -36.307  20.054  1.00  0.00     0.000 C 
BRANCH  10  11
ATOM     11  C   UNL     1       5.895 -34.884  20.299  1.00  0.00    -0.000 C 
BRANCH  11  12
ATOM     12  C   UNL     1       5.349 -34.319  21.619  1.00  0.00    -0.000 C 
BRANCH  12  13
ATOM     13  C   UNL     1       6.125 -34.823  22.846  1.00  0.00    -0.000 C 
BRANCH  13  14
ATOM     14  C   UNL     1       5.202 -35.234  24.003  1.00  0.00    -0.000 C 
BRANCH  14  15
ATOM     15  C   UNL     1       6.015 -35.775  25.186  1.00  0.00    -0.003 C 
ATOM     16  C   UNL     1       5.457 -37.109  25.673  1.00  0.00     0.004 C 
ENDBRANCH  14  15
ENDBRANCH  13  14
ENDBRANCH  12  13
ENDBRANCH  11  12
ENDBRANCH  10  11
ENDBRANCH   1  10
TORSDOF 12
ENDMDL
MODEL 2
REMARK VINA RESULT:    -3.640      0.935      1.923
REMARK INTER + INTRA:          -6.830
REMARK INTER:                  -6.481
REMARK INTRA:                  -0.349
REMARK UNBOUND:                -0.637
REMARK SMILES CCCCCCCCCCCCCC(=O)[O-]
REMARK SMILES IDX 8 1 9 2 10 3 11 4 12 5 13 6 14 7 15 8 16 9 7 10 6 11 5 12
REMARK SMILES IDX 4 13 3 14 2 15 1 16
REMARK H PARENT
REMARK Flexibility Score: inf
ROOT
ATOM      1  C   UNL     1       5.612 -36.153  20.799  1.00  0.00     0.000 C 
ENDROOT
BRANCH   1   2
ATOM      2  C   UNL     1       5.151 -36.964  19.573  1.00  0.00     0.000 C 
BRANCH   2   3
ATOM      3  C   UNL     1       3.792 -36.542  18.985  1.00  0.00     0.000 C 
BRANCH   3   4
ATOM      4  C   UNL     1       3.795 -36.411  17.447  1.00  0.00     0.000 C 
BRANCH   4   5
ATOM      5  C   UNL     1       2.374 -36.414  16.856  1.00  0.00     0.006 C 
BRANCH   5   6
ATOM      6  C   UNL     1       2.363 -36.033  15.369  1.00  0.00     0.053 C 
BRANCH   6   7
ATOM      7  C   UNL     1       3.621 -36.458  14.675  1.00  0.00     0.041 C 
ATOM      8  O   UNL     1       3.985 -37.663  14.709  1.00  0.00    -0.550 OA
ATOM      9  O   UNL     1       4.373 -35.531  13.965  1.00  0.00    -0.550 OA
ENDBRANCH   6   7
ENDBRANCH   5   6
ENDBRANCH   4   5
ENDBRANCH   3   4
ENDBRANCH   2   3
ENDBRANCH   1   2
BRANCH   1  10
ATOM     10  C   UNL     1       4.715 -34.952  21.157  1.00  0.00     0.000 C 
BRANCH  10  11
ATOM     11  C   UNL     1       5.144 -34.249  22.453  1.00  0.00    -0.000 C 
BRANCH  11  12
ATOM     12  C   UNL     1       6.125 -35.122  23.252  1.00  0.00    -0.000 C 
BRANCH  12  13
ATOM     13  C   UNL     1       6.125 -34.793  24.753  1.00  0.00    -0.000 C 
BRANCH  13  14
ATOM     14  C   UNL     1       5.155 -35.676  25.553  1.00  0.00    -0.000 C 
BRANCH  14  15
ATOM     15  C   UNL     1       5.503 -37.161  25.387  1.00  0.00    -0.003 C 
ATOM     16  C   UNL     1       5.787 -37.814  26.737  1.00  0.00     0.004 C 
ENDBRANCH  14  15
ENDBRANCH  13  14
ENDBRANCH  12  13
ENDBRANCH  11  12
ENDBRANCH  10  11
ENDBRANCH   1  10
TORSDOF 12
ENDMDL
MODEL 3
REMARK VINA RESULT:    -3.383      1.839      3.467
REMARK INTER + INTRA:          -6.392
REMARK INTER:                  -5.314
REMARK INTRA:                  -1.078
REMARK UNBOUND:                -0.637
REMARK SMILES CCCCCCCCCCCCCC(=O)[O-]
REMARK SMILES IDX 8 1 9 2 10 3 11 4 12 5 13 6 14 7 15 8 16 9 7 10 6 11 5 12
REMARK SMILES IDX 4 13 3 14 2 15 1 16
REMARK H PARENT
REMARK Flexibility Score: inf
ROOT
ATOM      1  C   UNL     1       4.545 -34.590  21.765  1.00  0.00     0.000 C 
ENDROOT
BRANCH   1   2
ATOM      2  C   UNL     1       5.689 -35.045  20.839  1.00  0.00     0.000 C 
BRANCH   2   3
ATOM      3  C   UNL     1       5.250 -35.895  19.632  1.00  0.00     0.000 C 
BRANCH   3   4
ATOM      4  C   UNL     1       3.910 -36.632  19.846  1.00  0.00     0.000 C 
BRANCH   4   5
ATOM      5  C   UNL     1       3.097 -36.759  18.545  1.00  0.00     0.006 C 
BRANCH   5   6
ATOM      6  C   UNL     1       3.874 -36.250  17.323  1.00  0.00     0.053 C 
BRANCH   6   7
ATOM      7  C   UNL     1       3.033 -36.261  16.084  1.00  0.00     0.041 C 
ATOM      8  O   UNL     1       1.803 -36.001  16.152  1.00  0.00    -0.550 OA
ATOM      9  O   UNL     1       3.614 -36.527  14.851  1.00  0.00    -0.550 OA
ENDBRANCH   6   7
ENDBRANCH   5   6
ENDBRANCH   4   5
ENDBRANCH   3   4
ENDBRANCH   2   3
ENDBRANCH   1   2
BRANCH   1  10
ATOM     10  C   UNL     1       4.996 -34.055  23.138  1.00  0.00     0.000 C 
BRANCH  10  11
ATOM     11  C   UNL     1       6.085 -34.919  23.789  1.00  0.00    -0.000 C 
BRANCH  11  12
ATOM     12  C   UNL     1       5.569 -35.571  25.081  1.00  0.00    -0.000 C 
BRANCH  12  13
ATOM     13  C   UNL     1       5.356 -37.086  24.938  1.00  0.00    -0.000 C 
BRANCH  13  14
ATOM     14  C   UNL     1       5.632 -37.591  23.513  1.00  0.00    -0.000 C 
BRANCH  14  15
ATOM     15  C   UNL     1       5.354 -39.095  23.401  1.00  0.00    -0.003 C 
ATOM     16  C   UNL     1       5.850 -39.649  22.070  1.00  0.00     0.004 C 
ENDBRANCH  14  15
ENDBRANCH  13  14
ENDBRANCH  12  13
ENDBRANCH  11  12
ENDBRANCH  10  11
ENDBRANCH   1  10
TORSDOF 12
ENDMDL
MODEL 4
REMARK VINA RESULT:    -3.356      4.161      8.494
REMARK INTER + INTRA:          -6.347
REMARK INTER:                  -6.074
REMARK INTRA:                  -0.273
REMARK UNBOUND:                -0.637
REMARK SMILES CCCCCCCCCCCCCC(=O)[O-]
REMARK SMILES IDX 8 1 9 2 10 3 11 4 12 5 13 6 14 7 15 8 16 9 7 10 6 11 5 12
REMARK SMILES IDX 4 13 3 14 2 15 1 16
REMARK H PARENT
REMARK Flexibility Score: inf
ROOT
ATOM      1  C   UNL     1       3.607 -36.497  20.459  1.00  0.00     0.000 C 
ENDROOT
BRANCH   1   2
ATOM      2  C   UNL     1       5.143 -36.473  20.574  1.00  0.00     0.000 C 
BRANCH   2   3
ATOM      3  C   UNL     1       5.762 -35.076  20.762  1.00  0.00     0.000 C 
BRANCH   3   4
ATOM      4  C   UNL     1       5.799 -34.606  22.233  1.00  0.00     0.000 C 
BRANCH   4   5
ATOM      5  C   UNL     1       6.056 -35.766  23.212  1.00  0.00     0.006 C 
BRANCH   5   6
ATOM      6  C   UNL     1       5.862 -35.344  24.675  1.00  0.00     0.053 C 
BRANCH   6   7
ATOM      7  C   UNL     1       5.156 -36.399  25.470  1.00  0.00     0.041 C 
ATOM      8  O   UNL     1       4.180 -36.091  26.203  1.00  0.00    -0.550 OA
ATOM      9  O   UNL     1       5.556 -37.726  25.377  1.00  0.00    -0.550 OA
ENDBRANCH   6   7
ENDBRANCH   5   6
ENDBRANCH   4   5
ENDBRANCH   3   4
ENDBRANCH   2   3
ENDBRANCH   1   2
BRANCH   1  10
ATOM     10  C   UNL     1       3.064 -37.075  19.139  1.00  0.00     0.000 C 
BRANCH  10  11
ATOM     11  C   UNL     1       3.707 -36.441  17.897  1.00  0.00    -0.000 C 
BRANCH  11  12
ATOM     12  C   UNL     1       2.812 -36.626  16.662  1.00  0.00    -0.000 C 
BRANCH  12  13
ATOM     13  C   UNL     1       2.846 -35.413  15.719  1.00  0.00    -0.000 C 
BRANCH  13  14
ATOM     14  C   UNL     1       2.913 -35.816  14.238  1.00  0.00    -0.000 C 
BRANCH  14  15
ATOM     15  C   UNL     1       4.309 -36.338  13.875  1.00  0.00    -0.003 C 
ATOM     16  C   UNL     1       4.462 -37.809  14.249  1.00  0.00     0.004 C 
ENDBRANCH  14  15
ENDBRANCH  13  14
ENDBRANCH  12  13
ENDBRANCH  11  12
ENDBRANCH  10  11
ENDBRANCH   1  10
TORSDOF 12
ENDMDL
MODEL 5
REMARK VINA RESULT:    -2.937      2.262      4.621
REMARK INTER + INTRA:          -5.635
REMARK INTER:                  -4.893
REMARK INTRA:                  -0.742
REMARK UNBOUND:                -0.637
REMARK SMILES CCCCCCCCCCCCCC(=O)[O-]
REMARK SMILES IDX 8 1 9 2 10 3 11 4 12 5 13 6 14 7 15 8 16 9 7 10 6 11 5 12
REMARK SMILES IDX 4 13 3 14 2 15 1 16
REMARK H PARENT
REMARK Flexibility Score: inf
ROOT
ATOM      1  C   UNL     1       5.394 -34.610  23.749  1.00  0.00     0.000 C 
ENDROOT
BRANCH   1   2
ATOM      2  C   UNL     1       6.050 -34.676  22.356  1.00  0.00     0.000 C 
BRANCH   2   3
ATOM      3  C   UNL     1       5.082 -34.963  21.193  1.00  0.00     0.000 C 
BRANCH   3   4
ATOM      4  C   UNL     1       5.402 -36.265  20.427  1.00  0.00     0.000 C 
BRANCH   4   5
ATOM      5  C   UNL     1       4.223 -36.739  19.559  1.00  0.00     0.006 C 
BRANCH   5   6
ATOM      6  C   UNL     1       4.204 -36.059  18.183  1.00  0.00     0.053 C 
BRANCH   6   7
ATOM      7  C   UNL     1       3.078 -36.557  17.330  1.00  0.00     0.041 C 
ATOM      8  O   UNL     1       1.986 -36.894  17.859  1.00  0.00    -0.550 OA
ATOM      9  O   UNL     1       3.222 -36.617  15.951  1.00  0.00    -0.550 OA
ENDBRANCH   6   7
ENDBRANCH   5   6
ENDBRANCH   4   5
ENDBRANCH   3   4
ENDBRANCH   2   3
ENDBRANCH   1   2
BRANCH   1  10
ATOM     10  C   UNL     1       6.017 -35.542  24.805  1.00  0.00     0.000 C 
BRANCH  10  11
ATOM     11  C   UNL     1       5.001 -36.513  25.422  1.00  0.00    -0.000 C 
BRANCH  11  12
ATOM     12  C   UNL     1       5.527 -37.956  25.385  1.00  0.00    -0.000 C 
BRANCH  12  13
ATOM     13  C   UNL     1       4.994 -38.752  24.183  1.00  0.00    -0.000 C 
BRANCH  13  14
ATOM     14  C   UNL     1       5.672 -38.355  22.863  1.00  0.00    -0.000 C 
BRANCH  14  15
ATOM     15  C   UNL     1       5.944 -39.589  21.994  1.00  0.00    -0.003 C 
ATOM     16  C   UNL     1       6.001 -40.857  22.841  1.00  0.00     0.004 C 
ENDBRANCH  14  15
ENDBRANCH  13  14
ENDBRANCH  12  13
ENDBRANCH  11  12
ENDBRANCH  10  11
ENDBRANCH   1  10
TORSDOF 12
ENDMDL
MODEL 6
REMARK VINA RESULT:    -2.780      3.300      7.576
REMARK INTER + INTRA:          -5.368
REMARK INTER:                  -4.897
REMARK INTRA:                  -0.471
REMARK UNBOUND:                -0.637
REMARK SMILES CCCCCCCCCCCCCC(=O)[O-]
REMARK SMILES IDX 8 1 9 2 10 3 11 4 12 5 13 6 14 7 15 8 16 9 7 10 6 11 5 12
REMARK SMILES IDX 4 13 3 14 2 15 1 16
REMARK H PARENT
REMARK Flexibility Score: inf
ROOT
ATOM      1  C   UNL     1       5.291 -34.491  22.269  1.00  0.00     0.000 C 
ENDROOT
BRANCH   1   2
ATOM      2  C   UNL     1       6.125 -34.876  23.506  1.00  0.00     0.000 C 
BRANCH   2   3
ATOM      3  C   UNL     1       5.305 -35.302  24.738  1.00  0.00     0.000 C 
BRANCH   3   4
ATOM      4  C   UNL     1       5.359 -36.818  25.025  1.00  0.00     0.000 C 
BRANCH   4   5
ATOM      5  C   UNL     1       5.712 -37.639  23.773  1.00  0.00     0.006 C 
BRANCH   5   6
ATOM      6  C   UNL     1       5.355 -39.124  23.933  1.00  0.00     0.053 C 
BRANCH   6   7
ATOM      7  C   UNL     1       5.716 -39.918  22.714  1.00  0.00     0.041 C 
ATOM      8  O   UNL     1       5.821 -39.348  21.597  1.00  0.00    -0.550 OA
ATOM      9  O   UNL     1       5.968 -41.279  22.820  1.00  0.00    -0.550 OA
ENDBRANCH   6   7
ENDBRANCH   5   6
ENDBRANCH   4   5
ENDBRANCH   3   4
ENDBRANCH   2   3
ENDBRANCH   1   2
BRANCH   1  10
ATOM     10  C   UNL     1       5.851 -34.996  20.926  1.00  0.00     0.000 C 
BRANCH  10  11
ATOM     11  C   UNL     1       5.380 -36.415  20.576  1.00  0.00    -0.000 C 
BRANCH  11  12
ATOM     12  C   UNL     1       4.058 -36.378  19.794  1.00  0.00    -0.000 C 
BRANCH  12  13
ATOM     13  C   UNL     1       4.224 -36.809  18.328  1.00  0.00    -0.000 C 
BRANCH  13  14
ATOM     14  C   UNL     1       2.903 -36.765  17.545  1.00  0.00    -0.000 C 
BRANCH  14  15
ATOM     15  C   UNL     1       3.118 -36.185  16.141  1.00  0.00    -0.003 C 
ATOM     16  C   UNL     1       1.965 -35.269  15.742  1.00  0.00     0.004 C 
ENDBRANCH  14  15
ENDBRANCH  13  14
ENDBRANCH  12  13
ENDBRANCH  11  12
ENDBRANCH  10  11
ENDBRANCH   1  10
TORSDOF 12
ENDMDL
MODEL 7
REMARK VINA RESULT:    -2.259      1.387      2.203
REMARK INTER + INTRA:          -4.480
REMARK INTER:                  -4.014
REMARK INTRA:                  -0.467
REMARK UNBOUND:                -0.637
REMARK SMILES CCCCCCCCCCCCCC(=O)[O-]
REMARK SMILES IDX 8 1 9 2 10 3 11 4 12 5 13 6 14 7 15 8 16 9 7 10 6 11 5 12
REMARK SMILES IDX 4 13 3 14 2 15 1 16
REMARK H PARENT
REMARK Flexibility Score: inf
ROOT
ATOM      1  C   UNL     1       4.924 -36.861  19.515  1.00  0.00     0.000 C 
ENDROOT
BRANCH   1   2
ATOM      2  C   UNL     1       3.437 -36.483  19.656  1.00  0.00     0.000 C 
BRANCH   2   3
ATOM      3  C   UNL     1       2.558 -36.830  18.440  1.00  0.00     0.000 C 
BRANCH   3   4
ATOM      4  C   UNL     1       3.253 -36.588  17.082  1.00  0.00     0.000 C 
BRANCH   4   5
ATOM      5  C   UNL     1       2.248 -36.310  15.951  1.00  0.00     0.006 C 
BRANCH   5   6
ATOM      6  C   UNL     1       2.928 -35.739  14.699  1.00  0.00     0.053 C 
BRANCH   6   7
ATOM      7  C   UNL     1       4.121 -36.549  14.294  1.00  0.00     0.041 C 
ATOM      8  O   UNL     1       4.065 -37.806  14.303  1.00  0.00    -0.550 OA
ATOM      9  O   UNL     1       5.284 -35.915  13.876  1.00  0.00    -0.550 OA
ENDBRANCH   6   7
ENDBRANCH   5   6
ENDBRANCH   4   5
ENDBRANCH   3   4
ENDBRANCH   2   3
ENDBRANCH   1   2
BRANCH   1  10
ATOM     10  C   UNL     1       5.657 -37.119  20.845  1.00  0.00     0.000 C 
BRANCH  10  11
ATOM     11  C   UNL     1       5.667 -38.601  21.246  1.00  0.00    -0.000 C 
BRANCH  11  12
ATOM     12  C   UNL     1       5.391 -38.765  22.749  1.00  0.00    -0.000 C 
BRANCH  12  13
ATOM     13  C   UNL     1       5.697 -37.490  23.551  1.00  0.00    -0.000 C 
BRANCH  13  14
ATOM     14  C   UNL     1       5.210 -37.574  25.005  1.00  0.00    -0.000 C 
BRANCH  14  15
ATOM     15  C   UNL     1       5.293 -36.204  25.690  1.00  0.00    -0.003 C 
ATOM     16  C   UNL     1       5.607 -35.103  24.683  1.00  0.00     0.004 C 
ENDBRANCH  14  15
ENDBRANCH  13  14
ENDBRANCH  12  13
ENDBRANCH  11  12
ENDBRANCH  10  11
ENDBRANCH   1  10
TORSDOF 12
ENDMDL
MODEL 8
REMARK VINA RESULT:    -2.150      1.837      3.716
REMARK INTER + INTRA:          -4.296
REMARK INTER:                  -3.265
REMARK INTRA:                  -1.031
REMARK UNBOUND:                -0.637
REMARK SMILES CCCCCCCCCCCCCC(=O)[O-]
REMARK SMILES IDX 8 1 9 2 10 3 11 4 12 5 13 6 14 7 15 8 16 9 7 10 6 11 5 12
REMARK SMILES IDX 4 13 3 14 2 15 1 16
REMARK H PARENT
REMARK Flexibility Score: inf
ROOT
ATOM      1  C   UNL     1       4.999 -38.742  22.136  1.00  0.00     0.000 C 
ENDROOT
BRANCH   1   2
ATOM      2  C   UNL     1       5.888 -37.754  21.358  1.00  0.00     0.000 C 
BRANCH   2   3
ATOM      3  C   UNL     1       5.505 -37.558  19.879  1.00  0.00     0.000 C 
BRANCH   3   4
ATOM      4  C   UNL     1       4.171 -36.805  19.679  1.00  0.00     0.000 C 
BRANCH   4   5
ATOM      5  C   UNL     1       4.088 -36.117  18.305  1.00  0.00     0.006 C 
BRANCH   5   6
ATOM      6  C   UNL     1       3.110 -36.828  17.359  1.00  0.00     0.053 C 
BRANCH   6   7
ATOM      7  C   UNL     1       2.845 -36.022  16.123  1.00  0.00     0.041 C 
ATOM      8  O   UNL     1       3.664 -36.042  15.168  1.00  0.00    -0.550 OA
ATOM      9  O   UNL     1       1.679 -35.275  16.016  1.00  0.00    -0.550 OA
ENDBRANCH   6   7
ENDBRANCH   5   6
ENDBRANCH   4   5
ENDBRANCH   3   4
ENDBRANCH   2   3
ENDBRANCH   1   2
BRANCH   1  10
ATOM     10  C   UNL     1       5.370 -38.918  23.621  1.00  0.00     0.000 C 
BRANCH  10  11
ATOM     11  C   UNL     1       4.647 -37.924  24.541  1.00  0.00    -0.000 C 
BRANCH  11  12
ATOM     12  C   UNL     1       5.633 -37.266  25.519  1.00  0.00    -0.000 C 
BRANCH  12  13
ATOM     13  C   UNL     1       5.625 -35.732  25.426  1.00  0.00    -0.000 C 
BRANCH  13  14
ATOM     14  C   UNL     1       6.125 -35.218  24.067  1.00  0.00    -0.000 C 
BRANCH  14  15
ATOM     15  C   UNL     1       5.060 -34.352  23.384  1.00  0.00    -0.003 C 
ATOM     16  C   UNL     1       5.256 -34.328  21.871  1.00  0.00     0.004 C 
ENDBRANCH  14  15
ENDBRANCH  13  14
ENDBRANCH  12  13
ENDBRANCH  11  12
ENDBRANCH  10  11
ENDBRANCH   1  10
TORSDOF 12
ENDMDL
MODEL 9
REMARK VINA RESULT:    -0.678      4.188      8.627
REMARK INTER + INTRA:          -1.791
REMARK INTER:                  -1.269
REMARK INTRA:                  -0.523
REMARK UNBOUND:                -0.637
REMARK SMILES CCCCCCCCCCCCCC(=O)[O-]
REMARK SMILES IDX 8 1 9 2 10 3 11 4 12 5 13 6 14 7 15 8 16 9 7 10 6 11 5 12
REMARK SMILES IDX 4 13 3 14 2 15 1 16
REMARK H PARENT
REMARK Flexibility Score: inf
ROOT
ATOM      1  C   UNL     1       4.402 -35.665  20.334  1.00  0.00     0.000 C 
ENDROOT
BRANCH   1   2
ATOM      2  C   UNL     1       5.719 -35.839  21.114  1.00  0.00     0.000 C 
BRANCH   2   3
ATOM      3  C   UNL     1       6.125 -34.636  21.985  1.00  0.00     0.000 C 
BRANCH   3   4
ATOM      4  C   UNL     1       5.338 -34.535  23.310  1.00  0.00     0.000 C 
BRANCH   4   5
ATOM      5  C   UNL     1       6.120 -35.116  24.501  1.00  0.00     0.006 C 
BRANCH   5   6
ATOM      6  C   UNL     1       5.197 -35.774  25.536  1.00  0.00     0.053 C 
BRANCH   6   7
ATOM      7  C   UNL     1       5.548 -37.213  25.760  1.00  0.00     0.041 C 
ATOM      8  O   UNL     1       6.025 -37.583  26.865  1.00  0.00    -0.550 OA
ATOM      9  O   UNL     1       5.320 -38.150  24.761  1.00  0.00    -0.550 OA
ENDBRANCH   6   7
ENDBRANCH   5   6
ENDBRANCH   4   5
ENDBRANCH   3   4
ENDBRANCH   2   3
ENDBRANCH   1   2
BRANCH   1  10
ATOM     10  C   UNL     1       4.205 -36.650  19.166  1.00  0.00     0.000 C 
BRANCH  10  11
ATOM     11  C   UNL     1       2.750 -37.120  19.019  1.00  0.00    -0.000 C 
BRANCH  11  12
ATOM     12  C   UNL     1       2.260 -36.942  17.574  1.00  0.00    -0.000 C 
BRANCH  12  13
ATOM     13  C   UNL     1       3.250 -36.152  16.704  1.00  0.00    -0.000 C 
BRANCH  13  14
ATOM     14  C   UNL     1       2.635 -35.693  15.373  1.00  0.00    -0.000 C 
BRANCH  14  15
ATOM     15  C   UNL     1       3.654 -35.799  14.233  1.00  0.00    -0.003 C 
ATOM     16  C   UNL     1       4.173 -37.227  14.089  1.00  0.00     0.004 C 
ENDBRANCH  14  15
ENDBRANCH  13  14
ENDBRANCH  12  13
ENDBRANCH  11  12
ENDBRANCH  10  11
ENDBRANCH   1  10
TORSDOF 12
ENDMDL
