MODEL 1
REMARK VINA RESULT:    -6.546      0.000      0.000
REMARK INTER + INTRA:          -7.831
REMARK INTER:                  -7.694
REMARK INTRA:                  -0.137
REMARK UNBOUND:                -0.137
REMARK SMILES O=C([O-])C=Cc1ccc(O)c(O)c1
REMARK SMILES IDX 6 1 13 2 7 3 11 4 8 5 9 6 5 7 4 8 2 9 1 10 3 11 12 12 10 14
REMARK H PARENT 12 13 10 15
REMARK Flexibility Score: inf
ROOT
ATOM      1  C   UNL     1      11.595  20.666  17.215  1.00  0.00    -0.022 A 
ATOM      2  C   UNL     1      10.193  20.618  17.147  1.00  0.00     0.058 A 
ATOM      3  C   UNL     1      12.201  21.294  18.322  1.00  0.00     0.012 A 
ATOM      4  C   UNL     1       9.404  21.206  18.143  1.00  0.00     0.157 A 
ATOM      5  C   UNL     1      11.416  21.880  19.318  1.00  0.00     0.051 A 
ATOM      6  C   UNL     1      10.018  21.842  19.234  1.00  0.00     0.157 A 
ENDROOT
BRANCH   1   7
ATOM      7  C   UNL     1      12.382  20.017  16.136  1.00  0.00     0.010 C 
ATOM      8  C   UNL     1      13.452  19.242  16.357  1.00  0.00     0.025 C 
BRANCH   8   9
ATOM      9  C   UNL     1      14.215  18.625  15.259  1.00  0.00     0.064 C 
ATOM     10  O   UNL     1      14.376  17.377  15.197  1.00  0.00    -0.545 OA
ATOM     11  O   UNL     1      14.772  19.433  14.277  1.00  0.00    -0.545 OA
ENDBRANCH   8   9
ENDBRANCH   1   7
BRANCH   4  12
ATOM     12  O   UNL     1       8.016  21.145  18.032  1.00  0.00    -0.504 OA
ATOM     13  H   UNL     1       7.416  21.037  18.842  1.00  0.00     0.293 HD
ENDBRANCH   4  12
BRANCH   6  14
ATOM     14  O   UNL     1       9.240  22.431  20.229  1.00  0.00    -0.504 OA
ATOM     15  H   UNL     1       8.696  21.873  20.877  1.00  0.00     0.293 HD
ENDBRANCH   6  14
TORSDOF 4
ENDMDL
MODEL 2
REMARK VINA RESULT:    -6.379      1.487      1.668
REMARK INTER + INTRA:          -7.636
REMARK INTER:                  -7.503
REMARK INTRA:                  -0.132
REMARK UNBOUND:                -0.137
REMARK SMILES O=C([O-])C=Cc1ccc(O)c(O)c1
REMARK SMILES IDX 6 1 13 2 7 3 11 4 8 5 9 6 5 7 4 8 2 9 1 10 3 11 12 12 10 14
REMARK H PARENT 12 13 10 15
REMARK Flexibility Score: inf
ROOT
ATOM      1  C   UNL     1      11.641  20.525  18.342  1.00  0.00    -0.022 A 
ATOM      2  C   UNL     1      10.388  20.409  17.716  1.00  0.00     0.058 A 
ATOM      3  C   UNL     1      11.709  21.106  19.624  1.00  0.00     0.012 A 
ATOM      4  C   UNL     1       9.227  20.883  18.339  1.00  0.00     0.157 A 
ATOM      5  C   UNL     1      10.551  21.578  20.248  1.00  0.00     0.051 A 
ATOM      6  C   UNL     1       9.309  21.472  19.610  1.00  0.00     0.157 A 
ENDROOT
BRANCH   1   7
ATOM      7  C   UNL     1      12.837  19.997  17.640  1.00  0.00     0.010 C 
ATOM      8  C   UNL     1      13.673  19.094  18.170  1.00  0.00     0.025 C 
BRANCH   8   9
ATOM      9  C   UNL     1      14.859  18.601  17.448  1.00  0.00     0.064 C 
ATOM     10  O   UNL     1      15.998  18.600  17.987  1.00  0.00    -0.545 OA
ATOM     11  O   UNL     1      14.720  18.132  16.148  1.00  0.00    -0.545 OA
ENDBRANCH   8   9
ENDBRANCH   1   7
BRANCH   4  12
ATOM     12  O   UNL     1       8.005  20.756  17.680  1.00  0.00    -0.504 OA
ATOM     13  H   UNL     1       7.633  19.855  17.405  1.00  0.00     0.293 HD
ENDBRANCH   4  12
BRANCH   6  14
ATOM     14  O   UNL     1       8.158  21.947  20.236  1.00  0.00    -0.504 OA
ATOM     15  H   UNL     1       7.234  21.658  19.940  1.00  0.00     0.293 HD
ENDBRANCH   6  14
TORSDOF 4
ENDMDL
MODEL 3
REMARK VINA RESULT:    -6.177      1.098      1.800
REMARK INTER + INTRA:          -7.398
REMARK INTER:                  -7.259
REMARK INTRA:                  -0.139
REMARK UNBOUND:                -0.137
REMARK SMILES O=C([O-])C=Cc1ccc(O)c(O)c1
REMARK SMILES IDX 6 1 13 2 7 3 11 4 8 5 9 6 5 7 4 8 2 9 1 10 3 11 12 12 10 14
REMARK H PARENT 12 13 10 15
REMARK Flexibility Score: inf
ROOT
ATOM      1  C   UNL     1      11.858  20.488  17.983  1.00  0.00    -0.022 A 
ATOM      2  C   UNL     1      11.755  20.313  19.373  1.00  0.00     0.058 A 
ATOM      3  C   UNL     1      10.973  21.377  17.342  1.00  0.00     0.012 A 
ATOM      4  C   UNL     1      10.775  20.987  20.111  1.00  0.00     0.157 A 
ATOM      5  C   UNL     1       9.994  22.052  18.077  1.00  0.00     0.051 A 
ATOM      6  C   UNL     1       9.888  21.859  19.460  1.00  0.00     0.157 A 
ENDROOT
BRANCH   1   7
ATOM      7  C   UNL     1      12.923  19.756  17.252  1.00  0.00     0.010 C 
ATOM      8  C   UNL     1      12.963  19.637  15.918  1.00  0.00     0.025 C 
BRANCH   8   9
ATOM      9  C   UNL     1      14.030  18.892  15.227  1.00  0.00     0.064 C 
ATOM     10  O   UNL     1      14.343  17.723  15.580  1.00  0.00    -0.545 OA
ATOM     11  O   UNL     1      14.705  19.489  14.171  1.00  0.00    -0.545 OA
ENDBRANCH   8   9
ENDBRANCH   1   7
BRANCH   4  12
ATOM     12  O   UNL     1      10.700  20.778  21.488  1.00  0.00    -0.504 OA
ATOM     13  H   UNL     1      10.511  19.864  21.884  1.00  0.00     0.293 HD
ENDBRANCH   4  12
BRANCH   6  14
ATOM     14  O   UNL     1       8.909  22.533  20.188  1.00  0.00    -0.504 OA
ATOM     15  H   UNL     1       8.543  22.161  21.057  1.00  0.00     0.293 HD
ENDBRANCH   6  14
TORSDOF 4
ENDMDL
MODEL 4
REMARK VINA RESULT:    -5.870      7.217      9.001
REMARK INTER + INTRA:          -7.037
REMARK INTER:                  -6.903
REMARK INTRA:                  -0.133
REMARK UNBOUND:                -0.137
REMARK SMILES O=C([O-])C=Cc1ccc(O)c(O)c1
REMARK SMILES IDX 6 1 13 2 7 3 11 4 8 5 9 6 5 7 4 8 2 9 1 10 3 11 12 12 10 14
REMARK H PARENT 12 13 10 15
REMARK Flexibility Score: inf
ROOT
ATOM      1  C   UNL     1      18.733  19.620  20.219  1.00  0.00    -0.022 A 
ATOM      2  C   UNL     1      19.057  20.789  20.927  1.00  0.00     0.058 A 
ATOM      3  C   UNL     1      19.759  18.705  19.910  1.00  0.00     0.012 A 
ATOM      4  C   UNL     1      20.379  21.060  21.299  1.00  0.00     0.157 A 
ATOM      5  C   UNL     1      21.079  18.973  20.281  1.00  0.00     0.051 A 
ATOM      6  C   UNL     1      21.396  20.149  20.973  1.00  0.00     0.157 A 
ENDROOT
BRANCH   1   7
ATOM      7  C   UNL     1      17.313  19.378  19.859  1.00  0.00     0.010 C 
ATOM      8  C   UNL     1      16.921  18.836  18.698  1.00  0.00     0.025 C 
BRANCH   8   9
ATOM      9  C   UNL     1      15.501  18.623  18.371  1.00  0.00     0.064 C 
ATOM     10  O   UNL     1      15.104  18.590  17.175  1.00  0.00    -0.545 OA
ATOM     11  O   UNL     1      14.581  18.458  19.398  1.00  0.00    -0.545 OA
ENDBRANCH   8   9
ENDBRANCH   1   7
BRANCH   4  12
ATOM     12  O   UNL     1      20.660  22.237  21.992  1.00  0.00    -0.504 OA
ATOM     13  H   UNL     1      20.034  22.609  22.696  1.00  0.00     0.293 HD
ENDBRANCH   4  12
BRANCH   6  14
ATOM     14  O   UNL     1      22.715  20.413  21.338  1.00  0.00    -0.504 OA
ATOM     15  H   UNL     1      23.029  21.351  21.555  1.00  0.00     0.293 HD
ENDBRANCH   6  14
TORSDOF 4
ENDMDL
MODEL 5
REMARK VINA RESULT:    -5.748      2.203      2.902
REMARK INTER + INTRA:          -6.894
REMARK INTER:                  -6.763
REMARK INTRA:                  -0.131
REMARK UNBOUND:                -0.137
REMARK SMILES O=C([O-])C=Cc1ccc(O)c(O)c1
REMARK SMILES IDX 6 1 13 2 7 3 11 4 8 5 9 6 5 7 4 8 2 9 1 10 3 11 12 12 10 14
REMARK H PARENT 12 13 10 15
REMARK Flexibility Score: inf
ROOT
ATOM      1  C   UNL     1      12.177  20.125  17.999  1.00  0.00    -0.022 A 
ATOM      2  C   UNL     1      11.692  20.446  19.278  1.00  0.00     0.058 A 
ATOM      3  C   UNL     1      11.303  20.215  16.898  1.00  0.00     0.012 A 
ATOM      4  C   UNL     1      10.357  20.824  19.465  1.00  0.00     0.157 A 
ATOM      5  C   UNL     1       9.971  20.594  17.082  1.00  0.00     0.051 A 
ATOM      6  C   UNL     1       9.491  20.897  18.363  1.00  0.00     0.157 A 
ENDROOT
BRANCH   1   7
ATOM      7  C   UNL     1      13.604  19.740  17.857  1.00  0.00     0.010 C 
ATOM      8  C   UNL     1      14.277  19.025  18.769  1.00  0.00     0.025 C 
BRANCH   8   9
ATOM      9  C   UNL     1      15.697  18.672  18.599  1.00  0.00     0.064 C 
ATOM     10  O   UNL     1      16.194  18.502  17.454  1.00  0.00    -0.545 OA
ATOM     11  O   UNL     1      16.501  18.521  19.721  1.00  0.00    -0.545 OA
ENDBRANCH   8   9
ENDBRANCH   1   7
BRANCH   4  12
ATOM     12  O   UNL     1       9.912  21.125  20.752  1.00  0.00    -0.504 OA
ATOM     13  H   UNL     1      10.495  20.986  21.569  1.00  0.00     0.293 HD
ENDBRANCH   4  12
BRANCH   6  14
ATOM     14  O   UNL     1       8.160  21.271  18.541  1.00  0.00    -0.504 OA
ATOM     15  H   UNL     1       7.398  20.630  18.352  1.00  0.00     0.293 HD
ENDBRANCH   6  14
TORSDOF 4
ENDMDL
MODEL 6
REMARK VINA RESULT:    -5.448      1.395      5.769
REMARK INTER + INTRA:          -6.540
REMARK INTER:                  -6.407
REMARK INTRA:                  -0.133
REMARK UNBOUND:                -0.137
REMARK SMILES O=C([O-])C=Cc1ccc(O)c(O)c1
REMARK SMILES IDX 6 1 13 2 7 3 11 4 8 5 9 6 5 7 4 8 2 9 1 10 3 11 12 12 10 14
REMARK H PARENT 12 13 10 15
REMARK Flexibility Score: inf
ROOT
ATOM      1  C   UNL     1      12.674  20.054  17.421  1.00  0.00    -0.022 A 
ATOM      2  C   UNL     1      12.494  20.925  16.334  1.00  0.00     0.058 A 
ATOM      3  C   UNL     1      13.601  18.999  17.302  1.00  0.00     0.012 A 
ATOM      4  C   UNL     1      13.202  20.740  15.141  1.00  0.00     0.157 A 
ATOM      5  C   UNL     1      14.309  18.813  16.112  1.00  0.00     0.051 A 
ATOM      6  C   UNL     1      14.113  19.678  15.027  1.00  0.00     0.157 A 
ENDROOT
BRANCH   1   7
ATOM      7  C   UNL     1      11.905  20.303  18.667  1.00  0.00     0.010 C 
ATOM      8  C   UNL     1      10.707  20.904  18.695  1.00  0.00     0.025 C 
BRANCH   8   9
ATOM      9  C   UNL     1       9.979  21.146  19.952  1.00  0.00     0.064 C 
ATOM     10  O   UNL     1      10.546  21.018  21.070  1.00  0.00    -0.545 OA
ATOM     11  O   UNL     1       8.642  21.518  19.905  1.00  0.00    -0.545 OA
ENDBRANCH   8   9
ENDBRANCH   1   7
BRANCH   4  12
ATOM     12  O   UNL     1      12.987  21.622  14.082  1.00  0.00    -0.504 OA
ATOM     13  H   UNL     1      13.748  21.974  13.513  1.00  0.00     0.293 HD
ENDBRANCH   4  12
BRANCH   6  14
ATOM     14  O   UNL     1      14.820  19.486  13.842  1.00  0.00    -0.504 OA
ATOM     15  H   UNL     1      15.761  19.111  13.839  1.00  0.00     0.293 HD
ENDBRANCH   6  14
TORSDOF 4
ENDMDL
MODEL 7
REMARK VINA RESULT:    -5.384      9.096     12.253
REMARK INTER + INTRA:          -6.466
REMARK INTER:                  -6.339
REMARK INTRA:                  -0.127
REMARK UNBOUND:                -0.137
REMARK SMILES O=C([O-])C=Cc1ccc(O)c(O)c1
REMARK SMILES IDX 6 1 13 2 7 3 11 4 8 5 9 6 5 7 4 8 2 9 1 10 3 11 12 12 10 14
REMARK H PARENT 12 13 10 15
REMARK Flexibility Score: inf
ROOT
ATOM      1  C   UNL     1      21.186  19.890  11.942  1.00  0.00    -0.022 A 
ATOM      2  C   UNL     1      22.116  19.596  10.930  1.00  0.00     0.058 A 
ATOM      3  C   UNL     1      21.594  20.687  13.029  1.00  0.00     0.012 A 
ATOM      4  C   UNL     1      23.433  20.063  11.008  1.00  0.00     0.157 A 
ATOM      5  C   UNL     1      22.908  21.156  13.108  1.00  0.00     0.051 A 
ATOM      6  C   UNL     1      23.832  20.846  12.103  1.00  0.00     0.157 A 
ENDROOT
BRANCH   1   7
ATOM      7  C   UNL     1      19.800  19.377  11.803  1.00  0.00     0.010 C 
ATOM      8  C   UNL     1      18.963  19.748  10.825  1.00  0.00     0.025 C 
BRANCH   8   9
ATOM      9  C   UNL     1      17.589  19.227  10.727  1.00  0.00     0.064 C 
ATOM     10  O   UNL     1      17.109  18.854   9.622  1.00  0.00    -0.545 OA
ATOM     11  O   UNL     1      16.805  19.148  11.871  1.00  0.00    -0.545 OA
ENDBRANCH   8   9
ENDBRANCH   1   7
BRANCH   4  12
ATOM     12  O   UNL     1      24.327  19.742   9.987  1.00  0.00    -0.504 OA
ATOM     13  H   UNL     1      24.435  20.322   9.164  1.00  0.00     0.293 HD
ENDBRANCH   4  12
BRANCH   6  14
ATOM     14  O   UNL     1      25.143  21.313  12.188  1.00  0.00    -0.504 OA
ATOM     15  H   UNL     1      25.806  21.177  11.435  1.00  0.00     0.293 HD
ENDBRANCH   6  14
TORSDOF 4
ENDMDL
MODEL 8
REMARK VINA RESULT:    -5.170      1.176      5.960
REMARK INTER + INTRA:          -6.215
REMARK INTER:                  -6.088
REMARK INTRA:                  -0.127
REMARK UNBOUND:                -0.137
REMARK SMILES O=C([O-])C=Cc1ccc(O)c(O)c1
REMARK SMILES IDX 6 1 13 2 7 3 11 4 8 5 9 6 5 7 4 8 2 9 1 10 3 11 12 12 10 14
REMARK H PARENT 12 13 10 15
REMARK Flexibility Score: inf
ROOT
ATOM      1  C   UNL     1      12.534  20.588  17.031  1.00  0.00    -0.022 A 
ATOM      2  C   UNL     1      13.306  19.433  17.238  1.00  0.00     0.058 A 
ATOM      3  C   UNL     1      12.588  21.225  15.775  1.00  0.00     0.012 A 
ATOM      4  C   UNL     1      14.137  18.933  16.228  1.00  0.00     0.157 A 
ATOM      5  C   UNL     1      13.415  20.727  14.765  1.00  0.00     0.051 A 
ATOM      6  C   UNL     1      14.193  19.584  14.986  1.00  0.00     0.157 A 
ENDROOT
BRANCH   1   7
ATOM      7  C   UNL     1      11.664  21.069  18.133  1.00  0.00     0.010 C 
ATOM      8  C   UNL     1      10.456  20.556  18.406  1.00  0.00     0.025 C 
BRANCH   8   9
ATOM      9  C   UNL     1       9.615  21.067  19.501  1.00  0.00     0.064 C 
ATOM     10  O   UNL     1       8.402  21.352  19.314  1.00  0.00    -0.545 OA
ATOM     11  O   UNL     1      10.168  21.242  20.763  1.00  0.00    -0.545 OA
ENDBRANCH   8   9
ENDBRANCH   1   7
BRANCH   4  12
ATOM     12  O   UNL     1      14.893  17.789  16.478  1.00  0.00    -0.504 OA
ATOM     13  H   UNL     1      14.843  16.970  15.884  1.00  0.00     0.293 HD
ENDBRANCH   4  12
BRANCH   6  14
ATOM     14  O   UNL     1      15.019  19.093  13.976  1.00  0.00    -0.504 OA
ATOM     15  H   UNL     1      14.734  18.320  13.385  1.00  0.00     0.293 HD
ENDBRANCH   6  14
TORSDOF 4
ENDMDL
MODEL 9
REMARK VINA RESULT:    -5.064     15.984     17.494
REMARK INTER + INTRA:          -6.089
REMARK INTER:                  -5.962
REMARK INTRA:                  -0.127
REMARK UNBOUND:                -0.137
REMARK SMILES O=C([O-])C=Cc1ccc(O)c(O)c1
REMARK SMILES IDX 6 1 13 2 7 3 11 4 8 5 9 6 5 7 4 8 2 9 1 10 3 11 12 12 10 14
REMARK H PARENT 12 13 10 15
REMARK Flexibility Score: inf
ROOT
ATOM      1  C   UNL     1      20.712  15.833   4.092  1.00  0.00    -0.022 A 
ATOM      2  C   UNL     1      21.221  14.940   3.135  1.00  0.00     0.058 A 
ATOM      3  C   UNL     1      19.529  15.494   4.777  1.00  0.00     0.012 A 
ATOM      4  C   UNL     1      20.556  13.743   2.843  1.00  0.00     0.157 A 
ATOM      5  C   UNL     1      18.864  14.300   4.489  1.00  0.00     0.051 A 
ATOM      6  C   UNL     1      19.370  13.422   3.522  1.00  0.00     0.157 A 
ENDROOT
BRANCH   1   7
ATOM      7  C   UNL     1      21.465  17.083   4.368  1.00  0.00     0.010 C 
ATOM      8  C   UNL     1      22.436  17.180   5.286  1.00  0.00     0.025 C 
BRANCH   8   9
ATOM      9  C   UNL     1      23.153  18.441   5.541  1.00  0.00     0.064 C 
ATOM     10  O   UNL     1      22.548  19.460   5.970  1.00  0.00    -0.545 OA
ATOM     11  O   UNL     1      24.519  18.511   5.301  1.00  0.00    -0.545 OA
ENDBRANCH   8   9
ENDBRANCH   1   7
BRANCH   4  12
ATOM     12  O   UNL     1      21.089  12.889   1.880  1.00  0.00    -0.504 OA
ATOM     13  H   UNL     1      21.057  13.106   0.891  1.00  0.00     0.293 HD
ENDBRANCH   4  12
BRANCH   6  14
ATOM     14  O   UNL     1      18.700  12.233   3.237  1.00  0.00    -0.504 OA
ATOM     15  H   UNL     1      17.715  12.115   3.443  1.00  0.00     0.293 HD
ENDBRANCH   6  14
TORSDOF 4
ENDMDL
