MODEL 1
REMARK VINA RESULT:    -4.231      0.000      0.000
REMARK INTER + INTRA:          -8.771
REMARK INTER:                  -7.199
REMARK INTRA:                  -1.572
REMARK UNBOUND:                -1.572
REMARK SMILES CCCCCCCCCCCCCC(=O)[O-]
REMARK SMILES IDX 8 1 9 2 10 3 11 4 12 5 13 6 14 7 15 8 16 9 7 10 6 11 5 12
REMARK SMILES IDX 4 13 3 14 2 15 1 16
REMARK H PARENT
REMARK Flexibility Score: inf
ROOT
ATOM      1  C   UNL     1     -18.520 -31.516  20.990  1.00  0.00     0.000 C 
ENDROOT
BRANCH   1   2
ATOM      2  C   UNL     1     -19.690 -31.662  20.003  1.00  0.00     0.000 C 
BRANCH   2   3
ATOM      3  C   UNL     1     -19.981 -30.356  19.244  1.00  0.00     0.000 C 
BRANCH   3   4
ATOM      4  C   UNL     1     -19.222 -30.267  17.909  1.00  0.00     0.000 C 
BRANCH   4   5
ATOM      5  C   UNL     1     -17.737 -29.923  18.093  1.00  0.00     0.006 C 
BRANCH   5   6
ATOM      6  C   UNL     1     -17.419 -28.545  17.506  1.00  0.00     0.053 C 
BRANCH   6   7
ATOM      7  C   UNL     1     -17.321 -27.521  18.592  1.00  0.00     0.041 C 
ATOM      8  O   UNL     1     -16.195 -27.178  19.039  1.00  0.00    -0.550 OA
ATOM      9  O   UNL     1     -18.475 -26.983  19.148  1.00  0.00    -0.550 OA
ENDBRANCH   6   7
ENDBRANCH   5   6
ENDBRANCH   4   5
ENDBRANCH   3   4
ENDBRANCH   2   3
ENDBRANCH   1   2
BRANCH   1  10
ATOM     10  C   UNL     1     -17.494 -32.656  20.863  1.00  0.00     0.000 C 
BRANCH  10  11
ATOM     11  C   UNL     1     -17.965 -33.762  19.895  1.00  0.00    -0.000 C 
BRANCH  11  12
ATOM     12  C   UNL     1     -17.004 -34.004  18.717  1.00  0.00    -0.000 C 
BRANCH  12  13
ATOM     13  C   UNL     1     -17.534 -33.551  17.345  1.00  0.00    -0.000 C 
BRANCH  13  14
ATOM     14  C   UNL     1     -18.997 -33.940  17.056  1.00  0.00    -0.000 C 
BRANCH  14  15
ATOM     15  C   UNL     1     -19.615 -33.182  15.862  1.00  0.00    -0.003 C 
ATOM     16  C   UNL     1     -19.228 -33.793  14.516  1.00  0.00     0.004 C 
ENDBRANCH  14  15
ENDBRANCH  13  14
ENDBRANCH  12  13
ENDBRANCH  11  12
ENDBRANCH  10  11
ENDBRANCH   1  10
TORSDOF 12
ENDMDL
MODEL 2
REMARK VINA RESULT:    -4.218      1.635      2.434
REMARK INTER + INTRA:          -8.749
REMARK INTER:                  -6.606
REMARK INTRA:                  -2.143
REMARK UNBOUND:                -1.572
REMARK SMILES CCCCCCCCCCCCCC(=O)[O-]
REMARK SMILES IDX 8 1 9 2 10 3 11 4 12 5 13 6 14 7 15 8 16 9 7 10 6 11 5 12
REMARK SMILES IDX 4 13 3 14 2 15 1 16
REMARK H PARENT
REMARK Flexibility Score: inf
ROOT
ATOM      1  C   UNL     1     -18.100 -32.534  21.719  1.00  0.00     0.000 C 
ENDROOT
BRANCH   1   2
ATOM      2  C   UNL     1     -18.580 -33.496  20.620  1.00  0.00     0.000 C 
BRANCH   2   3
ATOM      3  C   UNL     1     -19.653 -32.864  19.718  1.00  0.00     0.000 C 
BRANCH   3   4
ATOM      4  C   UNL     1     -19.850 -31.364  19.995  1.00  0.00     0.000 C 
BRANCH   4   5
ATOM      5  C   UNL     1     -19.258 -30.473  18.894  1.00  0.00     0.006 C 
BRANCH   5   6
ATOM      6  C   UNL     1     -18.205 -29.521  19.468  1.00  0.00     0.053 C 
BRANCH   6   7
ATOM      7  C   UNL     1     -18.044 -28.323  18.587  1.00  0.00     0.041 C 
ATOM      8  O   UNL     1     -17.700 -28.463  17.384  1.00  0.00    -0.550 OA
ATOM      9  O   UNL     1     -18.225 -27.047  19.107  1.00  0.00    -0.550 OA
ENDBRANCH   6   7
ENDBRANCH   5   6
ENDBRANCH   4   5
ENDBRANCH   3   4
ENDBRANCH   2   3
ENDBRANCH   1   2
BRANCH   1  10
ATOM     10  C   UNL     1     -16.599 -32.209  21.606  1.00  0.00     0.000 C 
BRANCH  10  11
ATOM     11  C   UNL     1     -15.776 -33.413  21.101  1.00  0.00    -0.000 C 
BRANCH  11  12
ATOM     12  C   UNL     1     -15.054 -33.155  19.766  1.00  0.00    -0.000 C 
BRANCH  12  13
ATOM     13  C   UNL     1     -15.222 -31.733  19.203  1.00  0.00    -0.000 C 
BRANCH  13  14
ATOM     14  C   UNL     1     -15.875 -31.661  17.809  1.00  0.00    -0.000 C 
BRANCH  14  15
ATOM     15  C   UNL     1     -16.731 -32.896  17.460  1.00  0.00    -0.003 C 
ATOM     16  C   UNL     1     -17.618 -32.668  16.236  1.00  0.00     0.004 C 
ENDBRANCH  14  15
ENDBRANCH  13  14
ENDBRANCH  12  13
ENDBRANCH  11  12
ENDBRANCH  10  11
ENDBRANCH   1  10
TORSDOF 12
ENDMDL
MODEL 3
REMARK VINA RESULT:    -4.182      3.074      5.280
REMARK INTER + INTRA:          -8.688
REMARK INTER:                  -6.907
REMARK INTRA:                  -1.781
REMARK UNBOUND:                -1.572
REMARK SMILES CCCCCCCCCCCCCC(=O)[O-]
REMARK SMILES IDX 8 1 9 2 10 3 11 4 12 5 13 6 14 7 15 8 16 9 7 10 6 11 5 12
REMARK SMILES IDX 4 13 3 14 2 15 1 16
REMARK H PARENT
REMARK Flexibility Score: inf
ROOT
ATOM      1  C   UNL     1     -18.466 -33.766  20.277  1.00  0.00     0.000 C 
ENDROOT
BRANCH   1   2
ATOM      2  C   UNL     1     -17.232 -33.281  19.499  1.00  0.00     0.000 C 
BRANCH   2   3
ATOM      3  C   UNL     1     -17.005 -34.080  18.204  1.00  0.00     0.000 C 
BRANCH   3   4
ATOM      4  C   UNL     1     -16.633 -33.181  17.013  1.00  0.00     0.000 C 
BRANCH   4   5
ATOM      5  C   UNL     1     -17.785 -32.264  16.578  1.00  0.00     0.006 C 
BRANCH   5   6
ATOM      6  C   UNL     1     -18.997 -33.085  16.126  1.00  0.00     0.053 C 
BRANCH   6   7
ATOM      7  C   UNL     1     -18.948 -33.324  14.650  1.00  0.00     0.041 C 
ATOM      8  O   UNL     1     -19.772 -34.106  14.107  1.00  0.00    -0.550 OA
ATOM      9  O   UNL     1     -17.961 -32.721  13.880  1.00  0.00    -0.550 OA
ENDBRANCH   6   7
ENDBRANCH   5   6
ENDBRANCH   4   5
ENDBRANCH   3   4
ENDBRANCH   2   3
ENDBRANCH   1   2
BRANCH   1  10
ATOM     10  C   UNL     1     -19.734 -32.961  19.935  1.00  0.00     0.000 C 
BRANCH  10  11
ATOM     11  C   UNL     1     -19.569 -31.456  20.233  1.00  0.00    -0.000 C 
BRANCH  11  12
ATOM     12  C   UNL     1     -19.867 -30.549  19.025  1.00  0.00    -0.000 C 
BRANCH  12  13
ATOM     13  C   UNL     1     -18.988 -29.290  18.927  1.00  0.00    -0.000 C 
BRANCH  13  14
ATOM     14  C   UNL     1     -17.483 -29.531  19.159  1.00  0.00    -0.000 C 
BRANCH  14  15
ATOM     15  C   UNL     1     -16.597 -29.111  17.968  1.00  0.00    -0.003 C 
ATOM     16  C   UNL     1     -17.092 -27.832  17.292  1.00  0.00     0.004 C 
ENDBRANCH  14  15
ENDBRANCH  13  14
ENDBRANCH  12  13
ENDBRANCH  11  12
ENDBRANCH  10  11
ENDBRANCH   1  10
TORSDOF 12
ENDMDL
MODEL 4
REMARK VINA RESULT:    -4.167      1.873      2.446
REMARK INTER + INTRA:          -8.661
REMARK INTER:                  -6.920
REMARK INTRA:                  -1.741
REMARK UNBOUND:                -1.572
REMARK SMILES CCCCCCCCCCCCCC(=O)[O-]
REMARK SMILES IDX 8 1 9 2 10 3 11 4 12 5 13 6 14 7 15 8 16 9 7 10 6 11 5 12
REMARK SMILES IDX 4 13 3 14 2 15 1 16
REMARK H PARENT
REMARK Flexibility Score: inf
ROOT
ATOM      1  C   UNL     1     -20.270 -31.158  20.005  1.00  0.00     0.000 C 
ENDROOT
BRANCH   1   2
ATOM      2  C   UNL     1     -19.978 -30.305  18.759  1.00  0.00     0.000 C 
BRANCH   2   3
ATOM      3  C   UNL     1     -18.831 -29.306  18.989  1.00  0.00     0.000 C 
BRANCH   3   4
ATOM      4  C   UNL     1     -17.625 -29.570  18.073  1.00  0.00     0.000 C 
BRANCH   4   5
ATOM      5  C   UNL     1     -16.351 -29.922  18.855  1.00  0.00     0.006 C 
BRANCH   5   6
ATOM      6  C   UNL     1     -15.214 -30.308  17.903  1.00  0.00     0.053 C 
BRANCH   6   7
ATOM      7  C   UNL     1     -13.982 -29.516  18.209  1.00  0.00     0.041 C 
ATOM      8  O   UNL     1     -14.054 -28.269  18.368  1.00  0.00    -0.550 OA
ATOM      9  O   UNL     1     -12.746 -30.147  18.269  1.00  0.00    -0.550 OA
ENDBRANCH   6   7
ENDBRANCH   5   6
ENDBRANCH   4   5
ENDBRANCH   3   4
ENDBRANCH   2   3
ENDBRANCH   1   2
BRANCH   1  10
ATOM     10  C   UNL     1     -18.994 -31.765  20.617  1.00  0.00     0.000 C 
BRANCH  10  11
ATOM     11  C   UNL     1     -18.894 -33.285  20.372  1.00  0.00    -0.000 C 
BRANCH  11  12
ATOM     12  C   UNL     1     -17.661 -33.700  19.548  1.00  0.00    -0.000 C 
BRANCH  12  13
ATOM     13  C   UNL     1     -17.715 -33.311  18.060  1.00  0.00    -0.000 C 
BRANCH  13  14
ATOM     14  C   UNL     1     -19.030 -33.674  17.344  1.00  0.00    -0.000 C 
BRANCH  14  15
ATOM     15  C   UNL     1     -19.311 -32.818  16.091  1.00  0.00    -0.003 C 
ATOM     16  C   UNL     1     -19.374 -33.654  14.813  1.00  0.00     0.004 C 
ENDBRANCH  14  15
ENDBRANCH  13  14
ENDBRANCH  12  13
ENDBRANCH  11  12
ENDBRANCH  10  11
ENDBRANCH   1  10
TORSDOF 12
ENDMDL
MODEL 5
REMARK VINA RESULT:    -4.131      1.660      3.548
REMARK INTER + INTRA:          -8.600
REMARK INTER:                  -6.691
REMARK INTRA:                  -1.909
REMARK UNBOUND:                -1.572
REMARK SMILES CCCCCCCCCCCCCC(=O)[O-]
REMARK SMILES IDX 8 1 9 2 10 3 11 4 12 5 13 6 14 7 15 8 16 9 7 10 6 11 5 12
REMARK SMILES IDX 4 13 3 14 2 15 1 16
REMARK H PARENT
REMARK Flexibility Score: inf
ROOT
ATOM      1  C   UNL     1     -19.186 -33.248  19.867  1.00  0.00     0.000 C 
ENDROOT
BRANCH   1   2
ATOM      2  C   UNL     1     -19.361 -31.809  20.378  1.00  0.00     0.000 C 
BRANCH   2   3
ATOM      3  C   UNL     1     -19.836 -30.849  19.274  1.00  0.00     0.000 C 
BRANCH   3   4
ATOM      4  C   UNL     1     -18.818 -29.734  18.980  1.00  0.00     0.000 C 
BRANCH   4   5
ATOM      5  C   UNL     1     -17.515 -29.895  19.777  1.00  0.00     0.006 C 
BRANCH   5   6
ATOM      6  C   UNL     1     -16.709 -28.593  19.775  1.00  0.00     0.053 C 
BRANCH   6   7
ATOM      7  C   UNL     1     -16.129 -28.337  18.420  1.00  0.00     0.041 C 
ATOM      8  O   UNL     1     -16.502 -27.337  17.750  1.00  0.00    -0.550 OA
ATOM      9  O   UNL     1     -15.215 -29.229  17.874  1.00  0.00    -0.550 OA
ENDBRANCH   6   7
ENDBRANCH   5   6
ENDBRANCH   4   5
ENDBRANCH   3   4
ENDBRANCH   2   3
ENDBRANCH   1   2
BRANCH   1  10
ATOM     10  C   UNL     1     -19.238 -33.340  18.331  1.00  0.00     0.000 C 
BRANCH  10  11
ATOM     11  C   UNL     1     -17.836 -33.245  17.692  1.00  0.00    -0.000 C 
BRANCH  11  12
ATOM     12  C   UNL     1     -16.702 -33.742  18.609  1.00  0.00    -0.000 C 
BRANCH  12  13
ATOM     13  C   UNL     1     -15.515 -32.773  18.754  1.00  0.00    -0.000 C 
BRANCH  13  14
ATOM     14  C   UNL     1     -14.836 -32.785  20.137  1.00  0.00    -0.000 C 
BRANCH  14  15
ATOM     15  C   UNL     1     -15.686 -33.449  21.240  1.00  0.00    -0.003 C 
ATOM     16  C   UNL     1     -16.244 -32.435  22.240  1.00  0.00     0.004 C 
ENDBRANCH  14  15
ENDBRANCH  13  14
ENDBRANCH  12  13
ENDBRANCH  11  12
ENDBRANCH  10  11
ENDBRANCH   1  10
TORSDOF 12
ENDMDL
MODEL 6
REMARK VINA RESULT:    -4.077      2.978      4.839
REMARK INTER + INTRA:          -8.509
REMARK INTER:                  -6.475
REMARK INTRA:                  -2.034
REMARK UNBOUND:                -1.572
REMARK SMILES CCCCCCCCCCCCCC(=O)[O-]
REMARK SMILES IDX 8 1 9 2 10 3 11 4 12 5 13 6 14 7 15 8 16 9 7 10 6 11 5 12
REMARK SMILES IDX 4 13 3 14 2 15 1 16
REMARK H PARENT
REMARK Flexibility Score: inf
ROOT
ATOM      1  C   UNL     1     -16.101 -32.725  21.501  1.00  0.00     0.000 C 
ENDROOT
BRANCH   1   2
ATOM      2  C   UNL     1     -15.651 -33.346  20.168  1.00  0.00     0.000 C 
BRANCH   2   3
ATOM      3  C   UNL     1     -15.136 -32.291  19.175  1.00  0.00     0.000 C 
BRANCH   3   4
ATOM      4  C   UNL     1     -15.282 -32.736  17.710  1.00  0.00     0.000 C 
BRANCH   4   5
ATOM      5  C   UNL     1     -16.681 -33.285  17.394  1.00  0.00     0.006 C 
BRANCH   5   6
ATOM      6  C   UNL     1     -17.504 -32.261  16.607  1.00  0.00     0.053 C 
BRANCH   6   7
ATOM      7  C   UNL     1     -18.545 -32.948  15.781  1.00  0.00     0.041 C 
ATOM      8  O   UNL     1     -19.608 -33.360  16.316  1.00  0.00    -0.550 OA
ATOM      9  O   UNL     1     -18.321 -33.179  14.429  1.00  0.00    -0.550 OA
ENDBRANCH   6   7
ENDBRANCH   5   6
ENDBRANCH   4   5
ENDBRANCH   3   4
ENDBRANCH   2   3
ENDBRANCH   1   2
BRANCH   1  10
ATOM     10  C   UNL     1     -17.603 -32.924  21.768  1.00  0.00     0.000 C 
BRANCH  10  11
ATOM     11  C   UNL     1     -18.291 -33.746  20.657  1.00  0.00    -0.000 C 
BRANCH  11  12
ATOM     12  C   UNL     1     -19.348 -32.954  19.865  1.00  0.00    -0.000 C 
BRANCH  12  13
ATOM     13  C   UNL     1     -19.536 -31.494  20.315  1.00  0.00    -0.000 C 
BRANCH  13  14
ATOM     14  C   UNL     1     -19.786 -30.492  19.172  1.00  0.00    -0.000 C 
BRANCH  14  15
ATOM     15  C   UNL     1     -18.535 -29.683  18.770  1.00  0.00    -0.003 C 
ATOM     16  C   UNL     1     -17.495 -29.620  19.889  1.00  0.00     0.004 C 
ENDBRANCH  14  15
ENDBRANCH  13  14
ENDBRANCH  12  13
ENDBRANCH  11  12
ENDBRANCH  10  11
ENDBRANCH   1  10
TORSDOF 12
ENDMDL
MODEL 7
REMARK VINA RESULT:    -4.072      1.560      3.232
REMARK INTER + INTRA:          -8.500
REMARK INTER:                  -7.132
REMARK INTRA:                  -1.368
REMARK UNBOUND:                -1.572
REMARK SMILES CCCCCCCCCCCCCC(=O)[O-]
REMARK SMILES IDX 8 1 9 2 10 3 11 4 12 5 13 6 14 7 15 8 16 9 7 10 6 11 5 12
REMARK SMILES IDX 4 13 3 14 2 15 1 16
REMARK H PARENT
REMARK Flexibility Score: inf
ROOT
ATOM      1  C   UNL     1     -18.497 -33.405  18.273  1.00  0.00     0.000 C 
ENDROOT
BRANCH   1   2
ATOM      2  C   UNL     1     -19.397 -33.237  19.508  1.00  0.00     0.000 C 
BRANCH   2   3
ATOM      3  C   UNL     1     -19.197 -31.877  20.198  1.00  0.00     0.000 C 
BRANCH   3   4
ATOM      4  C   UNL     1     -20.128 -30.788  19.639  1.00  0.00     0.000 C 
BRANCH   4   5
ATOM      5  C   UNL     1     -19.411 -29.832  18.675  1.00  0.00     0.006 C 
BRANCH   5   6
ATOM      6  C   UNL     1     -18.058 -29.395  19.243  1.00  0.00     0.053 C 
BRANCH   6   7
ATOM      7  C   UNL     1     -17.786 -27.962  18.909  1.00  0.00     0.041 C 
ATOM      8  O   UNL     1     -18.612 -27.069  19.232  1.00  0.00    -0.550 OA
ATOM      9  O   UNL     1     -16.644 -27.618  18.197  1.00  0.00    -0.550 OA
ENDBRANCH   6   7
ENDBRANCH   5   6
ENDBRANCH   4   5
ENDBRANCH   3   4
ENDBRANCH   2   3
ENDBRANCH   1   2
BRANCH   1  10
ATOM     10  C   UNL     1     -19.262 -33.952  17.055  1.00  0.00     0.000 C 
BRANCH  10  11
ATOM     11  C   UNL     1     -19.406 -32.901  15.934  1.00  0.00    -0.000 C 
BRANCH  11  12
ATOM     12  C   UNL     1     -18.885 -33.378  14.566  1.00  0.00    -0.000 C 
BRANCH  12  13
ATOM     13  C   UNL     1     -17.635 -32.641  14.055  1.00  0.00    -0.000 C 
BRANCH  13  14
ATOM     14  C   UNL     1     -16.510 -32.476  15.096  1.00  0.00    -0.000 C 
BRANCH  14  15
ATOM     15  C   UNL     1     -16.140 -31.005  15.381  1.00  0.00    -0.003 C 
ATOM     16  C   UNL     1     -15.627 -30.797  16.806  1.00  0.00     0.004 C 
ENDBRANCH  14  15
ENDBRANCH  13  14
ENDBRANCH  12  13
ENDBRANCH  11  12
ENDBRANCH  10  11
ENDBRANCH   1  10
TORSDOF 12
ENDMDL
MODEL 8
REMARK VINA RESULT:    -4.062      1.507      2.499
REMARK INTER + INTRA:          -8.483
REMARK INTER:                  -7.401
REMARK INTRA:                  -1.082
REMARK UNBOUND:                -1.572
REMARK SMILES CCCCCCCCCCCCCC(=O)[O-]
REMARK SMILES IDX 8 1 9 2 10 3 11 4 12 5 13 6 14 7 15 8 16 9 7 10 6 11 5 12
REMARK SMILES IDX 4 13 3 14 2 15 1 16
REMARK H PARENT
REMARK Flexibility Score: inf
ROOT
ATOM      1  C   UNL     1     -18.795 -33.358  19.978  1.00  0.00     0.000 C 
ENDROOT
BRANCH   1   2
ATOM      2  C   UNL     1     -18.832 -31.862  20.333  1.00  0.00     0.000 C 
BRANCH   2   3
ATOM      3  C   UNL     1     -20.190 -31.217  20.007  1.00  0.00     0.000 C 
BRANCH   3   4
ATOM      4  C   UNL     1     -20.055 -29.984  19.098  1.00  0.00     0.000 C 
BRANCH   4   5
ATOM      5  C   UNL     1     -18.608 -29.730  18.652  1.00  0.00     0.006 C 
BRANCH   5   6
ATOM      6  C   UNL     1     -18.147 -28.328  19.063  1.00  0.00     0.053 C 
BRANCH   6   7
ATOM      7  C   UNL     1     -17.004 -27.880  18.209  1.00  0.00     0.041 C 
ATOM      8  O   UNL     1     -17.160 -27.735  16.968  1.00  0.00    -0.550 OA
ATOM      9  O   UNL     1     -15.753 -27.670  18.774  1.00  0.00    -0.550 OA
ENDBRANCH   6   7
ENDBRANCH   5   6
ENDBRANCH   4   5
ENDBRANCH   3   4
ENDBRANCH   2   3
ENDBRANCH   1   2
BRANCH   1  10
ATOM     10  C   UNL     1     -19.613 -33.686  18.717  1.00  0.00     0.000 C 
BRANCH  10  11
ATOM     11  C   UNL     1     -18.752 -33.653  17.436  1.00  0.00    -0.000 C 
BRANCH  11  12
ATOM     12  C   UNL     1     -19.332 -32.760  16.323  1.00  0.00    -0.000 C 
BRANCH  12  13
ATOM     13  C   UNL     1     -19.258 -33.358  14.908  1.00  0.00    -0.000 C 
BRANCH  13  14
ATOM     14  C   UNL     1     -17.831 -33.552  14.360  1.00  0.00    -0.000 C 
BRANCH  14  15
ATOM     15  C   UNL     1     -17.636 -33.008  12.929  1.00  0.00    -0.003 C 
ATOM     16  C   UNL     1     -16.655 -31.837  12.875  1.00  0.00     0.004 C 
ENDBRANCH  14  15
ENDBRANCH  13  14
ENDBRANCH  12  13
ENDBRANCH  11  12
ENDBRANCH  10  11
ENDBRANCH   1  10
TORSDOF 12
ENDMDL
MODEL 9
REMARK VINA RESULT:    -4.016      1.454      3.687
REMARK INTER + INTRA:          -8.404
REMARK INTER:                  -6.583
REMARK INTRA:                  -1.822
REMARK UNBOUND:                -1.572
REMARK SMILES CCCCCCCCCCCCCC(=O)[O-]
REMARK SMILES IDX 8 1 9 2 10 3 11 4 12 5 13 6 14 7 15 8 16 9 7 10 6 11 5 12
REMARK SMILES IDX 4 13 3 14 2 15 1 16
REMARK H PARENT
REMARK Flexibility Score: inf
ROOT
ATOM      1  C   UNL     1     -18.966 -32.695  17.845  1.00  0.00     0.000 C 
ENDROOT
BRANCH   1   2
ATOM      2  C   UNL     1     -17.570 -32.599  17.208  1.00  0.00     0.000 C 
BRANCH   2   3
ATOM      3  C   UNL     1     -17.131 -31.143  16.979  1.00  0.00     0.000 C 
BRANCH   3   4
ATOM      4  C   UNL     1     -15.961 -30.728  17.887  1.00  0.00     0.000 C 
BRANCH   4   5
ATOM      5  C   UNL     1     -15.772 -29.206  17.954  1.00  0.00     0.006 C 
BRANCH   5   6
ATOM      6  C   UNL     1     -17.116 -28.482  17.827  1.00  0.00     0.053 C 
BRANCH   6   7
ATOM      7  C   UNL     1     -17.464 -27.793  19.108  1.00  0.00     0.041 C 
ATOM      8  O   UNL     1     -16.796 -28.021  20.151  1.00  0.00    -0.550 OA
ATOM      9  O   UNL     1     -18.557 -26.937  19.164  1.00  0.00    -0.550 OA
ENDBRANCH   6   7
ENDBRANCH   5   6
ENDBRANCH   4   5
ENDBRANCH   3   4
ENDBRANCH   2   3
ENDBRANCH   1   2
BRANCH   1  10
ATOM     10  C   UNL     1     -19.425 -31.365  18.469  1.00  0.00     0.000 C 
BRANCH  10  11
ATOM     11  C   UNL     1     -19.587 -31.462  20.001  1.00  0.00    -0.000 C 
BRANCH  11  12
ATOM     12  C   UNL     1     -18.254 -31.404  20.770  1.00  0.00    -0.000 C 
BRANCH  12  13
ATOM     13  C   UNL     1     -18.025 -32.560  21.759  1.00  0.00    -0.000 C 
BRANCH  13  14
ATOM     14  C   UNL     1     -17.725 -33.922  21.103  1.00  0.00    -0.000 C 
BRANCH  14  15
ATOM     15  C   UNL     1     -16.386 -33.961  20.338  1.00  0.00    -0.003 C 
ATOM     16  C   UNL     1     -15.254 -33.277  21.104  1.00  0.00     0.004 C 
ENDBRANCH  14  15
ENDBRANCH  13  14
ENDBRANCH  12  13
ENDBRANCH  11  12
ENDBRANCH  10  11
ENDBRANCH   1  10
TORSDOF 12
ENDMDL
