MODEL 1
REMARK VINA RESULT:    -3.969      0.000      0.000
REMARK INTER + INTRA:          -9.664
REMARK INTER:                  -7.681
REMARK INTRA:                  -1.983
REMARK UNBOUND:                -1.983
REMARK SMILES CCCCCCCCCCCCCCCCCC(=O)[O-]
REMARK SMILES IDX 10 1 11 2 12 3 13 4 14 5 15 6 16 7 17 8 18 9 19 10 20 11
REMARK SMILES IDX 9 12 8 13 7 14 6 15 5 16 4 17 3 18 2 19 1 20
REMARK H PARENT
REMARK Flexibility Score: inf
ROOT
ATOM      1  C   UNL     1      16.534 128.358  57.293  1.00  0.00     0.000 C 
ENDROOT
BRANCH   1   2
ATOM      2  C   UNL     1      15.627 128.672  58.496  1.00  0.00     0.000 C 
BRANCH   2   3
ATOM      3  C   UNL     1      16.317 129.401  59.669  1.00  0.00     0.000 C 
BRANCH   3   4
ATOM      4  C   UNL     1      17.649 130.089  59.319  1.00  0.00     0.000 C 
BRANCH   4   5
ATOM      5  C   UNL     1      18.822 129.759  60.263  1.00  0.00     0.000 C 
BRANCH   5   6
ATOM      6  C   UNL     1      18.386 129.350  61.687  1.00  0.00     0.000 C 
BRANCH   6   7
ATOM      7  C   UNL     1      19.078 128.069  62.175  1.00  0.00     0.006 C 
BRANCH   7   8
ATOM      8  C   UNL     1      18.219 127.343  63.217  1.00  0.00     0.053 C 
BRANCH   8   9
ATOM      9  C   UNL     1      18.127 125.877  62.915  1.00  0.00     0.041 C 
ATOM     10  O   UNL     1      17.006 125.316  62.802  1.00  0.00    -0.550 OA
ATOM     11  O   UNL     1      19.285 125.132  62.735  1.00  0.00    -0.550 OA
ENDBRANCH   8   9
ENDBRANCH   7   8
ENDBRANCH   6   7
ENDBRANCH   5   6
ENDBRANCH   4   5
ENDBRANCH   3   4
ENDBRANCH   2   3
ENDBRANCH   1   2
BRANCH   1  12
ATOM     12  C   UNL     1      15.768 128.315  55.960  1.00  0.00     0.000 C 
BRANCH  12  13
ATOM     13  C   UNL     1      16.476 127.450  54.905  1.00  0.00    -0.000 C 
BRANCH  13  14
ATOM     14  C   UNL     1      16.189 127.920  53.469  1.00  0.00    -0.000 C 
BRANCH  14  15
ATOM     15  C   UNL     1      17.323 128.781  52.890  1.00  0.00    -0.000 C 
BRANCH  15  16
ATOM     16  C   UNL     1      17.063 130.289  53.040  1.00  0.00    -0.000 C 
BRANCH  16  17
ATOM     17  C   UNL     1      18.218 131.008  53.771  1.00  0.00    -0.000 C 
BRANCH  17  18
ATOM     18  C   UNL     1      18.056 131.032  55.301  1.00  0.00    -0.000 C 
BRANCH  18  19
ATOM     19  C   UNL     1      19.359 130.704  56.045  1.00  0.00    -0.003 C 
ATOM     20  C   UNL     1      19.778 129.256  55.800  1.00  0.00     0.004 C 
ENDBRANCH  18  19
ENDBRANCH  17  18
ENDBRANCH  16  17
ENDBRANCH  15  16
ENDBRANCH  14  15
ENDBRANCH  13  14
ENDBRANCH  12  13
ENDBRANCH   1  12
TORSDOF 16
ENDMDL
MODEL 2
REMARK VINA RESULT:    -3.935      3.429      8.394
REMARK INTER + INTRA:          -9.598
REMARK INTER:                  -7.731
REMARK INTRA:                  -1.867
REMARK UNBOUND:                -1.983
REMARK SMILES CCCCCCCCCCCCCCCCCC(=O)[O-]
REMARK SMILES IDX 10 1 11 2 12 3 13 4 14 5 15 6 16 7 17 8 18 9 19 10 20 11
REMARK SMILES IDX 9 12 8 13 7 14 6 15 5 16 4 17 3 18 2 19 1 20
REMARK H PARENT
REMARK Flexibility Score: inf
ROOT
ATOM      1  C   UNL     1      18.529 128.968  64.615  1.00  0.00     0.000 C 
ENDROOT
BRANCH   1   2
ATOM      2  C   UNL     1      17.988 130.366  64.267  1.00  0.00     0.000 C 
BRANCH   2   3
ATOM      3  C   UNL     1      17.786 130.637  62.761  1.00  0.00     0.000 C 
BRANCH   3   4
ATOM      4  C   UNL     1      17.658 129.381  61.881  1.00  0.00     0.000 C 
BRANCH   4   5
ATOM      5  C   UNL     1      16.420 129.348  60.964  1.00  0.00     0.000 C 
BRANCH   5   6
ATOM      6  C   UNL     1      16.711 129.749  59.501  1.00  0.00     0.000 C 
BRANCH   6   7
ATOM      7  C   UNL     1      18.212 129.919  59.219  1.00  0.00     0.006 C 
BRANCH   7   8
ATOM      8  C   UNL     1      18.443 130.598  57.864  1.00  0.00     0.053 C 
BRANCH   8   9
ATOM      9  C   UNL     1      18.745 129.588  56.798  1.00  0.00     0.041 C 
ATOM     10  O   UNL     1      17.819 128.919  56.269  1.00  0.00    -0.550 OA
ATOM     11  O   UNL     1      20.053 129.399  56.372  1.00  0.00    -0.550 OA
ENDBRANCH   8   9
ENDBRANCH   7   8
ENDBRANCH   6   7
ENDBRANCH   5   6
ENDBRANCH   4   5
ENDBRANCH   3   4
ENDBRANCH   2   3
ENDBRANCH   1   2
BRANCH   1  12
ATOM     12  C   UNL     1      18.037 128.459  65.981  1.00  0.00     0.000 C 
BRANCH  12  13
ATOM     13  C   UNL     1      16.602 128.915  66.293  1.00  0.00    -0.000 C 
BRANCH  13  14
ATOM     14  C   UNL     1      15.563 128.260  65.366  1.00  0.00    -0.000 C 
BRANCH  14  15
ATOM     15  C   UNL     1      15.284 126.794  65.732  1.00  0.00    -0.000 C 
BRANCH  15  16
ATOM     16  C   UNL     1      15.300 125.861  64.510  1.00  0.00    -0.000 C 
BRANCH  16  17
ATOM     17  C   UNL     1      16.199 126.403  63.377  1.00  0.00    -0.000 C 
BRANCH  17  18
ATOM     18  C   UNL     1      17.153 125.348  62.791  1.00  0.00    -0.000 C 
BRANCH  18  19
ATOM     19  C   UNL     1      18.633 125.713  62.973  1.00  0.00    -0.003 C 
ATOM     20  C   UNL     1      19.537 124.541  62.597  1.00  0.00     0.004 C 
ENDBRANCH  18  19
ENDBRANCH  17  18
ENDBRANCH  16  17
ENDBRANCH  15  16
ENDBRANCH  14  15
ENDBRANCH  13  14
ENDBRANCH  12  13
ENDBRANCH   1  12
TORSDOF 16
ENDMDL
MODEL 3
REMARK VINA RESULT:    -3.873      1.336      2.755
REMARK INTER + INTRA:          -9.479
REMARK INTER:                  -7.004
REMARK INTRA:                  -2.476
REMARK UNBOUND:                -1.983
REMARK SMILES CCCCCCCCCCCCCCCCCC(=O)[O-]
REMARK SMILES IDX 10 1 11 2 12 3 13 4 14 5 15 6 16 7 17 8 18 9 19 10 20 11
REMARK SMILES IDX 9 12 8 13 7 14 6 15 5 16 4 17 3 18 2 19 1 20
REMARK H PARENT
REMARK Flexibility Score: inf
ROOT
ATOM      1  C   UNL     1      14.819 128.409  59.042  1.00  0.00     0.000 C 
ENDROOT
BRANCH   1   2
ATOM      2  C   UNL     1      15.521 128.573  60.402  1.00  0.00     0.000 C 
BRANCH   2   3
ATOM      3  C   UNL     1      15.580 130.018  60.942  1.00  0.00     0.000 C 
BRANCH   3   4
ATOM      4  C   UNL     1      16.897 130.401  61.642  1.00  0.00     0.000 C 
BRANCH   4   5
ATOM      5  C   UNL     1      18.176 129.879  60.958  1.00  0.00     0.000 C 
BRANCH   5   6
ATOM      6  C   UNL     1      18.930 128.807  61.774  1.00  0.00     0.000 C 
BRANCH   6   7
ATOM      7  C   UNL     1      18.341 128.605  63.178  1.00  0.00     0.006 C 
BRANCH   7   8
ATOM      8  C   UNL     1      18.370 127.125  63.579  1.00  0.00     0.053 C 
BRANCH   8   9
ATOM      9  C   UNL     1      17.104 126.431  63.172  1.00  0.00     0.041 C 
ATOM     10  O   UNL     1      17.144 125.318  62.587  1.00  0.00    -0.550 OA
ATOM     11  O   UNL     1      15.874 127.007  63.461  1.00  0.00    -0.550 OA
ENDBRANCH   8   9
ENDBRANCH   7   8
ENDBRANCH   6   7
ENDBRANCH   5   6
ENDBRANCH   4   5
ENDBRANCH   3   4
ENDBRANCH   2   3
ENDBRANCH   1   2
BRANCH   1  12
ATOM     12  C   UNL     1      15.774 128.590  57.849  1.00  0.00     0.000 C 
BRANCH  12  13
ATOM     13  C   UNL     1      15.748 130.023  57.292  1.00  0.00    -0.000 C 
BRANCH  13  14
ATOM     14  C   UNL     1      17.151 130.647  57.205  1.00  0.00    -0.000 C 
BRANCH  14  15
ATOM     15  C   UNL     1      18.272 129.610  57.384  1.00  0.00    -0.000 C 
BRANCH  15  16
ATOM     16  C   UNL     1      19.253 129.582  56.201  1.00  0.00    -0.000 C 
BRANCH  16  17
ATOM     17  C   UNL     1      18.677 130.282  54.951  1.00  0.00    -0.000 C 
BRANCH  17  18
ATOM     18  C   UNL     1      18.288 129.309  53.825  1.00  0.00    -0.000 C 
BRANCH  18  19
ATOM     19  C   UNL     1      16.793 128.957  53.829  1.00  0.00    -0.003 C 
ATOM     20  C   UNL     1      16.559 127.569  54.421  1.00  0.00     0.004 C 
ENDBRANCH  18  19
ENDBRANCH  17  18
ENDBRANCH  16  17
ENDBRANCH  15  16
ENDBRANCH  14  15
ENDBRANCH  13  14
ENDBRANCH  12  13
ENDBRANCH   1  12
TORSDOF 16
ENDMDL
MODEL 4
REMARK VINA RESULT:    -3.873      2.927      7.176
REMARK INTER + INTRA:          -9.478
REMARK INTER:                  -7.523
REMARK INTRA:                  -1.955
REMARK UNBOUND:                -1.983
REMARK SMILES CCCCCCCCCCCCCCCCCC(=O)[O-]
REMARK SMILES IDX 10 1 11 2 12 3 13 4 14 5 15 6 16 7 17 8 18 9 19 10 20 11
REMARK SMILES IDX 9 12 8 13 7 14 6 15 5 16 4 17 3 18 2 19 1 20
REMARK H PARENT
REMARK Flexibility Score: inf
ROOT
ATOM      1  C   UNL     1      15.781 128.783  57.990  1.00  0.00     0.000 C 
ENDROOT
BRANCH   1   2
ATOM      2  C   UNL     1      15.160 128.259  56.683  1.00  0.00     0.000 C 
BRANCH   2   3
ATOM      3  C   UNL     1      16.172 127.812  55.606  1.00  0.00     0.000 C 
BRANCH   3   4
ATOM      4  C   UNL     1      16.387 128.811  54.455  1.00  0.00     0.000 C 
BRANCH   4   5
ATOM      5  C   UNL     1      17.851 128.989  54.009  1.00  0.00     0.000 C 
BRANCH   5   6
ATOM      6  C   UNL     1      18.887 128.505  55.047  1.00  0.00     0.000 C 
BRANCH   6   7
ATOM      7  C   UNL     1      19.636 129.663  55.723  1.00  0.00     0.006 C 
BRANCH   7   8
ATOM      8  C   UNL     1      19.129 129.886  57.152  1.00  0.00     0.053 C 
BRANCH   8   9
ATOM      9  C   UNL     1      18.464 131.224  57.287  1.00  0.00     0.041 C 
ATOM     10  O   UNL     1      17.691 131.648  56.389  1.00  0.00    -0.550 OA
ATOM     11  O   UNL     1      18.683 131.996  58.421  1.00  0.00    -0.550 OA
ENDBRANCH   8   9
ENDBRANCH   7   8
ENDBRANCH   6   7
ENDBRANCH   5   6
ENDBRANCH   4   5
ENDBRANCH   3   4
ENDBRANCH   2   3
ENDBRANCH   1   2
BRANCH   1  12
ATOM     12  C   UNL     1      15.055 128.269  59.245  1.00  0.00     0.000 C 
BRANCH  12  13
ATOM     13  C   UNL     1      15.755 128.701  60.544  1.00  0.00    -0.000 C 
BRANCH  13  14
ATOM     14  C   UNL     1      17.092 129.416  60.282  1.00  0.00    -0.000 C 
BRANCH  14  15
ATOM     15  C   UNL     1      17.783 129.872  61.577  1.00  0.00    -0.000 C 
BRANCH  15  16
ATOM     16  C   UNL     1      18.837 128.869  62.075  1.00  0.00    -0.000 C 
BRANCH  16  17
ATOM     17  C   UNL     1      18.286 127.954  63.191  1.00  0.00    -0.000 C 
BRANCH  17  18
ATOM     18  C   UNL     1      18.466 126.454  62.900  1.00  0.00    -0.000 C 
BRANCH  18  19
ATOM     19  C   UNL     1      17.139 125.681  62.906  1.00  0.00    -0.003 C 
ATOM     20  C   UNL     1      16.072 126.432  63.699  1.00  0.00     0.004 C 
ENDBRANCH  18  19
ENDBRANCH  17  18
ENDBRANCH  16  17
ENDBRANCH  15  16
ENDBRANCH  14  15
ENDBRANCH  13  14
ENDBRANCH  12  13
ENDBRANCH   1  12
TORSDOF 16
ENDMDL
MODEL 5
REMARK VINA RESULT:    -3.839      3.544      7.586
REMARK INTER + INTRA:          -9.412
REMARK INTER:                  -7.658
REMARK INTRA:                  -1.754
REMARK UNBOUND:                -1.983
REMARK SMILES CCCCCCCCCCCCCCCCCC(=O)[O-]
REMARK SMILES IDX 10 1 11 2 12 3 13 4 14 5 15 6 16 7 17 8 18 9 19 10 20 11
REMARK SMILES IDX 9 12 8 13 7 14 6 15 5 16 4 17 3 18 2 19 1 20
REMARK H PARENT
REMARK Flexibility Score: inf
ROOT
ATOM      1  C   UNL     1      15.999 128.684  58.919  1.00  0.00     0.000 C 
ENDROOT
BRANCH   1   2
ATOM      2  C   UNL     1      14.829 128.387  57.965  1.00  0.00     0.000 C 
BRANCH   2   3
ATOM      3  C   UNL     1      15.108 128.669  56.473  1.00  0.00     0.000 C 
BRANCH   3   4
ATOM      4  C   UNL     1      16.251 127.844  55.854  1.00  0.00     0.000 C 
BRANCH   4   5
ATOM      5  C   UNL     1      17.212 128.636  54.946  1.00  0.00     0.000 C 
BRANCH   5   6
ATOM      6  C   UNL     1      18.653 128.734  55.492  1.00  0.00     0.000 C 
BRANCH   6   7
ATOM      7  C   UNL     1      18.816 129.840  56.545  1.00  0.00     0.006 C 
BRANCH   7   8
ATOM      8  C   UNL     1      18.544 131.222  55.938  1.00  0.00     0.053 C 
BRANCH   8   9
ATOM      9  C   UNL     1      19.603 131.592  54.942  1.00  0.00     0.041 C 
ATOM     10  O   UNL     1      20.804 131.269  55.135  1.00  0.00    -0.550 OA
ATOM     11  O   UNL     1      19.257 132.277  53.785  1.00  0.00    -0.550 OA
ENDBRANCH   8   9
ENDBRANCH   7   8
ENDBRANCH   6   7
ENDBRANCH   5   6
ENDBRANCH   4   5
ENDBRANCH   3   4
ENDBRANCH   2   3
ENDBRANCH   1   2
BRANCH   1  12
ATOM     12  C   UNL     1      16.282 130.189  59.069  1.00  0.00     0.000 C 
BRANCH  12  13
ATOM     13  C   UNL     1      16.947 130.528  60.413  1.00  0.00    -0.000 C 
BRANCH  13  14
ATOM     14  C   UNL     1      18.413 130.067  60.477  1.00  0.00    -0.000 C 
BRANCH  14  15
ATOM     15  C   UNL     1      18.716 129.226  61.728  1.00  0.00    -0.000 C 
BRANCH  15  16
ATOM     16  C   UNL     1      17.462 128.942  62.572  1.00  0.00    -0.000 C 
BRANCH  16  17
ATOM     17  C   UNL     1      17.155 127.432  62.665  1.00  0.00    -0.000 C 
BRANCH  17  18
ATOM     18  C   UNL     1      18.368 126.581  63.078  1.00  0.00    -0.000 C 
BRANCH  18  19
ATOM     19  C   UNL     1      18.190 125.090  62.757  1.00  0.00    -0.003 C 
ATOM     20  C   UNL     1      19.528 124.440  62.414  1.00  0.00     0.004 C 
ENDBRANCH  18  19
ENDBRANCH  17  18
ENDBRANCH  16  17
ENDBRANCH  15  16
ENDBRANCH  14  15
ENDBRANCH  13  14
ENDBRANCH  12  13
ENDBRANCH   1  12
TORSDOF 16
ENDMDL
MODEL 6
REMARK VINA RESULT:    -3.807      5.460      8.630
REMARK INTER + INTRA:          -9.351
REMARK INTER:                  -6.792
REMARK INTRA:                  -2.559
REMARK UNBOUND:                -1.983
REMARK SMILES CCCCCCCCCCCCCCCCCC(=O)[O-]
REMARK SMILES IDX 10 1 11 2 12 3 13 4 14 5 15 6 16 7 17 8 18 9 19 10 20 11
REMARK SMILES IDX 9 12 8 13 7 14 6 15 5 16 4 17 3 18 2 19 1 20
REMARK H PARENT
REMARK Flexibility Score: inf
ROOT
ATOM      1  C   UNL     1      15.515 128.746  55.076  1.00  0.00     0.000 C 
ENDROOT
BRANCH   1   2
ATOM      2  C   UNL     1      16.345 127.661  54.367  1.00  0.00     0.000 C 
BRANCH   2   3
ATOM      3  C   UNL     1      16.506 127.844  52.843  1.00  0.00     0.000 C 
BRANCH   3   4
ATOM      4  C   UNL     1      17.583 128.858  52.415  1.00  0.00     0.000 C 
BRANCH   4   5
ATOM      5  C   UNL     1      17.054 130.257  52.046  1.00  0.00     0.000 C 
BRANCH   5   6
ATOM      6  C   UNL     1      15.919 130.242  50.998  1.00  0.00     0.000 C 
BRANCH   6   7
ATOM      7  C   UNL     1      16.394 130.671  49.602  1.00  0.00     0.006 C 
BRANCH   7   8
ATOM      8  C   UNL     1      16.586 129.454  48.689  1.00  0.00     0.053 C 
BRANCH   8   9
ATOM      9  C   UNL     1      18.024 129.298  48.293  1.00  0.00     0.041 C 
ATOM     10  O   UNL     1      18.522 130.022  47.392  1.00  0.00    -0.550 OA
ATOM     11  O   UNL     1      18.824 128.363  48.937  1.00  0.00    -0.550 OA
ENDBRANCH   8   9
ENDBRANCH   7   8
ENDBRANCH   6   7
ENDBRANCH   5   6
ENDBRANCH   4   5
ENDBRANCH   3   4
ENDBRANCH   2   3
ENDBRANCH   1   2
BRANCH   1  12
ATOM     12  C   UNL     1      16.384 129.765  55.832  1.00  0.00     0.000 C 
BRANCH  12  13
ATOM     13  C   UNL     1      17.278 129.100  56.891  1.00  0.00    -0.000 C 
BRANCH  13  14
ATOM     14  C   UNL     1      18.714 129.652  56.881  1.00  0.00    -0.000 C 
BRANCH  14  15
ATOM     15  C   UNL     1      19.270 129.828  55.460  1.00  0.00    -0.000 C 
BRANCH  15  16
ATOM     16  C   UNL     1      20.152 131.080  55.315  1.00  0.00    -0.000 C 
BRANCH  16  17
ATOM     17  C   UNL     1      19.627 132.036  54.222  1.00  0.00    -0.000 C 
BRANCH  17  18
ATOM     18  C   UNL     1      18.294 132.712  54.584  1.00  0.00    -0.000 C 
BRANCH  18  19
ATOM     19  C   UNL     1      18.402 133.630  55.810  1.00  0.00    -0.003 C 
ATOM     20  C   UNL     1      17.454 133.177  56.918  1.00  0.00     0.004 C 
ENDBRANCH  18  19
ENDBRANCH  17  18
ENDBRANCH  16  17
ENDBRANCH  15  16
ENDBRANCH  14  15
ENDBRANCH  13  14
ENDBRANCH  12  13
ENDBRANCH   1  12
TORSDOF 16
ENDMDL
MODEL 7
REMARK VINA RESULT:    -3.792      5.313      8.274
REMARK INTER + INTRA:          -9.322
REMARK INTER:                  -6.532
REMARK INTRA:                  -2.789
REMARK UNBOUND:                -1.983
REMARK SMILES CCCCCCCCCCCCCCCCCC(=O)[O-]
REMARK SMILES IDX 10 1 11 2 12 3 13 4 14 5 15 6 16 7 17 8 18 9 19 10 20 11
REMARK SMILES IDX 9 12 8 13 7 14 6 15 5 16 4 17 3 18 2 19 1 20
REMARK H PARENT
REMARK Flexibility Score: inf
ROOT
ATOM      1  C   UNL     1      15.339 129.253  56.975  1.00  0.00     0.000 C 
ENDROOT
BRANCH   1   2
ATOM      2  C   UNL     1      15.267 128.731  55.529  1.00  0.00     0.000 C 
BRANCH   2   3
ATOM      3  C   UNL     1      16.199 127.542  55.210  1.00  0.00     0.000 C 
BRANCH   3   4
ATOM      4  C   UNL     1      17.148 127.756  54.018  1.00  0.00     0.000 C 
BRANCH   4   5
ATOM      5  C   UNL     1      16.455 128.078  52.680  1.00  0.00     0.000 C 
BRANCH   5   6
ATOM      6  C   UNL     1      17.251 129.047  51.778  1.00  0.00     0.000 C 
BRANCH   6   7
ATOM      7  C   UNL     1      16.412 129.604  50.618  1.00  0.00     0.006 C 
BRANCH   7   8
ATOM      8  C   UNL     1      17.309 130.078  49.469  1.00  0.00     0.053 C 
BRANCH   8   9
ATOM      9  C   UNL     1      17.741 128.926  48.611  1.00  0.00     0.041 C 
ATOM     10  O   UNL     1      16.979 128.471  47.719  1.00  0.00    -0.550 OA
ATOM     11  O   UNL     1      19.001 128.368  48.784  1.00  0.00    -0.550 OA
ENDBRANCH   8   9
ENDBRANCH   7   8
ENDBRANCH   6   7
ENDBRANCH   5   6
ENDBRANCH   4   5
ENDBRANCH   3   4
ENDBRANCH   2   3
ENDBRANCH   1   2
BRANCH   1  12
ATOM     12  C   UNL     1      16.687 128.954  57.653  1.00  0.00     0.000 C 
BRANCH  12  13
ATOM     13  C   UNL     1      17.698 130.099  57.476  1.00  0.00    -0.000 C 
BRANCH  13  14
ATOM     14  C   UNL     1      18.950 129.664  56.695  1.00  0.00    -0.000 C 
BRANCH  14  15
ATOM     15  C   UNL     1      19.240 130.572  55.489  1.00  0.00    -0.000 C 
BRANCH  15  16
ATOM     16  C   UNL     1      17.984 131.284  54.963  1.00  0.00    -0.000 C 
BRANCH  16  17
ATOM     17  C   UNL     1      18.270 132.097  53.681  1.00  0.00    -0.000 C 
BRANCH  17  18
ATOM     18  C   UNL     1      16.999 132.589  52.968  1.00  0.00    -0.000 C 
BRANCH  18  19
ATOM     19  C   UNL     1      15.718 131.945  53.518  1.00  0.00    -0.003 C 
ATOM     20  C   UNL     1      14.484 132.480  52.795  1.00  0.00     0.004 C 
ENDBRANCH  18  19
ENDBRANCH  17  18
ENDBRANCH  16  17
ENDBRANCH  15  16
ENDBRANCH  14  15
ENDBRANCH  13  14
ENDBRANCH  12  13
ENDBRANCH   1  12
TORSDOF 16
ENDMDL
MODEL 8
REMARK VINA RESULT:    -3.764      4.177      6.833
REMARK INTER + INTRA:          -9.267
REMARK INTER:                  -6.203
REMARK INTRA:                  -3.064
REMARK UNBOUND:                -1.983
REMARK SMILES CCCCCCCCCCCCCCCCCC(=O)[O-]
REMARK SMILES IDX 10 1 11 2 12 3 13 4 14 5 15 6 16 7 17 8 18 9 19 10 20 11
REMARK SMILES IDX 9 12 8 13 7 14 6 15 5 16 4 17 3 18 2 19 1 20
REMARK H PARENT
REMARK Flexibility Score: inf
ROOT
ATOM      1  C   UNL     1      16.327 127.813  53.330  1.00  0.00     0.000 C 
ENDROOT
BRANCH   1   2
ATOM      2  C   UNL     1      16.960 128.266  52.002  1.00  0.00     0.000 C 
BRANCH   2   3
ATOM      3  C   UNL     1      16.633 129.713  51.576  1.00  0.00     0.000 C 
BRANCH   3   4
ATOM      4  C   UNL     1      15.511 130.394  52.380  1.00  0.00     0.000 C 
BRANCH   4   5
ATOM      5  C   UNL     1      15.844 131.806  52.901  1.00  0.00     0.000 C 
BRANCH   5   6
ATOM      6  C   UNL     1      17.355 132.065  53.088  1.00  0.00     0.000 C 
BRANCH   6   7
ATOM      7  C   UNL     1      17.857 131.669  54.484  1.00  0.00     0.006 C 
BRANCH   7   8
ATOM      8  C   UNL     1      19.255 131.044  54.409  1.00  0.00     0.053 C 
BRANCH   8   9
ATOM      9  C   UNL     1      20.296 131.982  54.944  1.00  0.00     0.041 C 
ATOM     10  O   UNL     1      19.974 132.925  55.712  1.00  0.00    -0.550 OA
ATOM     11  O   UNL     1      21.631 131.799  54.609  1.00  0.00    -0.550 OA
ENDBRANCH   8   9
ENDBRANCH   7   8
ENDBRANCH   6   7
ENDBRANCH   5   6
ENDBRANCH   4   5
ENDBRANCH   3   4
ENDBRANCH   2   3
ENDBRANCH   1   2
BRANCH   1  12
ATOM     12  C   UNL     1      17.278 127.969  54.530  1.00  0.00     0.000 C 
BRANCH  12  13
ATOM     13  C   UNL     1      16.537 127.898  55.875  1.00  0.00    -0.000 C 
BRANCH  13  14
ATOM     14  C   UNL     1      15.114 128.475  55.795  1.00  0.00    -0.000 C 
BRANCH  14  15
ATOM     15  C   UNL     1      15.077 129.994  56.030  1.00  0.00    -0.000 C 
BRANCH  15  16
ATOM     16  C   UNL     1      15.214 130.371  57.514  1.00  0.00    -0.000 C 
BRANCH  16  17
ATOM     17  C   UNL     1      15.953 131.713  57.707  1.00  0.00    -0.000 C 
BRANCH  17  18
ATOM     18  C   UNL     1      17.201 131.605  58.599  1.00  0.00    -0.000 C 
BRANCH  18  19
ATOM     19  C   UNL     1      17.709 130.163  58.744  1.00  0.00    -0.003 C 
ATOM     20  C   UNL     1      18.916 129.914  57.844  1.00  0.00     0.004 C 
ENDBRANCH  18  19
ENDBRANCH  17  18
ENDBRANCH  16  17
ENDBRANCH  15  16
ENDBRANCH  14  15
ENDBRANCH  13  14
ENDBRANCH  12  13
ENDBRANCH   1  12
TORSDOF 16
ENDMDL
MODEL 9
REMARK VINA RESULT:    -3.725      1.398      3.312
REMARK INTER + INTRA:          -9.191
REMARK INTER:                  -6.598
REMARK INTRA:                  -2.593
REMARK UNBOUND:                -1.983
REMARK SMILES CCCCCCCCCCCCCCCCCC(=O)[O-]
REMARK SMILES IDX 10 1 11 2 12 3 13 4 14 5 15 6 16 7 17 8 18 9 19 10 20 11
REMARK SMILES IDX 9 12 8 13 7 14 6 15 5 16 4 17 3 18 2 19 1 20
REMARK H PARENT
REMARK Flexibility Score: inf
ROOT
ATOM      1  C   UNL     1      17.498 132.961  57.065  1.00  0.00     0.000 C 
ENDROOT
BRANCH   1   2
ATOM      2  C   UNL     1      17.307 132.403  58.487  1.00  0.00     0.000 C 
BRANCH   2   3
ATOM      3  C   UNL     1      16.583 131.043  58.570  1.00  0.00     0.000 C 
BRANCH   3   4
ATOM      4  C   UNL     1      17.374 129.921  59.267  1.00  0.00     0.000 C 
BRANCH   4   5
ATOM      5  C   UNL     1      18.796 130.307  59.716  1.00  0.00     0.000 C 
BRANCH   5   6
ATOM      6  C   UNL     1      19.371 129.400  60.826  1.00  0.00     0.000 C 
BRANCH   6   7
ATOM      7  C   UNL     1      18.505 129.393  62.095  1.00  0.00     0.006 C 
BRANCH   7   8
ATOM      8  C   UNL     1      18.531 128.016  62.770  1.00  0.00     0.053 C 
BRANCH   8   9
ATOM      9  C   UNL     1      17.206 127.326  62.639  1.00  0.00     0.041 C 
ATOM     10  O   UNL     1      16.221 127.921  62.130  1.00  0.00    -0.550 OA
ATOM     11  O   UNL     1      17.065 126.010  63.063  1.00  0.00    -0.550 OA
ENDBRANCH   8   9
ENDBRANCH   7   8
ENDBRANCH   6   7
ENDBRANCH   5   6
ENDBRANCH   4   5
ENDBRANCH   3   4
ENDBRANCH   2   3
ENDBRANCH   1   2
BRANCH   1  12
ATOM     12  C   UNL     1      17.309 131.894  55.973  1.00  0.00     0.000 C 
BRANCH  12  13
ATOM     13  C   UNL     1      18.586 131.671  55.147  1.00  0.00    -0.000 C 
BRANCH  13  14
ATOM     14  C   UNL     1      19.602 130.765  55.866  1.00  0.00    -0.000 C 
BRANCH  14  15
ATOM     15  C   UNL     1      19.071 129.341  56.089  1.00  0.00    -0.000 C 
BRANCH  15  16
ATOM     16  C   UNL     1      18.752 128.610  54.773  1.00  0.00    -0.000 C 
BRANCH  16  17
ATOM     17  C   UNL     1      17.249 128.285  54.639  1.00  0.00    -0.000 C 
BRANCH  17  18
ATOM     18  C   UNL     1      16.606 127.796  55.948  1.00  0.00    -0.000 C 
BRANCH  18  19
ATOM     19  C   UNL     1      15.292 128.520  56.276  1.00  0.00    -0.003 C 
ATOM     20  C   UNL     1      14.753 129.257  55.052  1.00  0.00     0.004 C 
ENDBRANCH  18  19
ENDBRANCH  17  18
ENDBRANCH  16  17
ENDBRANCH  15  16
ENDBRANCH  14  15
ENDBRANCH  13  14
ENDBRANCH  12  13
ENDBRANCH   1  12
TORSDOF 16
ENDMDL
