MODEL 1
REMARK VINA RESULT:    -7.524      0.000      0.000
REMARK INTER + INTRA:         -21.862
REMARK INTER:                 -19.841
REMARK INTRA:                  -2.021
REMARK UNBOUND:                -2.021
REMARK SMILES CCCCCCCCCCCCCCCCCCCCCCCCCCCCCC(=O)[O-]
REMARK SMILES IDX 16 1 17 2 18 3 19 4 20 5 21 6 22 7 23 8 24 9 25 10 26 11
REMARK SMILES IDX 27 12 28 13 29 14 30 15 31 16 32 17 15 18 14 19 13 20 12 21
REMARK SMILES IDX 11 22 10 23 9 24 8 25 7 26 6 27 5 28 4 29 3 30 2 31 1 32
REMARK H PARENT
REMARK Flexibility Score: inf
ROOT
ATOM      1  C   UNL     1      -2.226  -0.823   7.742  1.00  0.00     0.000 C 
ENDROOT
BRANCH   1   2
ATOM      2  C   UNL     1      -2.040  -2.243   7.177  1.00  0.00     0.000 C 
BRANCH   2   3
ATOM      3  C   UNL     1      -3.211  -2.694   6.285  1.00  0.00     0.000 C 
BRANCH   3   4
ATOM      4  C   UNL     1      -4.138  -1.563   5.804  1.00  0.00     0.000 C 
BRANCH   4   5
ATOM      5  C   UNL     1      -4.799  -1.868   4.449  1.00  0.00     0.000 C 
BRANCH   5   6
ATOM      6  C   UNL     1      -6.225  -1.303   4.346  1.00  0.00     0.000 C 
BRANCH   6   7
ATOM      7  C   UNL     1      -6.380  -0.312   3.182  1.00  0.00     0.000 C 
BRANCH   7   8
ATOM      8  C   UNL     1      -5.285   0.765   3.221  1.00  0.00     0.000 C 
BRANCH   8   9
ATOM      9  C   UNL     1      -4.305   0.638   2.043  1.00  0.00     0.000 C 
BRANCH   9  10
ATOM     10  C   UNL     1      -5.024   0.371   0.708  1.00  0.00     0.000 C 
BRANCH  10  11
ATOM     11  C   UNL     1      -4.059  -0.051  -0.410  1.00  0.00     0.000 C 
BRANCH  11  12
ATOM     12  C   UNL     1      -4.615   0.232  -1.816  1.00  0.00     0.000 C 
BRANCH  12  13
ATOM     13  C   UNL     1      -3.564   0.027  -2.920  1.00  0.00     0.006 C 
BRANCH  13  14
ATOM     14  C   UNL     1      -2.762  -1.269  -2.736  1.00  0.00     0.053 C 
BRANCH  14  15
ATOM     15  C   UNL     1      -3.576  -2.458  -3.143  1.00  0.00     0.041 C 
ATOM     16  O   UNL     1      -3.222  -3.615  -2.795  1.00  0.00    -0.550 OA
ATOM     17  O   UNL     1      -4.723  -2.289  -3.908  1.00  0.00    -0.550 OA
ENDBRANCH  14  15
ENDBRANCH  13  14
ENDBRANCH  12  13
ENDBRANCH  11  12
ENDBRANCH  10  11
ENDBRANCH   9  10
ENDBRANCH   8   9
ENDBRANCH   7   8
ENDBRANCH   6   7
ENDBRANCH   5   6
ENDBRANCH   4   5
ENDBRANCH   3   4
ENDBRANCH   2   3
ENDBRANCH   1   2
BRANCH   1  18
ATOM     18  C   UNL     1      -1.022  -0.355   8.576  1.00  0.00     0.000 C 
BRANCH  18  19
ATOM     19  C   UNL     1      -1.149   1.113   9.024  1.00  0.00     0.000 C 
BRANCH  19  20
ATOM     20  C   UNL     1      -2.609   1.590   9.070  1.00  0.00     0.000 C 
BRANCH  20  21
ATOM     21  C   UNL     1      -2.793   2.987   8.449  1.00  0.00     0.000 C 
BRANCH  21  22
ATOM     22  C   UNL     1      -2.882   2.953   6.912  1.00  0.00     0.000 C 
BRANCH  22  23
ATOM     23  C   UNL     1      -4.041   3.769   6.311  1.00  0.00     0.000 C 
BRANCH  23  24
ATOM     24  C   UNL     1      -3.911   3.962   4.790  1.00  0.00    -0.000 C 
BRANCH  24  25
ATOM     25  C   UNL     1      -3.308   5.327   4.419  1.00  0.00    -0.000 C 
BRANCH  25  26
ATOM     26  C   UNL     1      -4.361   6.447   4.386  1.00  0.00    -0.000 C 
BRANCH  26  27
ATOM     27  C   UNL     1      -5.729   5.956   3.887  1.00  0.00    -0.000 C 
BRANCH  27  28
ATOM     28  C   UNL     1      -6.137   6.601   2.553  1.00  0.00    -0.000 C 
BRANCH  28  29
ATOM     29  C   UNL     1      -7.388   5.958   1.934  1.00  0.00    -0.000 C 
BRANCH  29  30
ATOM     30  C   UNL     1      -8.575   5.846   2.914  1.00  0.00    -0.000 C 
BRANCH  30  31
ATOM     31  C   UNL     1      -9.913   5.662   2.185  1.00  0.00    -0.003 C 
ATOM     32  C   UNL     1      -9.771   5.941   0.691  1.00  0.00     0.004 C 
ENDBRANCH  30  31
ENDBRANCH  29  30
ENDBRANCH  28  29
ENDBRANCH  27  28
ENDBRANCH  26  27
ENDBRANCH  25  26
ENDBRANCH  24  25
ENDBRANCH  23  24
ENDBRANCH  22  23
ENDBRANCH  21  22
ENDBRANCH  20  21
ENDBRANCH  19  20
ENDBRANCH  18  19
ENDBRANCH   1  18
TORSDOF 28
ENDMDL
MODEL 2
REMARK VINA RESULT:    -7.406      1.709      2.897
REMARK INTER + INTRA:         -21.550
REMARK INTER:                 -19.030
REMARK INTRA:                  -2.521
REMARK UNBOUND:                -2.021
REMARK SMILES CCCCCCCCCCCCCCCCCCCCCCCCCCCCCC(=O)[O-]
REMARK SMILES IDX 16 1 17 2 18 3 19 4 20 5 21 6 22 7 23 8 24 9 25 10 26 11
REMARK SMILES IDX 27 12 28 13 29 14 30 15 31 16 32 17 15 18 14 19 13 20 12 21
REMARK SMILES IDX 11 22 10 23 9 24 8 25 7 26 6 27 5 28 4 29 3 30 2 31 1 32
REMARK H PARENT
REMARK Flexibility Score: inf
ROOT
ATOM      1  C   UNL     1      -3.214  -1.007   6.692  1.00  0.00     0.000 C 
ENDROOT
BRANCH   1   2
ATOM      2  C   UNL     1      -4.026  -2.078   5.941  1.00  0.00     0.000 C 
BRANCH   2   3
ATOM      3  C   UNL     1      -4.357  -1.676   4.492  1.00  0.00     0.000 C 
BRANCH   3   4
ATOM      4  C   UNL     1      -4.831  -0.223   4.311  1.00  0.00     0.000 C 
BRANCH   4   5
ATOM      5  C   UNL     1      -5.452   0.035   2.927  1.00  0.00     0.000 C 
BRANCH   5   6
ATOM      6  C   UNL     1      -4.504   0.795   1.986  1.00  0.00     0.000 C 
BRANCH   6   7
ATOM      7  C   UNL     1      -4.177  -0.002   0.714  1.00  0.00     0.000 C 
BRANCH   7   8
ATOM      8  C   UNL     1      -5.037   0.466  -0.471  1.00  0.00     0.000 C 
BRANCH   8   9
ATOM      9  C   UNL     1      -4.724  -0.316  -1.758  1.00  0.00     0.000 C 
BRANCH   9  10
ATOM     10  C   UNL     1      -3.814   0.473  -2.717  1.00  0.00     0.000 C 
BRANCH  10  11
ATOM     11  C   UNL     1      -2.749  -0.411  -3.382  1.00  0.00     0.000 C 
BRANCH  11  12
ATOM     12  C   UNL     1      -2.541  -1.749  -2.650  1.00  0.00     0.000 C 
BRANCH  12  13
ATOM     13  C   UNL     1      -1.829  -2.796  -3.522  1.00  0.00     0.006 C 
BRANCH  13  14
ATOM     14  C   UNL     1      -1.048  -2.163  -4.683  1.00  0.00     0.053 C 
BRANCH  14  15
ATOM     15  C   UNL     1      -0.419  -3.220  -5.536  1.00  0.00     0.041 C 
ATOM     16  O   UNL     1      -0.228  -4.376  -5.074  1.00  0.00    -0.550 OA
ATOM     17  O   UNL     1      -0.040  -2.928  -6.841  1.00  0.00    -0.550 OA
ENDBRANCH  14  15
ENDBRANCH  13  14
ENDBRANCH  12  13
ENDBRANCH  11  12
ENDBRANCH  10  11
ENDBRANCH   9  10
ENDBRANCH   8   9
ENDBRANCH   7   8
ENDBRANCH   6   7
ENDBRANCH   5   6
ENDBRANCH   4   5
ENDBRANCH   3   4
ENDBRANCH   2   3
ENDBRANCH   1   2
BRANCH   1  18
ATOM     18  C   UNL     1      -1.964  -1.584   7.376  1.00  0.00     0.000 C 
BRANCH  18  19
ATOM     19  C   UNL     1      -1.286  -0.571   8.318  1.00  0.00     0.000 C 
BRANCH  19  20
ATOM     20  C   UNL     1      -2.275   0.460   8.885  1.00  0.00     0.000 C 
BRANCH  20  21
ATOM     21  C   UNL     1      -1.825   1.910   8.632  1.00  0.00     0.000 C 
BRANCH  21  22
ATOM     22  C   UNL     1      -2.980   2.923   8.730  1.00  0.00     0.000 C 
BRANCH  22  23
ATOM     23  C   UNL     1      -3.596   3.339   7.381  1.00  0.00     0.000 C 
BRANCH  23  24
ATOM     24  C   UNL     1      -2.830   2.772   6.173  1.00  0.00    -0.000 C 
BRANCH  24  25
ATOM     25  C   UNL     1      -3.375   3.295   4.833  1.00  0.00    -0.000 C 
BRANCH  25  26
ATOM     26  C   UNL     1      -4.534   4.289   5.016  1.00  0.00    -0.000 C 
BRANCH  26  27
ATOM     27  C   UNL     1      -4.214   5.680   4.446  1.00  0.00    -0.000 C 
BRANCH  27  28
ATOM     28  C   UNL     1      -5.477   6.519   4.194  1.00  0.00    -0.000 C 
BRANCH  28  29
ATOM     29  C   UNL     1      -6.621   5.706   3.568  1.00  0.00    -0.000 C 
BRANCH  29  30
ATOM     30  C   UNL     1      -7.122   6.279   2.225  1.00  0.00    -0.000 C 
BRANCH  30  31
ATOM     31  C   UNL     1      -6.056   7.134   1.526  1.00  0.00    -0.003 C 
ATOM     32  C   UNL     1      -5.497   6.423   0.297  1.00  0.00     0.004 C 
ENDBRANCH  30  31
ENDBRANCH  29  30
ENDBRANCH  28  29
ENDBRANCH  27  28
ENDBRANCH  26  27
ENDBRANCH  25  26
ENDBRANCH  24  25
ENDBRANCH  23  24
ENDBRANCH  22  23
ENDBRANCH  21  22
ENDBRANCH  20  21
ENDBRANCH  19  20
ENDBRANCH  18  19
ENDBRANCH   1  18
TORSDOF 28
ENDMDL
MODEL 3
REMARK VINA RESULT:    -7.313      3.005      8.318
REMARK INTER + INTRA:         -21.305
REMARK INTER:                 -19.019
REMARK INTRA:                  -2.287
REMARK UNBOUND:                -2.021
REMARK SMILES CCCCCCCCCCCCCCCCCCCCCCCCCCCCCC(=O)[O-]
REMARK SMILES IDX 16 1 17 2 18 3 19 4 20 5 21 6 22 7 23 8 24 9 25 10 26 11
REMARK SMILES IDX 27 12 28 13 29 14 30 15 31 16 32 17 15 18 14 19 13 20 12 21
REMARK SMILES IDX 11 22 10 23 9 24 8 25 7 26 6 27 5 28 4 29 3 30 2 31 1 32
REMARK H PARENT
REMARK Flexibility Score: inf
ROOT
ATOM      1  C   UNL     1      -3.548  -1.570   5.620  1.00  0.00     0.000 C 
ENDROOT
BRANCH   1   2
ATOM      2  C   UNL     1      -2.823  -2.482   6.626  1.00  0.00     0.000 C 
BRANCH   2   3
ATOM      3  C   UNL     1      -1.779  -1.732   7.474  1.00  0.00     0.000 C 
BRANCH   3   4
ATOM      4  C   UNL     1      -2.262  -0.401   8.077  1.00  0.00     0.000 C 
BRANCH   4   5
ATOM      5  C   UNL     1      -1.174   0.314   8.896  1.00  0.00     0.000 C 
BRANCH   5   6
ATOM      6  C   UNL     1      -1.269   1.845   8.797  1.00  0.00     0.000 C 
BRANCH   6   7
ATOM      7  C   UNL     1      -2.689   2.363   9.077  1.00  0.00     0.000 C 
BRANCH   7   8
ATOM      8  C   UNL     1      -3.211   3.213   7.909  1.00  0.00     0.000 C 
BRANCH   8   9
ATOM      9  C   UNL     1      -3.084   2.484   6.560  1.00  0.00     0.000 C 
BRANCH   9  10
ATOM     10  C   UNL     1      -2.971   3.460   5.375  1.00  0.00     0.000 C 
BRANCH  10  11
ATOM     11  C   UNL     1      -4.169   4.417   5.281  1.00  0.00     0.000 C 
BRANCH  11  12
ATOM     12  C   UNL     1      -3.821   5.740   4.575  1.00  0.00     0.000 C 
BRANCH  12  13
ATOM     13  C   UNL     1      -5.062   6.456   4.017  1.00  0.00     0.006 C 
BRANCH  13  14
ATOM     14  C   UNL     1      -6.314   5.567   4.037  1.00  0.00     0.053 C 
BRANCH  14  15
ATOM     15  C   UNL     1      -7.216   5.897   2.889  1.00  0.00     0.041 C 
ATOM     16  O   UNL     1      -8.416   5.517   2.898  1.00  0.00    -0.550 OA
ATOM     17  O   UNL     1      -6.731   6.621   1.807  1.00  0.00    -0.550 OA
ENDBRANCH  14  15
ENDBRANCH  13  14
ENDBRANCH  12  13
ENDBRANCH  11  12
ENDBRANCH  10  11
ENDBRANCH   9  10
ENDBRANCH   8   9
ENDBRANCH   7   8
ENDBRANCH   6   7
ENDBRANCH   5   6
ENDBRANCH   4   5
ENDBRANCH   3   4
ENDBRANCH   2   3
ENDBRANCH   1   2
BRANCH   1  18
ATOM     18  C   UNL     1      -4.706  -2.284   4.903  1.00  0.00     0.000 C 
BRANCH  18  19
ATOM     19  C   UNL     1      -6.025  -1.493   4.978  1.00  0.00     0.000 C 
BRANCH  19  20
ATOM     20  C   UNL     1      -6.627  -1.219   3.590  1.00  0.00     0.000 C 
BRANCH  20  21
ATOM     21  C   UNL     1      -6.614   0.276   3.227  1.00  0.00     0.000 C 
BRANCH  21  22
ATOM     22  C   UNL     1      -5.195   0.874   3.196  1.00  0.00     0.000 C 
BRANCH  22  23
ATOM     23  C   UNL     1      -4.279   0.319   2.090  1.00  0.00     0.000 C 
BRANCH  23  24
ATOM     24  C   UNL     1      -4.911   0.407   0.690  1.00  0.00    -0.000 C 
BRANCH  24  25
ATOM     25  C   UNL     1      -3.977  -0.124  -0.411  1.00  0.00    -0.000 C 
BRANCH  25  26
ATOM     26  C   UNL     1      -4.606  -0.032  -1.811  1.00  0.00    -0.000 C 
BRANCH  26  27
ATOM     27  C   UNL     1      -3.609   0.451  -2.876  1.00  0.00    -0.000 C 
BRANCH  27  28
ATOM     28  C   UNL     1      -3.267  -0.641  -3.903  1.00  0.00    -0.000 C 
BRANCH  28  29
ATOM     29  C   UNL     1      -3.179  -2.043  -3.279  1.00  0.00    -0.000 C 
BRANCH  29  30
ATOM     30  C   UNL     1      -1.851  -2.769  -3.577  1.00  0.00    -0.000 C 
BRANCH  30  31
ATOM     31  C   UNL     1      -1.142  -2.198  -4.814  1.00  0.00    -0.003 C 
ATOM     32  C   UNL     1      -0.446  -3.300  -5.608  1.00  0.00     0.004 C 
ENDBRANCH  30  31
ENDBRANCH  29  30
ENDBRANCH  28  29
ENDBRANCH  27  28
ENDBRANCH  26  27
ENDBRANCH  25  26
ENDBRANCH  24  25
ENDBRANCH  23  24
ENDBRANCH  22  23
ENDBRANCH  21  22
ENDBRANCH  20  21
ENDBRANCH  19  20
ENDBRANCH  18  19
ENDBRANCH   1  18
TORSDOF 28
ENDMDL
MODEL 4
REMARK VINA RESULT:    -7.299      1.134      2.336
REMARK INTER + INTRA:         -21.268
REMARK INTER:                 -18.909
REMARK INTRA:                  -2.359
REMARK UNBOUND:                -2.021
REMARK SMILES CCCCCCCCCCCCCCCCCCCCCCCCCCCCCC(=O)[O-]
REMARK SMILES IDX 16 1 17 2 18 3 19 4 20 5 21 6 22 7 23 8 24 9 25 10 26 11
REMARK SMILES IDX 27 12 28 13 29 14 30 15 31 16 32 17 15 18 14 19 13 20 12 21
REMARK SMILES IDX 11 22 10 23 9 24 8 25 7 26 6 27 5 28 4 29 3 30 2 31 1 32
REMARK H PARENT
REMARK Flexibility Score: inf
ROOT
ATOM      1  C   UNL     1      -2.642  -1.988   5.822  1.00  0.00     0.000 C 
ENDROOT
BRANCH   1   2
ATOM      2  C   UNL     1      -3.992  -2.675   6.098  1.00  0.00     0.000 C 
BRANCH   2   3
ATOM      3  C   UNL     1      -4.937  -2.656   4.883  1.00  0.00     0.000 C 
BRANCH   3   4
ATOM      4  C   UNL     1      -6.101  -1.652   4.977  1.00  0.00     0.000 C 
BRANCH   4   5
ATOM      5  C   UNL     1      -6.731  -1.338   3.610  1.00  0.00     0.000 C 
BRANCH   5   6
ATOM      6  C   UNL     1      -6.487   0.114   3.166  1.00  0.00     0.000 C 
BRANCH   6   7
ATOM      7  C   UNL     1      -5.044   0.571   3.428  1.00  0.00     0.000 C 
BRANCH   7   8
ATOM      8  C   UNL     1      -4.153   0.326   2.200  1.00  0.00     0.000 C 
BRANCH   8   9
ATOM      9  C   UNL     1      -4.853   0.718   0.888  1.00  0.00     0.000 C 
BRANCH   9  10
ATOM     10  C   UNL     1      -4.459  -0.199  -0.284  1.00  0.00     0.000 C 
BRANCH  10  11
ATOM     11  C   UNL     1      -4.885   0.367  -1.646  1.00  0.00     0.000 C 
BRANCH  11  12
ATOM     12  C   UNL     1      -3.734   0.390  -2.669  1.00  0.00     0.000 C 
BRANCH  12  13
ATOM     13  C   UNL     1      -3.845  -0.736  -3.709  1.00  0.00     0.006 C 
BRANCH  13  14
ATOM     14  C   UNL     1      -2.683  -1.736  -3.621  1.00  0.00     0.053 C 
BRANCH  14  15
ATOM     15  C   UNL     1      -3.180  -3.093  -3.229  1.00  0.00     0.041 C 
ATOM     16  O   UNL     1      -4.343  -3.457  -3.546  1.00  0.00    -0.550 OA
ATOM     17  O   UNL     1      -2.360  -3.955  -2.511  1.00  0.00    -0.550 OA
ENDBRANCH  14  15
ENDBRANCH  13  14
ENDBRANCH  12  13
ENDBRANCH  11  12
ENDBRANCH  10  11
ENDBRANCH   9  10
ENDBRANCH   8   9
ENDBRANCH   7   8
ENDBRANCH   6   7
ENDBRANCH   5   6
ENDBRANCH   4   5
ENDBRANCH   3   4
ENDBRANCH   2   3
ENDBRANCH   1   2
BRANCH   1  18
ATOM     18  C   UNL     1      -1.758  -1.895   7.076  1.00  0.00     0.000 C 
BRANCH  18  19
ATOM     19  C   UNL     1      -2.143  -0.713   7.984  1.00  0.00     0.000 C 
BRANCH  19  20
ATOM     20  C   UNL     1      -0.971  -0.234   8.856  1.00  0.00     0.000 C 
BRANCH  20  21
ATOM     21  C   UNL     1      -1.232   1.143   9.492  1.00  0.00     0.000 C 
BRANCH  21  22
ATOM     22  C   UNL     1      -1.618   2.217   8.458  1.00  0.00     0.000 C 
BRANCH  22  23
ATOM     23  C   UNL     1      -3.004   2.855   8.669  1.00  0.00     0.000 C 
BRANCH  23  24
ATOM     24  C   UNL     1      -3.605   3.422   7.371  1.00  0.00    -0.000 C 
BRANCH  24  25
ATOM     25  C   UNL     1      -3.215   2.599   6.133  1.00  0.00    -0.000 C 
BRANCH  25  26
ATOM     26  C   UNL     1      -3.115   3.458   4.861  1.00  0.00    -0.000 C 
BRANCH  26  27
ATOM     27  C   UNL     1      -3.585   4.904   5.088  1.00  0.00    -0.000 C 
BRANCH  27  28
ATOM     28  C   UNL     1      -5.110   5.053   4.975  1.00  0.00    -0.000 C 
BRANCH  28  29
ATOM     29  C   UNL     1      -5.536   6.029   3.866  1.00  0.00    -0.000 C 
BRANCH  29  30
ATOM     30  C   UNL     1      -6.726   5.526   3.022  1.00  0.00    -0.000 C 
BRANCH  30  31
ATOM     31  C   UNL     1      -6.931   6.364   1.752  1.00  0.00    -0.003 C 
ATOM     32  C   UNL     1      -5.660   7.121   1.379  1.00  0.00     0.004 C 
ENDBRANCH  30  31
ENDBRANCH  29  30
ENDBRANCH  28  29
ENDBRANCH  27  28
ENDBRANCH  26  27
ENDBRANCH  25  26
ENDBRANCH  24  25
ENDBRANCH  23  24
ENDBRANCH  22  23
ENDBRANCH  21  22
ENDBRANCH  20  21
ENDBRANCH  19  20
ENDBRANCH  18  19
ENDBRANCH   1  18
TORSDOF 28
ENDMDL
MODEL 5
REMARK VINA RESULT:    -7.235      2.982      5.409
REMARK INTER + INTRA:         -21.100
REMARK INTER:                 -18.875
REMARK INTRA:                  -2.225
REMARK UNBOUND:                -2.021
REMARK SMILES CCCCCCCCCCCCCCCCCCCCCCCCCCCCCC(=O)[O-]
REMARK SMILES IDX 16 1 17 2 18 3 19 4 20 5 21 6 22 7 23 8 24 9 25 10 26 11
REMARK SMILES IDX 27 12 28 13 29 14 30 15 31 16 32 17 15 18 14 19 13 20 12 21
REMARK SMILES IDX 11 22 10 23 9 24 8 25 7 26 6 27 5 28 4 29 3 30 2 31 1 32
REMARK H PARENT
REMARK Flexibility Score: inf
ROOT
ATOM      1  C   UNL     1      -4.790  -0.437   4.056  1.00  0.00     0.000 C 
ENDROOT
BRANCH   1   2
ATOM      2  C   UNL     1      -4.262   0.487   2.944  1.00  0.00     0.000 C 
BRANCH   2   3
ATOM      3  C   UNL     1      -5.115   0.436   1.663  1.00  0.00     0.000 C 
BRANCH   3   4
ATOM      4  C   UNL     1      -4.346   0.067   0.381  1.00  0.00     0.000 C 
BRANCH   4   5
ATOM      5  C   UNL     1      -5.094   0.472  -0.901  1.00  0.00     0.000 C 
BRANCH   5   6
ATOM      6  C   UNL     1      -4.319   0.106  -2.177  1.00  0.00     0.000 C 
BRANCH   6   7
ATOM      7  C   UNL     1      -4.686  -1.290  -2.704  1.00  0.00     0.000 C 
BRANCH   7   8
ATOM      8  C   UNL     1      -3.697  -1.752  -3.786  1.00  0.00     0.000 C 
BRANCH   8   9
ATOM      9  C   UNL     1      -2.691  -0.650  -4.160  1.00  0.00     0.000 C 
BRANCH   9  10
ATOM     10  C   UNL     1      -1.390  -1.221  -4.751  1.00  0.00     0.000 C 
BRANCH  10  11
ATOM     11  C   UNL     1      -1.263  -2.738  -4.548  1.00  0.00     0.000 C 
BRANCH  11  12
ATOM     12  C   UNL     1      -0.043  -3.337  -5.269  1.00  0.00     0.000 C 
BRANCH  12  13
ATOM     13  C   UNL     1      -0.432  -4.140  -6.521  1.00  0.00     0.006 C 
BRANCH  13  14
ATOM     14  C   UNL     1       0.783  -4.516  -7.381  1.00  0.00     0.053 C 
BRANCH  14  15
ATOM     15  C   UNL     1       1.291  -3.323  -8.130  1.00  0.00     0.041 C 
ATOM     16  O   UNL     1       0.496  -2.607  -8.794  1.00  0.00    -0.550 OA
ATOM     17  O   UNL     1       2.643  -3.004  -8.098  1.00  0.00    -0.550 OA
ENDBRANCH  14  15
ENDBRANCH  13  14
ENDBRANCH  12  13
ENDBRANCH  11  12
ENDBRANCH  10  11
ENDBRANCH   9  10
ENDBRANCH   8   9
ENDBRANCH   7   8
ENDBRANCH   6   7
ENDBRANCH   5   6
ENDBRANCH   4   5
ENDBRANCH   3   4
ENDBRANCH   2   3
ENDBRANCH   1   2
BRANCH   1  18
ATOM     18  C   UNL     1      -3.905  -1.676   4.266  1.00  0.00     0.000 C 
BRANCH  18  19
ATOM     19  C   UNL     1      -3.671  -1.990   5.755  1.00  0.00     0.000 C 
BRANCH  19  20
ATOM     20  C   UNL     1      -3.544  -0.720   6.612  1.00  0.00     0.000 C 
BRANCH  20  21
ATOM     21  C   UNL     1      -2.253  -0.700   7.450  1.00  0.00     0.000 C 
BRANCH  21  22
ATOM     22  C   UNL     1      -2.308   0.308   8.612  1.00  0.00     0.000 C 
BRANCH  22  23
ATOM     23  C   UNL     1      -1.811   1.724   8.269  1.00  0.00     0.000 C 
BRANCH  23  24
ATOM     24  C   UNL     1      -2.819   2.822   8.652  1.00  0.00    -0.000 C 
BRANCH  24  25
ATOM     25  C   UNL     1      -3.643   3.310   7.449  1.00  0.00    -0.000 C 
BRANCH  25  26
ATOM     26  C   UNL     1      -2.999   2.936   6.103  1.00  0.00    -0.000 C 
BRANCH  26  27
ATOM     27  C   UNL     1      -3.688   3.618   4.910  1.00  0.00    -0.000 C 
BRANCH  27  28
ATOM     28  C   UNL     1      -4.037   5.088   5.191  1.00  0.00    -0.000 C 
BRANCH  28  29
ATOM     29  C   UNL     1      -5.508   5.422   4.895  1.00  0.00    -0.000 C 
BRANCH  29  30
ATOM     30  C   UNL     1      -5.998   4.898   3.529  1.00  0.00    -0.000 C 
BRANCH  30  31
ATOM     31  C   UNL     1      -6.451   6.034   2.601  1.00  0.00    -0.003 C 
ATOM     32  C   UNL     1      -7.955   5.974   2.349  1.00  0.00     0.004 C 
ENDBRANCH  30  31
ENDBRANCH  29  30
ENDBRANCH  28  29
ENDBRANCH  27  28
ENDBRANCH  26  27
ENDBRANCH  25  26
ENDBRANCH  24  25
ENDBRANCH  23  24
ENDBRANCH  22  23
ENDBRANCH  21  22
ENDBRANCH  20  21
ENDBRANCH  19  20
ENDBRANCH  18  19
ENDBRANCH   1  18
TORSDOF 28
ENDMDL
MODEL 6
REMARK VINA RESULT:    -7.147      2.979      7.908
REMARK INTER + INTRA:         -20.868
REMARK INTER:                 -18.450
REMARK INTRA:                  -2.418
REMARK UNBOUND:                -2.021
REMARK SMILES CCCCCCCCCCCCCCCCCCCCCCCCCCCCCC(=O)[O-]
REMARK SMILES IDX 16 1 17 2 18 3 19 4 20 5 21 6 22 7 23 8 24 9 25 10 26 11
REMARK SMILES IDX 27 12 28 13 29 14 30 15 31 16 32 17 15 18 14 19 13 20 12 21
REMARK SMILES IDX 11 22 10 23 9 24 8 25 7 26 6 27 5 28 4 29 3 30 2 31 1 32
REMARK H PARENT
REMARK Flexibility Score: inf
ROOT
ATOM      1  C   UNL     1      -3.064  -1.256   6.925  1.00  0.00     0.000 C 
ENDROOT
BRANCH   1   2
ATOM      2  C   UNL     1      -1.732  -1.398   7.684  1.00  0.00     0.000 C 
BRANCH   2   3
ATOM      3  C   UNL     1      -1.379  -0.153   8.518  1.00  0.00     0.000 C 
BRANCH   3   4
ATOM      4  C   UNL     1      -2.534   0.844   8.723  1.00  0.00     0.000 C 
BRANCH   4   5
ATOM      5  C   UNL     1      -2.140   2.292   8.386  1.00  0.00     0.000 C 
BRANCH   5   6
ATOM      6  C   UNL     1      -3.222   3.025   7.576  1.00  0.00     0.000 C 
BRANCH   6   7
ATOM      7  C   UNL     1      -3.298   2.534   6.122  1.00  0.00     0.000 C 
BRANCH   7   8
ATOM      8  C   UNL     1      -2.859   3.632   5.141  1.00  0.00     0.000 C 
BRANCH   8   9
ATOM      9  C   UNL     1      -4.039   4.182   4.322  1.00  0.00     0.000 C 
BRANCH   9  10
ATOM     10  C   UNL     1      -4.860   5.223   5.104  1.00  0.00     0.000 C 
BRANCH  10  11
ATOM     11  C   UNL     1      -6.123   5.667   4.351  1.00  0.00     0.000 C 
BRANCH  11  12
ATOM     12  C   UNL     1      -5.831   6.114   2.908  1.00  0.00     0.000 C 
BRANCH  12  13
ATOM     13  C   UNL     1      -7.112   6.371   2.097  1.00  0.00     0.006 C 
BRANCH  13  14
ATOM     14  C   UNL     1      -8.372   5.857   2.808  1.00  0.00     0.053 C 
BRANCH  14  15
ATOM     15  C   UNL     1      -9.556   5.911   1.894  1.00  0.00     0.041 C 
ATOM     16  O   UNL     1     -10.704   6.139   2.358  1.00  0.00    -0.550 OA
ATOM     17  O   UNL     1      -9.393   5.706   0.529  1.00  0.00    -0.550 OA
ENDBRANCH  14  15
ENDBRANCH  13  14
ENDBRANCH  12  13
ENDBRANCH  11  12
ENDBRANCH  10  11
ENDBRANCH   9  10
ENDBRANCH   8   9
ENDBRANCH   7   8
ENDBRANCH   6   7
ENDBRANCH   5   6
ENDBRANCH   4   5
ENDBRANCH   3   4
ENDBRANCH   2   3
ENDBRANCH   1   2
BRANCH   1  18
ATOM     18  C   UNL     1      -3.475  -2.549   6.203  1.00  0.00     0.000 C 
BRANCH  18  19
ATOM     19  C   UNL     1      -4.270  -2.279   4.912  1.00  0.00     0.000 C 
BRANCH  19  20
ATOM     20  C   UNL     1      -5.422  -1.284   5.127  1.00  0.00     0.000 C 
BRANCH  20  21
ATOM     21  C   UNL     1      -6.406  -1.255   3.944  1.00  0.00     0.000 C 
BRANCH  21  22
ATOM     22  C   UNL     1      -6.358   0.066   3.155  1.00  0.00     0.000 C 
BRANCH  22  23
ATOM     23  C   UNL     1      -4.953   0.672   2.986  1.00  0.00     0.000 C 
BRANCH  23  24
ATOM     24  C   UNL     1      -4.257   0.219   1.690  1.00  0.00    -0.000 C 
BRANCH  24  25
ATOM     25  C   UNL     1      -5.211   0.205   0.484  1.00  0.00    -0.000 C 
BRANCH  25  26
ATOM     26  C   UNL     1      -4.462   0.176  -0.858  1.00  0.00    -0.000 C 
BRANCH  26  27
ATOM     27  C   UNL     1      -5.336  -0.346  -2.010  1.00  0.00    -0.000 C 
BRANCH  27  28
ATOM     28  C   UNL     1      -4.692  -1.530  -2.749  1.00  0.00    -0.000 C 
BRANCH  28  29
ATOM     29  C   UNL     1      -3.164  -1.406  -2.862  1.00  0.00    -0.000 C 
BRANCH  29  30
ATOM     30  C   UNL     1      -2.698  -0.622  -4.107  1.00  0.00    -0.000 C 
BRANCH  30  31
ATOM     31  C   UNL     1      -1.389  -1.177  -4.685  1.00  0.00    -0.003 C 
ATOM     32  C   UNL     1      -1.250  -2.670  -4.401  1.00  0.00     0.004 C 
ENDBRANCH  30  31
ENDBRANCH  29  30
ENDBRANCH  28  29
ENDBRANCH  27  28
ENDBRANCH  26  27
ENDBRANCH  25  26
ENDBRANCH  24  25
ENDBRANCH  23  24
ENDBRANCH  22  23
ENDBRANCH  21  22
ENDBRANCH  20  21
ENDBRANCH  19  20
ENDBRANCH  18  19
ENDBRANCH   1  18
TORSDOF 28
ENDMDL
MODEL 7
REMARK VINA RESULT:    -7.094      4.866      8.618
REMARK INTER + INTRA:         -20.728
REMARK INTER:                 -18.915
REMARK INTRA:                  -1.812
REMARK UNBOUND:                -2.021
REMARK SMILES CCCCCCCCCCCCCCCCCCCCCCCCCCCCCC(=O)[O-]
REMARK SMILES IDX 16 1 17 2 18 3 19 4 20 5 21 6 22 7 23 8 24 9 25 10 26 11
REMARK SMILES IDX 27 12 28 13 29 14 30 15 31 16 32 17 15 18 14 19 13 20 12 21
REMARK SMILES IDX 11 22 10 23 9 24 8 25 7 26 6 27 5 28 4 29 3 30 2 31 1 32
REMARK H PARENT
REMARK Flexibility Score: inf
ROOT
ATOM      1  C   UNL     1      -5.095  -0.754  -2.473  1.00  0.00     0.000 C 
ENDROOT
BRANCH   1   2
ATOM      2  C   UNL     1      -4.096  -1.201  -3.556  1.00  0.00     0.000 C 
BRANCH   2   3
ATOM      3  C   UNL     1      -2.837  -0.317  -3.615  1.00  0.00     0.000 C 
BRANCH   3   4
ATOM      4  C   UNL     1      -1.739  -0.809  -4.576  1.00  0.00     0.000 C 
BRANCH   4   5
ATOM      5  C   UNL     1      -1.384  -2.291  -4.369  1.00  0.00     0.000 C 
BRANCH   5   6
ATOM      6  C   UNL     1      -0.297  -2.780  -5.339  1.00  0.00     0.000 C 
BRANCH   6   7
ATOM      7  C   UNL     1      -0.253  -4.312  -5.446  1.00  0.00     0.000 C 
BRANCH   7   8
ATOM      8  C   UNL     1       0.478  -4.759  -6.722  1.00  0.00     0.000 C 
BRANCH   8   9
ATOM      9  C   UNL     1       0.111  -3.887  -7.934  1.00  0.00     0.000 C 
BRANCH   9  10
ATOM     10  C   UNL     1       1.334  -3.164  -8.527  1.00  0.00     0.000 C 
BRANCH  10  11
ATOM     11  C   UNL     1       2.664  -3.713  -7.989  1.00  0.00     0.000 C 
BRANCH  11  12
ATOM     12  C   UNL     1       3.802  -2.678  -8.043  1.00  0.00     0.000 C 
BRANCH  12  13
ATOM     13  C   UNL     1       4.761  -2.791  -6.848  1.00  0.00     0.006 C 
BRANCH  13  14
ATOM     14  C   UNL     1       4.628  -1.614  -5.871  1.00  0.00     0.053 C 
BRANCH  14  15
ATOM     15  C   UNL     1       5.827  -1.526  -4.980  1.00  0.00     0.041 C 
ATOM     16  O   UNL     1       5.795  -0.809  -3.946  1.00  0.00    -0.550 OA
ATOM     17  O   UNL     1       6.982  -2.231  -5.294  1.00  0.00    -0.550 OA
ENDBRANCH  14  15
ENDBRANCH  13  14
ENDBRANCH  12  13
ENDBRANCH  11  12
ENDBRANCH  10  11
ENDBRANCH   9  10
ENDBRANCH   8   9
ENDBRANCH   7   8
ENDBRANCH   6   7
ENDBRANCH   5   6
ENDBRANCH   4   5
ENDBRANCH   3   4
ENDBRANCH   2   3
ENDBRANCH   1   2
BRANCH   1  18
ATOM     18  C   UNL     1      -4.437   0.098  -1.376  1.00  0.00     0.000 C 
BRANCH  18  19
ATOM     19  C   UNL     1      -5.253   0.111  -0.069  1.00  0.00     0.000 C 
BRANCH  19  20
ATOM     20  C   UNL     1      -4.398   0.477   1.155  1.00  0.00     0.000 C 
BRANCH  20  21
ATOM     21  C   UNL     1      -5.201   0.443   2.467  1.00  0.00     0.000 C 
BRANCH  21  22
ATOM     22  C   UNL     1      -5.119   1.763   3.256  1.00  0.00     0.000 C 
BRANCH  22  23
ATOM     23  C   UNL     1      -3.703   2.162   3.710  1.00  0.00     0.000 C 
BRANCH  23  24
ATOM     24  C   UNL     1      -3.503   2.033   5.230  1.00  0.00    -0.000 C 
BRANCH  24  25
ATOM     25  C   UNL     1      -3.150   3.375   5.893  1.00  0.00    -0.000 C 
BRANCH  25  26
ATOM     26  C   UNL     1      -4.315   4.378   5.849  1.00  0.00    -0.000 C 
BRANCH  26  27
ATOM     27  C   UNL     1      -4.143   5.434   4.745  1.00  0.00    -0.000 C 
BRANCH  27  28
ATOM     28  C   UNL     1      -5.461   6.147   4.401  1.00  0.00    -0.000 C 
BRANCH  28  29
ATOM     29  C   UNL     1      -6.352   5.332   3.450  1.00  0.00    -0.000 C 
BRANCH  29  30
ATOM     30  C   UNL     1      -6.983   6.173   2.321  1.00  0.00    -0.000 C 
BRANCH  30  31
ATOM     31  C   UNL     1      -5.951   7.067   1.619  1.00  0.00    -0.003 C 
ATOM     32  C   UNL     1      -5.554   6.493   0.262  1.00  0.00     0.004 C 
ENDBRANCH  30  31
ENDBRANCH  29  30
ENDBRANCH  28  29
ENDBRANCH  27  28
ENDBRANCH  26  27
ENDBRANCH  25  26
ENDBRANCH  24  25
ENDBRANCH  23  24
ENDBRANCH  22  23
ENDBRANCH  21  22
ENDBRANCH  20  21
ENDBRANCH  19  20
ENDBRANCH  18  19
ENDBRANCH   1  18
TORSDOF 28
ENDMDL
MODEL 8
REMARK VINA RESULT:    -7.075      5.343     12.334
REMARK INTER + INTRA:         -20.676
REMARK INTER:                 -19.127
REMARK INTRA:                  -1.549
REMARK UNBOUND:                -2.021
REMARK SMILES CCCCCCCCCCCCCCCCCCCCCCCCCCCCCC(=O)[O-]
REMARK SMILES IDX 16 1 17 2 18 3 19 4 20 5 21 6 22 7 23 8 24 9 25 10 26 11
REMARK SMILES IDX 27 12 28 13 29 14 30 15 31 16 32 17 15 18 14 19 13 20 12 21
REMARK SMILES IDX 11 22 10 23 9 24 8 25 7 26 6 27 5 28 4 29 3 30 2 31 1 32
REMARK H PARENT
REMARK Flexibility Score: inf
ROOT
ATOM      1  C   UNL     1      -5.067  -0.755  -2.548  1.00  0.00     0.000 C 
ENDROOT
BRANCH   1   2
ATOM      2  C   UNL     1      -4.251   0.022  -1.499  1.00  0.00     0.000 C 
BRANCH   2   3
ATOM      3  C   UNL     1      -5.071   0.386  -0.248  1.00  0.00     0.000 C 
BRANCH   3   4
ATOM      4  C   UNL     1      -4.270   0.434   1.066  1.00  0.00     0.000 C 
BRANCH   4   5
ATOM      5  C   UNL     1      -5.131   0.122   2.302  1.00  0.00     0.000 C 
BRANCH   5   6
ATOM      6  C   UNL     1      -4.523   0.676   3.601  1.00  0.00     0.000 C 
BRANCH   6   7
ATOM      7  C   UNL     1      -4.354   2.203   3.563  1.00  0.00     0.000 C 
BRANCH   7   8
ATOM      8  C   UNL     1      -3.448   2.689   4.705  1.00  0.00     0.000 C 
BRANCH   8   9
ATOM      9  C   UNL     1      -3.293   4.220   4.709  1.00  0.00     0.000 C 
BRANCH   9  10
ATOM     10  C   UNL     1      -4.576   4.937   5.167  1.00  0.00     0.000 C 
BRANCH  10  11
ATOM     11  C   UNL     1      -4.814   6.257   4.419  1.00  0.00     0.000 C 
BRANCH  11  12
ATOM     12  C   UNL     1      -5.605   6.067   3.112  1.00  0.00     0.000 C 
BRANCH  12  13
ATOM     13  C   UNL     1      -7.058   5.629   3.358  1.00  0.00     0.006 C 
BRANCH  13  14
ATOM     14  C   UNL     1      -8.044   6.284   2.380  1.00  0.00     0.053 C 
BRANCH  14  15
ATOM     15  C   UNL     1      -9.318   5.502   2.310  1.00  0.00     0.041 C 
ATOM     16  O   UNL     1      -9.666   4.770   3.275  1.00  0.00    -0.550 OA
ATOM     17  O   UNL     1     -10.121   5.576   1.178  1.00  0.00    -0.550 OA
ENDBRANCH  14  15
ENDBRANCH  13  14
ENDBRANCH  12  13
ENDBRANCH  11  12
ENDBRANCH  10  11
ENDBRANCH   9  10
ENDBRANCH   8   9
ENDBRANCH   7   8
ENDBRANCH   6   7
ENDBRANCH   5   6
ENDBRANCH   4   5
ENDBRANCH   3   4
ENDBRANCH   2   3
ENDBRANCH   1   2
BRANCH   1  18
ATOM     18  C   UNL     1      -4.207  -1.740  -3.356  1.00  0.00     0.000 C 
BRANCH  18  19
ATOM     19  C   UNL     1      -2.756  -1.253  -3.530  1.00  0.00     0.000 C 
BRANCH  19  20
ATOM     20  C   UNL     1      -1.778  -2.406  -3.810  1.00  0.00     0.000 C 
BRANCH  20  21
ATOM     21  C   UNL     1      -1.009  -2.220  -5.130  1.00  0.00     0.000 C 
BRANCH  21  22
ATOM     22  C   UNL     1      -0.028  -3.371  -5.420  1.00  0.00     0.000 C 
BRANCH  22  23
ATOM     23  C   UNL     1      -0.246  -4.089  -6.765  1.00  0.00     0.000 C 
BRANCH  23  24
ATOM     24  C   UNL     1       0.629  -3.521  -7.896  1.00  0.00    -0.000 C 
BRANCH  24  25
ATOM     25  C   UNL     1       2.105  -3.931  -7.760  1.00  0.00    -0.000 C 
BRANCH  25  26
ATOM     26  C   UNL     1       2.996  -3.290  -8.837  1.00  0.00    -0.000 C 
BRANCH  26  27
ATOM     27  C   UNL     1       4.260  -2.644  -8.249  1.00  0.00    -0.000 C 
BRANCH  27  28
ATOM     28  C   UNL     1       4.276  -2.670  -6.711  1.00  0.00    -0.000 C 
BRANCH  28  29
ATOM     29  C   UNL     1       4.642  -1.312  -6.093  1.00  0.00    -0.000 C 
BRANCH  29  30
ATOM     30  C   UNL     1       5.791  -1.389  -5.067  1.00  0.00    -0.000 C 
BRANCH  30  31
ATOM     31  C   UNL     1       5.374  -0.860  -3.687  1.00  0.00    -0.003 C 
ATOM     32  C   UNL     1       5.059  -2.006  -2.729  1.00  0.00     0.004 C 
ENDBRANCH  30  31
ENDBRANCH  29  30
ENDBRANCH  28  29
ENDBRANCH  27  28
ENDBRANCH  26  27
ENDBRANCH  25  26
ENDBRANCH  24  25
ENDBRANCH  23  24
ENDBRANCH  22  23
ENDBRANCH  21  22
ENDBRANCH  20  21
ENDBRANCH  19  20
ENDBRANCH  18  19
ENDBRANCH   1  18
TORSDOF 28
ENDMDL
MODEL 9
REMARK VINA RESULT:    -7.063      3.252      9.163
REMARK INTER + INTRA:         -20.646
REMARK INTER:                 -18.732
REMARK INTRA:                  -1.914
REMARK UNBOUND:                -2.021
REMARK SMILES CCCCCCCCCCCCCCCCCCCCCCCCCCCCCC(=O)[O-]
REMARK SMILES IDX 16 1 17 2 18 3 19 4 20 5 21 6 22 7 23 8 24 9 25 10 26 11
REMARK SMILES IDX 27 12 28 13 29 14 30 15 31 16 32 17 15 18 14 19 13 20 12 21
REMARK SMILES IDX 11 22 10 23 9 24 8 25 7 26 6 27 5 28 4 29 3 30 2 31 1 32
REMARK H PARENT
REMARK Flexibility Score: inf
ROOT
ATOM      1  C   UNL     1      -4.900  -2.151   4.669  1.00  0.00     0.000 C 
ENDROOT
BRANCH   1   2
ATOM      2  C   UNL     1      -4.095  -1.509   5.812  1.00  0.00     0.000 C 
BRANCH   2   3
ATOM      3  C   UNL     1      -2.966  -2.415   6.337  1.00  0.00     0.000 C 
BRANCH   3   4
ATOM      4  C   UNL     1      -2.043  -1.767   7.385  1.00  0.00     0.000 C 
BRANCH   4   5
ATOM      5  C   UNL     1      -2.463  -0.331   7.745  1.00  0.00     0.000 C 
BRANCH   5   6
ATOM      6  C   UNL     1      -1.538   0.310   8.791  1.00  0.00     0.000 C 
BRANCH   6   7
ATOM      7  C   UNL     1      -1.481   1.841   8.662  1.00  0.00     0.000 C 
BRANCH   7   8
ATOM      8  C   UNL     1      -2.867   2.468   8.878  1.00  0.00     0.000 C 
BRANCH   8   9
ATOM      9  C   UNL     1      -3.318   3.305   7.669  1.00  0.00     0.000 C 
BRANCH   9  10
ATOM     10  C   UNL     1      -2.906   2.669   6.329  1.00  0.00     0.000 C 
BRANCH  10  11
ATOM     11  C   UNL     1      -3.213   3.573   5.126  1.00  0.00     0.000 C 
BRANCH  11  12
ATOM     12  C   UNL     1      -4.211   4.696   5.463  1.00  0.00     0.000 C 
BRANCH  12  13
ATOM     13  C   UNL     1      -4.188   5.836   4.432  1.00  0.00     0.006 C 
BRANCH  13  14
ATOM     14  C   UNL     1      -5.467   6.684   4.462  1.00  0.00     0.053 C 
BRANCH  14  15
ATOM     15  C   UNL     1      -6.578   5.993   3.735  1.00  0.00     0.041 C 
ATOM     16  O   UNL     1      -6.356   5.426   2.633  1.00  0.00    -0.550 OA
ATOM     17  O   UNL     1      -7.860   5.978   4.271  1.00  0.00    -0.550 OA
ENDBRANCH  14  15
ENDBRANCH  13  14
ENDBRANCH  12  13
ENDBRANCH  11  12
ENDBRANCH  10  11
ENDBRANCH   9  10
ENDBRANCH   8   9
ENDBRANCH   7   8
ENDBRANCH   6   7
ENDBRANCH   5   6
ENDBRANCH   4   5
ENDBRANCH   3   4
ENDBRANCH   2   3
ENDBRANCH   1   2
BRANCH   1  18
ATOM     18  C   UNL     1      -6.272  -1.487   4.464  1.00  0.00     0.000 C 
BRANCH  18  19
ATOM     19  C   UNL     1      -6.299  -0.551   3.242  1.00  0.00     0.000 C 
BRANCH  19  20
ATOM     20  C   UNL     1      -5.236   0.557   3.325  1.00  0.00     0.000 C 
BRANCH  20  21
ATOM     21  C   UNL     1      -4.251   0.519   2.143  1.00  0.00     0.000 C 
BRANCH  21  22
ATOM     22  C   UNL     1      -4.955   0.395   0.779  1.00  0.00     0.000 C 
BRANCH  22  23
ATOM     23  C   UNL     1      -4.031   0.044  -0.401  1.00  0.00     0.000 C 
BRANCH  23  24
ATOM     24  C   UNL     1      -4.764   0.034  -1.754  1.00  0.00    -0.000 C 
BRANCH  24  25
ATOM     25  C   UNL     1      -5.027  -1.390  -2.270  1.00  0.00    -0.000 C 
BRANCH  25  26
ATOM     26  C   UNL     1      -4.622  -1.567  -3.743  1.00  0.00    -0.000 C 
BRANCH  26  27
ATOM     27  C   UNL     1      -3.234  -2.209  -3.901  1.00  0.00    -0.000 C 
BRANCH  27  28
ATOM     28  C   UNL     1      -2.098  -1.175  -3.855  1.00  0.00    -0.000 C 
BRANCH  28  29
ATOM     29  C   UNL     1      -0.968  -1.482  -4.851  1.00  0.00    -0.000 C 
BRANCH  29  30
ATOM     30  C   UNL     1      -0.629  -2.984  -4.956  1.00  0.00    -0.000 C 
BRANCH  30  31
ATOM     31  C   UNL     1       0.131  -3.318  -6.247  1.00  0.00    -0.003 C 
ATOM     32  C   UNL     1      -0.540  -4.462  -7.002  1.00  0.00     0.004 C 
ENDBRANCH  30  31
ENDBRANCH  29  30
ENDBRANCH  28  29
ENDBRANCH  27  28
ENDBRANCH  26  27
ENDBRANCH  25  26
ENDBRANCH  24  25
ENDBRANCH  23  24
ENDBRANCH  22  23
ENDBRANCH  21  22
ENDBRANCH  20  21
ENDBRANCH  19  20
ENDBRANCH  18  19
ENDBRANCH   1  18
TORSDOF 28
ENDMDL
