MODEL 1
REMARK VINA RESULT:    -4.186      0.000      0.000
REMARK INTER + INTRA:          -9.941
REMARK INTER:                  -8.102
REMARK INTRA:                  -1.839
REMARK UNBOUND:                -1.839
REMARK SMILES CCCCCCCCCCCCCCCCCC(=O)[O-]
REMARK SMILES IDX 10 1 11 2 12 3 13 4 14 5 15 6 16 7 17 8 18 9 19 10 20 11
REMARK SMILES IDX 9 12 8 13 7 14 6 15 5 16 4 17 3 18 2 19 1 20
REMARK H PARENT
REMARK Flexibility Score: inf
ROOT
ATOM      1  C   UNL     1      17.738 -10.087  13.414  1.00  0.00     0.000 C 
ENDROOT
BRANCH   1   2
ATOM      2  C   UNL     1      18.287  -8.652  13.315  1.00  0.00     0.000 C 
BRANCH   2   3
ATOM      3  C   UNL     1      17.772  -7.897  12.076  1.00  0.00     0.000 C 
BRANCH   3   4
ATOM      4  C   UNL     1      17.293  -6.474  12.408  1.00  0.00     0.000 C 
BRANCH   4   5
ATOM      5  C   UNL     1      15.815  -6.426  12.831  1.00  0.00     0.000 C 
BRANCH   5   6
ATOM      6  C   UNL     1      15.644  -5.962  14.294  1.00  0.00     0.000 C 
BRANCH   6   7
ATOM      7  C   UNL     1      16.978  -5.799  15.047  1.00  0.00     0.006 C 
BRANCH   7   8
ATOM      8  C   UNL     1      17.040  -6.562  16.378  1.00  0.00     0.053 C 
BRANCH   8   9
ATOM      9  C   UNL     1      16.636  -5.699  17.534  1.00  0.00     0.041 C 
ATOM     10  O   UNL     1      17.420  -5.523  18.502  1.00  0.00    -0.550 OA
ATOM     11  O   UNL     1      15.394  -5.075  17.534  1.00  0.00    -0.550 OA
ENDBRANCH   8   9
ENDBRANCH   7   8
ENDBRANCH   6   7
ENDBRANCH   5   6
ENDBRANCH   4   5
ENDBRANCH   3   4
ENDBRANCH   2   3
ENDBRANCH   1   2
BRANCH   1  12
ATOM     12  C   UNL     1      16.381 -10.314  12.724  1.00  0.00     0.000 C 
BRANCH  12  13
ATOM     13  C   UNL     1      16.350 -11.598  11.875  1.00  0.00    -0.000 C 
BRANCH  13  14
ATOM     14  C   UNL     1      15.730 -12.787  12.627  1.00  0.00    -0.000 C 
BRANCH  14  15
ATOM     15  C   UNL     1      14.392 -13.235  12.020  1.00  0.00    -0.000 C 
BRANCH  15  16
ATOM     16  C   UNL     1      13.223 -12.884  12.950  1.00  0.00    -0.000 C 
BRANCH  16  17
ATOM     17  C   UNL     1      11.972 -12.505  12.142  1.00  0.00    -0.000 C 
BRANCH  17  18
ATOM     18  C   UNL     1      11.764 -10.985  12.049  1.00  0.00    -0.000 C 
BRANCH  18  19
ATOM     19  C   UNL     1      12.688 -10.204  12.994  1.00  0.00    -0.003 C 
ATOM     20  C   UNL     1      13.096  -8.867  12.380  1.00  0.00     0.004 C 
ENDBRANCH  18  19
ENDBRANCH  17  18
ENDBRANCH  16  17
ENDBRANCH  15  16
ENDBRANCH  14  15
ENDBRANCH  13  14
ENDBRANCH  12  13
ENDBRANCH   1  12
TORSDOF 16
ENDMDL
MODEL 2
REMARK VINA RESULT:    -4.009      1.022      3.074
REMARK INTER + INTRA:          -9.597
REMARK INTER:                  -7.761
REMARK INTRA:                  -1.836
REMARK UNBOUND:                -1.839
REMARK SMILES CCCCCCCCCCCCCCCCCC(=O)[O-]
REMARK SMILES IDX 10 1 11 2 12 3 13 4 14 5 15 6 16 7 17 8 18 9 19 10 20 11
REMARK SMILES IDX 9 12 8 13 7 14 6 15 5 16 4 17 3 18 2 19 1 20
REMARK H PARENT
REMARK Flexibility Score: inf
ROOT
ATOM      1  C   UNL     1      14.086  -8.149  12.962  1.00  0.00     0.000 C 
ENDROOT
BRANCH   1   2
ATOM      2  C   UNL     1      13.930  -6.618  12.998  1.00  0.00     0.000 C 
BRANCH   2   3
ATOM      3  C   UNL     1      15.139  -5.878  12.398  1.00  0.00     0.000 C 
BRANCH   3   4
ATOM      4  C   UNL     1      16.352  -6.800  12.189  1.00  0.00     0.000 C 
BRANCH   4   5
ATOM      5  C   UNL     1      17.686  -6.119  12.541  1.00  0.00     0.000 C 
BRANCH   5   6
ATOM      6  C   UNL     1      17.770  -5.746  14.038  1.00  0.00     0.000 C 
BRANCH   6   7
ATOM      7  C   UNL     1      17.390  -6.903  14.982  1.00  0.00     0.006 C 
BRANCH   7   8
ATOM      8  C   UNL     1      17.400  -6.522  16.469  1.00  0.00     0.053 C 
BRANCH   8   9
ATOM      9  C   UNL     1      16.164  -5.770  16.859  1.00  0.00     0.041 C 
ATOM     10  O   UNL     1      16.085  -5.217  17.987  1.00  0.00    -0.550 OA
ATOM     11  O   UNL     1      15.103  -5.667  15.967  1.00  0.00    -0.550 OA
ENDBRANCH   8   9
ENDBRANCH   7   8
ENDBRANCH   6   7
ENDBRANCH   5   6
ENDBRANCH   4   5
ENDBRANCH   3   4
ENDBRANCH   2   3
ENDBRANCH   1   2
BRANCH   1  12
ATOM     12  C   UNL     1      12.988  -8.898  12.186  1.00  0.00     0.000 C 
BRANCH  12  13
ATOM     13  C   UNL     1      12.478 -10.147  12.928  1.00  0.00    -0.000 C 
BRANCH  13  14
ATOM     14  C   UNL     1      12.748 -11.445  12.151  1.00  0.00    -0.000 C 
BRANCH  14  15
ATOM     15  C   UNL     1      12.997 -12.645  13.078  1.00  0.00    -0.000 C 
BRANCH  15  16
ATOM     16  C   UNL     1      14.254 -13.416  12.652  1.00  0.00    -0.000 C 
BRANCH  16  17
ATOM     17  C   UNL     1      15.219 -12.509  11.875  1.00  0.00    -0.000 C 
BRANCH  17  18
ATOM     18  C   UNL     1      16.288 -11.870  12.776  1.00  0.00    -0.000 C 
BRANCH  18  19
ATOM     19  C   UNL     1      16.699 -10.470  12.302  1.00  0.00    -0.003 C 
ATOM     20  C   UNL     1      17.812  -9.898  13.178  1.00  0.00     0.004 C 
ENDBRANCH  18  19
ENDBRANCH  17  18
ENDBRANCH  16  17
ENDBRANCH  15  16
ENDBRANCH  14  15
ENDBRANCH  13  14
ENDBRANCH  12  13
ENDBRANCH   1  12
TORSDOF 16
ENDMDL
MODEL 3
REMARK VINA RESULT:    -3.988      1.329      3.211
REMARK INTER + INTRA:          -9.558
REMARK INTER:                  -7.437
REMARK INTRA:                  -2.120
REMARK UNBOUND:                -1.839
REMARK SMILES CCCCCCCCCCCCCCCCCC(=O)[O-]
REMARK SMILES IDX 10 1 11 2 12 3 13 4 14 5 15 6 16 7 17 8 18 9 19 10 20 11
REMARK SMILES IDX 9 12 8 13 7 14 6 15 5 16 4 17 3 18 2 19 1 20
REMARK H PARENT
REMARK Flexibility Score: inf
ROOT
ATOM      1  C   UNL     1      16.446 -11.716  12.837  1.00  0.00     0.000 C 
ENDROOT
BRANCH   1   2
ATOM      2  C   UNL     1      17.274 -10.614  12.150  1.00  0.00     0.000 C 
BRANCH   2   3
ATOM      3  C   UNL     1      16.794  -9.196  12.504  1.00  0.00     0.000 C 
BRANCH   3   4
ATOM      4  C   UNL     1      17.776  -8.454  13.426  1.00  0.00     0.000 C 
BRANCH   4   5
ATOM      5  C   UNL     1      18.047  -7.010  12.969  1.00  0.00     0.000 C 
BRANCH   5   6
ATOM      6  C   UNL     1      17.738  -5.981  14.079  1.00  0.00     0.000 C 
BRANCH   6   7
ATOM      7  C   UNL     1      17.327  -6.625  15.417  1.00  0.00     0.006 C 
BRANCH   7   8
ATOM      8  C   UNL     1      16.220  -5.863  16.160  1.00  0.00     0.053 C 
BRANCH   8   9
ATOM      9  C   UNL     1      16.405  -5.925  17.646  1.00  0.00     0.041 C 
ATOM     10  O   UNL     1      15.983  -6.915  18.299  1.00  0.00    -0.550 OA
ATOM     11  O   UNL     1      17.058  -4.892  18.309  1.00  0.00    -0.550 OA
ENDBRANCH   8   9
ENDBRANCH   7   8
ENDBRANCH   6   7
ENDBRANCH   5   6
ENDBRANCH   4   5
ENDBRANCH   3   4
ENDBRANCH   2   3
ENDBRANCH   1   2
BRANCH   1  12
ATOM     12  C   UNL     1      15.358 -12.359  11.957  1.00  0.00     0.000 C 
BRANCH  12  13
ATOM     13  C   UNL     1      13.936 -12.115  12.492  1.00  0.00    -0.000 C 
BRANCH  13  14
ATOM     14  C   UNL     1      13.292 -10.852  11.898  1.00  0.00    -0.000 C 
BRANCH  14  15
ATOM     15  C   UNL     1      13.053  -9.760  12.952  1.00  0.00    -0.000 C 
BRANCH  15  16
ATOM     16  C   UNL     1      13.100  -8.364  12.318  1.00  0.00    -0.000 C 
BRANCH  16  17
ATOM     17  C   UNL     1      14.120  -7.468  13.035  1.00  0.00    -0.000 C 
BRANCH  17  18
ATOM     18  C   UNL     1      14.458  -6.198  12.238  1.00  0.00    -0.000 C 
BRANCH  18  19
ATOM     19  C   UNL     1      14.381  -4.926  13.093  1.00  0.00    -0.003 C 
ATOM     20  C   UNL     1      13.153  -4.947  13.999  1.00  0.00     0.004 C 
ENDBRANCH  18  19
ENDBRANCH  17  18
ENDBRANCH  16  17
ENDBRANCH  15  16
ENDBRANCH  14  15
ENDBRANCH  13  14
ENDBRANCH  12  13
ENDBRANCH   1  12
TORSDOF 16
ENDMDL
MODEL 4
REMARK VINA RESULT:    -3.978      1.937      4.996
REMARK INTER + INTRA:          -9.539
REMARK INTER:                  -8.041
REMARK INTRA:                  -1.497
REMARK UNBOUND:                -1.839
REMARK SMILES CCCCCCCCCCCCCCCCCC(=O)[O-]
REMARK SMILES IDX 10 1 11 2 12 3 13 4 14 5 15 6 16 7 17 8 18 9 19 10 20 11
REMARK SMILES IDX 9 12 8 13 7 14 6 15 5 16 4 17 3 18 2 19 1 20
REMARK H PARENT
REMARK Flexibility Score: inf
ROOT
ATOM      1  C   UNL     1      12.956 -12.960  13.176  1.00  0.00     0.000 C 
ENDROOT
BRANCH   1   2
ATOM      2  C   UNL     1      14.240 -13.648  12.676  1.00  0.00     0.000 C 
BRANCH   2   3
ATOM      3  C   UNL     1      15.154 -12.702  11.877  1.00  0.00     0.000 C 
BRANCH   3   4
ATOM      4  C   UNL     1      16.258 -12.075  12.745  1.00  0.00     0.000 C 
BRANCH   4   5
ATOM      5  C   UNL     1      16.274 -10.538  12.669  1.00  0.00     0.000 C 
BRANCH   5   6
ATOM      6  C   UNL     1      17.705  -9.966  12.770  1.00  0.00     0.000 C 
BRANCH   6   7
ATOM      7  C   UNL     1      17.788  -8.654  13.573  1.00  0.00     0.006 C 
BRANCH   7   8
ATOM      8  C   UNL     1      18.185  -7.433  12.730  1.00  0.00     0.053 C 
BRANCH   8   9
ATOM      9  C   UNL     1      17.956  -6.149  13.469  1.00  0.00     0.041 C 
ATOM     10  O   UNL     1      17.304  -6.143  14.546  1.00  0.00    -0.550 OA
ATOM     11  O   UNL     1      18.477  -4.960  12.974  1.00  0.00    -0.550 OA
ENDBRANCH   8   9
ENDBRANCH   7   8
ENDBRANCH   6   7
ENDBRANCH   5   6
ENDBRANCH   4   5
ENDBRANCH   3   4
ENDBRANCH   2   3
ENDBRANCH   1   2
BRANCH   1  12
ATOM     12  C   UNL     1      11.972 -12.534  12.072  1.00  0.00     0.000 C 
BRANCH  12  13
ATOM     13  C   UNL     1      11.918 -11.008  11.875  1.00  0.00    -0.000 C 
BRANCH  13  14
ATOM     14  C   UNL     1      12.633 -10.243  13.000  1.00  0.00    -0.000 C 
BRANCH  14  15
ATOM     15  C   UNL     1      12.722  -8.735  12.724  1.00  0.00    -0.000 C 
BRANCH  15  16
ATOM     16  C   UNL     1      14.181  -8.262  12.720  1.00  0.00    -0.000 C 
BRANCH  16  17
ATOM     17  C   UNL     1      14.262  -6.728  12.724  1.00  0.00    -0.000 C 
BRANCH  17  18
ATOM     18  C   UNL     1      13.844  -6.116  14.070  1.00  0.00    -0.000 C 
BRANCH  18  19
ATOM     19  C   UNL     1      13.281  -4.695  13.924  1.00  0.00    -0.003 C 
ATOM     20  C   UNL     1      13.686  -4.080  12.587  1.00  0.00     0.004 C 
ENDBRANCH  18  19
ENDBRANCH  17  18
ENDBRANCH  16  17
ENDBRANCH  15  16
ENDBRANCH  14  15
ENDBRANCH  13  14
ENDBRANCH  12  13
ENDBRANCH   1  12
TORSDOF 16
ENDMDL
MODEL 5
REMARK VINA RESULT:    -3.974      2.192      6.685
REMARK INTER + INTRA:          -9.530
REMARK INTER:                  -8.084
REMARK INTRA:                  -1.446
REMARK UNBOUND:                -1.839
REMARK SMILES CCCCCCCCCCCCCCCCCC(=O)[O-]
REMARK SMILES IDX 10 1 11 2 12 3 13 4 14 5 15 6 16 7 17 8 18 9 19 10 20 11
REMARK SMILES IDX 9 12 8 13 7 14 6 15 5 16 4 17 3 18 2 19 1 20
REMARK H PARENT
REMARK Flexibility Score: inf
ROOT
ATOM      1  C   UNL     1      12.607 -10.395  13.023  1.00  0.00     0.000 C 
ENDROOT
BRANCH   1   2
ATOM      2  C   UNL     1      11.902 -11.321  12.014  1.00  0.00     0.000 C 
BRANCH   2   3
ATOM      3  C   UNL     1      12.591 -12.690  11.875  1.00  0.00     0.000 C 
BRANCH   3   4
ATOM      4  C   UNL     1      13.544 -12.993  13.043  1.00  0.00     0.000 C 
BRANCH   4   5
ATOM      5  C   UNL     1      14.971 -13.328  12.576  1.00  0.00     0.000 C 
BRANCH   5   6
ATOM      6  C   UNL     1      15.660 -12.120  11.904  1.00  0.00     0.000 C 
BRANCH   6   7
ATOM      7  C   UNL     1      16.711 -11.435  12.798  1.00  0.00     0.006 C 
BRANCH   7   8
ATOM      8  C   UNL     1      17.321 -10.167  12.183  1.00  0.00     0.053 C 
BRANCH   8   9
ATOM      9  C   UNL     1      18.002  -9.320  13.215  1.00  0.00     0.041 C 
ATOM     10  O   UNL     1      18.241  -8.106  12.986  1.00  0.00    -0.550 OA
ATOM     11  O   UNL     1      18.361  -9.872  14.440  1.00  0.00    -0.550 OA
ENDBRANCH   8   9
ENDBRANCH   7   8
ENDBRANCH   6   7
ENDBRANCH   5   6
ENDBRANCH   4   5
ENDBRANCH   3   4
ENDBRANCH   2   3
ENDBRANCH   1   2
BRANCH   1  12
ATOM     12  C   UNL     1      12.666  -8.912  12.616  1.00  0.00     0.000 C 
BRANCH  12  13
ATOM     13  C   UNL     1      14.089  -8.446  12.262  1.00  0.00    -0.000 C 
BRANCH  13  14
ATOM     14  C   UNL     1      14.318  -6.959  12.578  1.00  0.00    -0.000 C 
BRANCH  14  15
ATOM     15  C   UNL     1      15.262  -6.749  13.772  1.00  0.00    -0.000 C 
BRANCH  15  16
ATOM     16  C   UNL     1      14.947  -5.434  14.496  1.00  0.00    -0.000 C 
BRANCH  16  17
ATOM     17  C   UNL     1      14.926  -5.635  16.018  1.00  0.00    -0.000 C 
BRANCH  17  18
ATOM     18  C   UNL     1      16.329  -5.849  16.607  1.00  0.00    -0.000 C 
BRANCH  18  19
ATOM     19  C   UNL     1      16.304  -6.084  18.124  1.00  0.00    -0.003 C 
ATOM     20  C   UNL     1      16.278  -4.760  18.884  1.00  0.00     0.004 C 
ENDBRANCH  18  19
ENDBRANCH  17  18
ENDBRANCH  16  17
ENDBRANCH  15  16
ENDBRANCH  14  15
ENDBRANCH  13  14
ENDBRANCH  12  13
ENDBRANCH   1  12
TORSDOF 16
ENDMDL
MODEL 6
REMARK VINA RESULT:    -3.878      3.484      7.141
REMARK INTER + INTRA:          -9.345
REMARK INTER:                  -7.984
REMARK INTRA:                  -1.361
REMARK UNBOUND:                -1.839
REMARK SMILES CCCCCCCCCCCCCCCCCC(=O)[O-]
REMARK SMILES IDX 10 1 11 2 12 3 13 4 14 5 15 6 16 7 17 8 18 9 19 10 20 11
REMARK SMILES IDX 9 12 8 13 7 14 6 15 5 16 4 17 3 18 2 19 1 20
REMARK H PARENT
REMARK Flexibility Score: inf
ROOT
ATOM      1  C   UNL     1      16.243  -5.219  12.191  1.00  0.00     0.000 C 
ENDROOT
BRANCH   1   2
ATOM      2  C   UNL     1      15.113  -5.008  13.215  1.00  0.00     0.000 C 
BRANCH   2   3
ATOM      3  C   UNL     1      14.032  -6.101  13.147  1.00  0.00     0.000 C 
BRANCH   3   4
ATOM      4  C   UNL     1      14.228  -7.054  11.957  1.00  0.00     0.000 C 
BRANCH   4   5
ATOM      5  C   UNL     1      14.199  -8.536  12.369  1.00  0.00     0.000 C 
BRANCH   5   6
ATOM      6  C   UNL     1      12.773  -9.013  12.721  1.00  0.00     0.000 C 
BRANCH   6   7
ATOM      7  C   UNL     1      12.651 -10.543  12.854  1.00  0.00     0.006 C 
BRANCH   7   8
ATOM      8  C   UNL     1      13.960 -11.298  12.580  1.00  0.00     0.053 C 
BRANCH   8   9
ATOM      9  C   UNL     1      13.820 -12.767  12.840  1.00  0.00     0.041 C 
ATOM     10  O   UNL     1      12.765 -13.225  13.350  1.00  0.00    -0.550 OA
ATOM     11  O   UNL     1      14.853 -13.634  12.504  1.00  0.00    -0.550 OA
ENDBRANCH   8   9
ENDBRANCH   7   8
ENDBRANCH   6   7
ENDBRANCH   5   6
ENDBRANCH   4   5
ENDBRANCH   3   4
ENDBRANCH   2   3
ENDBRANCH   1   2
BRANCH   1  12
ATOM     12  C   UNL     1      17.663  -5.262  12.785  1.00  0.00     0.000 C 
BRANCH  12  13
ATOM     13  C   UNL     1      18.192  -6.695  12.966  1.00  0.00    -0.000 C 
BRANCH  13  14
ATOM     14  C   UNL     1      17.294  -7.545  13.879  1.00  0.00    -0.000 C 
BRANCH  14  15
ATOM     15  C   UNL     1      17.720  -7.476  15.354  1.00  0.00    -0.000 C 
BRANCH  15  16
ATOM     16  C   UNL     1      17.452  -6.083  15.938  1.00  0.00    -0.000 C 
BRANCH  16  17
ATOM     17  C   UNL     1      16.120  -6.055  16.703  1.00  0.00    -0.000 C 
BRANCH  17  18
ATOM     18  C   UNL     1      16.307  -6.179  18.223  1.00  0.00    -0.000 C 
BRANCH  18  19
ATOM     19  C   UNL     1      16.815  -4.880  18.864  1.00  0.00    -0.003 C 
ATOM     20  C   UNL     1      15.653  -3.974  19.265  1.00  0.00     0.004 C 
ENDBRANCH  18  19
ENDBRANCH  17  18
ENDBRANCH  16  17
ENDBRANCH  15  16
ENDBRANCH  14  15
ENDBRANCH  13  14
ENDBRANCH  12  13
ENDBRANCH   1  12
TORSDOF 16
ENDMDL
MODEL 7
REMARK VINA RESULT:    -3.755      3.337      7.120
REMARK INTER + INTRA:          -9.106
REMARK INTER:                  -7.405
REMARK INTRA:                  -1.701
REMARK UNBOUND:                -1.839
REMARK SMILES CCCCCCCCCCCCCCCCCC(=O)[O-]
REMARK SMILES IDX 10 1 11 2 12 3 13 4 14 5 15 6 16 7 17 8 18 9 19 10 20 11
REMARK SMILES IDX 9 12 8 13 7 14 6 15 5 16 4 17 3 18 2 19 1 20
REMARK H PARENT
REMARK Flexibility Score: inf
ROOT
ATOM      1  C   UNL     1      15.955  -9.239  12.929  1.00  0.00     0.000 C 
ENDROOT
BRANCH   1   2
ATOM      2  C   UNL     1      14.985  -8.662  11.882  1.00  0.00     0.000 C 
BRANCH   2   3
ATOM      3  C   UNL     1      14.001  -7.640  12.477  1.00  0.00     0.000 C 
BRANCH   3   4
ATOM      4  C   UNL     1      12.710  -8.295  12.996  1.00  0.00     0.000 C 
BRANCH   4   5
ATOM      5  C   UNL     1      12.344  -9.579  12.230  1.00  0.00     0.000 C 
BRANCH   5   6
ATOM      6  C   UNL     1      12.402 -10.830  13.134  1.00  0.00     0.000 C 
BRANCH   6   7
ATOM      7  C   UNL     1      12.582 -12.145  12.352  1.00  0.00     0.006 C 
BRANCH   7   8
ATOM      8  C   UNL     1      14.020 -12.394  11.876  1.00  0.00     0.053 C 
BRANCH   8   9
ATOM      9  C   UNL     1      14.697 -13.461  12.683  1.00  0.00     0.041 C 
ATOM     10  O   UNL     1      14.067 -14.496  13.024  1.00  0.00    -0.550 OA
ATOM     11  O   UNL     1      16.030 -13.316  13.046  1.00  0.00    -0.550 OA
ENDBRANCH   8   9
ENDBRANCH   7   8
ENDBRANCH   6   7
ENDBRANCH   5   6
ENDBRANCH   4   5
ENDBRANCH   3   4
ENDBRANCH   2   3
ENDBRANCH   1   2
BRANCH   1  12
ATOM     12  C   UNL     1      17.423  -9.332  12.477  1.00  0.00     0.000 C 
BRANCH  12  13
ATOM     13  C   UNL     1      18.326  -8.291  13.161  1.00  0.00    -0.000 C 
BRANCH  13  14
ATOM     14  C   UNL     1      18.129  -6.876  12.595  1.00  0.00    -0.000 C 
BRANCH  14  15
ATOM     15  C   UNL     1      17.821  -5.841  13.688  1.00  0.00    -0.000 C 
BRANCH  15  16
ATOM     16  C   UNL     1      17.571  -6.525  15.037  1.00  0.00    -0.000 C 
BRANCH  16  17
ATOM     17  C   UNL     1      16.298  -5.982  15.702  1.00  0.00    -0.000 C 
BRANCH  17  18
ATOM     18  C   UNL     1      16.188  -6.377  17.184  1.00  0.00    -0.000 C 
BRANCH  18  19
ATOM     19  C   UNL     1      17.063  -5.504  18.094  1.00  0.00    -0.003 C 
ATOM     20  C   UNL     1      16.209  -4.547  18.923  1.00  0.00     0.004 C 
ENDBRANCH  18  19
ENDBRANCH  17  18
ENDBRANCH  16  17
ENDBRANCH  15  16
ENDBRANCH  14  15
ENDBRANCH  13  14
ENDBRANCH  12  13
ENDBRANCH   1  12
TORSDOF 16
ENDMDL
MODEL 8
REMARK VINA RESULT:    -3.673      1.766      2.168
REMARK INTER + INTRA:          -8.947
REMARK INTER:                  -7.575
REMARK INTRA:                  -1.372
REMARK UNBOUND:                -1.839
REMARK SMILES CCCCCCCCCCCCCCCCCC(=O)[O-]
REMARK SMILES IDX 10 1 11 2 12 3 13 4 14 5 15 6 16 7 17 8 18 9 19 10 20 11
REMARK SMILES IDX 9 12 8 13 7 14 6 15 5 16 4 17 3 18 2 19 1 20
REMARK H PARENT
REMARK Flexibility Score: inf
ROOT
ATOM      1  C   UNL     1      17.755  -9.890  13.631  1.00  0.00     0.000 C 
ENDROOT
BRANCH   1   2
ATOM      2  C   UNL     1      18.272  -8.449  13.470  1.00  0.00     0.000 C 
BRANCH   2   3
ATOM      3  C   UNL     1      18.126  -7.916  12.035  1.00  0.00     0.000 C 
BRANCH   3   4
ATOM      4  C   UNL     1      17.978  -6.386  11.984  1.00  0.00     0.000 C 
BRANCH   4   5
ATOM      5  C   UNL     1      16.511  -5.933  11.875  1.00  0.00     0.000 C 
BRANCH   5   6
ATOM      6  C   UNL     1      16.039  -5.185  13.141  1.00  0.00     0.000 C 
BRANCH   6   7
ATOM      7  C   UNL     1      15.479  -6.117  14.233  1.00  0.00     0.006 C 
BRANCH   7   8
ATOM      8  C   UNL     1      13.952  -6.057  14.381  1.00  0.00     0.053 C 
BRANCH   8   9
ATOM      9  C   UNL     1      13.461  -4.646  14.502  1.00  0.00     0.041 C 
ATOM     10  O   UNL     1      13.342  -4.109  15.634  1.00  0.00    -0.550 OA
ATOM     11  O   UNL     1      13.147  -3.919  13.360  1.00  0.00    -0.550 OA
ENDBRANCH   8   9
ENDBRANCH   7   8
ENDBRANCH   6   7
ENDBRANCH   5   6
ENDBRANCH   4   5
ENDBRANCH   3   4
ENDBRANCH   2   3
ENDBRANCH   1   2
BRANCH   1  12
ATOM     12  C   UNL     1      16.453 -10.203  12.872  1.00  0.00     0.000 C 
BRANCH  12  13
ATOM     13  C   UNL     1      16.539 -11.499  12.046  1.00  0.00    -0.000 C 
BRANCH  13  14
ATOM     14  C   UNL     1      15.892 -12.697  12.760  1.00  0.00    -0.000 C 
BRANCH  14  15
ATOM     15  C   UNL     1      14.679 -13.253  11.998  1.00  0.00    -0.000 C 
BRANCH  15  16
ATOM     16  C   UNL     1      13.411 -13.186  12.858  1.00  0.00    -0.000 C 
BRANCH  16  17
ATOM     17  C   UNL     1      12.184 -12.837  12.003  1.00  0.00    -0.000 C 
BRANCH  17  18
ATOM     18  C   UNL     1      11.859 -11.335  12.017  1.00  0.00    -0.000 C 
BRANCH  18  19
ATOM     19  C   UNL     1      12.881 -10.517  12.820  1.00  0.00    -0.003 C 
ATOM     20  C   UNL     1      12.485  -9.044  12.873  1.00  0.00     0.004 C 
ENDBRANCH  18  19
ENDBRANCH  17  18
ENDBRANCH  16  17
ENDBRANCH  15  16
ENDBRANCH  14  15
ENDBRANCH  13  14
ENDBRANCH  12  13
ENDBRANCH   1  12
TORSDOF 16
ENDMDL
MODEL 9
REMARK VINA RESULT:    -3.612      1.971      5.584
REMARK INTER + INTRA:          -8.830
REMARK INTER:                  -7.077
REMARK INTRA:                  -1.754
REMARK UNBOUND:                -1.839
REMARK SMILES CCCCCCCCCCCCCCCCCC(=O)[O-]
REMARK SMILES IDX 10 1 11 2 12 3 13 4 14 5 15 6 16 7 17 8 18 9 19 10 20 11
REMARK SMILES IDX 9 12 8 13 7 14 6 15 5 16 4 17 3 18 2 19 1 20
REMARK H PARENT
REMARK Flexibility Score: inf
ROOT
ATOM      1  C   UNL     1      16.034 -11.063  12.901  1.00  0.00     0.000 C 
ENDROOT
BRANCH   1   2
ATOM      2  C   UNL     1      14.748 -11.696  12.338  1.00  0.00     0.000 C 
BRANCH   2   3
ATOM      3  C   UNL     1      13.719 -10.650  11.875  1.00  0.00     0.000 C 
BRANCH   3   4
ATOM      4  C   UNL     1      13.358  -9.645  12.982  1.00  0.00     0.000 C 
BRANCH   4   5
ATOM      5  C   UNL     1      13.341  -8.190  12.483  1.00  0.00     0.000 C 
BRANCH   5   6
ATOM      6  C   UNL     1      14.327  -7.295  13.266  1.00  0.00     0.000 C 
BRANCH   6   7
ATOM      7  C   UNL     1      14.603  -5.941  12.585  1.00  0.00     0.006 C 
BRANCH   7   8
ATOM      8  C   UNL     1      14.693  -4.760  13.562  1.00  0.00     0.053 C 
BRANCH   8   9
ATOM      9  C   UNL     1      13.353  -4.404  14.130  1.00  0.00     0.041 C 
ATOM     10  O   UNL     1      12.371  -4.206  13.368  1.00  0.00    -0.550 OA
ATOM     11  O   UNL     1      13.185  -4.305  15.506  1.00  0.00    -0.550 OA
ENDBRANCH   8   9
ENDBRANCH   7   8
ENDBRANCH   6   7
ENDBRANCH   5   6
ENDBRANCH   4   5
ENDBRANCH   3   4
ENDBRANCH   2   3
ENDBRANCH   1   2
BRANCH   1  12
ATOM     12  C   UNL     1      16.886 -10.295  11.875  1.00  0.00     0.000 C 
BRANCH  12  13
ATOM     13  C   UNL     1      17.109  -8.823  12.265  1.00  0.00    -0.000 C 
BRANCH  13  14
ATOM     14  C   UNL     1      18.339  -8.631  13.166  1.00  0.00    -0.000 C 
BRANCH  14  15
ATOM     15  C   UNL     1      17.969  -8.506  14.652  1.00  0.00    -0.000 C 
BRANCH  15  16
ATOM     16  C   UNL     1      17.303  -7.154  14.939  1.00  0.00    -0.000 C 
BRANCH  16  17
ATOM     17  C   UNL     1      17.566  -6.708  16.386  1.00  0.00    -0.000 C 
BRANCH  17  18
ATOM     18  C   UNL     1      16.336  -6.057  17.038  1.00  0.00    -0.000 C 
BRANCH  18  19
ATOM     19  C   UNL     1      16.691  -5.256  18.298  1.00  0.00    -0.003 C 
ATOM     20  C   UNL     1      15.528  -4.366  18.729  1.00  0.00     0.004 C 
ENDBRANCH  18  19
ENDBRANCH  17  18
ENDBRANCH  16  17
ENDBRANCH  15  16
ENDBRANCH  14  15
ENDBRANCH  13  14
ENDBRANCH  12  13
ENDBRANCH   1  12
TORSDOF 16
ENDMDL
