MODEL 1
REMARK VINA RESULT:    -3.841      0.000      0.000
REMARK INTER + INTRA:          -7.885
REMARK INTER:                  -6.536
REMARK INTRA:                  -1.349
REMARK UNBOUND:                -1.349
REMARK SMILES CCCCCCCCCCCCCC(=O)[O-]
REMARK SMILES IDX 8 1 9 2 10 3 11 4 12 5 13 6 14 7 15 8 16 9 7 10 6 11 5 12
REMARK SMILES IDX 4 13 3 14 2 15 1 16
REMARK H PARENT
REMARK Flexibility Score: inf
ROOT
ATOM      1  C   UNL     1     161.859 163.052 188.727  1.00  0.00     0.000 C 
ENDROOT
BRANCH   1   2
ATOM      2  C   UNL     1     160.634 162.146 188.937  1.00  0.00     0.000 C 
BRANCH   2   3
ATOM      3  C   UNL     1     159.876 161.855 187.629  1.00  0.00     0.000 C 
BRANCH   3   4
ATOM      4  C   UNL     1     160.128 162.857 186.485  1.00  0.00     0.000 C 
BRANCH   4   5
ATOM      5  C   UNL     1     160.585 162.231 185.152  1.00  0.00     0.006 C 
BRANCH   5   6
ATOM      6  C   UNL     1     161.356 160.911 185.303  1.00  0.00     0.053 C 
BRANCH   6   7
ATOM      7  C   UNL     1     162.701 160.969 184.647  1.00  0.00     0.041 C 
ATOM      8  O   UNL     1     163.073 160.040 183.883  1.00  0.00    -0.550 OA
ATOM      9  O   UNL     1     163.558 162.031 184.907  1.00  0.00    -0.550 OA
ENDBRANCH   6   7
ENDBRANCH   5   6
ENDBRANCH   4   5
ENDBRANCH   3   4
ENDBRANCH   2   3
ENDBRANCH   1   2
BRANCH   1  10
ATOM     10  C   UNL     1     163.117 162.262 188.330  1.00  0.00     0.000 C 
BRANCH  10  11
ATOM     11  C   UNL     1     162.985 160.756 188.620  1.00  0.00    -0.000 C 
BRANCH  11  12
ATOM     12  C   UNL     1     164.338 160.095 188.928  1.00  0.00    -0.000 C 
BRANCH  12  13
ATOM     13  C   UNL     1     165.526 160.887 188.357  1.00  0.00    -0.000 C 
BRANCH  13  14
ATOM     14  C   UNL     1     166.748 160.892 189.293  1.00  0.00    -0.000 C 
BRANCH  14  15
ATOM     15  C   UNL     1     166.638 161.837 190.503  1.00  0.00    -0.003 C 
ATOM     16  C   UNL     1     166.230 163.259 190.116  1.00  0.00     0.004 C 
ENDBRANCH  14  15
ENDBRANCH  13  14
ENDBRANCH  12  13
ENDBRANCH  11  12
ENDBRANCH  10  11
ENDBRANCH   1  10
TORSDOF 12
ENDMDL
MODEL 2
REMARK VINA RESULT:    -3.783      1.225      2.162
REMARK INTER + INTRA:          -7.785
REMARK INTER:                  -6.130
REMARK INTRA:                  -1.655
REMARK UNBOUND:                -1.349
REMARK SMILES CCCCCCCCCCCCCC(=O)[O-]
REMARK SMILES IDX 8 1 9 2 10 3 11 4 12 5 13 6 14 7 15 8 16 9 7 10 6 11 5 12
REMARK SMILES IDX 4 13 3 14 2 15 1 16
REMARK H PARENT
REMARK Flexibility Score: inf
ROOT
ATOM      1  C   UNL     1     163.583 162.253 188.308  1.00  0.00     0.000 C 
ENDROOT
BRANCH   1   2
ATOM      2  C   UNL     1     162.203 162.893 188.538  1.00  0.00     0.000 C 
BRANCH   2   3
ATOM      3  C   UNL     1     161.060 161.860 188.546  1.00  0.00     0.000 C 
BRANCH   3   4
ATOM      4  C   UNL     1     159.878 162.181 187.612  1.00  0.00     0.000 C 
BRANCH   4   5
ATOM      5  C   UNL     1     160.196 162.118 186.104  1.00  0.00     0.006 C 
BRANCH   5   6
ATOM      6  C   UNL     1     160.844 160.802 185.647  1.00  0.00     0.053 C 
BRANCH   6   7
ATOM      7  C   UNL     1     162.139 161.033 184.931  1.00  0.00     0.041 C 
ATOM      8  O   UNL     1     162.732 160.074 184.371  1.00  0.00    -0.550 OA
ATOM      9  O   UNL     1     162.709 162.301 184.912  1.00  0.00    -0.550 OA
ENDBRANCH   6   7
ENDBRANCH   5   6
ENDBRANCH   4   5
ENDBRANCH   3   4
ENDBRANCH   2   3
ENDBRANCH   1   2
BRANCH   1  10
ATOM     10  C   UNL     1     163.537 160.717 188.354  1.00  0.00     0.000 C 
BRANCH  10  11
ATOM     11  C   UNL     1     164.593 160.123 189.304  1.00  0.00    -0.000 C 
BRANCH  11  12
ATOM     12  C   UNL     1     165.844 161.009 189.423  1.00  0.00    -0.000 C 
BRANCH  12  13
ATOM     13  C   UNL     1     167.117 160.304 188.924  1.00  0.00    -0.000 C 
BRANCH  13  14
ATOM     14  C   UNL     1     167.558 160.780 187.528  1.00  0.00    -0.000 C 
BRANCH  14  15
ATOM     15  C   UNL     1     166.683 160.280 186.365  1.00  0.00    -0.003 C 
ATOM     16  C   UNL     1     166.157 161.412 185.482  1.00  0.00     0.004 C 
ENDBRANCH  14  15
ENDBRANCH  13  14
ENDBRANCH  12  13
ENDBRANCH  11  12
ENDBRANCH  10  11
ENDBRANCH   1  10
TORSDOF 12
ENDMDL
MODEL 3
REMARK VINA RESULT:    -3.709      2.519      5.903
REMARK INTER + INTRA:          -7.659
REMARK INTER:                  -6.051
REMARK INTRA:                  -1.608
REMARK UNBOUND:                -1.349
REMARK SMILES CCCCCCCCCCCCCC(=O)[O-]
REMARK SMILES IDX 8 1 9 2 10 3 11 4 12 5 13 6 14 7 15 8 16 9 7 10 6 11 5 12
REMARK SMILES IDX 4 13 3 14 2 15 1 16
REMARK H PARENT
REMARK Flexibility Score: inf
ROOT
ATOM      1  C   UNL     1     163.991 161.285 185.838  1.00  0.00     0.000 C 
ENDROOT
BRANCH   1   2
ATOM      2  C   UNL     1     164.039 161.861 187.264  1.00  0.00     0.000 C 
BRANCH   2   3
ATOM      3  C   UNL     1     163.650 160.828 188.338  1.00  0.00     0.000 C 
BRANCH   3   4
ATOM      4  C   UNL     1     164.829 160.209 189.113  1.00  0.00     0.000 C 
BRANCH   4   5
ATOM      5  C   UNL     1     166.161 160.980 189.008  1.00  0.00     0.006 C 
BRANCH   5   6
ATOM      6  C   UNL     1     166.572 161.714 190.293  1.00  0.00     0.053 C 
BRANCH   6   7
ATOM      7  C   UNL     1     166.449 163.200 190.154  1.00  0.00     0.041 C 
ATOM      8  O   UNL     1     167.483 163.916 190.080  1.00  0.00    -0.550 OA
ATOM      9  O   UNL     1     165.195 163.798 190.141  1.00  0.00    -0.550 OA
ENDBRANCH   6   7
ENDBRANCH   5   6
ENDBRANCH   4   5
ENDBRANCH   3   4
ENDBRANCH   2   3
ENDBRANCH   1   2
BRANCH   1  10
ATOM     10  C   UNL     1     162.554 161.113 185.319  1.00  0.00     0.000 C 
BRANCH  10  11
ATOM     11  C   UNL     1     161.792 162.449 185.234  1.00  0.00    -0.000 C 
BRANCH  11  12
ATOM     12  C   UNL     1     160.308 162.306 185.608  1.00  0.00    -0.000 C 
BRANCH  12  13
ATOM     13  C   UNL     1     160.045 161.100 186.527  1.00  0.00    -0.000 C 
BRANCH  13  14
ATOM     14  C   UNL     1     159.955 161.489 188.014  1.00  0.00    -0.000 C 
BRANCH  14  15
ATOM     15  C   UNL     1     159.878 163.002 188.287  1.00  0.00    -0.003 C 
ATOM     16  C   UNL     1     161.147 163.559 188.931  1.00  0.00     0.004 C 
ENDBRANCH  14  15
ENDBRANCH  13  14
ENDBRANCH  12  13
ENDBRANCH  11  12
ENDBRANCH  10  11
ENDBRANCH   1  10
TORSDOF 12
ENDMDL
MODEL 4
REMARK VINA RESULT:    -3.632      2.212      5.354
REMARK INTER + INTRA:          -7.529
REMARK INTER:                  -6.109
REMARK INTRA:                  -1.420
REMARK UNBOUND:                -1.349
REMARK SMILES CCCCCCCCCCCCCC(=O)[O-]
REMARK SMILES IDX 8 1 9 2 10 3 11 4 12 5 13 6 14 7 15 8 16 9 7 10 6 11 5 12
REMARK SMILES IDX 4 13 3 14 2 15 1 16
REMARK H PARENT
REMARK Flexibility Score: inf
ROOT
ATOM      1  C   UNL     1     161.696 164.283 187.690  1.00  0.00     0.000 C 
ENDROOT
BRANCH   1   2
ATOM      2  C   UNL     1     163.217 164.052 187.695  1.00  0.00     0.000 C 
BRANCH   2   3
ATOM      3  C   UNL     1     163.696 163.256 188.923  1.00  0.00     0.000 C 
BRANCH   3   4
ATOM      4  C   UNL     1     164.514 161.989 188.606  1.00  0.00     0.000 C 
BRANCH   4   5
ATOM      5  C   UNL     1     165.982 162.021 189.077  1.00  0.00     0.006 C 
BRANCH   5   6
ATOM      6  C   UNL     1     166.636 160.637 189.210  1.00  0.00     0.053 C 
BRANCH   6   7
ATOM      7  C   UNL     1     167.420 160.268 187.988  1.00  0.00     0.041 C 
ATOM      8  O   UNL     1     168.679 160.277 188.018  1.00  0.00    -0.550 OA
ATOM      9  O   UNL     1     166.762 159.947 186.807  1.00  0.00    -0.550 OA
ENDBRANCH   6   7
ENDBRANCH   5   6
ENDBRANCH   4   5
ENDBRANCH   3   4
ENDBRANCH   2   3
ENDBRANCH   1   2
BRANCH   1  10
ATOM     10  C   UNL     1     161.002 163.673 188.918  1.00  0.00     0.000 C 
BRANCH  10  11
ATOM     11  C   UNL     1     159.875 162.696 188.536  1.00  0.00    -0.000 C 
BRANCH  11  12
ATOM     12  C   UNL     1     160.412 161.352 188.015  1.00  0.00    -0.000 C 
BRANCH  12  13
ATOM     13  C   UNL     1     159.890 161.014 186.608  1.00  0.00    -0.000 C 
BRANCH  13  14
ATOM     14  C   UNL     1     160.853 161.453 185.491  1.00  0.00    -0.000 C 
BRANCH  14  15
ATOM     15  C   UNL     1     162.321 161.040 185.699  1.00  0.00    -0.003 C 
ATOM     16  C   UNL     1     163.097 160.908 184.388  1.00  0.00     0.004 C 
ENDBRANCH  14  15
ENDBRANCH  13  14
ENDBRANCH  12  13
ENDBRANCH  11  12
ENDBRANCH  10  11
ENDBRANCH   1  10
TORSDOF 12
ENDMDL
MODEL 5
REMARK VINA RESULT:    -3.605      1.172      2.155
REMARK INTER + INTRA:          -7.482
REMARK INTER:                  -5.990
REMARK INTRA:                  -1.492
REMARK UNBOUND:                -1.349
REMARK SMILES CCCCCCCCCCCCCC(=O)[O-]
REMARK SMILES IDX 8 1 9 2 10 3 11 4 12 5 13 6 14 7 15 8 16 9 7 10 6 11 5 12
REMARK SMILES IDX 4 13 3 14 2 15 1 16
REMARK H PARENT
REMARK Flexibility Score: inf
ROOT
ATOM      1  C   UNL     1     160.974 164.160 187.403  1.00  0.00     0.000 C 
ENDROOT
BRANCH   1   2
ATOM      2  C   UNL     1     159.877 163.994 186.337  1.00  0.00     0.000 C 
BRANCH   2   3
ATOM      3  C   UNL     1     160.306 163.077 185.177  1.00  0.00     0.000 C 
BRANCH   3   4
ATOM      4  C   UNL     1     160.181 161.566 185.454  1.00  0.00     0.000 C 
BRANCH   4   5
ATOM      5  C   UNL     1     161.401 160.719 185.037  1.00  0.00     0.006 C 
BRANCH   5   6
ATOM      6  C   UNL     1     162.686 161.529 184.806  1.00  0.00     0.053 C 
BRANCH   6   7
ATOM      7  C   UNL     1     163.789 160.684 184.245  1.00  0.00     0.041 C 
ATOM      8  O   UNL     1     163.945 160.593 182.999  1.00  0.00    -0.550 OA
ATOM      9  O   UNL     1     164.622 159.970 185.098  1.00  0.00    -0.550 OA
ENDBRANCH   6   7
ENDBRANCH   5   6
ENDBRANCH   4   5
ENDBRANCH   3   4
ENDBRANCH   2   3
ENDBRANCH   1   2
BRANCH   1  10
ATOM     10  C   UNL     1     160.615 163.475 188.732  1.00  0.00     0.000 C 
BRANCH  10  11
ATOM     11  C   UNL     1     161.239 162.074 188.862  1.00  0.00    -0.000 C 
BRANCH  11  12
ATOM     12  C   UNL     1     162.717 162.045 188.438  1.00  0.00    -0.000 C 
BRANCH  12  13
ATOM     13  C   UNL     1     163.317 160.629 188.485  1.00  0.00    -0.000 C 
BRANCH  13  14
ATOM     14  C   UNL     1     164.856 160.631 188.483  1.00  0.00    -0.000 C 
BRANCH  14  15
ATOM     15  C   UNL     1     165.506 161.813 189.224  1.00  0.00    -0.003 C 
ATOM     16  C   UNL     1     167.010 161.635 189.431  1.00  0.00     0.004 C 
ENDBRANCH  14  15
ENDBRANCH  13  14
ENDBRANCH  12  13
ENDBRANCH  11  12
ENDBRANCH  10  11
ENDBRANCH   1  10
TORSDOF 12
ENDMDL
MODEL 6
REMARK VINA RESULT:    -3.536      1.646      5.295
REMARK INTER + INTRA:          -7.365
REMARK INTER:                  -5.573
REMARK INTRA:                  -1.792
REMARK UNBOUND:                -1.349
REMARK SMILES CCCCCCCCCCCCCC(=O)[O-]
REMARK SMILES IDX 8 1 9 2 10 3 11 4 12 5 13 6 14 7 15 8 16 9 7 10 6 11 5 12
REMARK SMILES IDX 4 13 3 14 2 15 1 16
REMARK H PARENT
REMARK Flexibility Score: inf
ROOT
ATOM      1  C   UNL     1     163.817 162.344 188.472  1.00  0.00     0.000 C 
ENDROOT
BRANCH   1   2
ATOM      2  C   UNL     1     163.863 160.816 188.305  1.00  0.00     0.000 C 
BRANCH   2   3
ATOM      3  C   UNL     1     164.825 160.135 189.296  1.00  0.00     0.000 C 
BRANCH   3   4
ATOM      4  C   UNL     1     166.156 160.876 189.534  1.00  0.00     0.000 C 
BRANCH   4   5
ATOM      5  C   UNL     1     167.357 160.342 188.729  1.00  0.00     0.006 C 
BRANCH   5   6
ATOM      6  C   UNL     1     167.925 161.334 187.703  1.00  0.00     0.053 C 
BRANCH   6   7
ATOM      7  C   UNL     1     166.987 161.555 186.557  1.00  0.00     0.041 C 
ATOM      8  O   UNL     1     166.619 160.584 185.844  1.00  0.00    -0.550 OA
ATOM      9  O   UNL     1     166.545 162.837 186.254  1.00  0.00    -0.550 OA
ENDBRANCH   6   7
ENDBRANCH   5   6
ENDBRANCH   4   5
ENDBRANCH   3   4
ENDBRANCH   2   3
ENDBRANCH   1   2
BRANCH   1  10
ATOM     10  C   UNL     1     162.381 162.889 188.535  1.00  0.00     0.000 C 
BRANCH  10  11
ATOM     11  C   UNL     1     161.323 161.771 188.522  1.00  0.00    -0.000 C 
BRANCH  11  12
ATOM     12  C   UNL     1     160.206 162.028 187.497  1.00  0.00    -0.000 C 
BRANCH  12  13
ATOM     13  C   UNL     1     160.746 162.204 186.067  1.00  0.00    -0.000 C 
BRANCH  13  14
ATOM     14  C   UNL     1     161.267 160.890 185.458  1.00  0.00    -0.000 C 
BRANCH  14  15
ATOM     15  C   UNL     1     162.611 161.005 184.718  1.00  0.00    -0.003 C 
ATOM     16  C   UNL     1     163.244 162.391 184.838  1.00  0.00     0.004 C 
ENDBRANCH  14  15
ENDBRANCH  13  14
ENDBRANCH  12  13
ENDBRANCH  11  12
ENDBRANCH  10  11
ENDBRANCH   1  10
TORSDOF 12
ENDMDL
MODEL 7
REMARK VINA RESULT:    -3.530     17.988     19.771
REMARK INTER + INTRA:          -7.355
REMARK INTER:                  -5.761
REMARK INTRA:                  -1.594
REMARK UNBOUND:                -1.349
REMARK SMILES CCCCCCCCCCCCCC(=O)[O-]
REMARK SMILES IDX 8 1 9 2 10 3 11 4 12 5 13 6 14 7 15 8 16 9 7 10 6 11 5 12
REMARK SMILES IDX 4 13 3 14 2 15 1 16
REMARK H PARENT
REMARK Flexibility Score: inf
ROOT
ATOM      1  C   UNL     1     178.371 174.659 188.703  1.00  0.00     0.000 C 
ENDROOT
BRANCH   1   2
ATOM      2  C   UNL     1     179.583 173.718 188.814  1.00  0.00     0.000 C 
BRANCH   2   3
ATOM      3  C   UNL     1     179.419 172.433 187.981  1.00  0.00     0.000 C 
BRANCH   3   4
ATOM      4  C   UNL     1     179.365 172.641 186.455  1.00  0.00     0.000 C 
BRANCH   4   5
ATOM      5  C   UNL     1     177.953 172.604 185.837  1.00  0.00     0.006 C 
BRANCH   5   6
ATOM      6  C   UNL     1     177.695 173.689 184.780  1.00  0.00     0.053 C 
BRANCH   6   7
ATOM      7  C   UNL     1     178.846 174.640 184.660  1.00  0.00     0.041 C 
ATOM      8  O   UNL     1     178.935 175.627 185.436  1.00  0.00    -0.550 OA
ATOM      9  O   UNL     1     179.801 174.455 183.668  1.00  0.00    -0.550 OA
ENDBRANCH   6   7
ENDBRANCH   5   6
ENDBRANCH   4   5
ENDBRANCH   3   4
ENDBRANCH   2   3
ENDBRANCH   1   2
BRANCH   1  10
ATOM     10  C   UNL     1     177.610 174.801 190.031  1.00  0.00     0.000 C 
BRANCH  10  11
ATOM     11  C   UNL     1     176.223 174.133 189.991  1.00  0.00    -0.000 C 
BRANCH  11  12
ATOM     12  C   UNL     1     175.779 173.781 188.561  1.00  0.00    -0.000 C 
BRANCH  12  13
ATOM     13  C   UNL     1     174.501 174.526 188.140  1.00  0.00    -0.000 C 
BRANCH  13  14
ATOM     14  C   UNL     1     174.655 175.267 186.799  1.00  0.00    -0.000 C 
BRANCH  14  15
ATOM     15  C   UNL     1     175.826 176.263 186.737  1.00  0.00    -0.003 C 
ATOM     16  C   UNL     1     175.631 177.475 187.648  1.00  0.00     0.004 C 
ENDBRANCH  14  15
ENDBRANCH  13  14
ENDBRANCH  12  13
ENDBRANCH  11  12
ENDBRANCH  10  11
ENDBRANCH   1  10
TORSDOF 12
ENDMDL
MODEL 8
REMARK VINA RESULT:    -1.250      1.310      2.014
REMARK INTER + INTRA:          -3.476
REMARK INTER:                  -1.839
REMARK INTRA:                  -1.637
REMARK UNBOUND:                -1.349
REMARK SMILES CCCCCCCCCCCCCC(=O)[O-]
REMARK SMILES IDX 8 1 9 2 10 3 11 4 12 5 13 6 14 7 15 8 16 9 7 10 6 11 5 12
REMARK SMILES IDX 4 13 3 14 2 15 1 16
REMARK H PARENT
REMARK Flexibility Score: inf
ROOT
ATOM      1  C   UNL     1     163.842 163.286 187.561  1.00  0.00     0.000 C 
ENDROOT
BRANCH   1   2
ATOM      2  C   UNL     1     163.055 163.311 188.883  1.00  0.00     0.000 C 
BRANCH   2   3
ATOM      3  C   UNL     1     161.543 163.516 188.674  1.00  0.00     0.000 C 
BRANCH   3   4
ATOM      4  C   UNL     1     160.678 162.253 188.851  1.00  0.00     0.000 C 
BRANCH   4   5
ATOM      5  C   UNL     1     159.875 161.827 187.605  1.00  0.00     0.006 C 
BRANCH   5   6
ATOM      6  C   UNL     1     160.273 162.559 186.314  1.00  0.00     0.053 C 
BRANCH   6   7
ATOM      7  C   UNL     1     160.713 161.608 185.243  1.00  0.00     0.041 C 
ATOM      8  O   UNL     1     161.289 160.532 185.551  1.00  0.00    -0.550 OA
ATOM      9  O   UNL     1     160.519 161.927 183.905  1.00  0.00    -0.550 OA
ENDBRANCH   6   7
ENDBRANCH   5   6
ENDBRANCH   4   5
ENDBRANCH   3   4
ENDBRANCH   2   3
ENDBRANCH   1   2
BRANCH   1  10
ATOM     10  C   UNL     1     164.147 161.858 187.082  1.00  0.00     0.000 C 
BRANCH  10  11
ATOM     11  C   UNL     1     163.792 160.792 188.135  1.00  0.00    -0.000 C 
BRANCH  11  12
ATOM     12  C   UNL     1     165.018 160.328 188.939  1.00  0.00    -0.000 C 
BRANCH  12  13
ATOM     13  C   UNL     1     166.345 160.652 188.232  1.00  0.00    -0.000 C 
BRANCH  13  14
ATOM     14  C   UNL     1     167.206 161.664 189.010  1.00  0.00    -0.000 C 
BRANCH  14  15
ATOM     15  C   UNL     1     166.601 162.145 190.341  1.00  0.00    -0.003 C 
ATOM     16  C   UNL     1     166.838 163.632 190.603  1.00  0.00     0.004 C 
ENDBRANCH  14  15
ENDBRANCH  13  14
ENDBRANCH  12  13
ENDBRANCH  11  12
ENDBRANCH  10  11
ENDBRANCH   1  10
TORSDOF 12
ENDMDL
