MODEL 1
REMARK VINA RESULT:    -7.266      0.000      0.000
REMARK INTER + INTRA:          -7.983
REMARK INTER:                  -7.904
REMARK INTRA:                  -0.080
REMARK UNBOUND:                -0.080
REMARK SMILES CC1(C)CC[C@@]2(C(=O)[O-])CC[C@@]3(C)C(=CC[C@H]4[C@@]5(C)CC[C@@H](O)C(C)(C)[C@H]5CC[C@]43C)[C@H]2C1
REMARK SMILES IDX 6 1 5 2 10 3 32 4 4 5 11 6 14 7 33 8 2 9 12 10 15 11 1 12
REMARK SMILES IDX 3 13 13 14 30 15 16 16 17 17 29 18 31 19 18 20 28 21 27 22
REMARK SMILES IDX 20 23 19 24 24 25 21 26 22 27 25 28 26 29 7 30 8 31 9 32
REMARK SMILES IDX 23 33
REMARK H PARENT 23 34
REMARK Flexibility Score: inf
ROOT
ATOM      1  C   UNL     1     -20.424  -8.897  -2.909  1.00  0.00     0.017 C 
ATOM      2  C   UNL     1     -21.650  -9.761  -2.488  1.00  0.00     0.014 C 
ATOM      3  C   UNL     1     -19.598  -9.693  -3.971  1.00  0.00     0.014 C 
ATOM      4  C   UNL     1     -20.924  -7.504  -3.452  1.00  0.00     0.028 C 
ATOM      5  C   UNL     1     -22.545  -9.074  -1.447  1.00  0.00     0.007 C 
ATOM      6  C   UNL     1     -19.295  -8.914  -5.256  1.00  0.00     0.013 C 
ATOM      7  C   UNL     1     -21.359  -7.515  -4.942  1.00  0.00    -0.064 C 
ATOM      8  C   UNL     1     -21.885  -6.827  -2.417  1.00  0.00     0.015 C 
ATOM      9  C   UNL     1     -23.074  -7.705  -1.929  1.00  0.00    -0.035 C 
ATOM     10  C   UNL     1     -20.569  -8.336  -5.970  1.00  0.00    -0.006 C 
ATOM     11  C   UNL     1     -22.273  -6.633  -5.389  1.00  0.00    -0.027 C 
ATOM     12  C   UNL     1     -23.748  -7.001  -0.732  1.00  0.00     0.011 C 
ATOM     13  C   UNL     1     -24.148  -7.892  -3.024  1.00  0.00     0.011 C 
ATOM     14  C   UNL     1     -21.475  -9.535  -6.389  1.00  0.00     0.017 C 
ATOM     15  C   UNL     1     -20.194  -7.440  -7.268  1.00  0.00    -0.020 C 
ATOM     16  C   UNL     1     -22.355  -6.120  -6.792  1.00  0.00     0.032 C 
ATOM     17  C   UNL     1     -21.498  -6.805  -7.895  1.00  0.00     0.006 C 
ATOM     18  C   UNL     1     -19.274  -6.252  -6.885  1.00  0.00     0.008 C 
ATOM     19  C   UNL     1     -19.462  -8.342  -8.315  1.00  0.00     0.012 C 
ATOM     20  C   UNL     1     -21.289  -5.845  -9.173  1.00  0.00    -0.025 C 
ATOM     21  C   UNL     1     -18.886  -5.334  -8.052  1.00  0.00     0.005 C 
ATOM     22  C   UNL     1     -20.003  -4.898  -9.067  1.00  0.00     0.003 C 
ATOM     23  C   UNL     1     -22.594  -4.999  -9.439  1.00  0.00     0.010 C 
ATOM     24  C   UNL     1     -21.168  -6.737 -10.460  1.00  0.00     0.012 C 
ATOM     25  C   UNL     1     -20.264  -3.333  -9.095  1.00  0.00    -0.006 C 
ATOM     26  C   UNL     1     -22.458  -3.888 -10.482  1.00  0.00     0.033 C 
ATOM     27  C   UNL     1     -21.217  -2.984 -10.296  1.00  0.00     0.120 C 
ATOM     28  C   UNL     1     -20.810  -2.799  -7.742  1.00  0.00     0.014 C 
ATOM     29  C   UNL     1     -18.925  -2.575  -9.372  1.00  0.00     0.014 C 
ENDROOT
BRANCH   1  30
ATOM     30  C   UNL     1     -19.518  -8.702  -1.691  1.00  0.00     0.048 C 
ATOM     31  O   UNL     1     -18.878  -7.628  -1.522  1.00  0.00    -0.550 OA
ATOM     32  O   UNL     1     -19.262  -9.771  -0.833  1.00  0.00    -0.550 OA
ENDBRANCH   1  30
BRANCH  27  33
ATOM     33  O   UNL     1     -21.586  -1.622 -10.287  1.00  0.00    -0.393 OA
ATOM     34  H   UNL     1     -21.362  -1.236 -11.171  1.00  0.00     0.210 HD
ENDBRANCH  27  33
TORSDOF 2
ENDMDL
MODEL 2
REMARK VINA RESULT:    -7.080      3.719      5.821
REMARK INTER + INTRA:          -7.780
REMARK INTER:                  -7.702
REMARK INTRA:                  -0.079
REMARK UNBOUND:                -0.080
REMARK SMILES CC1(C)CC[C@@]2(C(=O)[O-])CC[C@@]3(C)C(=CC[C@H]4[C@@]5(C)CC[C@@H](O)C(C)(C)[C@H]5CC[C@]43C)[C@H]2C1
REMARK SMILES IDX 6 1 5 2 10 3 32 4 4 5 11 6 14 7 33 8 2 9 12 10 15 11 1 12
REMARK SMILES IDX 3 13 13 14 30 15 16 16 17 17 29 18 31 19 18 20 28 21 27 22
REMARK SMILES IDX 20 23 19 24 24 25 21 26 22 27 25 28 26 29 7 30 8 31 9 32
REMARK SMILES IDX 23 33
REMARK H PARENT 23 34
REMARK Flexibility Score: inf
ROOT
ATOM      1  C   UNL     1     -21.198 -14.337  -4.073  1.00  0.00     0.017 C 
ATOM      2  C   UNL     1     -20.736 -15.364  -5.149  1.00  0.00     0.014 C 
ATOM      3  C   UNL     1     -19.930 -13.691  -3.428  1.00  0.00     0.014 C 
ATOM      4  C   UNL     1     -22.149 -13.270  -4.740  1.00  0.00     0.028 C 
ATOM      5  C   UNL     1     -21.904 -16.062  -5.860  1.00  0.00     0.007 C 
ATOM      6  C   UNL     1     -19.931 -12.158  -3.418  1.00  0.00     0.013 C 
ATOM      7  C   UNL     1     -21.406 -12.107  -5.453  1.00  0.00    -0.064 C 
ATOM      8  C   UNL     1     -23.308 -13.980  -5.517  1.00  0.00     0.015 C 
ATOM      9  C   UNL     1     -22.866 -15.064  -6.542  1.00  0.00    -0.035 C 
ATOM     10  C   UNL     1     -20.136 -11.510  -4.834  1.00  0.00    -0.006 C 
ATOM     11  C   UNL     1     -21.988 -11.460  -6.480  1.00  0.00    -0.027 C 
ATOM     12  C   UNL     1     -24.116 -15.840  -7.008  1.00  0.00     0.011 C 
ATOM     13  C   UNL     1     -22.208 -14.445  -7.796  1.00  0.00     0.011 C 
ATOM     14  C   UNL     1     -18.941 -11.940  -5.741  1.00  0.00     0.017 C 
ATOM     15  C   UNL     1     -20.227  -9.892  -4.763  1.00  0.00    -0.020 C 
ATOM     16  C   UNL     1     -21.721 -10.037  -6.858  1.00  0.00     0.032 C 
ATOM     17  C   UNL     1     -20.526  -9.293  -6.195  1.00  0.00     0.006 C 
ATOM     18  C   UNL     1     -21.393  -9.433  -3.849  1.00  0.00     0.008 C 
ATOM     19  C   UNL     1     -18.879  -9.331  -4.202  1.00  0.00     0.012 C 
ATOM     20  C   UNL     1     -20.692  -7.693  -6.286  1.00  0.00    -0.025 C 
ATOM     21  C   UNL     1     -21.568  -7.913  -3.741  1.00  0.00     0.005 C 
ATOM     22  C   UNL     1     -21.489  -7.055  -5.054  1.00  0.00     0.003 C 
ATOM     23  C   UNL     1     -21.355  -7.291  -7.660  1.00  0.00     0.010 C 
ATOM     24  C   UNL     1     -19.264  -7.042  -6.369  1.00  0.00     0.012 C 
ATOM     25  C   UNL     1     -22.835  -6.286  -5.396  1.00  0.00    -0.006 C 
ATOM     26  C   UNL     1     -21.774  -5.824  -7.785  1.00  0.00     0.033 C 
ATOM     27  C   UNL     1     -22.578  -5.283  -6.579  1.00  0.00     0.120 C 
ATOM     28  C   UNL     1     -24.011  -7.255  -5.698  1.00  0.00     0.014 C 
ATOM     29  C   UNL     1     -23.273  -5.411  -4.177  1.00  0.00     0.014 C 
ENDROOT
BRANCH   1  30
ATOM     30  C   UNL     1     -21.935 -15.087  -2.960  1.00  0.00     0.048 C 
ATOM     31  O   UNL     1     -22.801 -14.508  -2.249  1.00  0.00    -0.550 OA
ATOM     32  O   UNL     1     -21.544 -16.379  -2.612  1.00  0.00    -0.550 OA
ENDBRANCH   1  30
BRANCH  27  33
ATOM     33  O   UNL     1     -23.773  -4.670  -7.010  1.00  0.00    -0.393 OA
ATOM     34  H   UNL     1     -24.194  -5.256  -7.690  1.00  0.00     0.210 HD
ENDBRANCH  27  33
TORSDOF 2
ENDMDL
MODEL 3
REMARK VINA RESULT:    -6.814      2.415      4.080
REMARK INTER + INTRA:          -7.491
REMARK INTER:                  -7.410
REMARK INTRA:                  -0.081
REMARK UNBOUND:                -0.080
REMARK SMILES CC1(C)CC[C@@]2(C(=O)[O-])CC[C@@]3(C)C(=CC[C@H]4[C@@]5(C)CC[C@@H](O)C(C)(C)[C@H]5CC[C@]43C)[C@H]2C1
REMARK SMILES IDX 6 1 5 2 10 3 32 4 4 5 11 6 14 7 33 8 2 9 12 10 15 11 1 12
REMARK SMILES IDX 3 13 13 14 30 15 16 16 17 17 29 18 31 19 18 20 28 21 27 22
REMARK SMILES IDX 20 23 19 24 24 25 21 26 22 27 25 28 26 29 7 30 8 31 9 32
REMARK SMILES IDX 23 33
REMARK H PARENT 23 34
REMARK Flexibility Score: inf
ROOT
ATOM      1  C   UNL     1     -22.918  -9.307  -0.108  1.00  0.00     0.017 C 
ATOM      2  C   UNL     1     -22.670 -10.843  -0.032  1.00  0.00     0.014 C 
ATOM      3  C   UNL     1     -21.553  -8.574   0.097  1.00  0.00     0.014 C 
ATOM      4  C   UNL     1     -23.594  -8.953  -1.488  1.00  0.00     0.028 C 
ATOM      5  C   UNL     1     -23.947 -11.672  -0.227  1.00  0.00     0.007 C 
ATOM      6  C   UNL     1     -21.216  -7.541  -0.985  1.00  0.00     0.013 C 
ATOM      7  C   UNL     1     -22.598  -8.796  -2.668  1.00  0.00    -0.064 C 
ATOM      8  C   UNL     1     -24.864  -9.840  -1.719  1.00  0.00     0.015 C 
ATOM      9  C   UNL     1     -24.649 -11.374  -1.570  1.00  0.00    -0.035 C 
ATOM     10  C   UNL     1     -21.241  -8.115  -2.447  1.00  0.00    -0.006 C 
ATOM     11  C   UNL     1     -22.998  -9.035  -3.931  1.00  0.00    -0.027 C 
ATOM     12  C   UNL     1     -26.029 -12.066  -1.558  1.00  0.00     0.011 C 
ATOM     13  C   UNL     1     -23.843 -11.965  -2.749  1.00  0.00     0.011 C 
ATOM     14  C   UNL     1     -20.151  -9.227  -2.549  1.00  0.00     0.017 C 
ATOM     15  C   UNL     1     -20.974  -6.969  -3.563  1.00  0.00    -0.020 C 
ATOM     16  C   UNL     1     -22.417  -8.396  -5.152  1.00  0.00     0.032 C 
ATOM     17  C   UNL     1     -21.101  -7.575  -5.017  1.00  0.00     0.006 C 
ATOM     18  C   UNL     1     -22.030  -5.837  -3.470  1.00  0.00     0.008 C 
ATOM     19  C   UNL     1     -19.549  -6.364  -3.340  1.00  0.00     0.012 C 
ATOM     20  C   UNL     1     -20.908  -6.548  -6.244  1.00  0.00    -0.025 C 
ATOM     21  C   UNL     1     -21.868  -4.717  -4.507  1.00  0.00     0.005 C 
ATOM     22  C   UNL     1     -21.572  -5.113  -5.998  1.00  0.00     0.003 C 
ATOM     23  C   UNL     1     -21.435  -7.194  -7.583  1.00  0.00     0.010 C 
ATOM     24  C   UNL     1     -19.370  -6.366  -6.511  1.00  0.00     0.012 C 
ATOM     25  C   UNL     1     -22.707  -4.668  -7.014  1.00  0.00    -0.006 C 
ATOM     26  C   UNL     1     -21.517  -6.248  -8.784  1.00  0.00     0.033 C 
ATOM     27  C   UNL     1     -22.209  -4.897  -8.487  1.00  0.00     0.120 C 
ATOM     28  C   UNL     1     -24.061  -5.379  -6.739  1.00  0.00     0.014 C 
ATOM     29  C   UNL     1     -22.968  -3.132  -6.880  1.00  0.00     0.014 C 
ENDROOT
BRANCH   1  30
ATOM     30  C   UNL     1     -23.827  -8.896   1.053  1.00  0.00     0.048 C 
ATOM     31  O   UNL     1     -24.664  -7.961   0.924  1.00  0.00    -0.550 OA
ATOM     32  O   UNL     1     -23.631  -9.444   2.320  1.00  0.00    -0.550 OA
ENDBRANCH   1  30
BRANCH  27  33
ATOM     33  O   UNL     1     -23.229  -4.640  -9.426  1.00  0.00    -0.393 OA
ATOM     34  H   UNL     1     -23.127  -5.280 -10.176  1.00  0.00     0.210 HD
ENDBRANCH  27  33
TORSDOF 2
ENDMDL
MODEL 4
REMARK VINA RESULT:    -6.633      3.039      5.198
REMARK INTER + INTRA:          -7.294
REMARK INTER:                  -7.684
REMARK INTRA:                   0.390
REMARK UNBOUND:                -0.080
REMARK SMILES CC1(C)CC[C@@]2(C(=O)[O-])CC[C@@]3(C)C(=CC[C@H]4[C@@]5(C)CC[C@@H](O)C(C)(C)[C@H]5CC[C@]43C)[C@H]2C1
REMARK SMILES IDX 6 1 5 2 10 3 32 4 4 5 11 6 14 7 33 8 2 9 12 10 15 11 1 12
REMARK SMILES IDX 3 13 13 14 30 15 16 16 17 17 29 18 31 19 18 20 28 21 27 22
REMARK SMILES IDX 20 23 19 24 24 25 21 26 22 27 25 28 26 29 7 30 8 31 9 32
REMARK SMILES IDX 23 33
REMARK H PARENT 23 34
REMARK Flexibility Score: inf
ROOT
ATOM      1  C   UNL     1     -22.434 -12.492  -4.145  1.00  0.00     0.017 C 
ATOM      2  C   UNL     1     -21.283 -13.358  -3.551  1.00  0.00     0.014 C 
ATOM      3  C   UNL     1     -22.920 -11.494  -3.045  1.00  0.00     0.014 C 
ATOM      4  C   UNL     1     -21.924 -11.759  -5.444  1.00  0.00     0.028 C 
ATOM      5  C   UNL     1     -20.717 -14.377  -4.550  1.00  0.00     0.007 C 
ATOM      6  C   UNL     1     -22.965 -10.028  -3.491  1.00  0.00     0.013 C 
ATOM      7  C   UNL     1     -21.146 -10.443  -5.175  1.00  0.00    -0.064 C 
ATOM      8  C   UNL     1     -21.290 -12.789  -6.439  1.00  0.00     0.015 C 
ATOM      9  C   UNL     1     -20.191 -13.714  -5.842  1.00  0.00    -0.035 C 
ATOM     10  C   UNL     1     -21.604  -9.491  -4.062  1.00  0.00    -0.006 C 
ATOM     11  C   UNL     1     -20.220 -10.010  -6.051  1.00  0.00    -0.027 C 
ATOM     12  C   UNL     1     -19.877 -14.829  -6.862  1.00  0.00     0.011 C 
ATOM     13  C   UNL     1     -18.876 -12.951  -5.567  1.00  0.00     0.011 C 
ATOM     14  C   UNL     1     -20.537  -9.570  -2.926  1.00  0.00     0.017 C 
ATOM     15  C   UNL     1     -21.724  -7.969  -4.610  1.00  0.00    -0.020 C 
ATOM     16  C   UNL     1     -19.843  -8.578  -6.263  1.00  0.00     0.032 C 
ATOM     17  C   UNL     1     -20.359  -7.507  -5.258  1.00  0.00     0.006 C 
ATOM     18  C   UNL     1     -22.795  -7.855  -5.726  1.00  0.00     0.008 C 
ATOM     19  C   UNL     1     -22.115  -7.030  -3.422  1.00  0.00     0.012 C 
ATOM     20  C   UNL     1     -20.327  -6.027  -5.893  1.00  0.00    -0.025 C 
ATOM     21  C   UNL     1     -22.960  -6.450  -6.320  1.00  0.00     0.005 C 
ATOM     22  C   UNL     1     -21.668  -5.628  -6.670  1.00  0.00     0.003 C 
ATOM     23  C   UNL     1     -19.063  -5.858  -6.822  1.00  0.00     0.010 C 
ATOM     24  C   UNL     1     -20.071  -4.989  -4.742  1.00  0.00     0.012 C 
ATOM     25  C   UNL     1     -21.526  -5.290  -8.214  1.00  0.00    -0.006 C 
ATOM     26  C   UNL     1     -19.028  -4.579  -7.662  1.00  0.00     0.033 C 
ATOM     27  C   UNL     1     -20.342  -4.276  -8.421  1.00  0.00     0.120 C 
ATOM     28  C   UNL     1     -21.360  -6.566  -9.087  1.00  0.00     0.014 C 
ATOM     29  C   UNL     1     -22.813  -4.561  -8.721  1.00  0.00     0.014 C 
ENDROOT
BRANCH   1  30
ATOM     30  C   UNL     1     -23.617 -13.405  -4.476  1.00  0.00     0.048 C 
ATOM     31  O   UNL     1     -23.757 -13.895  -5.630  1.00  0.00    -0.550 OA
ATOM     32  O   UNL     1     -24.644 -13.580  -3.549  1.00  0.00    -0.550 OA
ENDBRANCH   1  30
BRANCH  27  33
ATOM     33  O   UNL     1     -20.088  -4.045  -9.789  1.00  0.00    -0.393 OA
ATOM     34  H   UNL     1     -20.866  -3.564 -10.171  1.00  0.00     0.210 HD
ENDBRANCH  27  33
TORSDOF 2
ENDMDL
MODEL 5
REMARK VINA RESULT:    -6.575      4.836      8.030
REMARK INTER + INTRA:          -7.232
REMARK INTER:                  -7.146
REMARK INTRA:                  -0.086
REMARK UNBOUND:                -0.080
REMARK SMILES CC1(C)CC[C@@]2(C(=O)[O-])CC[C@@]3(C)C(=CC[C@H]4[C@@]5(C)CC[C@@H](O)C(C)(C)[C@H]5CC[C@]43C)[C@H]2C1
REMARK SMILES IDX 6 1 5 2 10 3 32 4 4 5 11 6 14 7 33 8 2 9 12 10 15 11 1 12
REMARK SMILES IDX 3 13 13 14 30 15 16 16 17 17 29 18 31 19 18 20 28 21 27 22
REMARK SMILES IDX 20 23 19 24 24 25 21 26 22 27 25 28 26 29 7 30 8 31 9 32
REMARK SMILES IDX 23 33
REMARK H PARENT 23 34
REMARK Flexibility Score: inf
ROOT
ATOM      1  C   UNL     1     -22.430  -8.373  -2.633  1.00  0.00     0.017 C 
ATOM      2  C   UNL     1     -22.053  -8.288  -1.123  1.00  0.00     0.014 C 
ATOM      3  C   UNL     1     -21.119  -8.264  -3.477  1.00  0.00     0.014 C 
ATOM      4  C   UNL     1     -23.215  -9.713  -2.903  1.00  0.00     0.028 C 
ATOM      5  C   UNL     1     -23.268  -8.390  -0.190  1.00  0.00     0.007 C 
ATOM      6  C   UNL     1     -20.934  -9.381  -4.511  1.00  0.00     0.013 C 
ATOM      7  C   UNL     1     -22.309 -10.955  -3.115  1.00  0.00    -0.064 C 
ATOM      8  C   UNL     1     -24.420  -9.850  -1.912  1.00  0.00     0.015 C 
ATOM      9  C   UNL     1     -24.072  -9.692  -0.403  1.00  0.00    -0.035 C 
ATOM     10  C   UNL     1     -21.001 -10.829  -3.908  1.00  0.00    -0.006 C 
ATOM     11  C   UNL     1     -22.765 -12.187  -2.819  1.00  0.00    -0.027 C 
ATOM     12  C   UNL     1     -25.387  -9.582   0.397  1.00  0.00     0.011 C 
ATOM     13  C   UNL     1     -23.294 -10.909   0.144  1.00  0.00     0.011 C 
ATOM     14  C   UNL     1     -19.832 -10.982  -2.885  1.00  0.00     0.017 C 
ATOM     15  C   UNL     1     -20.897 -11.977  -5.049  1.00  0.00    -0.020 C 
ATOM     16  C   UNL     1     -22.312 -13.451  -3.478  1.00  0.00     0.032 C 
ATOM     17  C   UNL     1     -21.063 -13.411  -4.405  1.00  0.00     0.006 C 
ATOM     18  C   UNL     1     -22.035 -11.836  -6.093  1.00  0.00     0.008 C 
ATOM     19  C   UNL     1     -19.515 -11.854  -5.771  1.00  0.00     0.012 C 
ATOM     20  C   UNL     1     -21.029 -14.663  -5.418  1.00  0.00    -0.025 C 
ATOM     21  C   UNL     1     -22.028 -12.898  -7.201  1.00  0.00     0.005 C 
ATOM     22  C   UNL     1     -21.792 -14.398  -6.800  1.00  0.00     0.003 C 
ATOM     23  C   UNL     1     -21.582 -15.957  -4.705  1.00  0.00     0.010 C 
ATOM     24  C   UNL     1     -19.531 -15.029  -5.719  1.00  0.00     0.012 C 
ATOM     25  C   UNL     1     -23.019 -15.349  -7.131  1.00  0.00    -0.006 C 
ATOM     26  C   UNL     1     -21.814 -17.165  -5.616  1.00  0.00     0.033 C 
ATOM     27  C   UNL     1     -22.595 -16.846  -6.913  1.00  0.00     0.120 C 
ATOM     28  C   UNL     1     -24.292 -14.979  -6.319  1.00  0.00     0.014 C 
ATOM     29  C   UNL     1     -23.397 -15.222  -8.643  1.00  0.00     0.014 C 
ENDROOT
BRANCH   1  30
ATOM     30  C   UNL     1     -23.296  -7.163  -2.993  1.00  0.00     0.048 C 
ATOM     31  O   UNL     1     -24.192  -7.246  -3.877  1.00  0.00    -0.550 OA
ATOM     32  O   UNL     1     -23.001  -5.909  -2.460  1.00  0.00    -0.550 OA
ENDBRANCH   1  30
BRANCH  27  33
ATOM     33  O   UNL     1     -23.688 -17.724  -7.067  1.00  0.00    -0.393 OA
ATOM     34  H   UNL     1     -24.030 -17.633  -7.993  1.00  0.00     0.210 HD
ENDBRANCH  27  33
TORSDOF 2
ENDMDL
MODEL 6
REMARK VINA RESULT:    -5.842      3.141      7.418
REMARK INTER + INTRA:          -6.434
REMARK INTER:                  -6.582
REMARK INTRA:                   0.148
REMARK UNBOUND:                -0.080
REMARK SMILES CC1(C)CC[C@@]2(C(=O)[O-])CC[C@@]3(C)C(=CC[C@H]4[C@@]5(C)CC[C@@H](O)C(C)(C)[C@H]5CC[C@]43C)[C@H]2C1
REMARK SMILES IDX 6 1 5 2 10 3 32 4 4 5 11 6 14 7 33 8 2 9 12 10 15 11 1 12
REMARK SMILES IDX 3 13 13 14 30 15 16 16 17 17 29 18 31 19 18 20 28 21 27 22
REMARK SMILES IDX 20 23 19 24 24 25 21 26 22 27 25 28 26 29 7 30 8 31 9 32
REMARK SMILES IDX 23 33
REMARK H PARENT 23 34
REMARK Flexibility Score: inf
ROOT
ATOM      1  C   UNL     1     -21.207  -5.928  -3.028  1.00  0.00     0.017 C 
ATOM      2  C   UNL     1     -22.286  -4.984  -3.637  1.00  0.00     0.014 C 
ATOM      3  C   UNL     1     -21.813  -6.624  -1.766  1.00  0.00     0.014 C 
ATOM      4  C   UNL     1     -20.736  -6.962  -4.121  1.00  0.00     0.028 C 
ATOM      5  C   UNL     1     -21.803  -4.246  -4.894  1.00  0.00     0.007 C 
ATOM      6  C   UNL     1     -21.685  -8.151  -1.758  1.00  0.00     0.013 C 
ATOM      7  C   UNL     1     -21.659  -8.202  -4.271  1.00  0.00    -0.064 C 
ATOM      8  C   UNL     1     -20.300  -6.216  -5.427  1.00  0.00     0.015 C 
ATOM      9  C   UNL     1     -21.338  -5.211  -6.007  1.00  0.00    -0.035 C 
ATOM     10  C   UNL     1     -22.286  -8.850  -3.031  1.00  0.00    -0.006 C 
ATOM     11  C   UNL     1     -21.729  -8.857  -5.445  1.00  0.00    -0.027 C 
ATOM     12  C   UNL     1     -20.653  -4.378  -7.112  1.00  0.00     0.011 C 
ATOM     13  C   UNL     1     -22.547  -5.929  -6.646  1.00  0.00     0.011 C 
ATOM     14  C   UNL     1     -23.815  -8.540  -3.077  1.00  0.00     0.017 C 
ATOM     15  C   UNL     1     -22.043 -10.454  -3.024  1.00  0.00    -0.020 C 
ATOM     16  C   UNL     1     -22.051 -10.310  -5.597  1.00  0.00     0.032 C 
ATOM     17  C   UNL     1     -22.580 -11.098  -4.364  1.00  0.00     0.006 C 
ATOM     18  C   UNL     1     -20.531 -10.794  -2.955  1.00  0.00     0.008 C 
ATOM     19  C   UNL     1     -22.768 -11.074  -1.785  1.00  0.00     0.012 C 
ATOM     20  C   UNL     1     -22.372 -12.686  -4.533  1.00  0.00    -0.025 C 
ATOM     21  C   UNL     1     -20.206 -12.293  -2.969  1.00  0.00     0.005 C 
ATOM     22  C   UNL     1     -20.961 -13.215  -3.992  1.00  0.00     0.003 C 
ATOM     23  C   UNL     1     -22.595 -13.109  -6.037  1.00  0.00     0.010 C 
ATOM     24  C   UNL     1     -23.527 -13.431  -3.773  1.00  0.00     0.012 C 
ATOM     25  C   UNL     1     -20.005 -13.911  -5.051  1.00  0.00    -0.006 C 
ATOM     26  C   UNL     1     -22.211 -14.550  -6.381  1.00  0.00     0.033 C 
ATOM     27  C   UNL     1     -20.818 -14.981  -5.865  1.00  0.00     0.120 C 
ATOM     28  C   UNL     1     -19.301 -12.882  -5.979  1.00  0.00     0.014 C 
ATOM     29  C   UNL     1     -18.875 -14.697  -4.310  1.00  0.00     0.014 C 
ENDROOT
BRANCH   1  30
ATOM     30  C   UNL     1     -20.025  -5.082  -2.549  1.00  0.00     0.048 C 
ATOM     31  O   UNL     1     -18.881  -5.211  -3.064  1.00  0.00    -0.550 OA
ATOM     32  O   UNL     1     -20.160  -4.267  -1.425  1.00  0.00    -0.550 OA
ENDBRANCH   1  30
BRANCH  27  33
ATOM     33  O   UNL     1     -20.047 -15.536  -6.908  1.00  0.00    -0.393 OA
ATOM     34  H   UNL     1     -19.115 -15.216  -6.807  1.00  0.00     0.210 HD
ENDBRANCH  27  33
TORSDOF 2
ENDMDL
MODEL 7
REMARK VINA RESULT:    -5.752      2.996      5.593
REMARK INTER + INTRA:          -6.337
REMARK INTER:                  -6.258
REMARK INTRA:                  -0.078
REMARK UNBOUND:                -0.080
REMARK SMILES CC1(C)CC[C@@]2(C(=O)[O-])CC[C@@]3(C)C(=CC[C@H]4[C@@]5(C)CC[C@@H](O)C(C)(C)[C@H]5CC[C@]43C)[C@H]2C1
REMARK SMILES IDX 6 1 5 2 10 3 32 4 4 5 11 6 14 7 33 8 2 9 12 10 15 11 1 12
REMARK SMILES IDX 3 13 13 14 30 15 16 16 17 17 29 18 31 19 18 20 28 21 27 22
REMARK SMILES IDX 20 23 19 24 24 25 21 26 22 27 25 28 26 29 7 30 8 31 9 32
REMARK SMILES IDX 23 33
REMARK H PARENT 23 34
REMARK Flexibility Score: inf
ROOT
ATOM      1  C   UNL     1     -24.205 -11.402  -1.230  1.00  0.00     0.017 C 
ATOM      2  C   UNL     1     -23.218 -12.380  -0.526  1.00  0.00     0.014 C 
ATOM      3  C   UNL     1     -24.409 -10.155  -0.309  1.00  0.00     0.014 C 
ATOM      4  C   UNL     1     -23.641 -11.019  -2.651  1.00  0.00     0.028 C 
ATOM      5  C   UNL     1     -22.935 -13.647  -1.345  1.00  0.00     0.007 C 
ATOM      6  C   UNL     1     -24.184  -8.807  -1.004  1.00  0.00     0.013 C 
ATOM      7  C   UNL     1     -22.597  -9.870  -2.638  1.00  0.00    -0.064 C 
ATOM      8  C   UNL     1     -23.294 -12.310  -3.467  1.00  0.00     0.015 C 
ATOM      9  C   UNL     1     -22.368 -13.333  -2.747  1.00  0.00    -0.035 C 
ATOM     10  C   UNL     1     -22.782  -8.671  -1.699  1.00  0.00    -0.006 C 
ATOM     11  C   UNL     1     -21.660  -9.793  -3.602  1.00  0.00    -0.027 C 
ATOM     12  C   UNL     1     -22.352 -14.642  -3.564  1.00  0.00     0.011 C 
ATOM     13  C   UNL     1     -20.912 -12.829  -2.646  1.00  0.00     0.011 C 
ATOM     14  C   UNL     1     -21.683  -8.783  -0.596  1.00  0.00     0.017 C 
ATOM     15  C   UNL     1     -22.626  -7.270  -2.501  1.00  0.00    -0.020 C 
ATOM     16  C   UNL     1     -21.016  -8.527  -4.073  1.00  0.00     0.032 C 
ATOM     17  C   UNL     1     -21.239  -7.221  -3.258  1.00  0.00     0.006 C 
ATOM     18  C   UNL     1     -23.720  -7.121  -3.590  1.00  0.00     0.008 C 
ATOM     19  C   UNL     1     -22.743  -6.086  -1.486  1.00  0.00     0.012 C 
ATOM     20  C   UNL     1     -20.949  -5.906  -4.143  1.00  0.00    -0.025 C 
ATOM     21  C   UNL     1     -23.635  -5.831  -4.417  1.00  0.00     0.005 C 
ATOM     22  C   UNL     1     -22.228  -5.369  -4.942  1.00  0.00     0.003 C 
ATOM     23  C   UNL     1     -19.739  -6.163  -5.122  1.00  0.00     0.010 C 
ATOM     24  C   UNL     1     -20.416  -4.769  -3.200  1.00  0.00     0.012 C 
ATOM     25  C   UNL     1     -22.118  -5.330  -6.524  1.00  0.00    -0.006 C 
ATOM     26  C   UNL     1     -19.499  -5.079  -6.175  1.00  0.00     0.033 C 
ATOM     27  C   UNL     1     -20.770  -4.636  -6.938  1.00  0.00     0.120 C 
ATOM     28  C   UNL     1     -22.270  -6.739  -7.163  1.00  0.00     0.014 C 
ATOM     29  C   UNL     1     -23.261  -4.442  -7.115  1.00  0.00     0.014 C 
ENDROOT
BRANCH   1  30
ATOM     30  C   UNL     1     -25.567 -12.088  -1.363  1.00  0.00     0.048 C 
ATOM     31  O   UNL     1     -26.378 -11.754  -2.270  1.00  0.00    -0.550 OA
ATOM     32  O   UNL     1     -25.997 -12.983  -0.383  1.00  0.00    -0.550 OA
ENDBRANCH   1  30
BRANCH  27  33
ATOM     33  O   UNL     1     -20.562  -4.695  -8.332  1.00  0.00    -0.393 OA
ATOM     34  H   UNL     1     -19.715  -5.181  -8.498  1.00  0.00     0.210 HD
ENDBRANCH  27  33
TORSDOF 2
ENDMDL
MODEL 8
REMARK VINA RESULT:    -5.670      1.938      3.920
REMARK INTER + INTRA:          -6.247
REMARK INTER:                  -6.375
REMARK INTRA:                   0.128
REMARK UNBOUND:                -0.080
REMARK SMILES CC1(C)CC[C@@]2(C(=O)[O-])CC[C@@]3(C)C(=CC[C@H]4[C@@]5(C)CC[C@@H](O)C(C)(C)[C@H]5CC[C@]43C)[C@H]2C1
REMARK SMILES IDX 6 1 5 2 10 3 32 4 4 5 11 6 14 7 33 8 2 9 12 10 15 11 1 12
REMARK SMILES IDX 3 13 13 14 30 15 16 16 17 17 29 18 31 19 18 20 28 21 27 22
REMARK SMILES IDX 20 23 19 24 24 25 21 26 22 27 25 28 26 29 7 30 8 31 9 32
REMARK SMILES IDX 23 33
REMARK H PARENT 23 34
REMARK Flexibility Score: inf
ROOT
ATOM      1  C   UNL     1     -22.412  -9.464  -0.813  1.00  0.00     0.017 C 
ATOM      2  C   UNL     1     -22.607  -8.687   0.523  1.00  0.00     0.014 C 
ATOM      3  C   UNL     1     -23.785  -9.525  -1.557  1.00  0.00     0.014 C 
ATOM      4  C   UNL     1     -21.289  -8.762  -1.669  1.00  0.00     0.028 C 
ATOM      5  C   UNL     1     -21.315  -8.558   1.342  1.00  0.00     0.007 C 
ATOM      6  C   UNL     1     -23.741  -9.049  -3.014  1.00  0.00     0.013 C 
ATOM      7  C   UNL     1     -21.785  -7.553  -2.508  1.00  0.00    -0.064 C 
ATOM      8  C   UNL     1     -19.989  -8.573  -0.817  1.00  0.00     0.015 C 
ATOM      9  C   UNL     1     -20.180  -7.866   0.556  1.00  0.00    -0.035 C 
ATOM     10  C   UNL     1     -23.155  -7.603  -3.198  1.00  0.00    -0.006 C 
ATOM     11  C   UNL     1     -20.937  -6.559  -2.833  1.00  0.00    -0.027 C 
ATOM     12  C   UNL     1     -18.876  -8.006   1.368  1.00  0.00     0.011 C 
ATOM     13  C   UNL     1     -20.470  -6.357   0.396  1.00  0.00     0.011 C 
ATOM     14  C   UNL     1     -24.084  -6.604  -2.440  1.00  0.00     0.017 C 
ATOM     15  C   UNL     1     -23.038  -7.180  -4.759  1.00  0.00    -0.020 C 
ATOM     16  C   UNL     1     -21.054  -5.696  -4.050  1.00  0.00     0.032 C 
ATOM     17  C   UNL     1     -22.358  -5.760  -4.896  1.00  0.00     0.006 C 
ATOM     18  C   UNL     1     -22.138  -8.170  -5.544  1.00  0.00     0.008 C 
ATOM     19  C   UNL     1     -24.468  -7.170  -5.392  1.00  0.00     0.012 C 
ATOM     20  C   UNL     1     -22.127  -5.214  -6.394  1.00  0.00    -0.025 C 
ATOM     21  C   UNL     1     -21.951  -7.833  -7.029  1.00  0.00     0.005 C 
ATOM     22  C   UNL     1     -21.660  -6.342  -7.429  1.00  0.00     0.003 C 
ATOM     23  C   UNL     1     -21.117  -4.002  -6.383  1.00  0.00     0.010 C 
ATOM     24  C   UNL     1     -23.463  -4.566  -6.907  1.00  0.00     0.012 C 
ATOM     25  C   UNL     1     -20.249  -6.132  -8.125  1.00  0.00    -0.006 C 
ATOM     26  C   UNL     1     -20.636  -3.532  -7.758  1.00  0.00     0.033 C 
ATOM     27  C   UNL     1     -20.159  -4.668  -8.692  1.00  0.00     0.120 C 
ATOM     28  C   UNL     1     -19.064  -6.464  -7.177  1.00  0.00     0.014 C 
ATOM     29  C   UNL     1     -20.119  -7.082  -9.360  1.00  0.00     0.014 C 
ENDROOT
BRANCH   1  30
ATOM     30  C   UNL     1     -22.013 -10.907  -0.491  1.00  0.00     0.048 C 
ATOM     31  O   UNL     1     -22.691 -11.605   0.312  1.00  0.00    -0.550 OA
ATOM     32  O   UNL     1     -20.802 -11.418  -0.958  1.00  0.00    -0.550 OA
ENDBRANCH   1  30
BRANCH  27  33
ATOM     33  O   UNL     1     -18.875  -4.388  -9.205  1.00  0.00    -0.393 OA
ATOM     34  H   UNL     1     -18.414  -5.249  -9.373  1.00  0.00     0.210 HD
ENDBRANCH  27  33
TORSDOF 2
ENDMDL
