MODEL 1
REMARK VINA RESULT:    -3.957      0.000      0.000
REMARK INTER + INTRA:          -9.836
REMARK INTER:                  -7.659
REMARK INTRA:                  -2.177
REMARK UNBOUND:                -2.177
REMARK SMILES CCCCCCCCCCCCCCCCCC(=O)[O-]
REMARK SMILES IDX 10 1 11 2 12 3 13 4 14 5 15 6 16 7 17 8 18 9 19 10 20 11
REMARK SMILES IDX 9 12 8 13 7 14 6 15 5 16 4 17 3 18 2 19 1 20
REMARK H PARENT
REMARK Flexibility Score: inf
ROOT
ATOM      1  C   UNL     1      29.509  34.028  20.002  1.00  0.00     0.000 C 
ENDROOT
BRANCH   1   2
ATOM      2  C   UNL     1      30.711  33.353  19.321  1.00  0.00     0.000 C 
BRANCH   2   3
ATOM      3  C   UNL     1      31.863  34.333  19.050  1.00  0.00     0.000 C 
BRANCH   3   4
ATOM      4  C   UNL     1      33.027  33.631  18.341  1.00  0.00     0.000 C 
BRANCH   4   5
ATOM      5  C   UNL     1      33.237  32.215  18.897  1.00  0.00     0.000 C 
BRANCH   5   6
ATOM      6  C   UNL     1      33.978  31.297  17.914  1.00  0.00     0.000 C 
BRANCH   6   7
ATOM      7  C   UNL     1      34.786  32.082  16.865  1.00  0.00     0.006 C 
BRANCH   7   8
ATOM      8  C   UNL     1      34.785  31.389  15.497  1.00  0.00     0.053 C 
BRANCH   8   9
ATOM      9  C   UNL     1      35.601  32.143  14.492  1.00  0.00     0.041 C 
ATOM     10  O   UNL     1      35.491  33.393  14.395  1.00  0.00    -0.550 OA
ATOM     11  O   UNL     1      36.459  31.459  13.639  1.00  0.00    -0.550 OA
ENDBRANCH   8   9
ENDBRANCH   7   8
ENDBRANCH   6   7
ENDBRANCH   5   6
ENDBRANCH   4   5
ENDBRANCH   3   4
ENDBRANCH   2   3
ENDBRANCH   1   2
BRANCH   1  12
ATOM     12  C   UNL     1      28.587  33.018  20.709  1.00  0.00     0.000 C 
BRANCH  12  13
ATOM     13  C   UNL     1      27.889  33.622  21.938  1.00  0.00    -0.000 C 
BRANCH  13  14
ATOM     14  C   UNL     1      28.667  33.370  23.241  1.00  0.00    -0.000 C 
BRANCH  14  15
ATOM     15  C   UNL     1      29.515  34.578  23.676  1.00  0.00    -0.000 C 
BRANCH  15  16
ATOM     16  C   UNL     1      31.026  34.444  23.408  1.00  0.00    -0.000 C 
BRANCH  16  17
ATOM     17  C   UNL     1      31.447  33.005  23.062  1.00  0.00    -0.000 C 
BRANCH  17  18
ATOM     18  C   UNL     1      32.817  32.943  22.367  1.00  0.00    -0.000 C 
BRANCH  18  19
ATOM     19  C   UNL     1      33.577  34.276  22.439  1.00  0.00    -0.003 C 
ATOM     20  C   UNL     1      35.003  34.122  21.916  1.00  0.00     0.004 C 
ENDBRANCH  18  19
ENDBRANCH  17  18
ENDBRANCH  16  17
ENDBRANCH  15  16
ENDBRANCH  14  15
ENDBRANCH  13  14
ENDBRANCH  12  13
ENDBRANCH   1  12
TORSDOF 16
ENDMDL
MODEL 2
REMARK VINA RESULT:    -3.904      1.784      4.046
REMARK INTER + INTRA:          -9.732
REMARK INTER:                  -6.636
REMARK INTRA:                  -3.096
REMARK UNBOUND:                -2.177
REMARK SMILES CCCCCCCCCCCCCCCCCC(=O)[O-]
REMARK SMILES IDX 10 1 11 2 12 3 13 4 14 5 15 6 16 7 17 8 18 9 19 10 20 11
REMARK SMILES IDX 9 12 8 13 7 14 6 15 5 16 4 17 3 18 2 19 1 20
REMARK H PARENT
REMARK Flexibility Score: inf
ROOT
ATOM      1  C   UNL     1      31.512  36.323  22.626  1.00  0.00     0.000 C 
ENDROOT
BRANCH   1   2
ATOM      2  C   UNL     1      31.801  34.924  23.195  1.00  0.00     0.000 C 
BRANCH   2   3
ATOM      3  C   UNL     1      33.101  34.319  22.644  1.00  0.00     0.000 C 
BRANCH   3   4
ATOM      4  C   UNL     1      32.861  32.906  22.098  1.00  0.00     0.000 C 
BRANCH   4   5
ATOM      5  C   UNL     1      33.827  32.588  20.948  1.00  0.00     0.000 C 
BRANCH   5   6
ATOM      6  C   UNL     1      34.311  33.848  20.216  1.00  0.00     0.000 C 
BRANCH   6   7
ATOM      7  C   UNL     1      34.821  33.549  18.795  1.00  0.00     0.006 C 
BRANCH   7   8
ATOM      8  C   UNL     1      33.677  33.232  17.824  1.00  0.00     0.053 C 
BRANCH   8   9
ATOM      9  C   UNL     1      33.920  31.957  17.078  1.00  0.00     0.041 C 
ATOM     10  O   UNL     1      34.099  30.879  17.704  1.00  0.00    -0.550 OA
ATOM     11  O   UNL     1      33.982  31.965  15.689  1.00  0.00    -0.550 OA
ENDBRANCH   8   9
ENDBRANCH   7   8
ENDBRANCH   6   7
ENDBRANCH   5   6
ENDBRANCH   4   5
ENDBRANCH   3   4
ENDBRANCH   2   3
ENDBRANCH   1   2
BRANCH   1  12
ATOM     12  C   UNL     1      31.559  36.356  21.087  1.00  0.00     0.000 C 
BRANCH  12  13
ATOM     13  C   UNL     1      30.341  35.670  20.449  1.00  0.00    -0.000 C 
BRANCH  13  14
ATOM     14  C   UNL     1      30.735  34.500  19.532  1.00  0.00    -0.000 C 
BRANCH  14  15
ATOM     15  C   UNL     1      29.905  33.230  19.790  1.00  0.00    -0.000 C 
BRANCH  15  16
ATOM     16  C   UNL     1      28.803  33.378  20.857  1.00  0.00    -0.000 C 
BRANCH  16  17
ATOM     17  C   UNL     1      29.133  32.641  22.166  1.00  0.00    -0.000 C 
BRANCH  17  18
ATOM     18  C   UNL     1      28.368  33.210  23.371  1.00  0.00    -0.000 C 
BRANCH  18  19
ATOM     19  C   UNL     1      28.219  34.738  23.310  1.00  0.00    -0.003 C 
ATOM     20  C   UNL     1      28.369  35.358  24.696  1.00  0.00     0.004 C 
ENDBRANCH  18  19
ENDBRANCH  17  18
ENDBRANCH  16  17
ENDBRANCH  15  16
ENDBRANCH  14  15
ENDBRANCH  13  14
ENDBRANCH  12  13
ENDBRANCH   1  12
TORSDOF 16
ENDMDL
MODEL 3
REMARK VINA RESULT:    -3.834      2.004      4.763
REMARK INTER + INTRA:          -9.597
REMARK INTER:                  -7.643
REMARK INTRA:                  -1.954
REMARK UNBOUND:                -2.177
REMARK SMILES CCCCCCCCCCCCCCCCCC(=O)[O-]
REMARK SMILES IDX 10 1 11 2 12 3 13 4 14 5 15 6 16 7 17 8 18 9 19 10 20 11
REMARK SMILES IDX 9 12 8 13 7 14 6 15 5 16 4 17 3 18 2 19 1 20
REMARK H PARENT
REMARK Flexibility Score: inf
ROOT
ATOM      1  C   UNL     1      29.302  33.599  23.534  1.00  0.00     0.000 C 
ENDROOT
BRANCH   1   2
ATOM      2  C   UNL     1      30.743  33.310  23.083  1.00  0.00     0.000 C 
BRANCH   2   3
ATOM      3  C   UNL     1      31.649  34.547  23.172  1.00  0.00     0.000 C 
BRANCH   3   4
ATOM      4  C   UNL     1      32.881  34.392  22.272  1.00  0.00     0.000 C 
BRANCH   4   5
ATOM      5  C   UNL     1      33.487  32.987  22.406  1.00  0.00     0.000 C 
BRANCH   5   6
ATOM      6  C   UNL     1      33.631  32.273  21.053  1.00  0.00     0.000 C 
BRANCH   6   7
ATOM      7  C   UNL     1      33.414  33.219  19.859  1.00  0.00     0.006 C 
BRANCH   7   8
ATOM      8  C   UNL     1      32.999  32.463  18.590  1.00  0.00     0.053 C 
BRANCH   8   9
ATOM      9  C   UNL     1      34.188  32.009  17.800  1.00  0.00     0.041 C 
ATOM     10  O   UNL     1      34.074  31.076  16.962  1.00  0.00    -0.550 OA
ATOM     11  O   UNL     1      35.430  32.594  18.015  1.00  0.00    -0.550 OA
ENDBRANCH   8   9
ENDBRANCH   7   8
ENDBRANCH   6   7
ENDBRANCH   5   6
ENDBRANCH   4   5
ENDBRANCH   3   4
ENDBRANCH   2   3
ENDBRANCH   1   2
BRANCH   1  12
ATOM     12  C   UNL     1      29.146  35.001  24.150  1.00  0.00     0.000 C 
BRANCH  12  13
ATOM     13  C   UNL     1      28.189  35.893  23.342  1.00  0.00    -0.000 C 
BRANCH  13  14
ATOM     14  C   UNL     1      28.862  36.515  22.107  1.00  0.00    -0.000 C 
BRANCH  14  15
ATOM     15  C   UNL     1      28.335  35.934  20.782  1.00  0.00    -0.000 C 
BRANCH  15  16
ATOM     16  C   UNL     1      29.148  34.754  20.219  1.00  0.00    -0.000 C 
BRANCH  16  17
ATOM     17  C   UNL     1      28.328  33.457  20.115  1.00  0.00    -0.000 C 
BRANCH  17  18
ATOM     18  C   UNL     1      26.907  33.612  20.680  1.00  0.00    -0.000 C 
BRANCH  18  19
ATOM     19  C   UNL     1      25.830  33.595  19.585  1.00  0.00    -0.003 C 
ATOM     20  C   UNL     1      24.877  32.417  19.772  1.00  0.00     0.004 C 
ENDBRANCH  18  19
ENDBRANCH  17  18
ENDBRANCH  16  17
ENDBRANCH  15  16
ENDBRANCH  14  15
ENDBRANCH  13  14
ENDBRANCH  12  13
ENDBRANCH   1  12
TORSDOF 16
ENDMDL
MODEL 4
REMARK VINA RESULT:    -3.831      3.779      7.061
REMARK INTER + INTRA:          -9.592
REMARK INTER:                  -7.042
REMARK INTRA:                  -2.550
REMARK UNBOUND:                -2.177
REMARK SMILES CCCCCCCCCCCCCCCCCC(=O)[O-]
REMARK SMILES IDX 10 1 11 2 12 3 13 4 14 5 15 6 16 7 17 8 18 9 19 10 20 11
REMARK SMILES IDX 9 12 8 13 7 14 6 15 5 16 4 17 3 18 2 19 1 20
REMARK H PARENT
REMARK Flexibility Score: inf
ROOT
ATOM      1  C   UNL     1      31.035  33.683  23.316  1.00  0.00     0.000 C 
ENDROOT
BRANCH   1   2
ATOM      2  C   UNL     1      29.871  32.765  22.908  1.00  0.00     0.000 C 
BRANCH   2   3
ATOM      3  C   UNL     1      28.501  33.340  23.299  1.00  0.00     0.000 C 
BRANCH   3   4
ATOM      4  C   UNL     1      28.654  34.696  23.999  1.00  0.00     0.000 C 
BRANCH   4   5
ATOM      5  C   UNL     1      27.927  35.803  23.220  1.00  0.00     0.000 C 
BRANCH   5   6
ATOM      6  C   UNL     1      28.793  36.409  22.106  1.00  0.00     0.000 C 
BRANCH   6   7
ATOM      7  C   UNL     1      28.447  35.849  20.716  1.00  0.00     0.006 C 
BRANCH   7   8
ATOM      8  C   UNL     1      26.963  35.482  20.592  1.00  0.00     0.053 C 
BRANCH   8   9
ATOM      9  C   UNL     1      26.772  34.163  19.909  1.00  0.00     0.041 C 
ATOM     10  O   UNL     1      27.681  33.292  19.944  1.00  0.00    -0.550 OA
ATOM     11  O   UNL     1      25.602  33.909  19.203  1.00  0.00    -0.550 OA
ENDBRANCH   8   9
ENDBRANCH   7   8
ENDBRANCH   6   7
ENDBRANCH   5   6
ENDBRANCH   4   5
ENDBRANCH   3   4
ENDBRANCH   2   3
ENDBRANCH   1   2
BRANCH   1  12
ATOM     12  C   UNL     1      32.311  33.419  22.495  1.00  0.00     0.000 C 
BRANCH  12  13
ATOM     13  C   UNL     1      33.335  34.559  22.621  1.00  0.00    -0.000 C 
BRANCH  13  14
ATOM     14  C   UNL     1      34.394  34.526  21.506  1.00  0.00    -0.000 C 
BRANCH  14  15
ATOM     15  C   UNL     1      34.973  33.120  21.270  1.00  0.00    -0.000 C 
BRANCH  15  16
ATOM     16  C   UNL     1      34.763  32.559  19.851  1.00  0.00    -0.000 C 
BRANCH  16  17
ATOM     17  C   UNL     1      33.763  33.384  19.023  1.00  0.00    -0.000 C 
BRANCH  17  18
ATOM     18  C   UNL     1      32.422  32.658  18.823  1.00  0.00    -0.000 C 
BRANCH  18  19
ATOM     19  C   UNL     1      31.215  33.597  18.963  1.00  0.00    -0.003 C 
ATOM     20  C   UNL     1      31.664  35.047  19.121  1.00  0.00     0.004 C 
ENDBRANCH  18  19
ENDBRANCH  17  18
ENDBRANCH  16  17
ENDBRANCH  15  16
ENDBRANCH  14  15
ENDBRANCH  13  14
ENDBRANCH  12  13
ENDBRANCH   1  12
TORSDOF 16
ENDMDL
MODEL 5
REMARK VINA RESULT:    -3.805      4.966      7.963
REMARK INTER + INTRA:          -9.542
REMARK INTER:                  -6.776
REMARK INTRA:                  -2.766
REMARK UNBOUND:                -2.177
REMARK SMILES CCCCCCCCCCCCCCCCCC(=O)[O-]
REMARK SMILES IDX 10 1 11 2 12 3 13 4 14 5 15 6 16 7 17 8 18 9 19 10 20 11
REMARK SMILES IDX 9 12 8 13 7 14 6 15 5 16 4 17 3 18 2 19 1 20
REMARK H PARENT
REMARK Flexibility Score: inf
ROOT
ATOM      1  C   UNL     1      28.578  32.977  22.805  1.00  0.00     0.000 C 
ENDROOT
BRANCH   1   2
ATOM      2  C   UNL     1      28.286  33.082  21.299  1.00  0.00     0.000 C 
BRANCH   2   3
ATOM      3  C   UNL     1      27.745  34.462  20.897  1.00  0.00     0.000 C 
BRANCH   3   4
ATOM      4  C   UNL     1      28.890  35.423  20.554  1.00  0.00     0.000 C 
BRANCH   4   5
ATOM      5  C   UNL     1      28.876  36.648  21.480  1.00  0.00     0.000 C 
BRANCH   5   6
ATOM      6  C   UNL     1      27.741  36.597  22.513  1.00  0.00     0.000 C 
BRANCH   6   7
ATOM      7  C   UNL     1      28.221  36.930  23.937  1.00  0.00     0.006 C 
BRANCH   7   8
ATOM      8  C   UNL     1      27.754  35.890  24.963  1.00  0.00     0.053 C 
BRANCH   8   9
ATOM      9  C   UNL     1      28.450  36.056  26.278  1.00  0.00     0.041 C 
ATOM     10  O   UNL     1      27.806  35.956  27.355  1.00  0.00    -0.550 OA
ATOM     11  O   UNL     1      29.807  36.355  26.313  1.00  0.00    -0.550 OA
ENDBRANCH   8   9
ENDBRANCH   7   8
ENDBRANCH   6   7
ENDBRANCH   5   6
ENDBRANCH   4   5
ENDBRANCH   3   4
ENDBRANCH   2   3
ENDBRANCH   1   2
BRANCH   1  12
ATOM     12  C   UNL     1      30.078  32.807  23.106  1.00  0.00     0.000 C 
BRANCH  12  13
ATOM     13  C   UNL     1      30.762  34.140  23.451  1.00  0.00    -0.000 C 
BRANCH  13  14
ATOM     14  C   UNL     1      32.107  34.319  22.726  1.00  0.00    -0.000 C 
BRANCH  14  15
ATOM     15  C   UNL     1      32.809  32.982  22.429  1.00  0.00    -0.000 C 
BRANCH  15  16
ATOM     16  C   UNL     1      34.054  33.087  21.527  1.00  0.00    -0.000 C 
BRANCH  16  17
ATOM     17  C   UNL     1      33.775  32.677  20.071  1.00  0.00    -0.000 C 
BRANCH  17  18
ATOM     18  C   UNL     1      33.671  33.888  19.129  1.00  0.00    -0.000 C 
BRANCH  18  19
ATOM     19  C   UNL     1      32.227  34.383  18.959  1.00  0.00    -0.003 C 
ATOM     20  C   UNL     1      31.250  33.211  18.905  1.00  0.00     0.004 C 
ENDBRANCH  18  19
ENDBRANCH  17  18
ENDBRANCH  16  17
ENDBRANCH  15  16
ENDBRANCH  14  15
ENDBRANCH  13  14
ENDBRANCH  12  13
ENDBRANCH   1  12
TORSDOF 16
ENDMDL
MODEL 6
REMARK VINA RESULT:    -3.774      1.507      2.949
REMARK INTER + INTRA:          -9.482
REMARK INTER:                  -7.039
REMARK INTRA:                  -2.443
REMARK UNBOUND:                -2.177
REMARK SMILES CCCCCCCCCCCCCCCCCC(=O)[O-]
REMARK SMILES IDX 10 1 11 2 12 3 13 4 14 5 15 6 16 7 17 8 18 9 19 10 20 11
REMARK SMILES IDX 9 12 8 13 7 14 6 15 5 16 4 17 3 18 2 19 1 20
REMARK H PARENT
REMARK Flexibility Score: inf
ROOT
ATOM      1  C   UNL     1      31.044  34.922  20.262  1.00  0.00     0.000 C 
ENDROOT
BRANCH   1   2
ATOM      2  C   UNL     1      32.345  34.837  21.076  1.00  0.00     0.000 C 
BRANCH   2   3
ATOM      3  C   UNL     1      32.327  33.692  22.100  1.00  0.00     0.000 C 
BRANCH   3   4
ATOM      4  C   UNL     1      33.463  32.697  21.833  1.00  0.00     0.000 C 
BRANCH   4   5
ATOM      5  C   UNL     1      34.316  33.145  20.637  1.00  0.00     0.000 C 
BRANCH   5   6
ATOM      6  C   UNL     1      34.751  31.970  19.748  1.00  0.00     0.000 C 
BRANCH   6   7
ATOM      7  C   UNL     1      33.720  31.643  18.653  1.00  0.00     0.006 C 
BRANCH   7   8
ATOM      8  C   UNL     1      33.663  32.727  17.569  1.00  0.00     0.053 C 
BRANCH   8   9
ATOM      9  C   UNL     1      34.279  32.261  16.285  1.00  0.00     0.041 C 
ATOM     10  O   UNL     1      34.858  33.081  15.525  1.00  0.00    -0.550 OA
ATOM     11  O   UNL     1      34.182  30.926  15.913  1.00  0.00    -0.550 OA
ENDBRANCH   8   9
ENDBRANCH   7   8
ENDBRANCH   6   7
ENDBRANCH   5   6
ENDBRANCH   4   5
ENDBRANCH   3   4
ENDBRANCH   2   3
ENDBRANCH   1   2
BRANCH   1  12
ATOM     12  C   UNL     1      30.675  33.585  19.595  1.00  0.00     0.000 C 
BRANCH  12  13
ATOM     13  C   UNL     1      29.257  33.118  19.961  1.00  0.00    -0.000 C 
BRANCH  13  14
ATOM     14  C   UNL     1      28.505  34.140  20.830  1.00  0.00    -0.000 C 
BRANCH  14  15
ATOM     15  C   UNL     1      27.872  33.510  22.084  1.00  0.00    -0.000 C 
BRANCH  15  16
ATOM     16  C   UNL     1      28.759  33.533  23.343  1.00  0.00    -0.000 C 
BRANCH  16  17
ATOM     17  C   UNL     1      28.641  34.847  24.134  1.00  0.00    -0.000 C 
BRANCH  17  18
ATOM     18  C   UNL     1      29.790  35.823  23.830  1.00  0.00    -0.000 C 
BRANCH  18  19
ATOM     19  C   UNL     1      30.720  36.036  25.034  1.00  0.00    -0.003 C 
ATOM     20  C   UNL     1      32.147  36.326  24.579  1.00  0.00     0.004 C 
ENDBRANCH  18  19
ENDBRANCH  17  18
ENDBRANCH  16  17
ENDBRANCH  15  16
ENDBRANCH  14  15
ENDBRANCH  13  14
ENDBRANCH  12  13
ENDBRANCH   1  12
TORSDOF 16
ENDMDL
MODEL 7
REMARK VINA RESULT:    -3.751      3.004      4.577
REMARK INTER + INTRA:          -9.437
REMARK INTER:                  -6.925
REMARK INTRA:                  -2.511
REMARK UNBOUND:                -2.177
REMARK SMILES CCCCCCCCCCCCCCCCCC(=O)[O-]
REMARK SMILES IDX 10 1 11 2 12 3 13 4 14 5 15 6 16 7 17 8 18 9 19 10 20 11
REMARK SMILES IDX 9 12 8 13 7 14 6 15 5 16 4 17 3 18 2 19 1 20
REMARK H PARENT
REMARK Flexibility Score: inf
ROOT
ATOM      1  C   UNL     1      30.302  36.271  23.571  1.00  0.00     0.000 C 
ENDROOT
BRANCH   1   2
ATOM      2  C   UNL     1      31.346  35.686  22.605  1.00  0.00     0.000 C 
BRANCH   2   3
ATOM      3  C   UNL     1      32.323  34.727  23.302  1.00  0.00     0.000 C 
BRANCH   3   4
ATOM      4  C   UNL     1      32.233  33.319  22.702  1.00  0.00     0.000 C 
BRANCH   4   5
ATOM      5  C   UNL     1      33.505  32.974  21.914  1.00  0.00     0.000 C 
BRANCH   5   6
ATOM      6  C   UNL     1      34.639  33.983  22.148  1.00  0.00     0.000 C 
BRANCH   6   7
ATOM      7  C   UNL     1      35.982  33.303  22.466  1.00  0.00     0.006 C 
BRANCH   7   8
ATOM      8  C   UNL     1      37.041  33.583  21.393  1.00  0.00     0.053 C 
BRANCH   8   9
ATOM      9  C   UNL     1      37.237  32.408  20.486  1.00  0.00     0.041 C 
ATOM     10  O   UNL     1      36.253  31.706  20.135  1.00  0.00    -0.550 OA
ATOM     11  O   UNL     1      38.514  32.069  20.054  1.00  0.00    -0.550 OA
ENDBRANCH   8   9
ENDBRANCH   7   8
ENDBRANCH   6   7
ENDBRANCH   5   6
ENDBRANCH   4   5
ENDBRANCH   3   4
ENDBRANCH   2   3
ENDBRANCH   1   2
BRANCH   1  12
ATOM     12  C   UNL     1      29.521  35.181  24.328  1.00  0.00     0.000 C 
BRANCH  12  13
ATOM     13  C   UNL     1      28.319  34.657  23.525  1.00  0.00    -0.000 C 
BRANCH  13  14
ATOM     14  C   UNL     1      28.359  33.131  23.331  1.00  0.00    -0.000 C 
BRANCH  14  15
ATOM     15  C   UNL     1      28.788  32.720  21.911  1.00  0.00    -0.000 C 
BRANCH  15  16
ATOM     16  C   UNL     1      28.371  33.697  20.796  1.00  0.00    -0.000 C 
BRANCH  16  17
ATOM     17  C   UNL     1      29.568  34.238  19.995  1.00  0.00    -0.000 C 
BRANCH  17  18
ATOM     18  C   UNL     1      30.426  33.115  19.388  1.00  0.00    -0.000 C 
BRANCH  18  19
ATOM     19  C   UNL     1      31.678  33.647  18.675  1.00  0.00    -0.003 C 
ATOM     20  C   UNL     1      31.891  35.128  18.975  1.00  0.00     0.004 C 
ENDBRANCH  18  19
ENDBRANCH  17  18
ENDBRANCH  16  17
ENDBRANCH  15  16
ENDBRANCH  14  15
ENDBRANCH  13  14
ENDBRANCH  12  13
ENDBRANCH   1  12
TORSDOF 16
ENDMDL
MODEL 8
REMARK VINA RESULT:    -3.745      1.570      2.066
REMARK INTER + INTRA:          -9.424
REMARK INTER:                  -6.839
REMARK INTRA:                  -2.585
REMARK UNBOUND:                -2.177
REMARK SMILES CCCCCCCCCCCCCCCCCC(=O)[O-]
REMARK SMILES IDX 10 1 11 2 12 3 13 4 14 5 15 6 16 7 17 8 18 9 19 10 20 11
REMARK SMILES IDX 9 12 8 13 7 14 6 15 5 16 4 17 3 18 2 19 1 20
REMARK H PARENT
REMARK Flexibility Score: inf
ROOT
ATOM      1  C   UNL     1      29.787  34.446  20.012  1.00  0.00     0.000 C 
ENDROOT
BRANCH   1   2
ATOM      2  C   UNL     1      30.535  33.210  19.487  1.00  0.00     0.000 C 
BRANCH   2   3
ATOM      3  C   UNL     1      31.794  33.577  18.687  1.00  0.00     0.000 C 
BRANCH   3   4
ATOM      4  C   UNL     1      32.878  32.504  18.845  1.00  0.00     0.000 C 
BRANCH   4   5
ATOM      5  C   UNL     1      34.210  33.128  19.286  1.00  0.00     0.000 C 
BRANCH   5   6
ATOM      6  C   UNL     1      34.683  34.242  18.341  1.00  0.00     0.000 C 
BRANCH   6   7
ATOM      7  C   UNL     1      35.320  33.695  17.052  1.00  0.00     0.006 C 
BRANCH   7   8
ATOM      8  C   UNL     1      34.539  34.111  15.799  1.00  0.00     0.053 C 
BRANCH   8   9
ATOM      9  C   UNL     1      33.568  33.053  15.374  1.00  0.00     0.041 C 
ATOM     10  O   UNL     1      32.408  33.370  14.998  1.00  0.00    -0.550 OA
ATOM     11  O   UNL     1      33.933  31.713  15.425  1.00  0.00    -0.550 OA
ENDBRANCH   8   9
ENDBRANCH   7   8
ENDBRANCH   6   7
ENDBRANCH   5   6
ENDBRANCH   4   5
ENDBRANCH   3   4
ENDBRANCH   2   3
ENDBRANCH   1   2
BRANCH   1  12
ATOM     12  C   UNL     1      28.493  34.080  20.762  1.00  0.00     0.000 C 
BRANCH  12  13
ATOM     13  C   UNL     1      28.625  32.768  21.551  1.00  0.00    -0.000 C 
BRANCH  13  14
ATOM     14  C   UNL     1      28.721  32.999  23.069  1.00  0.00    -0.000 C 
BRANCH  14  15
ATOM     15  C   UNL     1      28.263  34.407  23.491  1.00  0.00    -0.000 C 
BRANCH  15  16
ATOM     16  C   UNL     1      29.290  35.207  24.315  1.00  0.00    -0.000 C 
BRANCH  16  17
ATOM     17  C   UNL     1      30.430  35.781  23.457  1.00  0.00    -0.000 C 
BRANCH  17  18
ATOM     18  C   UNL     1      31.795  35.163  23.801  1.00  0.00    -0.000 C 
BRANCH  18  19
ATOM     19  C   UNL     1      32.475  34.516  22.586  1.00  0.00    -0.003 C 
ATOM     20  C   UNL     1      32.369  32.995  22.644  1.00  0.00     0.004 C 
ENDBRANCH  18  19
ENDBRANCH  17  18
ENDBRANCH  16  17
ENDBRANCH  15  16
ENDBRANCH  14  15
ENDBRANCH  13  14
ENDBRANCH  12  13
ENDBRANCH   1  12
TORSDOF 16
ENDMDL
MODEL 9
REMARK VINA RESULT:    -3.722      2.634      4.691
REMARK INTER + INTRA:          -9.381
REMARK INTER:                  -7.309
REMARK INTRA:                  -2.072
REMARK UNBOUND:                -2.177
REMARK SMILES CCCCCCCCCCCCCCCCCC(=O)[O-]
REMARK SMILES IDX 10 1 11 2 12 3 13 4 14 5 15 6 16 7 17 8 18 9 19 10 20 11
REMARK SMILES IDX 9 12 8 13 7 14 6 15 5 16 4 17 3 18 2 19 1 20
REMARK H PARENT
REMARK Flexibility Score: inf
ROOT
ATOM      1  C   UNL     1      31.625  33.579  21.745  1.00  0.00     0.000 C 
ENDROOT
BRANCH   1   2
ATOM      2  C   UNL     1      30.757  33.538  20.476  1.00  0.00     0.000 C 
BRANCH   2   3
ATOM      3  C   UNL     1      31.291  34.456  19.366  1.00  0.00     0.000 C 
BRANCH   3   4
ATOM      4  C   UNL     1      31.649  33.650  18.112  1.00  0.00     0.000 C 
BRANCH   4   5
ATOM      5  C   UNL     1      32.913  34.208  17.441  1.00  0.00     0.000 C 
BRANCH   5   6
ATOM      6  C   UNL     1      34.199  33.812  18.180  1.00  0.00     0.000 C 
BRANCH   6   7
ATOM      7  C   UNL     1      34.275  32.303  18.471  1.00  0.00     0.006 C 
BRANCH   7   8
ATOM      8  C   UNL     1      34.456  32.010  19.965  1.00  0.00     0.053 C 
BRANCH   8   9
ATOM      9  C   UNL     1      35.795  32.460  20.461  1.00  0.00     0.041 C 
ATOM     10  O   UNL     1      36.849  31.955  19.993  1.00  0.00    -0.550 OA
ATOM     11  O   UNL     1      35.878  33.416  21.467  1.00  0.00    -0.550 OA
ENDBRANCH   8   9
ENDBRANCH   7   8
ENDBRANCH   6   7
ENDBRANCH   5   6
ENDBRANCH   4   5
ENDBRANCH   3   4
ENDBRANCH   2   3
ENDBRANCH   1   2
BRANCH   1  12
ATOM     12  C   UNL     1      30.873  33.077  22.991  1.00  0.00     0.000 C 
BRANCH  12  13
ATOM     13  C   UNL     1      29.400  32.755  22.697  1.00  0.00    -0.000 C 
BRANCH  13  14
ATOM     14  C   UNL     1      28.430  33.692  23.438  1.00  0.00    -0.000 C 
BRANCH  14  15
ATOM     15  C   UNL     1      28.776  35.180  23.251  1.00  0.00    -0.000 C 
BRANCH  15  16
ATOM     16  C   UNL     1      27.801  35.967  22.355  1.00  0.00    -0.000 C 
BRANCH  16  17
ATOM     17  C   UNL     1      27.885  35.557  20.875  1.00  0.00    -0.000 C 
BRANCH  17  18
ATOM     18  C   UNL     1      26.560  34.980  20.348  1.00  0.00    -0.000 C 
BRANCH  18  19
ATOM     19  C   UNL     1      26.595  33.450  20.211  1.00  0.00    -0.003 C 
ATOM     20  C   UNL     1      25.273  32.919  19.665  1.00  0.00     0.004 C 
ENDBRANCH  18  19
ENDBRANCH  17  18
ENDBRANCH  16  17
ENDBRANCH  15  16
ENDBRANCH  14  15
ENDBRANCH  13  14
ENDBRANCH  12  13
ENDBRANCH   1  12
TORSDOF 16
ENDMDL
