MODEL 1
REMARK VINA RESULT:    -4.165      0.000      0.000
REMARK INTER + INTRA:         -12.027
REMARK INTER:                  -9.523
REMARK INTRA:                  -2.504
REMARK UNBOUND:                -2.504
REMARK SMILES CCCCCCCCCCCCCCCCCCCCCCCC(=O)[O-]
REMARK SMILES IDX 13 1 14 2 15 3 16 4 17 5 18 6 19 7 20 8 21 9 22 10 23 11
REMARK SMILES IDX 24 12 25 13 26 14 12 15 11 16 10 17 9 18 8 19 7 20 6 21 5 22
REMARK SMILES IDX 4 23 3 24 2 25 1 26
REMARK H PARENT
REMARK Flexibility Score: inf
ROOT
ATOM      1  C   UNL     1       2.020  18.434   9.035  1.00  0.00     0.000 C 
ENDROOT
BRANCH   1   2
ATOM      2  C   UNL     1       3.344  18.710   8.306  1.00  0.00     0.000 C 
BRANCH   2   3
ATOM      3  C   UNL     1       3.140  19.312   6.906  1.00  0.00     0.000 C 
BRANCH   3   4
ATOM      4  C   UNL     1       3.354  18.288   5.781  1.00  0.00     0.000 C 
BRANCH   4   5
ATOM      5  C   UNL     1       2.091  18.153   4.917  1.00  0.00     0.000 C 
BRANCH   5   6
ATOM      6  C   UNL     1       2.336  17.361   3.622  1.00  0.00     0.000 C 
BRANCH   6   7
ATOM      7  C   UNL     1       3.817  17.205   3.225  1.00  0.00     0.000 C 
BRANCH   7   8
ATOM      8  C   UNL     1       4.307  15.742   3.207  1.00  0.00     0.000 C 
BRANCH   8   9
ATOM      9  C   UNL     1       3.493  14.843   4.155  1.00  0.00     0.000 C 
BRANCH   9  10
ATOM     10  C   UNL     1       4.238  14.537   5.464  1.00  0.00     0.006 C 
BRANCH  10  11
ATOM     11  C   UNL     1       5.592  15.253   5.546  1.00  0.00     0.053 C 
BRANCH  11  12
ATOM     12  C   UNL     1       5.903  15.621   6.962  1.00  0.00     0.041 C 
ATOM     13  O   UNL     1       7.074  15.948   7.290  1.00  0.00    -0.550 OA
ATOM     14  O   UNL     1       4.889  15.648   7.911  1.00  0.00    -0.550 OA
ENDBRANCH  11  12
ENDBRANCH  10  11
ENDBRANCH   9  10
ENDBRANCH   8   9
ENDBRANCH   7   8
ENDBRANCH   6   7
ENDBRANCH   5   6
ENDBRANCH   4   5
ENDBRANCH   3   4
ENDBRANCH   2   3
ENDBRANCH   1   2
BRANCH   1  15
ATOM     15  C   UNL     1       2.163  17.248   9.997  1.00  0.00     0.000 C 
BRANCH  15  16
ATOM     16  C   UNL     1       2.199  17.722  11.456  1.00  0.00     0.000 C 
BRANCH  16  17
ATOM     17  C   UNL     1       3.056  16.817  12.358  1.00  0.00     0.000 C 
BRANCH  17  18
ATOM     18  C   UNL     1       4.191  16.086  11.609  1.00  0.00    -0.000 C 
BRANCH  18  19
ATOM     19  C   UNL     1       4.507  14.713  12.229  1.00  0.00    -0.000 C 
BRANCH  19  20
ATOM     20  C   UNL     1       4.774  14.797  13.741  1.00  0.00    -0.000 C 
BRANCH  20  21
ATOM     21  C   UNL     1       6.126  15.450  14.063  1.00  0.00    -0.000 C 
BRANCH  21  22
ATOM     22  C   UNL     1       6.060  16.240  15.380  1.00  0.00    -0.000 C 
BRANCH  22  23
ATOM     23  C   UNL     1       4.625  16.391  15.910  1.00  0.00    -0.000 C 
BRANCH  23  24
ATOM     24  C   UNL     1       4.381  17.750  16.591  1.00  0.00    -0.000 C 
BRANCH  24  25
ATOM     25  C   UNL     1       4.331  18.911  15.584  1.00  0.00    -0.003 C 
ATOM     26  C   UNL     1       2.910  19.231  15.120  1.00  0.00     0.004 C 
ENDBRANCH  24  25
ENDBRANCH  23  24
ENDBRANCH  22  23
ENDBRANCH  21  22
ENDBRANCH  20  21
ENDBRANCH  19  20
ENDBRANCH  18  19
ENDBRANCH  17  18
ENDBRANCH  16  17
ENDBRANCH  15  16
ENDBRANCH   1  15
TORSDOF 22
ENDMDL
MODEL 2
REMARK VINA RESULT:    -3.971      5.963     10.245
REMARK INTER + INTRA:         -11.582
REMARK INTER:                  -8.874
REMARK INTRA:                  -2.707
REMARK UNBOUND:                -2.504
REMARK SMILES CCCCCCCCCCCCCCCCCCCCCCCC(=O)[O-]
REMARK SMILES IDX 13 1 14 2 15 3 16 4 17 5 18 6 19 7 20 8 21 9 22 10 23 11
REMARK SMILES IDX 24 12 25 13 26 14 12 15 11 16 10 17 9 18 8 19 7 20 6 21 5 22
REMARK SMILES IDX 4 23 3 24 2 25 1 26
REMARK H PARENT
REMARK Flexibility Score: inf
ROOT
ATOM      1  C   UNL     1       2.749  24.422  14.473  1.00  0.00     0.000 C 
ENDROOT
BRANCH   1   2
ATOM      2  C   UNL     1       2.050  23.407  15.389  1.00  0.00     0.000 C 
BRANCH   2   3
ATOM      3  C   UNL     1       1.875  22.029  14.729  1.00  0.00     0.000 C 
BRANCH   3   4
ATOM      4  C   UNL     1       2.527  20.895  15.536  1.00  0.00     0.000 C 
BRANCH   4   5
ATOM      5  C   UNL     1       1.987  19.528  15.091  1.00  0.00     0.000 C 
BRANCH   5   6
ATOM      6  C   UNL     1       3.065  18.642  14.444  1.00  0.00     0.000 C 
BRANCH   6   7
ATOM      7  C   UNL     1       4.475  18.786  15.051  1.00  0.00     0.000 C 
BRANCH   7   8
ATOM      8  C   UNL     1       4.684  17.966  16.342  1.00  0.00     0.000 C 
BRANCH   8   9
ATOM      9  C   UNL     1       5.283  16.576  16.059  1.00  0.00     0.000 C 
BRANCH   9  10
ATOM     10  C   UNL     1       5.921  16.481  14.663  1.00  0.00     0.006 C 
BRANCH  10  11
ATOM     11  C   UNL     1       5.591  15.159  13.959  1.00  0.00     0.053 C 
BRANCH  11  12
ATOM     12  C   UNL     1       4.873  15.418  12.673  1.00  0.00     0.041 C 
ATOM     13  O   UNL     1       5.027  16.513  12.071  1.00  0.00    -0.550 OA
ATOM     14  O   UNL     1       4.071  14.432  12.113  1.00  0.00    -0.550 OA
ENDBRANCH  11  12
ENDBRANCH  10  11
ENDBRANCH   9  10
ENDBRANCH   8   9
ENDBRANCH   7   8
ENDBRANCH   6   7
ENDBRANCH   5   6
ENDBRANCH   4   5
ENDBRANCH   3   4
ENDBRANCH   2   3
ENDBRANCH   1   2
BRANCH   1  15
ATOM     15  C   UNL     1       4.273  24.265  14.546  1.00  0.00     0.000 C 
BRANCH  15  16
ATOM     16  C   UNL     1       4.972  25.178  13.529  1.00  0.00     0.000 C 
BRANCH  16  17
ATOM     17  C   UNL     1       6.190  25.910  14.120  1.00  0.00     0.000 C 
BRANCH  17  18
ATOM     18  C   UNL     1       6.306  25.788  15.654  1.00  0.00    -0.000 C 
BRANCH  18  19
ATOM     19  C   UNL     1       5.814  27.055  16.377  1.00  0.00    -0.000 C 
BRANCH  19  20
ATOM     20  C   UNL     1       4.350  26.942  16.834  1.00  0.00    -0.000 C 
BRANCH  20  21
ATOM     21  C   UNL     1       3.512  28.164  16.429  1.00  0.00    -0.000 C 
BRANCH  21  22
ATOM     22  C   UNL     1       2.221  27.737  15.713  1.00  0.00    -0.000 C 
BRANCH  22  23
ATOM     23  C   UNL     1       1.965  28.536  14.424  1.00  0.00    -0.000 C 
BRANCH  23  24
ATOM     24  C   UNL     1       2.289  27.734  13.151  1.00  0.00    -0.000 C 
BRANCH  24  25
ATOM     25  C   UNL     1       3.186  28.515  12.177  1.00  0.00    -0.003 C 
ATOM     26  C   UNL     1       4.560  28.837  12.765  1.00  0.00     0.004 C 
ENDBRANCH  24  25
ENDBRANCH  23  24
ENDBRANCH  22  23
ENDBRANCH  21  22
ENDBRANCH  20  21
ENDBRANCH  19  20
ENDBRANCH  18  19
ENDBRANCH  17  18
ENDBRANCH  16  17
ENDBRANCH  15  16
ENDBRANCH   1  15
TORSDOF 22
ENDMDL
MODEL 3
REMARK VINA RESULT:    -3.752      2.455      9.076
REMARK INTER + INTRA:         -11.082
REMARK INTER:                  -8.159
REMARK INTRA:                  -2.923
REMARK UNBOUND:                -2.504
REMARK SMILES CCCCCCCCCCCCCCCCCCCCCCCC(=O)[O-]
REMARK SMILES IDX 13 1 14 2 15 3 16 4 17 5 18 6 19 7 20 8 21 9 22 10 23 11
REMARK SMILES IDX 24 12 25 13 26 14 12 15 11 16 10 17 9 18 8 19 7 20 6 21 5 22
REMARK SMILES IDX 4 23 3 24 2 25 1 26
REMARK H PARENT
REMARK Flexibility Score: inf
ROOT
ATOM      1  C   UNL     1       3.927  16.914   9.953  1.00  0.00     0.000 C 
ENDROOT
BRANCH   1   2
ATOM      2  C   UNL     1       3.539  15.442  10.157  1.00  0.00     0.000 C 
BRANCH   2   3
ATOM      3  C   UNL     1       2.401  15.260  11.176  1.00  0.00     0.000 C 
BRANCH   3   4
ATOM      4  C   UNL     1       2.640  14.079  12.130  1.00  0.00     0.000 C 
BRANCH   4   5
ATOM      5  C   UNL     1       2.905  14.576  13.559  1.00  0.00     0.000 C 
BRANCH   5   6
ATOM      6  C   UNL     1       4.345  14.307  14.027  1.00  0.00     0.000 C 
BRANCH   6   7
ATOM      7  C   UNL     1       5.427  15.141  13.313  1.00  0.00     0.000 C 
BRANCH   7   8
ATOM      8  C   UNL     1       6.240  16.049  14.260  1.00  0.00     0.000 C 
BRANCH   8   9
ATOM      9  C   UNL     1       5.699  16.021  15.701  1.00  0.00     0.000 C 
BRANCH   9  10
ATOM     10  C   UNL     1       5.124  17.377  16.142  1.00  0.00     0.006 C 
BRANCH  10  11
ATOM     11  C   UNL     1       3.594  17.424  16.038  1.00  0.00     0.053 C 
BRANCH  11  12
ATOM     12  C   UNL     1       3.174  18.358  14.948  1.00  0.00     0.041 C 
ATOM     13  O   UNL     1       2.789  19.524  15.226  1.00  0.00    -0.550 OA
ATOM     14  O   UNL     1       3.253  17.957  13.620  1.00  0.00    -0.550 OA
ENDBRANCH  11  12
ENDBRANCH  10  11
ENDBRANCH   9  10
ENDBRANCH   8   9
ENDBRANCH   7   8
ENDBRANCH   6   7
ENDBRANCH   5   6
ENDBRANCH   4   5
ENDBRANCH   3   4
ENDBRANCH   2   3
ENDBRANCH   1   2
BRANCH   1  15
ATOM     15  C   UNL     1       5.070  17.042   8.939  1.00  0.00     0.000 C 
BRANCH  15  16
ATOM     16  C   UNL     1       5.189  15.777   8.078  1.00  0.00     0.000 C 
BRANCH  16  17
ATOM     17  C   UNL     1       5.237  16.082   6.570  1.00  0.00     0.000 C 
BRANCH  17  18
ATOM     18  C   UNL     1       6.045  15.052   5.752  1.00  0.00    -0.000 C 
BRANCH  18  19
ATOM     19  C   UNL     1       5.463  14.844   4.342  1.00  0.00    -0.000 C 
BRANCH  19  20
ATOM     20  C   UNL     1       4.189  15.672   4.103  1.00  0.00    -0.000 C 
BRANCH  20  21
ATOM     21  C   UNL     1       4.450  16.913   3.237  1.00  0.00    -0.000 C 
BRANCH  21  22
ATOM     22  C   UNL     1       3.171  17.751   3.071  1.00  0.00    -0.000 C 
BRANCH  22  23
ATOM     23  C   UNL     1       2.207  17.605   4.259  1.00  0.00    -0.000 C 
BRANCH  23  24
ATOM     24  C   UNL     1       2.273  18.797   5.230  1.00  0.00    -0.000 C 
BRANCH  24  25
ATOM     25  C   UNL     1       2.303  18.355   6.703  1.00  0.00    -0.003 C 
ATOM     26  C   UNL     1       1.877  16.899   6.893  1.00  0.00     0.004 C 
ENDBRANCH  24  25
ENDBRANCH  23  24
ENDBRANCH  22  23
ENDBRANCH  21  22
ENDBRANCH  20  21
ENDBRANCH  19  20
ENDBRANCH  18  19
ENDBRANCH  17  18
ENDBRANCH  16  17
ENDBRANCH  15  16
ENDBRANCH   1  15
TORSDOF 22
ENDMDL
MODEL 4
REMARK VINA RESULT:    -3.745      2.675      9.413
REMARK INTER + INTRA:         -11.066
REMARK INTER:                  -8.627
REMARK INTRA:                  -2.439
REMARK UNBOUND:                -2.504
REMARK SMILES CCCCCCCCCCCCCCCCCCCCCCCC(=O)[O-]
REMARK SMILES IDX 13 1 14 2 15 3 16 4 17 5 18 6 19 7 20 8 21 9 22 10 23 11
REMARK SMILES IDX 24 12 25 13 26 14 12 15 11 16 10 17 9 18 8 19 7 20 6 21 5 22
REMARK SMILES IDX 4 23 3 24 2 25 1 26
REMARK H PARENT
REMARK Flexibility Score: inf
ROOT
ATOM      1  C   UNL     1       3.721  18.274   8.495  1.00  0.00     0.000 C 
ENDROOT
BRANCH   1   2
ATOM      2  C   UNL     1       2.574  17.801   9.401  1.00  0.00     0.000 C 
BRANCH   2   3
ATOM      3  C   UNL     1       3.065  16.983  10.606  1.00  0.00     0.000 C 
BRANCH   3   4
ATOM      4  C   UNL     1       3.147  15.477  10.309  1.00  0.00     0.000 C 
BRANCH   4   5
ATOM      5  C   UNL     1       4.018  14.761  11.352  1.00  0.00     0.000 C 
BRANCH   5   6
ATOM      6  C   UNL     1       3.275  14.499  12.673  1.00  0.00     0.000 C 
BRANCH   6   7
ATOM      7  C   UNL     1       4.166  14.494  13.930  1.00  0.00     0.000 C 
BRANCH   7   8
ATOM      8  C   UNL     1       5.627  14.912  13.660  1.00  0.00     0.000 C 
BRANCH   8   9
ATOM      9  C   UNL     1       6.029  16.170  14.451  1.00  0.00     0.000 C 
BRANCH   9  10
ATOM     10  C   UNL     1       5.532  16.138  15.905  1.00  0.00     0.006 C 
BRANCH  10  11
ATOM     11  C   UNL     1       5.215  17.539  16.444  1.00  0.00     0.053 C 
BRANCH  11  12
ATOM     12  C   UNL     1       3.922  18.035  15.878  1.00  0.00     0.041 C 
ATOM     13  O   UNL     1       2.879  17.335  15.971  1.00  0.00    -0.550 OA
ATOM     14  O   UNL     1       3.857  19.292  15.290  1.00  0.00    -0.550 OA
ENDBRANCH  11  12
ENDBRANCH  10  11
ENDBRANCH   9  10
ENDBRANCH   8   9
ENDBRANCH   7   8
ENDBRANCH   6   7
ENDBRANCH   5   6
ENDBRANCH   4   5
ENDBRANCH   3   4
ENDBRANCH   2   3
ENDBRANCH   1   2
BRANCH   1  15
ATOM     15  C   UNL     1       3.538  17.754   7.064  1.00  0.00     0.000 C 
BRANCH  15  16
ATOM     16  C   UNL     1       4.003  16.296   6.943  1.00  0.00     0.000 C 
BRANCH  16  17
ATOM     17  C   UNL     1       5.493  16.113   7.279  1.00  0.00     0.000 C 
BRANCH  17  18
ATOM     18  C   UNL     1       6.294  15.380   6.182  1.00  0.00    -0.000 C 
BRANCH  18  19
ATOM     19  C   UNL     1       5.377  14.681   5.162  1.00  0.00    -0.000 C 
BRANCH  19  20
ATOM     20  C   UNL     1       5.681  15.099   3.713  1.00  0.00    -0.000 C 
BRANCH  20  21
ATOM     21  C   UNL     1       4.413  15.210   2.855  1.00  0.00    -0.000 C 
BRANCH  21  22
ATOM     22  C   UNL     1       3.148  15.052   3.714  1.00  0.00    -0.000 C 
BRANCH  22  23
ATOM     23  C   UNL     1       2.172  16.230   3.556  1.00  0.00    -0.000 C 
BRANCH  23  24
ATOM     24  C   UNL     1       2.848  17.492   2.989  1.00  0.00    -0.000 C 
BRANCH  24  25
ATOM     25  C   UNL     1       2.071  18.094   1.807  1.00  0.00    -0.003 C 
ATOM     26  C   UNL     1       2.733  19.350   1.241  1.00  0.00     0.004 C 
ENDBRANCH  24  25
ENDBRANCH  23  24
ENDBRANCH  22  23
ENDBRANCH  21  22
ENDBRANCH  20  21
ENDBRANCH  19  20
ENDBRANCH  18  19
ENDBRANCH  17  18
ENDBRANCH  16  17
ENDBRANCH  15  16
ENDBRANCH   1  15
TORSDOF 22
ENDMDL
MODEL 5
REMARK VINA RESULT:    -3.726      2.473      8.934
REMARK INTER + INTRA:         -11.022
REMARK INTER:                  -8.073
REMARK INTRA:                  -2.949
REMARK UNBOUND:                -2.504
REMARK SMILES CCCCCCCCCCCCCCCCCCCCCCCC(=O)[O-]
REMARK SMILES IDX 13 1 14 2 15 3 16 4 17 5 18 6 19 7 20 8 21 9 22 10 23 11
REMARK SMILES IDX 24 12 25 13 26 14 12 15 11 16 10 17 9 18 8 19 7 20 6 21 5 22
REMARK SMILES IDX 4 23 3 24 2 25 1 26
REMARK H PARENT
REMARK Flexibility Score: inf
ROOT
ATOM      1  C   UNL     1       4.593  16.566   9.571  1.00  0.00     0.000 C 
ENDROOT
BRANCH   1   2
ATOM      2  C   UNL     1       3.309  15.796   9.914  1.00  0.00     0.000 C 
BRANCH   2   3
ATOM      3  C   UNL     1       3.583  14.491  10.681  1.00  0.00     0.000 C 
BRANCH   3   4
ATOM      4  C   UNL     1       4.275  14.730  12.033  1.00  0.00     0.000 C 
BRANCH   4   5
ATOM      5  C   UNL     1       3.377  14.276  13.194  1.00  0.00     0.000 C 
BRANCH   5   6
ATOM      6  C   UNL     1       1.967  14.886  13.131  1.00  0.00     0.000 C 
BRANCH   6   7
ATOM      7  C   UNL     1       1.914  16.418  13.290  1.00  0.00     0.000 C 
BRANCH   7   8
ATOM      8  C   UNL     1       2.243  16.909  14.715  1.00  0.00     0.000 C 
BRANCH   8   9
ATOM      9  C   UNL     1       2.880  18.311  14.716  1.00  0.00     0.000 C 
BRANCH   9  10
ATOM     10  C   UNL     1       4.347  18.292  15.175  1.00  0.00     0.006 C 
BRANCH  10  11
ATOM     11  C   UNL     1       5.250  17.511  14.212  1.00  0.00     0.053 C 
BRANCH  11  12
ATOM     12  C   UNL     1       5.924  16.384  14.928  1.00  0.00     0.041 C 
ATOM     13  O   UNL     1       6.748  15.650  14.321  1.00  0.00    -0.550 OA
ATOM     14  O   UNL     1       5.678  16.172  16.279  1.00  0.00    -0.550 OA
ENDBRANCH  11  12
ENDBRANCH  10  11
ENDBRANCH   9  10
ENDBRANCH   8   9
ENDBRANCH   7   8
ENDBRANCH   6   7
ENDBRANCH   5   6
ENDBRANCH   4   5
ENDBRANCH   3   4
ENDBRANCH   2   3
ENDBRANCH   1   2
BRANCH   1  15
ATOM     15  C   UNL     1       4.290  17.745   8.639  1.00  0.00     0.000 C 
BRANCH  15  16
ATOM     16  C   UNL     1       2.887  17.619   8.027  1.00  0.00     0.000 C 
BRANCH  16  17
ATOM     17  C   UNL     1       2.512  18.817   7.137  1.00  0.00     0.000 C 
BRANCH  17  18
ATOM     18  C   UNL     1       3.235  18.828   5.773  1.00  0.00    -0.000 C 
BRANCH  18  19
ATOM     19  C   UNL     1       2.325  18.348   4.628  1.00  0.00    -0.000 C 
BRANCH  19  20
ATOM     20  C   UNL     1       2.918  17.149   3.868  1.00  0.00    -0.000 C 
BRANCH  20  21
ATOM     21  C   UNL     1       4.432  17.285   3.647  1.00  0.00    -0.000 C 
BRANCH  21  22
ATOM     22  C   UNL     1       5.003  16.042   2.946  1.00  0.00    -0.000 C 
BRANCH  22  23
ATOM     23  C   UNL     1       4.886  14.770   3.803  1.00  0.00    -0.000 C 
BRANCH  23  24
ATOM     24  C   UNL     1       5.766  14.819   5.065  1.00  0.00    -0.000 C 
BRANCH  24  25
ATOM     25  C   UNL     1       4.946  15.058   6.344  1.00  0.00    -0.003 C 
ATOM     26  C   UNL     1       3.559  14.418   6.287  1.00  0.00     0.004 C 
ENDBRANCH  24  25
ENDBRANCH  23  24
ENDBRANCH  22  23
ENDBRANCH  21  22
ENDBRANCH  20  21
ENDBRANCH  19  20
ENDBRANCH  18  19
ENDBRANCH  17  18
ENDBRANCH  16  17
ENDBRANCH  15  16
ENDBRANCH   1  15
TORSDOF 22
ENDMDL
MODEL 6
REMARK VINA RESULT:    -3.668      5.951     10.073
REMARK INTER + INTRA:         -10.889
REMARK INTER:                  -8.580
REMARK INTRA:                  -2.310
REMARK UNBOUND:                -2.504
REMARK SMILES CCCCCCCCCCCCCCCCCCCCCCCC(=O)[O-]
REMARK SMILES IDX 13 1 14 2 15 3 16 4 17 5 18 6 19 7 20 8 21 9 22 10 23 11
REMARK SMILES IDX 24 12 25 13 26 14 12 15 11 16 10 17 9 18 8 19 7 20 6 21 5 22
REMARK SMILES IDX 4 23 3 24 2 25 1 26
REMARK H PARENT
REMARK Flexibility Score: inf
ROOT
ATOM      1  C   UNL     1       3.092  24.339  14.046  1.00  0.00     0.000 C 
ENDROOT
BRANCH   1   2
ATOM      2  C   UNL     1       2.476  23.445  15.132  1.00  0.00     0.000 C 
BRANCH   2   3
ATOM      3  C   UNL     1       1.948  22.111  14.577  1.00  0.00     0.000 C 
BRANCH   3   4
ATOM      4  C   UNL     1       1.876  21.009  15.647  1.00  0.00     0.000 C 
BRANCH   4   5
ATOM      5  C   UNL     1       2.211  19.638  15.041  1.00  0.00     0.000 C 
BRANCH   5   6
ATOM      6  C   UNL     1       3.699  19.273  15.177  1.00  0.00     0.000 C 
BRANCH   6   7
ATOM      7  C   UNL     1       4.036  18.355  16.368  1.00  0.00     0.000 C 
BRANCH   7   8
ATOM      8  C   UNL     1       5.245  17.428  16.118  1.00  0.00     0.000 C 
BRANCH   8   9
ATOM      9  C   UNL     1       4.816  15.981  15.817  1.00  0.00     0.000 C 
BRANCH   9  10
ATOM     10  C   UNL     1       5.237  15.521  14.412  1.00  0.00     0.006 C 
BRANCH  10  11
ATOM     11  C   UNL     1       4.746  16.474  13.314  1.00  0.00     0.053 C 
BRANCH  11  12
ATOM     12  C   UNL     1       4.524  15.728  12.037  1.00  0.00     0.041 C 
ATOM     13  O   UNL     1       4.644  16.316  10.930  1.00  0.00    -0.550 OA
ATOM     14  O   UNL     1       4.231  14.370  12.067  1.00  0.00    -0.550 OA
ENDBRANCH  11  12
ENDBRANCH  10  11
ENDBRANCH   9  10
ENDBRANCH   8   9
ENDBRANCH   7   8
ENDBRANCH   6   7
ENDBRANCH   5   6
ENDBRANCH   4   5
ENDBRANCH   3   4
ENDBRANCH   2   3
ENDBRANCH   1   2
BRANCH   1  15
ATOM     15  C   UNL     1       2.019  25.210  13.381  1.00  0.00     0.000 C 
BRANCH  15  16
ATOM     16  C   UNL     1       2.517  25.774  12.043  1.00  0.00     0.000 C 
BRANCH  16  17
ATOM     17  C   UNL     1       2.745  27.295  12.082  1.00  0.00     0.000 C 
BRANCH  17  18
ATOM     18  C   UNL     1       4.215  27.698  12.326  1.00  0.00    -0.000 C 
BRANCH  18  19
ATOM     19  C   UNL     1       4.398  28.455  13.653  1.00  0.00    -0.000 C 
BRANCH  19  20
ATOM     20  C   UNL     1       3.103  28.512  14.482  1.00  0.00    -0.000 C 
BRANCH  20  21
ATOM     21  C   UNL     1       3.176  27.642  15.745  1.00  0.00    -0.000 C 
BRANCH  21  22
ATOM     22  C   UNL     1       4.147  28.240  16.775  1.00  0.00    -0.000 C 
BRANCH  22  23
ATOM     23  C   UNL     1       5.306  27.290  17.120  1.00  0.00    -0.000 C 
BRANCH  23  24
ATOM     24  C   UNL     1       5.233  25.958  16.352  1.00  0.00    -0.000 C 
BRANCH  24  25
ATOM     25  C   UNL     1       6.287  25.864  15.237  1.00  0.00    -0.003 C 
ATOM     26  C   UNL     1       7.631  26.472  15.639  1.00  0.00     0.004 C 
ENDBRANCH  24  25
ENDBRANCH  23  24
ENDBRANCH  22  23
ENDBRANCH  21  22
ENDBRANCH  20  21
ENDBRANCH  19  20
ENDBRANCH  18  19
ENDBRANCH  17  18
ENDBRANCH  16  17
ENDBRANCH  15  16
ENDBRANCH   1  15
TORSDOF 22
ENDMDL
MODEL 7
REMARK VINA RESULT:    -3.509      1.916      9.086
REMARK INTER + INTRA:         -10.526
REMARK INTER:                  -8.070
REMARK INTRA:                  -2.456
REMARK UNBOUND:                -2.504
REMARK SMILES CCCCCCCCCCCCCCCCCCCCCCCC(=O)[O-]
REMARK SMILES IDX 13 1 14 2 15 3 16 4 17 5 18 6 19 7 20 8 21 9 22 10 23 11
REMARK SMILES IDX 24 12 25 13 26 14 12 15 11 16 10 17 9 18 8 19 7 20 6 21 5 22
REMARK SMILES IDX 4 23 3 24 2 25 1 26
REMARK H PARENT
REMARK Flexibility Score: inf
ROOT
ATOM      1  C   UNL     1       3.588  17.800   9.364  1.00  0.00     0.000 C 
ENDROOT
BRANCH   1   2
ATOM      2  C   UNL     1       3.360  16.863  10.560  1.00  0.00     0.000 C 
BRANCH   2   3
ATOM      3  C   UNL     1       2.550  17.523  11.688  1.00  0.00     0.000 C 
BRANCH   3   4
ATOM      4  C   UNL     1       2.104  16.520  12.765  1.00  0.00     0.000 C 
BRANCH   4   5
ATOM      5  C   UNL     1       2.016  17.199  14.140  1.00  0.00     0.000 C 
BRANCH   5   6
ATOM      6  C   UNL     1       2.364  18.696  14.091  1.00  0.00     0.000 C 
BRANCH   6   7
ATOM      7  C   UNL     1       3.275  19.189  15.232  1.00  0.00     0.000 C 
BRANCH   7   8
ATOM      8  C   UNL     1       4.718  18.644  15.158  1.00  0.00     0.000 C 
BRANCH   8   9
ATOM      9  C   UNL     1       5.100  17.835  16.410  1.00  0.00     0.000 C 
BRANCH   9  10
ATOM     10  C   UNL     1       5.339  16.348  16.102  1.00  0.00     0.006 C 
BRANCH  10  11
ATOM     11  C   UNL     1       5.936  16.129  14.706  1.00  0.00     0.053 C 
BRANCH  11  12
ATOM     12  C   UNL     1       5.124  15.132  13.943  1.00  0.00     0.041 C 
ATOM     13  O   UNL     1       5.296  14.990  12.703  1.00  0.00    -0.550 OA
ATOM     14  O   UNL     1       4.209  14.325  14.608  1.00  0.00    -0.550 OA
ENDBRANCH  11  12
ENDBRANCH  10  11
ENDBRANCH   9  10
ENDBRANCH   8   9
ENDBRANCH   7   8
ENDBRANCH   6   7
ENDBRANCH   5   6
ENDBRANCH   4   5
ENDBRANCH   3   4
ENDBRANCH   2   3
ENDBRANCH   1   2
BRANCH   1  15
ATOM     15  C   UNL     1       2.668  17.427   8.195  1.00  0.00     0.000 C 
BRANCH  15  16
ATOM     16  C   UNL     1       2.306  18.664   7.361  1.00  0.00     0.000 C 
BRANCH  16  17
ATOM     17  C   UNL     1       3.130  18.776   6.067  1.00  0.00     0.000 C 
BRANCH  17  18
ATOM     18  C   UNL     1       2.275  18.775   4.782  1.00  0.00    -0.000 C 
BRANCH  18  19
ATOM     19  C   UNL     1       1.875  17.353   4.350  1.00  0.00    -0.000 C 
BRANCH  19  20
ATOM     20  C   UNL     1       2.658  16.870   3.117  1.00  0.00    -0.000 C 
BRANCH  20  21
ATOM     21  C   UNL     1       3.264  15.474   3.316  1.00  0.00    -0.000 C 
BRANCH  21  22
ATOM     22  C   UNL     1       4.748  15.452   2.914  1.00  0.00    -0.000 C 
BRANCH  22  23
ATOM     23  C   UNL     1       5.683  15.201   4.108  1.00  0.00    -0.000 C 
BRANCH  23  24
ATOM     24  C   UNL     1       4.956  14.579   5.314  1.00  0.00    -0.000 C 
BRANCH  24  25
ATOM     25  C   UNL     1       4.983  15.492   6.551  1.00  0.00    -0.003 C 
ATOM     26  C   UNL     1       6.402  15.824   7.012  1.00  0.00     0.004 C 
ENDBRANCH  24  25
ENDBRANCH  23  24
ENDBRANCH  22  23
ENDBRANCH  21  22
ENDBRANCH  20  21
ENDBRANCH  19  20
ENDBRANCH  18  19
ENDBRANCH  17  18
ENDBRANCH  16  17
ENDBRANCH  15  16
ENDBRANCH   1  15
TORSDOF 22
ENDMDL
MODEL 8
REMARK VINA RESULT:    -3.398      2.577      8.740
REMARK INTER + INTRA:         -10.272
REMARK INTER:                  -7.578
REMARK INTRA:                  -2.694
REMARK UNBOUND:                -2.504
REMARK SMILES CCCCCCCCCCCCCCCCCCCCCCCC(=O)[O-]
REMARK SMILES IDX 13 1 14 2 15 3 16 4 17 5 18 6 19 7 20 8 21 9 22 10 23 11
REMARK SMILES IDX 24 12 25 13 26 14 12 15 11 16 10 17 9 18 8 19 7 20 6 21 5 22
REMARK SMILES IDX 4 23 3 24 2 25 1 26
REMARK H PARENT
REMARK Flexibility Score: inf
ROOT
ATOM      1  C   UNL     1       3.800  15.224   7.103  1.00  0.00     0.000 C 
ENDROOT
BRANCH   1   2
ATOM      2  C   UNL     1       2.351  14.729   7.217  1.00  0.00     0.000 C 
BRANCH   2   3
ATOM      3  C   UNL     1       1.881  14.589   8.675  1.00  0.00     0.000 C 
BRANCH   3   4
ATOM      4  C   UNL     1       2.844  15.248   9.676  1.00  0.00     0.000 C 
BRANCH   4   5
ATOM      5  C   UNL     1       2.095  16.232  10.587  1.00  0.00     0.000 C 
BRANCH   5   6
ATOM      6  C   UNL     1       2.383  16.001  12.079  1.00  0.00     0.000 C 
BRANCH   6   7
ATOM      7  C   UNL     1       3.546  15.035  12.375  1.00  0.00     0.000 C 
BRANCH   7   8
ATOM      8  C   UNL     1       4.905  15.738  12.575  1.00  0.00     0.000 C 
BRANCH   8   9
ATOM      9  C   UNL     1       5.697  15.151  13.757  1.00  0.00     0.000 C 
BRANCH   9  10
ATOM     10  C   UNL     1       6.124  16.224  14.772  1.00  0.00     0.006 C 
BRANCH  10  11
ATOM     11  C   UNL     1       5.006  16.567  15.764  1.00  0.00     0.053 C 
BRANCH  11  12
ATOM     12  C   UNL     1       4.462  17.933  15.483  1.00  0.00     0.041 C 
ATOM     13  O   UNL     1       5.055  18.697  14.678  1.00  0.00    -0.550 OA
ATOM     14  O   UNL     1       3.274  18.343  16.075  1.00  0.00    -0.550 OA
ENDBRANCH  11  12
ENDBRANCH  10  11
ENDBRANCH   9  10
ENDBRANCH   8   9
ENDBRANCH   7   8
ENDBRANCH   6   7
ENDBRANCH   5   6
ENDBRANCH   4   5
ENDBRANCH   3   4
ENDBRANCH   2   3
ENDBRANCH   1   2
BRANCH   1  15
ATOM     15  C   UNL     1       4.520  14.541   5.934  1.00  0.00     0.000 C 
BRANCH  15  16
ATOM     16  C   UNL     1       3.515  13.906   4.962  1.00  0.00     0.000 C 
BRANCH  16  17
ATOM     17  C   UNL     1       3.850  14.187   3.487  1.00  0.00     0.000 C 
BRANCH  17  18
ATOM     18  C   UNL     1       5.273  14.743   3.266  1.00  0.00    -0.000 C 
BRANCH  18  19
ATOM     19  C   UNL     1       5.257  16.185   2.727  1.00  0.00    -0.000 C 
BRANCH  19  20
ATOM     20  C   UNL     1       4.387  17.123   3.582  1.00  0.00    -0.000 C 
BRANCH  20  21
ATOM     21  C   UNL     1       3.183  17.677   2.806  1.00  0.00    -0.000 C 
BRANCH  21  22
ATOM     22  C   UNL     1       2.162  18.322   3.756  1.00  0.00    -0.000 C 
BRANCH  22  23
ATOM     23  C   UNL     1       2.350  17.884   5.217  1.00  0.00    -0.000 C 
BRANCH  23  24
ATOM     24  C   UNL     1       2.547  19.073   6.175  1.00  0.00    -0.000 C 
BRANCH  24  25
ATOM     25  C   UNL     1       2.499  18.651   7.653  1.00  0.00    -0.003 C 
ATOM     26  C   UNL     1       3.889  18.477   8.265  1.00  0.00     0.004 C 
ENDBRANCH  24  25
ENDBRANCH  23  24
ENDBRANCH  22  23
ENDBRANCH  21  22
ENDBRANCH  20  21
ENDBRANCH  19  20
ENDBRANCH  18  19
ENDBRANCH  17  18
ENDBRANCH  16  17
ENDBRANCH  15  16
ENDBRANCH   1  15
TORSDOF 22
ENDMDL
MODEL 9
REMARK VINA RESULT:    -3.367      5.139      9.078
REMARK INTER + INTRA:         -10.201
REMARK INTER:                  -8.188
REMARK INTRA:                  -2.012
REMARK UNBOUND:                -2.504
REMARK SMILES CCCCCCCCCCCCCCCCCCCCCCCC(=O)[O-]
REMARK SMILES IDX 13 1 14 2 15 3 16 4 17 5 18 6 19 7 20 8 21 9 22 10 23 11
REMARK SMILES IDX 24 12 25 13 26 14 12 15 11 16 10 17 9 18 8 19 7 20 6 21 5 22
REMARK SMILES IDX 4 23 3 24 2 25 1 26
REMARK H PARENT
REMARK Flexibility Score: inf
ROOT
ATOM      1  C   UNL     1       2.072  21.339  15.616  1.00  0.00     0.000 C 
ENDROOT
BRANCH   1   2
ATOM      2  C   UNL     1       1.880  20.018  14.857  1.00  0.00     0.000 C 
BRANCH   2   3
ATOM      3  C   UNL     1       2.470  18.810  15.604  1.00  0.00     0.000 C 
BRANCH   3   4
ATOM      4  C   UNL     1       3.976  18.632  15.351  1.00  0.00     0.000 C 
BRANCH   4   5
ATOM      5  C   UNL     1       4.366  17.148  15.400  1.00  0.00     0.000 C 
BRANCH   5   6
ATOM      6  C   UNL     1       5.698  16.857  14.689  1.00  0.00     0.000 C 
BRANCH   6   7
ATOM      7  C   UNL     1       5.675  15.647  13.734  1.00  0.00     0.000 C 
BRANCH   7   8
ATOM      8  C   UNL     1       4.367  14.830  13.796  1.00  0.00     0.000 C 
BRANCH   8   9
ATOM      9  C   UNL     1       3.706  14.682  12.414  1.00  0.00     0.000 C 
BRANCH   9  10
ATOM     10  C   UNL     1       3.803  15.966  11.573  1.00  0.00     0.006 C 
BRANCH  10  11
ATOM     11  C   UNL     1       2.481  16.305  10.872  1.00  0.00     0.053 C 
BRANCH  11  12
ATOM     12  C   UNL     1       2.591  17.615  10.159  1.00  0.00     0.041 C 
ATOM     13  O   UNL     1       2.129  18.663  10.682  1.00  0.00    -0.550 OA
ATOM     14  O   UNL     1       3.247  17.688   8.936  1.00  0.00    -0.550 OA
ENDBRANCH  11  12
ENDBRANCH  10  11
ENDBRANCH   9  10
ENDBRANCH   8   9
ENDBRANCH   7   8
ENDBRANCH   6   7
ENDBRANCH   5   6
ENDBRANCH   4   5
ENDBRANCH   3   4
ENDBRANCH   2   3
ENDBRANCH   1   2
BRANCH   1  15
ATOM     15  C   UNL     1       1.875  22.539  14.681  1.00  0.00     0.000 C 
BRANCH  15  16
ATOM     16  C   UNL     1       1.904  23.860  15.464  1.00  0.00     0.000 C 
BRANCH  16  17
ATOM     17  C   UNL     1       1.946  25.097  14.550  1.00  0.00     0.000 C 
BRANCH  17  18
ATOM     18  C   UNL     1       1.990  24.757  13.045  1.00  0.00    -0.000 C 
BRANCH  18  19
ATOM     19  C   UNL     1       3.078  25.553  12.301  1.00  0.00    -0.000 C 
BRANCH  19  20
ATOM     20  C   UNL     1       2.887  27.074  12.430  1.00  0.00    -0.000 C 
BRANCH  20  21
ATOM     21  C   UNL     1       4.190  27.852  12.192  1.00  0.00    -0.000 C 
BRANCH  21  22
ATOM     22  C   UNL     1       5.129  27.743  13.403  1.00  0.00    -0.000 C 
BRANCH  22  23
ATOM     23  C   UNL     1       4.410  28.001  14.737  1.00  0.00    -0.000 C 
BRANCH  23  24
ATOM     24  C   UNL     1       4.795  26.986  15.828  1.00  0.00    -0.000 C 
BRANCH  24  25
ATOM     25  C   UNL     1       5.874  25.997  15.356  1.00  0.00    -0.003 C 
ATOM     26  C   UNL     1       7.070  25.927  16.305  1.00  0.00     0.004 C 
ENDBRANCH  24  25
ENDBRANCH  23  24
ENDBRANCH  22  23
ENDBRANCH  21  22
ENDBRANCH  20  21
ENDBRANCH  19  20
ENDBRANCH  18  19
ENDBRANCH  17  18
ENDBRANCH  16  17
ENDBRANCH  15  16
ENDBRANCH   1  15
TORSDOF 22
ENDMDL
