MODEL 1
REMARK VINA RESULT:    -7.121      0.000      0.000
REMARK INTER + INTRA:          -8.156
REMARK INTER:                  -8.370
REMARK INTRA:                   0.213
REMARK UNBOUND:                 0.213
REMARK SMILES O=c1c(O)c(-c2ccc(O)cc2)oc2cc(O)cc(O)c12
REMARK SMILES IDX 5 1 3 2 2 3 1 4 21 5 19 6 18 7 16 8 15 9 14 10 13 11 6 12
REMARK SMILES IDX 7 13 8 14 9 15 12 16 11 17 10 18 4 20 20 22 17 24
REMARK H PARENT 10 19 4 21 20 23 17 25
REMARK Flexibility Score: inf
ROOT
ATOM      1  C   UNL     1      60.380 152.257   4.424  1.00  0.00     0.180 A 
ATOM      2  C   UNL     1      59.823 151.891   5.662  1.00  0.00     0.208 A 
ATOM      3  C   UNL     1      60.534 151.016   6.498  1.00  0.00     0.238 A 
ATOM      4  O   UNL     1      60.006 150.650   7.581  1.00  0.00    -0.285 OA
ATOM      5  C   UNL     1      61.801 150.530   6.093  1.00  0.00     0.111 A 
ATOM      6  C   UNL     1      62.628 149.671   6.879  1.00  0.00     0.134 A 
ATOM      7  C   UNL     1      63.802 149.146   6.324  1.00  0.00     0.093 A 
ATOM      8  C   UNL     1      64.213 149.503   5.038  1.00  0.00     0.123 A 
ATOM      9  C   UNL     1      63.443 150.389   4.287  1.00  0.00     0.094 A 
ATOM     10  C   UNL     1      62.248 150.900   4.798  1.00  0.00     0.146 A 
ATOM     11  O   UNL     1      61.540 151.732   4.045  1.00  0.00    -0.452 OA
ENDROOT
BRANCH   1  12
ATOM     12  C   UNL     1      59.702 153.194   3.500  1.00  0.00     0.021 A 
ATOM     13  C   UNL     1      59.869 153.041   2.113  1.00  0.00     0.016 A 
ATOM     14  C   UNL     1      59.255 153.927   1.224  1.00  0.00     0.047 A 
ATOM     15  C   UNL     1      58.482 154.987   1.707  1.00  0.00     0.115 A 
ATOM     16  C   UNL     1      58.940 154.274   3.981  1.00  0.00     0.016 A 
ATOM     17  C   UNL     1      58.328 155.160   3.089  1.00  0.00     0.047 A 
BRANCH  15  18
ATOM     18  O   UNL     1      57.876 155.863   0.809  1.00  0.00    -0.508 OA
ATOM     19  H   UNL     1      58.028 155.785  -0.191  1.00  0.00     0.293 HD
ENDBRANCH  15  18
ENDBRANCH   1  12
BRANCH   2  20
ATOM     20  O   UNL     1      58.561 152.366   6.032  1.00  0.00    -0.502 OA
ATOM     21  H   UNL     1      57.714 152.093   5.548  1.00  0.00     0.293 HD
ENDBRANCH   2  20
BRANCH   6  22
ATOM     22  O   UNL     1      62.356 149.325   8.206  1.00  0.00    -0.507 OA
ATOM     23  H   UNL     1      62.343 149.974   8.978  1.00  0.00     0.293 HD
ENDBRANCH   6  22
BRANCH   8  24
ATOM     24  O   UNL     1      65.391 148.990   4.500  1.00  0.00    -0.508 OA
ATOM     25  H   UNL     1      65.979 148.351   5.023  1.00  0.00     0.293 HD
ENDBRANCH   8  24
TORSDOF 5
ENDMDL
MODEL 2
REMARK VINA RESULT:    -6.868      1.772      6.578
REMARK INTER + INTRA:          -7.859
REMARK INTER:                  -7.574
REMARK INTRA:                  -0.285
REMARK UNBOUND:                 0.213
REMARK SMILES O=c1c(O)c(-c2ccc(O)cc2)oc2cc(O)cc(O)c12
REMARK SMILES IDX 5 1 3 2 2 3 1 4 21 5 19 6 18 7 16 8 15 9 14 10 13 11 6 12
REMARK SMILES IDX 7 13 8 14 9 15 12 16 11 17 10 18 4 20 20 22 17 24
REMARK H PARENT 10 19 4 21 20 23 17 25
REMARK Flexibility Score: inf
ROOT
ATOM      1  C   UNL     1      61.609 152.406   5.388  1.00  0.00     0.180 A 
ATOM      2  C   UNL     1      61.284 153.273   6.444  1.00  0.00     0.208 A 
ATOM      3  C   UNL     1      60.259 154.215   6.264  1.00  0.00     0.238 A 
ATOM      4  O   UNL     1      60.010 155.025   7.195  1.00  0.00    -0.285 OA
ATOM      5  C   UNL     1      59.562 154.268   5.033  1.00  0.00     0.111 A 
ATOM      6  C   UNL     1      58.478 155.156   4.753  1.00  0.00     0.134 A 
ATOM      7  C   UNL     1      57.949 155.211   3.457  1.00  0.00     0.093 A 
ATOM      8  C   UNL     1      58.418 154.366   2.450  1.00  0.00     0.123 A 
ATOM      9  C   UNL     1      59.435 153.454   2.730  1.00  0.00     0.094 A 
ATOM     10  C   UNL     1      60.008 153.400   4.003  1.00  0.00     0.146 A 
ATOM     11  O   UNL     1      60.981 152.525   4.223  1.00  0.00    -0.452 OA
ENDROOT
BRANCH   1  12
ATOM     12  C   UNL     1      62.660 151.370   5.512  1.00  0.00     0.021 A 
ATOM     13  C   UNL     1      63.995 151.701   5.221  1.00  0.00     0.016 A 
ATOM     14  C   UNL     1      64.999 150.733   5.310  1.00  0.00     0.047 A 
ATOM     15  C   UNL     1      64.683 149.421   5.674  1.00  0.00     0.115 A 
ATOM     16  C   UNL     1      62.344 150.044   5.857  1.00  0.00     0.016 A 
ATOM     17  C   UNL     1      63.351 149.077   5.945  1.00  0.00     0.047 A 
BRANCH  15  18
ATOM     18  O   UNL     1      65.694 148.467   5.759  1.00  0.00    -0.508 OA
ATOM     19  H   UNL     1      66.441 148.424   5.075  1.00  0.00     0.293 HD
ENDBRANCH  15  18
ENDBRANCH   1  12
BRANCH   2  20
ATOM     20  O   UNL     1      62.001 153.218   7.644  1.00  0.00    -0.502 OA
ATOM     21  H   UNL     1      62.256 154.050   8.164  1.00  0.00     0.293 HD
ENDBRANCH   2  20
BRANCH   6  22
ATOM     22  O   UNL     1      57.875 155.976   5.710  1.00  0.00    -0.507 OA
ATOM     23  H   UNL     1      58.371 156.486   6.425  1.00  0.00     0.293 HD
ENDBRANCH   6  22
BRANCH   8  24
ATOM     24  O   UNL     1      57.875 154.416   1.169  1.00  0.00    -0.508 OA
ATOM     25  H   UNL     1      57.911 153.617   0.546  1.00  0.00     0.293 HD
ENDBRANCH   8  24
TORSDOF 5
ENDMDL
MODEL 3
REMARK VINA RESULT:    -6.545      2.623      3.968
REMARK INTER + INTRA:          -7.479
REMARK INTER:                  -7.258
REMARK INTRA:                  -0.221
REMARK UNBOUND:                 0.213
REMARK SMILES O=c1c(O)c(-c2ccc(O)cc2)oc2cc(O)cc(O)c12
REMARK SMILES IDX 5 1 3 2 2 3 1 4 21 5 19 6 18 7 16 8 15 9 14 10 13 11 6 12
REMARK SMILES IDX 7 13 8 14 9 15 12 16 11 17 10 18 4 20 20 22 17 24
REMARK H PARENT 10 19 4 21 20 23 17 25
REMARK Flexibility Score: inf
ROOT
ATOM      1  C   UNL     1      61.597 152.410   6.122  1.00  0.00     0.180 A 
ATOM      2  C   UNL     1      62.975 152.613   5.941  1.00  0.00     0.208 A 
ATOM      3  C   UNL     1      63.800 151.508   5.678  1.00  0.00     0.238 A 
ATOM      4  O   UNL     1      65.041 151.691   5.570  1.00  0.00    -0.285 OA
ATOM      5  C   UNL     1      63.233 150.214   5.585  1.00  0.00     0.111 A 
ATOM      6  C   UNL     1      63.967 149.027   5.283  1.00  0.00     0.134 A 
ATOM      7  C   UNL     1      63.326 147.784   5.347  1.00  0.00     0.093 A 
ATOM      8  C   UNL     1      61.963 147.690   5.635  1.00  0.00     0.123 A 
ATOM      9  C   UNL     1      61.225 148.848   5.872  1.00  0.00     0.094 A 
ATOM     10  C   UNL     1      61.844 150.100   5.853  1.00  0.00     0.146 A 
ATOM     11  O   UNL     1      61.105 151.176   6.095  1.00  0.00    -0.452 OA
ENDROOT
BRANCH   1  12
ATOM     12  C   UNL     1      60.661 153.529   6.378  1.00  0.00     0.021 A 
ATOM     13  C   UNL     1      60.619 154.119   7.652  1.00  0.00     0.016 A 
ATOM     14  C   UNL     1      59.728 155.161   7.920  1.00  0.00     0.047 A 
ATOM     15  C   UNL     1      58.856 155.616   6.927  1.00  0.00     0.115 A 
ATOM     16  C   UNL     1      59.767 153.976   5.388  1.00  0.00     0.016 A 
ATOM     17  C   UNL     1      58.875 155.018   5.660  1.00  0.00     0.047 A 
BRANCH  15  18
ATOM     18  O   UNL     1      57.973 156.656   7.209  1.00  0.00    -0.508 OA
ATOM     19  H   UNL     1      56.983 156.581   7.000  1.00  0.00     0.293 HD
ENDBRANCH  15  18
ENDBRANCH   1  12
BRANCH   2  20
ATOM     20  O   UNL     1      63.517 153.897   6.058  1.00  0.00    -0.502 OA
ATOM     21  H   UNL     1      64.132 154.294   5.357  1.00  0.00     0.293 HD
ENDBRANCH   2  20
BRANCH   6  22
ATOM     22  O   UNL     1      65.309 149.019   4.894  1.00  0.00    -0.507 OA
ATOM     23  H   UNL     1      66.084 148.815   5.506  1.00  0.00     0.293 HD
ENDBRANCH   6  22
BRANCH   8  24
ATOM     24  O   UNL     1      61.329 146.450   5.680  1.00  0.00    -0.508 OA
ATOM     25  H   UNL     1      60.871 146.119   6.522  1.00  0.00     0.293 HD
ENDBRANCH   8  24
TORSDOF 5
ENDMDL
MODEL 4
REMARK VINA RESULT:    -6.134      2.294      6.600
REMARK INTER + INTRA:          -6.997
REMARK INTER:                  -6.712
REMARK INTRA:                  -0.285
REMARK UNBOUND:                 0.213
REMARK SMILES O=c1c(O)c(-c2ccc(O)cc2)oc2cc(O)cc(O)c12
REMARK SMILES IDX 5 1 3 2 2 3 1 4 21 5 19 6 18 7 16 8 15 9 14 10 13 11 6 12
REMARK SMILES IDX 7 13 8 14 9 15 12 16 11 17 10 18 4 20 20 22 17 24
REMARK H PARENT 10 19 4 21 20 23 17 25
REMARK Flexibility Score: inf
ROOT
ATOM      1  C   UNL     1      60.663 151.823   6.137  1.00  0.00     0.180 A 
ATOM      2  C   UNL     1      60.872 152.575   7.306  1.00  0.00     0.208 A 
ATOM      3  C   UNL     1      60.378 153.887   7.371  1.00  0.00     0.238 A 
ATOM      4  O   UNL     1      60.616 154.573   8.400  1.00  0.00    -0.285 OA
ATOM      5  C   UNL     1      59.668 154.426   6.272  1.00  0.00     0.111 A 
ATOM      6  C   UNL     1      59.088 155.731   6.244  1.00  0.00     0.134 A 
ATOM      7  C   UNL     1      58.521 156.209   5.055  1.00  0.00     0.093 A 
ATOM      8  C   UNL     1      58.455 155.405   3.915  1.00  0.00     0.123 A 
ATOM      9  C   UNL     1      58.965 154.109   3.951  1.00  0.00     0.094 A 
ATOM     10  C   UNL     1      59.569 153.617   5.111  1.00  0.00     0.146 A 
ATOM     11  O   UNL     1      60.051 152.381   5.098  1.00  0.00    -0.452 OA
ENDROOT
BRANCH   1  12
ATOM     12  C   UNL     1      61.133 150.425   6.003  1.00  0.00     0.021 A 
ATOM     13  C   UNL     1      60.336 149.378   6.494  1.00  0.00     0.016 A 
ATOM     14  C   UNL     1      60.770 148.052   6.397  1.00  0.00     0.047 A 
ATOM     15  C   UNL     1      62.011 147.758   5.826  1.00  0.00     0.115 A 
ATOM     16  C   UNL     1      62.390 150.125   5.448  1.00  0.00     0.016 A 
ATOM     17  C   UNL     1      62.823 148.798   5.354  1.00  0.00     0.047 A 
BRANCH  15  18
ATOM     18  O   UNL     1      62.431 146.433   5.737  1.00  0.00    -0.508 OA
ATOM     19  H   UNL     1      62.169 145.846   4.953  1.00  0.00     0.293 HD
ENDBRANCH  15  18
ENDBRANCH   1  12
BRANCH   2  20
ATOM     20  O   UNL     1      61.595 152.029   8.372  1.00  0.00    -0.502 OA
ATOM     21  H   UNL     1      62.539 152.323   8.595  1.00  0.00     0.293 HD
ENDBRANCH   2  20
BRANCH   6  22
ATOM     22  O   UNL     1      59.020 156.578   7.353  1.00  0.00    -0.507 OA
ATOM     23  H   UNL     1      58.164 156.895   7.783  1.00  0.00     0.293 HD
ENDBRANCH   6  22
BRANCH   8  24
ATOM     24  O   UNL     1      57.875 155.883   2.742  1.00  0.00    -0.508 OA
ATOM     25  H   UNL     1      57.964 155.382   1.865  1.00  0.00     0.293 HD
ENDBRANCH   8  24
TORSDOF 5
ENDMDL
MODEL 5
REMARK VINA RESULT:    -5.994      3.476      7.210
REMARK INTER + INTRA:          -6.832
REMARK INTER:                  -7.167
REMARK INTRA:                   0.335
REMARK UNBOUND:                 0.213
REMARK SMILES O=c1c(O)c(-c2ccc(O)cc2)oc2cc(O)cc(O)c12
REMARK SMILES IDX 5 1 3 2 2 3 1 4 21 5 19 6 18 7 16 8 15 9 14 10 13 11 6 12
REMARK SMILES IDX 7 13 8 14 9 15 12 16 11 17 10 18 4 20 20 22 17 24
REMARK H PARENT 10 19 4 21 20 23 17 25
REMARK Flexibility Score: inf
ROOT
ATOM      1  C   UNL     1      60.749 149.334   7.303  1.00  0.00     0.180 A 
ATOM      2  C   UNL     1      61.996 149.499   6.677  1.00  0.00     0.208 A 
ATOM      3  C   UNL     1      62.455 150.797   6.403  1.00  0.00     0.238 A 
ATOM      4  O   UNL     1      63.548 150.937   5.793  1.00  0.00    -0.285 OA
ATOM      5  C   UNL     1      61.667 151.914   6.772  1.00  0.00     0.111 A 
ATOM      6  C   UNL     1      62.051 153.276   6.579  1.00  0.00     0.134 A 
ATOM      7  C   UNL     1      61.136 154.298   6.863  1.00  0.00     0.093 A 
ATOM      8  C   UNL     1      59.877 154.011   7.394  1.00  0.00     0.123 A 
ATOM      9  C   UNL     1      59.516 152.688   7.642  1.00  0.00     0.094 A 
ATOM     10  C   UNL     1      60.393 151.644   7.335  1.00  0.00     0.146 A 
ATOM     11  O   UNL     1      60.004 150.399   7.577  1.00  0.00    -0.452 OA
ENDROOT
BRANCH   1  12
ATOM     12  C   UNL     1      60.210 147.998   7.647  1.00  0.00     0.021 A 
ATOM     13  C   UNL     1      59.379 147.855   8.770  1.00  0.00     0.016 A 
ATOM     14  C   UNL     1      58.878 146.599   9.125  1.00  0.00     0.047 A 
ATOM     15  C   UNL     1      59.213 145.469   8.374  1.00  0.00     0.115 A 
ATOM     16  C   UNL     1      60.561 146.854   6.906  1.00  0.00     0.016 A 
ATOM     17  C   UNL     1      60.059 145.599   7.264  1.00  0.00     0.047 A 
BRANCH  15  18
ATOM     18  O   UNL     1      58.706 144.224   8.739  1.00  0.00    -0.508 OA
ATOM     19  H   UNL     1      58.205 143.642   8.078  1.00  0.00     0.293 HD
ENDBRANCH  15  18
ENDBRANCH   1  12
BRANCH   2  20
ATOM     20  O   UNL     1      62.748 148.382   6.302  1.00  0.00    -0.502 OA
ATOM     21  H   UNL     1      63.466 148.424   5.588  1.00  0.00     0.293 HD
ENDBRANCH   2  20
BRANCH   6  22
ATOM     22  O   UNL     1      63.317 153.675   6.140  1.00  0.00    -0.507 OA
ATOM     23  H   UNL     1      63.586 154.629   5.953  1.00  0.00     0.293 HD
ENDBRANCH   6  22
BRANCH   8  24
ATOM     24  O   UNL     1      58.980 155.034   7.689  1.00  0.00    -0.508 OA
ATOM     25  H   UNL     1      58.612 155.164   8.625  1.00  0.00     0.293 HD
ENDBRANCH   8  24
TORSDOF 5
ENDMDL
MODEL 6
REMARK VINA RESULT:    -5.964      2.349      6.764
REMARK INTER + INTRA:          -6.796
REMARK INTER:                  -6.501
REMARK INTRA:                  -0.296
REMARK UNBOUND:                 0.213
REMARK SMILES O=c1c(O)c(-c2ccc(O)cc2)oc2cc(O)cc(O)c12
REMARK SMILES IDX 5 1 3 2 2 3 1 4 21 5 19 6 18 7 16 8 15 9 14 10 13 11 6 12
REMARK SMILES IDX 7 13 8 14 9 15 12 16 11 17 10 18 4 20 20 22 17 24
REMARK H PARENT 10 19 4 21 20 23 17 25
REMARK Flexibility Score: inf
ROOT
ATOM      1  C   UNL     1      59.432 152.408   5.938  1.00  0.00     0.180 A 
ATOM      2  C   UNL     1      59.212 153.628   6.599  1.00  0.00     0.208 A 
ATOM      3  C   UNL     1      58.856 154.758   5.847  1.00  0.00     0.238 A 
ATOM      4  O   UNL     1      58.712 155.860   6.439  1.00  0.00    -0.285 OA
ATOM      5  C   UNL     1      58.710 154.651   4.442  1.00  0.00     0.111 A 
ATOM      6  C   UNL     1      58.314 155.721   3.584  1.00  0.00     0.134 A 
ATOM      7  C   UNL     1      58.329 155.535   2.196  1.00  0.00     0.093 A 
ATOM      8  C   UNL     1      58.663 154.299   1.639  1.00  0.00     0.123 A 
ATOM      9  C   UNL     1      58.993 153.231   2.471  1.00  0.00     0.094 A 
ATOM     10  C   UNL     1      59.022 153.396   3.858  1.00  0.00     0.146 A 
ATOM     11  O   UNL     1      59.352 152.355   4.613  1.00  0.00    -0.452 OA
ENDROOT
BRANCH   1  12
ATOM     12  C   UNL     1      59.786 151.168   6.666  1.00  0.00     0.021 A 
ATOM     13  C   UNL     1      61.138 150.842   6.861  1.00  0.00     0.016 A 
ATOM     14  C   UNL     1      61.494 149.665   7.526  1.00  0.00     0.047 A 
ATOM     15  C   UNL     1      60.506 148.792   7.991  1.00  0.00     0.115 A 
ATOM     16  C   UNL     1      58.796 150.277   7.117  1.00  0.00     0.016 A 
ATOM     17  C   UNL     1      59.154 149.099   7.781  1.00  0.00     0.047 A 
BRANCH  15  18
ATOM     18  O   UNL     1      60.875 147.624   8.652  1.00  0.00    -0.508 OA
ATOM     19  H   UNL     1      60.222 146.859   8.780  1.00  0.00     0.293 HD
ENDBRANCH  15  18
ENDBRANCH   1  12
BRANCH   2  20
ATOM     20  O   UNL     1      59.382 153.717   7.985  1.00  0.00    -0.502 OA
ATOM     21  H   UNL     1      59.649 152.921   8.552  1.00  0.00     0.293 HD
ENDBRANCH   2  20
BRANCH   6  22
ATOM     22  O   UNL     1      57.875 156.966   4.043  1.00  0.00    -0.507 OA
ATOM     23  H   UNL     1      58.370 157.835   3.910  1.00  0.00     0.293 HD
ENDBRANCH   6  22
BRANCH   8  24
ATOM     24  O   UNL     1      58.660 154.118   0.258  1.00  0.00    -0.508 OA
ATOM     25  H   UNL     1      59.244 154.680  -0.352  1.00  0.00     0.293 HD
ENDBRANCH   8  24
TORSDOF 5
ENDMDL
MODEL 7
REMARK VINA RESULT:    -5.697      3.699      6.802
REMARK INTER + INTRA:          -6.483
REMARK INTER:                  -6.986
REMARK INTRA:                   0.504
REMARK UNBOUND:                 0.213
REMARK SMILES O=c1c(O)c(-c2ccc(O)cc2)oc2cc(O)cc(O)c12
REMARK SMILES IDX 5 1 3 2 2 3 1 4 21 5 19 6 18 7 16 8 15 9 14 10 13 11 6 12
REMARK SMILES IDX 7 13 8 14 9 15 12 16 11 17 10 18 4 20 20 22 17 24
REMARK H PARENT 10 19 4 21 20 23 17 25
REMARK Flexibility Score: inf
ROOT
ATOM      1  C   UNL     1      61.575 148.777   6.651  1.00  0.00     0.180 A 
ATOM      2  C   UNL     1      62.610 148.336   5.809  1.00  0.00     0.208 A 
ATOM      3  C   UNL     1      63.507 149.277   5.279  1.00  0.00     0.238 A 
ATOM      4  O   UNL     1      64.399 148.882   4.483  1.00  0.00    -0.285 OA
ATOM      5  C   UNL     1      63.366 150.646   5.610  1.00  0.00     0.111 A 
ATOM      6  C   UNL     1      64.241 151.682   5.163  1.00  0.00     0.134 A 
ATOM      7  C   UNL     1      63.931 153.019   5.446  1.00  0.00     0.093 A 
ATOM      8  C   UNL     1      62.813 153.351   6.214  1.00  0.00     0.123 A 
ATOM      9  C   UNL     1      61.987 152.343   6.706  1.00  0.00     0.094 A 
ATOM     10  C   UNL     1      62.250 151.003   6.410  1.00  0.00     0.146 A 
ATOM     11  O   UNL     1      61.430 150.076   6.889  1.00  0.00    -0.452 OA
ENDROOT
BRANCH   1  12
ATOM     12  C   UNL     1      60.606 147.842   7.268  1.00  0.00     0.021 A 
ATOM     13  C   UNL     1      59.665 148.328   8.190  1.00  0.00     0.016 A 
ATOM     14  C   UNL     1      58.756 147.459   8.799  1.00  0.00     0.047 A 
ATOM     15  C   UNL     1      58.787 146.092   8.510  1.00  0.00     0.115 A 
ATOM     16  C   UNL     1      60.646 146.462   6.995  1.00  0.00     0.016 A 
ATOM     17  C   UNL     1      59.737 145.594   7.608  1.00  0.00     0.047 A 
BRANCH  15  18
ATOM     18  O   UNL     1      57.875 145.237   9.125  1.00  0.00    -0.508 OA
ATOM     19  H   UNL     1      57.916 144.233   8.989  1.00  0.00     0.293 HD
ENDBRANCH  15  18
ENDBRANCH   1  12
BRANCH   2  20
ATOM     20  O   UNL     1      62.717 146.982   5.479  1.00  0.00    -0.502 OA
ATOM     21  H   UNL     1      62.723 146.655   4.519  1.00  0.00     0.293 HD
ENDBRANCH   2  20
BRANCH   6  22
ATOM     22  O   UNL     1      65.431 151.451   4.467  1.00  0.00    -0.507 OA
ATOM     23  H   UNL     1      65.630 151.793   3.539  1.00  0.00     0.293 HD
ENDBRANCH   6  22
BRANCH   8  24
ATOM     24  O   UNL     1      62.520 154.682   6.504  1.00  0.00    -0.508 OA
ATOM     25  H   UNL     1      61.957 155.249   5.880  1.00  0.00     0.293 HD
ENDBRANCH   8  24
TORSDOF 5
ENDMDL
