MODEL 1
REMARK VINA RESULT:    -4.308      0.000      0.000
REMARK INTER + INTRA:          -5.074
REMARK INTER:                  -4.938
REMARK INTRA:                  -0.136
REMARK UNBOUND:                -0.136
REMARK SMILES O=C([O-])C=Cc1ccc(O)cc1
REMARK SMILES IDX 6 1 7 2 12 3 8 4 11 5 9 6 5 7 4 8 2 9 1 10 3 11 10 12
REMARK H PARENT 10 13
REMARK Flexibility Score: inf
ROOT
ATOM      1  C   UNL     1      73.499  34.344  53.850  1.00  0.00    -0.025 A 
ATOM      2  C   UNL     1      73.706  35.715  53.590  1.00  0.00     0.012 A 
ATOM      3  C   UNL     1      74.352  33.404  53.246  1.00  0.00     0.012 A 
ATOM      4  C   UNL     1      74.726  36.125  52.726  1.00  0.00     0.047 A 
ATOM      5  C   UNL     1      75.370  33.818  52.381  1.00  0.00     0.047 A 
ATOM      6  C   UNL     1      75.558  35.178  52.118  1.00  0.00     0.115 A 
ENDROOT
BRANCH   1   7
ATOM      7  C   UNL     1      72.441  33.856  54.768  1.00  0.00     0.010 C 
ATOM      8  C   UNL     1      72.295  34.281  56.032  1.00  0.00     0.025 C 
BRANCH   8   9
ATOM      9  C   UNL     1      71.224  33.781  56.910  1.00  0.00     0.064 C 
ATOM     10  O   UNL     1      70.061  34.262  56.858  1.00  0.00    -0.545 OA
ATOM     11  O   UNL     1      71.500  32.762  57.811  1.00  0.00    -0.545 OA
ENDBRANCH   8   9
ENDBRANCH   1   7
BRANCH   6  12
ATOM     12  O   UNL     1      76.576  35.576  51.254  1.00  0.00    -0.508 OA
ATOM     13  H   UNL     1      77.323  34.944  50.990  1.00  0.00     0.293 HD
ENDBRANCH   6  12
TORSDOF 3
ENDMDL
MODEL 2
REMARK VINA RESULT:    -4.294      1.532      6.131
REMARK INTER + INTRA:          -5.058
REMARK INTER:                  -4.918
REMARK INTRA:                  -0.140
REMARK UNBOUND:                -0.136
REMARK SMILES O=C([O-])C=Cc1ccc(O)cc1
REMARK SMILES IDX 6 1 7 2 12 3 8 4 11 5 9 6 5 7 4 8 2 9 1 10 3 11 10 12
REMARK H PARENT 10 13
REMARK Flexibility Score: inf
ROOT
ATOM      1  C   UNL     1      74.678  35.187  53.049  1.00  0.00    -0.025 A 
ATOM      2  C   UNL     1      74.260  36.049  54.083  1.00  0.00     0.012 A 
ATOM      3  C   UNL     1      74.070  33.924  52.933  1.00  0.00     0.012 A 
ATOM      4  C   UNL     1      73.275  35.643  54.989  1.00  0.00     0.047 A 
ATOM      5  C   UNL     1      73.087  33.521  53.842  1.00  0.00     0.047 A 
ATOM      6  C   UNL     1      72.689  34.377  54.873  1.00  0.00     0.115 A 
ENDROOT
BRANCH   1   7
ATOM      7  C   UNL     1      75.707  35.572  52.053  1.00  0.00     0.010 C 
ATOM      8  C   UNL     1      76.885  34.944  51.917  1.00  0.00     0.025 C 
BRANCH   8   9
ATOM      9  C   UNL     1      77.879  35.348  50.908  1.00  0.00     0.064 C 
ATOM     10  O   UNL     1      79.085  35.000  51.007  1.00  0.00    -0.545 OA
ATOM     11  O   UNL     1      77.479  36.124  49.829  1.00  0.00    -0.545 OA
ENDBRANCH   8   9
ENDBRANCH   1   7
BRANCH   6  12
ATOM     12  O   UNL     1      71.710  33.962  55.771  1.00  0.00    -0.508 OA
ATOM     13  H   UNL     1      71.949  33.620  56.695  1.00  0.00     0.293 HD
ENDBRANCH   6  12
TORSDOF 3
ENDMDL
MODEL 3
REMARK VINA RESULT:    -4.216      0.153      1.682
REMARK INTER + INTRA:          -4.968
REMARK INTER:                  -4.832
REMARK INTRA:                  -0.135
REMARK UNBOUND:                -0.136
REMARK SMILES O=C([O-])C=Cc1ccc(O)cc1
REMARK SMILES IDX 6 1 7 2 12 3 8 4 11 5 9 6 5 7 4 8 2 9 1 10 3 11 10 12
REMARK H PARENT 10 13
REMARK Flexibility Score: inf
ROOT
ATOM      1  C   UNL     1      73.481  34.320  53.782  1.00  0.00    -0.025 A 
ATOM      2  C   UNL     1      74.418  33.416  53.240  1.00  0.00     0.012 A 
ATOM      3  C   UNL     1      73.559  35.676  53.418  1.00  0.00     0.012 A 
ATOM      4  C   UNL     1      75.419  33.869  52.375  1.00  0.00     0.047 A 
ATOM      5  C   UNL     1      74.563  36.125  52.555  1.00  0.00     0.047 A 
ATOM      6  C   UNL     1      75.496  35.224  52.033  1.00  0.00     0.115 A 
ENDROOT
BRANCH   1   7
ATOM      7  C   UNL     1      72.391  33.892  54.692  1.00  0.00     0.010 C 
ATOM      8  C   UNL     1      72.354  34.185  56.001  1.00  0.00     0.025 C 
BRANCH   8   9
ATOM      9  C   UNL     1      71.248  33.753  56.872  1.00  0.00     0.064 C 
ATOM     10  O   UNL     1      71.366  32.750  57.625  1.00  0.00    -0.545 OA
ATOM     11  O   UNL     1      70.056  34.464  56.865  1.00  0.00    -0.545 OA
ENDBRANCH   8   9
ENDBRANCH   1   7
BRANCH   6  12
ATOM     12  O   UNL     1      76.491  35.686  51.175  1.00  0.00    -0.508 OA
ATOM     13  H   UNL     1      77.468  35.682  51.446  1.00  0.00     0.293 HD
ENDBRANCH   6  12
TORSDOF 3
ENDMDL
MODEL 4
REMARK VINA RESULT:    -3.701      1.030      5.681
REMARK INTER + INTRA:          -4.378
REMARK INTER:                  -4.240
REMARK INTRA:                  -0.138
REMARK UNBOUND:                -0.136
REMARK SMILES O=C([O-])C=Cc1ccc(O)cc1
REMARK SMILES IDX 6 1 7 2 12 3 8 4 11 5 9 6 5 7 4 8 2 9 1 10 3 11 10 12
REMARK H PARENT 10 13
REMARK Flexibility Score: inf
ROOT
ATOM      1  C   UNL     1      73.422  34.213  54.104  1.00  0.00    -0.025 A 
ATOM      2  C   UNL     1      73.180  35.292  54.979  1.00  0.00     0.012 A 
ATOM      3  C   UNL     1      72.664  33.038  54.253  1.00  0.00     0.012 A 
ATOM      4  C   UNL     1      72.219  35.182  55.989  1.00  0.00     0.047 A 
ATOM      5  C   UNL     1      71.707  32.931  55.266  1.00  0.00     0.047 A 
ATOM      6  C   UNL     1      71.483  34.001  56.137  1.00  0.00     0.115 A 
ENDROOT
BRANCH   1   7
ATOM      7  C   UNL     1      74.418  34.281  53.007  1.00  0.00     0.010 C 
ATOM      8  C   UNL     1      75.328  35.259  52.887  1.00  0.00     0.025 C 
BRANCH   8   9
ATOM      9  C   UNL     1      76.311  35.287  51.790  1.00  0.00     0.064 C 
ATOM     10  O   UNL     1      76.221  36.125  50.855  1.00  0.00    -0.545 OA
ATOM     11  O   UNL     1      77.357  34.374  51.789  1.00  0.00    -0.545 OA
ENDBRANCH   8   9
ENDBRANCH   1   7
BRANCH   6  12
ATOM     12  O   UNL     1      70.526  33.881  57.142  1.00  0.00    -0.508 OA
ATOM     13  H   UNL     1      70.488  34.532  57.918  1.00  0.00     0.293 HD
ENDBRANCH   6  12
TORSDOF 3
ENDMDL
MODEL 5
REMARK VINA RESULT:    -3.669      3.201      4.532
REMARK INTER + INTRA:          -4.341
REMARK INTER:                  -4.203
REMARK INTRA:                  -0.138
REMARK UNBOUND:                -0.136
REMARK SMILES O=C([O-])C=Cc1ccc(O)cc1
REMARK SMILES IDX 6 1 7 2 12 3 8 4 11 5 9 6 5 7 4 8 2 9 1 10 3 11 10 12
REMARK H PARENT 10 13
REMARK Flexibility Score: inf
ROOT
ATOM      1  C   UNL     1      76.992  35.339  51.625  1.00  0.00    -0.025 A 
ATOM      2  C   UNL     1      77.933  34.359  52.002  1.00  0.00     0.012 A 
ATOM      3  C   UNL     1      77.247  36.119  50.484  1.00  0.00     0.012 A 
ATOM      4  C   UNL     1      79.108  34.186  51.264  1.00  0.00     0.047 A 
ATOM      5  C   UNL     1      78.424  35.945  49.750  1.00  0.00     0.047 A 
ATOM      6  C   UNL     1      79.358  34.980  50.139  1.00  0.00     0.115 A 
ENDROOT
BRANCH   1   7
ATOM      7  C   UNL     1      75.724  35.555  52.364  1.00  0.00     0.010 C 
ATOM      8  C   UNL     1      74.925  34.562  52.779  1.00  0.00     0.025 C 
BRANCH   8   9
ATOM      9  C   UNL     1      73.678  34.814  53.522  1.00  0.00     0.064 C 
ATOM     10  O   UNL     1      72.590  34.287  53.168  1.00  0.00    -0.545 OA
ATOM     11  O   UNL     1      73.703  35.647  54.633  1.00  0.00    -0.545 OA
ENDBRANCH   8   9
ENDBRANCH   1   7
BRANCH   6  12
ATOM     12  O   UNL     1      80.527  34.817  49.399  1.00  0.00    -0.508 OA
ATOM     13  H   UNL     1      81.397  34.541  49.838  1.00  0.00     0.293 HD
ENDBRANCH   6  12
TORSDOF 3
ENDMDL
MODEL 6
REMARK VINA RESULT:    -3.448      3.262      6.918
REMARK INTER + INTRA:          -4.088
REMARK INTER:                  -3.950
REMARK INTRA:                  -0.138
REMARK UNBOUND:                -0.136
REMARK SMILES O=C([O-])C=Cc1ccc(O)cc1
REMARK SMILES IDX 6 1 7 2 12 3 8 4 11 5 9 6 5 7 4 8 2 9 1 10 3 11 10 12
REMARK H PARENT 10 13
REMARK Flexibility Score: inf
ROOT
ATOM      1  C   UNL     1      76.765  34.646  51.985  1.00  0.00    -0.025 A 
ATOM      2  C   UNL     1      75.960  33.553  52.366  1.00  0.00     0.012 A 
ATOM      3  C   UNL     1      76.202  35.933  51.982  1.00  0.00     0.012 A 
ATOM      4  C   UNL     1      74.618  33.749  52.710  1.00  0.00     0.047 A 
ATOM      5  C   UNL     1      74.860  36.125  52.324  1.00  0.00     0.047 A 
ATOM      6  C   UNL     1      74.065  35.034  52.687  1.00  0.00     0.115 A 
ENDROOT
BRANCH   1   7
ATOM      7  C   UNL     1      78.196  34.496  51.624  1.00  0.00     0.010 C 
ATOM      8  C   UNL     1      78.948  33.442  51.975  1.00  0.00     0.025 C 
BRANCH   8   9
ATOM      9  C   UNL     1      80.364  33.322  51.587  1.00  0.00     0.064 C 
ATOM     10  O   UNL     1      81.267  33.185  52.454  1.00  0.00    -0.545 OA
ATOM     11  O   UNL     1      80.708  33.358  50.243  1.00  0.00    -0.545 OA
ENDBRANCH   8   9
ENDBRANCH   1   7
BRANCH   6  12
ATOM     12  O   UNL     1      72.730  35.239  53.026  1.00  0.00    -0.508 OA
ATOM     13  H   UNL     1      72.406  36.130  53.387  1.00  0.00     0.293 HD
ENDBRANCH   6  12
TORSDOF 3
ENDMDL
MODEL 7
REMARK VINA RESULT:    -3.351      3.195      4.536
REMARK INTER + INTRA:          -3.977
REMARK INTER:                  -3.826
REMARK INTRA:                  -0.150
REMARK UNBOUND:                -0.136
REMARK SMILES O=C([O-])C=Cc1ccc(O)cc1
REMARK SMILES IDX 6 1 7 2 12 3 8 4 11 5 9 6 5 7 4 8 2 9 1 10 3 11 10 12
REMARK H PARENT 10 13
REMARK Flexibility Score: inf
ROOT
ATOM      1  C   UNL     1      77.073  34.295  52.000  1.00  0.00    -0.025 A 
ATOM      2  C   UNL     1      78.162  35.183  51.877  1.00  0.00     0.012 A 
ATOM      3  C   UNL     1      77.333  32.918  52.117  1.00  0.00     0.012 A 
ATOM      4  C   UNL     1      79.473  34.696  51.848  1.00  0.00     0.047 A 
ATOM      5  C   UNL     1      78.645  32.435  52.085  1.00  0.00     0.047 A 
ATOM      6  C   UNL     1      79.717  33.321  51.948  1.00  0.00     0.115 A 
ENDROOT
BRANCH   1   7
ATOM      7  C   UNL     1      75.665  34.758  52.050  1.00  0.00     0.010 C 
ATOM      8  C   UNL     1      74.698  34.132  52.738  1.00  0.00     0.025 C 
BRANCH   8   9
ATOM      9  C   UNL     1      73.312  34.629  52.775  1.00  0.00     0.064 C 
ATOM     10  O   UNL     1      72.972  35.658  52.133  1.00  0.00    -0.545 OA
ATOM     11  O   UNL     1      72.364  33.950  53.529  1.00  0.00    -0.545 OA
ENDBRANCH   8   9
ENDBRANCH   1   7
BRANCH   6  12
ATOM     12  O   UNL     1      81.018  32.826  51.917  1.00  0.00    -0.508 OA
ATOM     13  H   UNL     1      81.228  31.912  51.534  1.00  0.00     0.293 HD
ENDBRANCH   6  12
TORSDOF 3
ENDMDL
MODEL 8
REMARK VINA RESULT:    -3.334     18.135     18.916
REMARK INTER + INTRA:          -3.957
REMARK INTER:                  -3.815
REMARK INTRA:                  -0.143
REMARK UNBOUND:                -0.136
REMARK SMILES O=C([O-])C=Cc1ccc(O)cc1
REMARK SMILES IDX 6 1 7 2 12 3 8 4 11 5 9 6 5 7 4 8 2 9 1 10 3 11 10 12
REMARK H PARENT 10 13
REMARK Flexibility Score: inf
ROOT
ATOM      1  C   UNL     1      87.342  29.397  65.243  1.00  0.00    -0.025 A 
ATOM      2  C   UNL     1      88.124  30.141  66.150  1.00  0.00     0.012 A 
ATOM      3  C   UNL     1      85.993  29.748  65.066  1.00  0.00     0.012 A 
ATOM      4  C   UNL     1      87.557  31.193  66.876  1.00  0.00     0.047 A 
ATOM      5  C   UNL     1      85.428  30.799  65.795  1.00  0.00     0.047 A 
ATOM      6  C   UNL     1      86.207  31.522  66.703  1.00  0.00     0.115 A 
ENDROOT
BRANCH   1   7
ATOM      7  C   UNL     1      87.897  28.280  64.438  1.00  0.00     0.010 C 
ATOM      8  C   UNL     1      87.291  27.092  64.296  1.00  0.00     0.025 C 
BRANCH   8   9
ATOM      9  C   UNL     1      87.866  26.010  63.478  1.00  0.00     0.064 C 
ATOM     10  O   UNL     1      88.125  24.883  63.977  1.00  0.00    -0.545 OA
ATOM     11  O   UNL     1      88.125  26.237  62.133  1.00  0.00    -0.545 OA
ENDBRANCH   8   9
ENDBRANCH   1   7
BRANCH   6  12
ATOM     12  O   UNL     1      85.632  32.567  67.423  1.00  0.00    -0.508 OA
ATOM     13  H   UNL     1      86.029  33.499  67.410  1.00  0.00     0.293 HD
ENDBRANCH   6  12
TORSDOF 3
ENDMDL
