MODEL 1
REMARK VINA RESULT:    -3.611      0.000      0.000
REMARK INTER + INTRA:         -15.681
REMARK INTER:                  -9.521
REMARK INTRA:                  -6.160
REMARK UNBOUND:                -6.160
REMARK SMILES CCCCCCCCCCCCCCCCCCCCCCCCCCCCCC(=O)[O-]
REMARK SMILES IDX 16 1 17 2 18 3 19 4 20 5 21 6 22 7 23 8 24 9 25 10 26 11
REMARK SMILES IDX 27 12 28 13 29 14 30 15 31 16 32 17 15 18 14 19 13 20 12 21
REMARK SMILES IDX 11 22 10 23 9 24 8 25 7 26 6 27 5 28 4 29 3 30 2 31 1 32
REMARK H PARENT
REMARK Flexibility Score: inf
ROOT
ATOM      1  C   UNL     1     131.180 144.204 106.358  1.00  0.00     0.000 C 
ENDROOT
BRANCH   1   2
ATOM      2  C   UNL     1     130.403 143.299 105.391  1.00  0.00     0.000 C 
BRANCH   2   3
ATOM      3  C   UNL     1     129.476 142.349 106.157  1.00  0.00     0.000 C 
BRANCH   3   4
ATOM      4  C   UNL     1     127.999 142.663 105.871  1.00  0.00     0.000 C 
BRANCH   4   5
ATOM      5  C   UNL     1     127.820 143.864 104.931  1.00  0.00     0.000 C 
BRANCH   5   6
ATOM      6  C   UNL     1     127.260 145.102 105.645  1.00  0.00     0.000 C 
BRANCH   6   7
ATOM      7  C   UNL     1     127.064 144.827 107.141  1.00  0.00     0.000 C 
BRANCH   7   8
ATOM      8  C   UNL     1     127.188 146.118 107.966  1.00  0.00     0.000 C 
BRANCH   8   9
ATOM      9  C   UNL     1     128.437 146.131 108.862  1.00  0.00     0.000 C 
BRANCH   9  10
ATOM     10  C   UNL     1     128.871 144.719 109.293  1.00  0.00     0.000 C 
BRANCH  10  11
ATOM     11  C   UNL     1     130.335 144.667 109.770  1.00  0.00     0.000 C 
BRANCH  11  12
ATOM     12  C   UNL     1     131.039 146.035 109.881  1.00  0.00     0.000 C 
BRANCH  12  13
ATOM     13  C   UNL     1     132.411 146.006 110.577  1.00  0.00     0.006 C 
BRANCH  13  14
ATOM     14  C   UNL     1     132.300 145.918 112.104  1.00  0.00     0.053 C 
BRANCH  14  15
ATOM     15  C   UNL     1     133.658 145.880 112.730  1.00  0.00     0.041 C 
ATOM     16  O   UNL     1     134.515 145.047 112.332  1.00  0.00    -0.550 OA
ATOM     17  O   UNL     1     133.968 146.743 113.775  1.00  0.00    -0.550 OA
ENDBRANCH  14  15
ENDBRANCH  13  14
ENDBRANCH  12  13
ENDBRANCH  11  12
ENDBRANCH  10  11
ENDBRANCH   9  10
ENDBRANCH   8   9
ENDBRANCH   7   8
ENDBRANCH   6   7
ENDBRANCH   5   6
ENDBRANCH   4   5
ENDBRANCH   3   4
ENDBRANCH   2   3
ENDBRANCH   1   2
BRANCH   1  18
ATOM     18  C   UNL     1     130.901 145.688 106.074  1.00  0.00     0.000 C 
BRANCH  18  19
ATOM     19  C   UNL     1     132.144 146.580 106.255  1.00  0.00     0.000 C 
BRANCH  19  20
ATOM     20  C   UNL     1     133.343 145.899 106.939  1.00  0.00     0.000 C 
BRANCH  20  21
ATOM     21  C   UNL     1     134.661 146.081 106.165  1.00  0.00     0.000 C 
BRANCH  21  22
ATOM     22  C   UNL     1     134.501 145.757 104.664  1.00  0.00     0.000 C 
BRANCH  22  23
ATOM     23  C   UNL     1     134.365 144.254 104.362  1.00  0.00     0.000 C 
BRANCH  23  24
ATOM     24  C   UNL     1     135.313 143.383 105.204  1.00  0.00    -0.000 C 
BRANCH  24  25
ATOM     25  C   UNL     1     134.571 142.338 106.061  1.00  0.00    -0.000 C 
BRANCH  25  26
ATOM     26  C   UNL     1     134.634 142.604 107.578  1.00  0.00    -0.000 C 
BRANCH  26  27
ATOM     27  C   UNL     1     133.390 142.175 108.379  1.00  0.00    -0.000 C 
BRANCH  27  28
ATOM     28  C   UNL     1     132.543 141.064 107.732  1.00  0.00    -0.000 C 
BRANCH  28  29
ATOM     29  C   UNL     1     131.827 140.177 108.766  1.00  0.00    -0.000 C 
BRANCH  29  30
ATOM     30  C   UNL     1     130.808 140.963 109.607  1.00  0.00    -0.000 C 
BRANCH  30  31
ATOM     31  C   UNL     1     129.459 140.240 109.724  1.00  0.00    -0.003 C 
ATOM     32  C   UNL     1     128.306 141.166 109.347  1.00  0.00     0.004 C 
ENDBRANCH  30  31
ENDBRANCH  29  30
ENDBRANCH  28  29
ENDBRANCH  27  28
ENDBRANCH  26  27
ENDBRANCH  25  26
ENDBRANCH  24  25
ENDBRANCH  23  24
ENDBRANCH  22  23
ENDBRANCH  21  22
ENDBRANCH  20  21
ENDBRANCH  19  20
ENDBRANCH  18  19
ENDBRANCH   1  18
TORSDOF 28
ENDMDL
MODEL 2
REMARK VINA RESULT:    -3.508      3.199      5.638
REMARK INTER + INTRA:         -15.411
REMARK INTER:                  -9.938
REMARK INTRA:                  -5.473
REMARK UNBOUND:                -6.160
REMARK SMILES CCCCCCCCCCCCCCCCCCCCCCCCCCCCCC(=O)[O-]
REMARK SMILES IDX 16 1 17 2 18 3 19 4 20 5 21 6 22 7 23 8 24 9 25 10 26 11
REMARK SMILES IDX 27 12 28 13 29 14 30 15 31 16 32 17 15 18 14 19 13 20 12 21
REMARK SMILES IDX 11 22 10 23 9 24 8 25 7 26 6 27 5 28 4 29 3 30 2 31 1 32
REMARK H PARENT
REMARK Flexibility Score: inf
ROOT
ATOM      1  C   UNL     1     134.351 145.816 106.765  1.00  0.00     0.000 C 
ENDROOT
BRANCH   1   2
ATOM      2  C   UNL     1     133.027 146.397 107.280  1.00  0.00     0.000 C 
BRANCH   2   3
ATOM      3  C   UNL     1     132.096 146.754 106.115  1.00  0.00     0.000 C 
BRANCH   3   4
ATOM      4  C   UNL     1     130.838 145.872 106.118  1.00  0.00     0.000 C 
BRANCH   4   5
ATOM      5  C   UNL     1     130.518 145.301 107.507  1.00  0.00     0.000 C 
BRANCH   5   6
ATOM      6  C   UNL     1     129.317 145.989 108.172  1.00  0.00     0.000 C 
BRANCH   6   7
ATOM      7  C   UNL     1     128.059 145.118 108.060  1.00  0.00     0.000 C 
BRANCH   7   8
ATOM      8  C   UNL     1     127.015 145.766 107.136  1.00  0.00     0.000 C 
BRANCH   8   9
ATOM      9  C   UNL     1     127.238 145.419 105.655  1.00  0.00     0.000 C 
BRANCH   9  10
ATOM     10  C   UNL     1     127.223 143.903 105.393  1.00  0.00     0.000 C 
BRANCH  10  11
ATOM     11  C   UNL     1     128.568 143.379 104.855  1.00  0.00     0.000 C 
BRANCH  11  12
ATOM     12  C   UNL     1     129.253 142.309 105.728  1.00  0.00     0.000 C 
BRANCH  12  13
ATOM     13  C   UNL     1     128.347 141.650 106.782  1.00  0.00     0.006 C 
BRANCH  13  14
ATOM     14  C   UNL     1     128.912 140.325 107.307  1.00  0.00     0.053 C 
BRANCH  14  15
ATOM     15  C   UNL     1     128.087 139.172 106.829  1.00  0.00     0.041 C 
ATOM     16  O   UNL     1     128.233 138.733 105.658  1.00  0.00    -0.550 OA
ATOM     17  O   UNL     1     127.135 138.603 107.666  1.00  0.00    -0.550 OA
ENDBRANCH  14  15
ENDBRANCH  13  14
ENDBRANCH  12  13
ENDBRANCH  11  12
ENDBRANCH  10  11
ENDBRANCH   9  10
ENDBRANCH   8   9
ENDBRANCH   7   8
ENDBRANCH   6   7
ENDBRANCH   5   6
ENDBRANCH   4   5
ENDBRANCH   3   4
ENDBRANCH   2   3
ENDBRANCH   1   2
BRANCH   1  18
ATOM     18  C   UNL     1     134.455 145.942 105.237  1.00  0.00     0.000 C 
BRANCH  18  19
ATOM     19  C   UNL     1     134.664 144.588 104.532  1.00  0.00     0.000 C 
BRANCH  19  20
ATOM     20  C   UNL     1     133.440 143.655 104.537  1.00  0.00     0.000 C 
BRANCH  20  21
ATOM     21  C   UNL     1     133.724 142.296 105.202  1.00  0.00     0.000 C 
BRANCH  21  22
ATOM     22  C   UNL     1     133.868 142.419 106.734  1.00  0.00     0.000 C 
BRANCH  22  23
ATOM     23  C   UNL     1     132.556 142.189 107.504  1.00  0.00     0.000 C 
BRANCH  23  24
ATOM     24  C   UNL     1     132.769 142.017 109.018  1.00  0.00    -0.000 C 
BRANCH  24  25
ATOM     25  C   UNL     1     132.958 143.356 109.758  1.00  0.00    -0.000 C 
BRANCH  25  26
ATOM     26  C   UNL     1     131.758 143.770 110.632  1.00  0.00    -0.000 C 
BRANCH  26  27
ATOM     27  C   UNL     1     131.655 145.275 110.948  1.00  0.00    -0.000 C 
BRANCH  27  28
ATOM     28  C   UNL     1     130.401 145.695 111.736  1.00  0.00    -0.000 C 
BRANCH  28  29
ATOM     29  C   UNL     1     130.260 144.957 113.079  1.00  0.00    -0.000 C 
BRANCH  29  30
ATOM     30  C   UNL     1     128.927 144.201 113.195  1.00  0.00    -0.000 C 
BRANCH  30  31
ATOM     31  C   UNL     1     128.346 143.821 111.826  1.00  0.00    -0.003 C 
ATOM     32  C   UNL     1     127.020 144.534 111.574  1.00  0.00     0.004 C 
ENDBRANCH  30  31
ENDBRANCH  29  30
ENDBRANCH  28  29
ENDBRANCH  27  28
ENDBRANCH  26  27
ENDBRANCH  25  26
ENDBRANCH  24  25
ENDBRANCH  23  24
ENDBRANCH  22  23
ENDBRANCH  21  22
ENDBRANCH  20  21
ENDBRANCH  19  20
ENDBRANCH  18  19
ENDBRANCH   1  18
TORSDOF 28
ENDMDL
MODEL 3
REMARK VINA RESULT:    -3.463      1.905      5.452
REMARK INTER + INTRA:         -15.292
REMARK INTER:                  -9.485
REMARK INTRA:                  -5.807
REMARK UNBOUND:                -6.160
REMARK SMILES CCCCCCCCCCCCCCCCCCCCCCCCCCCCCC(=O)[O-]
REMARK SMILES IDX 16 1 17 2 18 3 19 4 20 5 21 6 22 7 23 8 24 9 25 10 26 11
REMARK SMILES IDX 27 12 28 13 29 14 30 15 31 16 32 17 15 18 14 19 13 20 12 21
REMARK SMILES IDX 11 22 10 23 9 24 8 25 7 26 6 27 5 28 4 29 3 30 2 31 1 32
REMARK H PARENT
REMARK Flexibility Score: inf
ROOT
ATOM      1  C   UNL     1     129.484 141.562 107.060  1.00  0.00     0.000 C 
ENDROOT
BRANCH   1   2
ATOM      2  C   UNL     1     130.588 140.881 106.240  1.00  0.00     0.000 C 
BRANCH   2   3
ATOM      3  C   UNL     1     131.565 141.917 105.672  1.00  0.00     0.000 C 
BRANCH   3   4
ATOM      4  C   UNL     1     132.477 142.482 106.772  1.00  0.00     0.000 C 
BRANCH   4   5
ATOM      5  C   UNL     1     133.701 143.218 106.208  1.00  0.00     0.000 C 
BRANCH   5   6
ATOM      6  C   UNL     1     133.584 143.502 104.703  1.00  0.00     0.000 C 
BRANCH   6   7
ATOM      7  C   UNL     1     134.486 144.675 104.298  1.00  0.00     0.000 C 
BRANCH   7   8
ATOM      8  C   UNL     1     134.651 145.675 105.454  1.00  0.00     0.000 C 
BRANCH   8   9
ATOM      9  C   UNL     1     136.124 145.921 105.818  1.00  0.00     0.000 C 
BRANCH   9  10
ATOM     10  C   UNL     1     136.306 146.396 107.270  1.00  0.00     0.000 C 
BRANCH  10  11
ATOM     11  C   UNL     1     135.097 146.057 108.162  1.00  0.00     0.000 C 
BRANCH  11  12
ATOM     12  C   UNL     1     135.312 144.887 109.143  1.00  0.00     0.000 C 
BRANCH  12  13
ATOM     13  C   UNL     1     134.269 144.782 110.269  1.00  0.00     0.006 C 
BRANCH  13  14
ATOM     14  C   UNL     1     133.466 143.477 110.215  1.00  0.00     0.053 C 
BRANCH  14  15
ATOM     15  C   UNL     1     133.770 142.620 111.404  1.00  0.00     0.041 C 
ATOM     16  O   UNL     1     133.259 141.474 111.506  1.00  0.00    -0.550 OA
ATOM     17  O   UNL     1     134.594 143.100 112.415  1.00  0.00    -0.550 OA
ENDBRANCH  14  15
ENDBRANCH  13  14
ENDBRANCH  12  13
ENDBRANCH  11  12
ENDBRANCH  10  11
ENDBRANCH   9  10
ENDBRANCH   8   9
ENDBRANCH   7   8
ENDBRANCH   6   7
ENDBRANCH   5   6
ENDBRANCH   4   5
ENDBRANCH   3   4
ENDBRANCH   2   3
ENDBRANCH   1   2
BRANCH   1  18
ATOM     18  C   UNL     1     128.090 141.178 106.539  1.00  0.00     0.000 C 
BRANCH  18  19
ATOM     19  C   UNL     1     127.237 142.398 106.142  1.00  0.00     0.000 C 
BRANCH  19  20
ATOM     20  C   UNL     1     127.868 143.317 105.080  1.00  0.00     0.000 C 
BRANCH  20  21
ATOM     21  C   UNL     1     127.388 144.775 105.185  1.00  0.00     0.000 C 
BRANCH  21  22
ATOM     22  C   UNL     1     128.488 145.710 105.732  1.00  0.00     0.000 C 
BRANCH  22  23
ATOM     23  C   UNL     1     129.859 145.029 105.895  1.00  0.00     0.000 C 
BRANCH  23  24
ATOM     24  C   UNL     1     130.991 146.023 106.209  1.00  0.00    -0.000 C 
BRANCH  24  25
ATOM     25  C   UNL     1     131.501 145.918 107.660  1.00  0.00    -0.000 C 
BRANCH  25  26
ATOM     26  C   UNL     1     130.598 145.083 108.590  1.00  0.00    -0.000 C 
BRANCH  26  27
ATOM     27  C   UNL     1     129.692 145.893 109.536  1.00  0.00    -0.000 C 
BRANCH  27  28
ATOM     28  C   UNL     1     128.184 145.610 109.403  1.00  0.00    -0.000 C 
BRANCH  28  29
ATOM     29  C   UNL     1     127.863 144.109 109.283  1.00  0.00    -0.000 C 
BRANCH  29  30
ATOM     30  C   UNL     1     127.978 143.377 110.631  1.00  0.00    -0.000 C 
BRANCH  30  31
ATOM     31  C   UNL     1     127.237 144.105 111.761  1.00  0.00    -0.003 C 
ATOM     32  C   UNL     1     128.179 144.425 112.918  1.00  0.00     0.004 C 
ENDBRANCH  30  31
ENDBRANCH  29  30
ENDBRANCH  28  29
ENDBRANCH  27  28
ENDBRANCH  26  27
ENDBRANCH  25  26
ENDBRANCH  24  25
ENDBRANCH  23  24
ENDBRANCH  22  23
ENDBRANCH  21  22
ENDBRANCH  20  21
ENDBRANCH  19  20
ENDBRANCH  18  19
ENDBRANCH   1  18
TORSDOF 28
ENDMDL
MODEL 4
REMARK VINA RESULT:    -3.454      1.471      5.282
REMARK INTER + INTRA:         -15.269
REMARK INTER:                  -9.025
REMARK INTRA:                  -6.244
REMARK UNBOUND:                -6.160
REMARK SMILES CCCCCCCCCCCCCCCCCCCCCCCCCCCCCC(=O)[O-]
REMARK SMILES IDX 16 1 17 2 18 3 19 4 20 5 21 6 22 7 23 8 24 9 25 10 26 11
REMARK SMILES IDX 27 12 28 13 29 14 30 15 31 16 32 17 15 18 14 19 13 20 12 21
REMARK SMILES IDX 11 22 10 23 9 24 8 25 7 26 6 27 5 28 4 29 3 30 2 31 1 32
REMARK H PARENT
REMARK Flexibility Score: inf
ROOT
ATOM      1  C   UNL     1     131.733 145.856 107.292  1.00  0.00     0.000 C 
ENDROOT
BRANCH   1   2
ATOM      2  C   UNL     1     133.160 146.224 106.866  1.00  0.00     0.000 C 
BRANCH   2   3
ATOM      3  C   UNL     1     133.219 146.543 105.368  1.00  0.00     0.000 C 
BRANCH   3   4
ATOM      4  C   UNL     1     134.418 145.852 104.700  1.00  0.00     0.000 C 
BRANCH   4   5
ATOM      5  C   UNL     1     134.653 144.430 105.229  1.00  0.00     0.000 C 
BRANCH   5   6
ATOM      6  C   UNL     1     134.074 143.347 104.305  1.00  0.00     0.000 C 
BRANCH   6   7
ATOM      7  C   UNL     1     132.656 142.959 104.743  1.00  0.00     0.000 C 
BRANCH   7   8
ATOM      8  C   UNL     1     132.687 141.867 105.825  1.00  0.00     0.000 C 
BRANCH   8   9
ATOM      9  C   UNL     1     132.231 142.383 107.199  1.00  0.00     0.000 C 
BRANCH   9  10
ATOM     10  C   UNL     1     133.224 142.036 108.322  1.00  0.00     0.000 C 
BRANCH  10  11
ATOM     11  C   UNL     1     134.073 143.245 108.759  1.00  0.00     0.000 C 
BRANCH  11  12
ATOM     12  C   UNL     1     134.351 143.340 110.273  1.00  0.00     0.000 C 
BRANCH  12  13
ATOM     13  C   UNL     1     133.172 143.849 111.121  1.00  0.00     0.006 C 
BRANCH  13  14
ATOM     14  C   UNL     1     132.906 145.346 110.929  1.00  0.00     0.053 C 
BRANCH  14  15
ATOM     15  C   UNL     1     132.498 145.979 112.222  1.00  0.00     0.041 C 
ATOM     16  O   UNL     1     131.477 145.568 112.834  1.00  0.00    -0.550 OA
ATOM     17  O   UNL     1     133.228 147.044 112.737  1.00  0.00    -0.550 OA
ENDBRANCH  14  15
ENDBRANCH  13  14
ENDBRANCH  12  13
ENDBRANCH  11  12
ENDBRANCH  10  11
ENDBRANCH   9  10
ENDBRANCH   8   9
ENDBRANCH   7   8
ENDBRANCH   6   7
ENDBRANCH   5   6
ENDBRANCH   4   5
ENDBRANCH   3   4
ENDBRANCH   2   3
ENDBRANCH   1   2
BRANCH   1  18
ATOM     18  C   UNL     1     130.753 145.980 106.115  1.00  0.00     0.000 C 
BRANCH  18  19
ATOM     19  C   UNL     1     129.684 144.871 106.100  1.00  0.00     0.000 C 
BRANCH  19  20
ATOM     20  C   UNL     1     128.389 145.223 105.344  1.00  0.00     0.000 C 
BRANCH  20  21
ATOM     21  C   UNL     1     127.235 145.618 106.282  1.00  0.00     0.000 C 
BRANCH  21  22
ATOM     22  C   UNL     1     127.153 144.699 107.519  1.00  0.00     0.000 C 
BRANCH  22  23
ATOM     23  C   UNL     1     127.110 145.458 108.858  1.00  0.00     0.000 C 
BRANCH  23  24
ATOM     24  C   UNL     1     128.324 146.380 109.065  1.00  0.00    -0.000 C 
BRANCH  24  25
ATOM     25  C   UNL     1     129.397 145.767 109.988  1.00  0.00    -0.000 C 
BRANCH  25  26
ATOM     26  C   UNL     1     129.075 144.339 110.470  1.00  0.00    -0.000 C 
BRANCH  26  27
ATOM     27  C   UNL     1     129.874 143.212 109.788  1.00  0.00    -0.000 C 
BRANCH  27  28
ATOM     28  C   UNL     1     129.355 141.787 110.053  1.00  0.00    -0.000 C 
BRANCH  28  29
ATOM     29  C   UNL     1     128.303 141.331 109.026  1.00  0.00    -0.000 C 
BRANCH  29  30
ATOM     30  C   UNL     1     128.755 141.574 107.577  1.00  0.00    -0.000 C 
BRANCH  30  31
ATOM     31  C   UNL     1     127.704 141.126 106.551  1.00  0.00    -0.003 C 
ATOM     32  C   UNL     1     127.944 139.684 106.113  1.00  0.00     0.004 C 
ENDBRANCH  30  31
ENDBRANCH  29  30
ENDBRANCH  28  29
ENDBRANCH  27  28
ENDBRANCH  26  27
ENDBRANCH  25  26
ENDBRANCH  24  25
ENDBRANCH  23  24
ENDBRANCH  22  23
ENDBRANCH  21  22
ENDBRANCH  20  21
ENDBRANCH  19  20
ENDBRANCH  18  19
ENDBRANCH   1  18
TORSDOF 28
ENDMDL
MODEL 5
REMARK VINA RESULT:    -3.434      2.424      4.342
REMARK INTER + INTRA:         -15.216
REMARK INTER:                  -9.278
REMARK INTRA:                  -5.938
REMARK UNBOUND:                -6.160
REMARK SMILES CCCCCCCCCCCCCCCCCCCCCCCCCCCCCC(=O)[O-]
REMARK SMILES IDX 16 1 17 2 18 3 19 4 20 5 21 6 22 7 23 8 24 9 25 10 26 11
REMARK SMILES IDX 27 12 28 13 29 14 30 15 31 16 32 17 15 18 14 19 13 20 12 21
REMARK SMILES IDX 11 22 10 23 9 24 8 25 7 26 6 27 5 28 4 29 3 30 2 31 1 32
REMARK H PARENT
REMARK Flexibility Score: inf
ROOT
ATOM      1  C   UNL     1     130.777 142.194 107.067  1.00  0.00     0.000 C 
ENDROOT
BRANCH   1   2
ATOM      2  C   UNL     1     129.507 141.741 106.335  1.00  0.00     0.000 C 
BRANCH   2   3
ATOM      3  C   UNL     1     128.256 142.055 107.164  1.00  0.00     0.000 C 
BRANCH   3   4
ATOM      4  C   UNL     1     127.235 142.861 106.346  1.00  0.00     0.000 C 
BRANCH   4   5
ATOM      5  C   UNL     1     127.815 143.384 105.024  1.00  0.00     0.000 C 
BRANCH   5   6
ATOM      6  C   UNL     1     127.432 144.844 104.741  1.00  0.00     0.000 C 
BRANCH   6   7
ATOM      7  C   UNL     1     128.029 145.779 105.801  1.00  0.00     0.000 C 
BRANCH   7   8
ATOM      8  C   UNL     1     129.560 145.653 105.856  1.00  0.00     0.000 C 
BRANCH   8   9
ATOM      9  C   UNL     1     130.104 145.666 107.294  1.00  0.00     0.000 C 
BRANCH   9  10
ATOM     10  C   UNL     1     128.987 145.623 108.351  1.00  0.00     0.000 C 
BRANCH  10  11
ATOM     11  C   UNL     1     129.465 146.086 109.740  1.00  0.00     0.000 C 
BRANCH  11  12
ATOM     12  C   UNL     1     130.830 145.525 110.186  1.00  0.00     0.000 C 
BRANCH  12  13
ATOM     13  C   UNL     1     130.812 144.058 110.647  1.00  0.00     0.006 C 
BRANCH  13  14
ATOM     14  C   UNL     1     129.570 143.710 111.476  1.00  0.00     0.053 C 
BRANCH  14  15
ATOM     15  C   UNL     1     128.765 142.646 110.800  1.00  0.00     0.041 C 
ATOM     16  O   UNL     1     129.308 141.562 110.459  1.00  0.00    -0.550 OA
ATOM     17  O   UNL     1     127.422 142.863 110.518  1.00  0.00    -0.550 OA
ENDBRANCH  14  15
ENDBRANCH  13  14
ENDBRANCH  12  13
ENDBRANCH  11  12
ENDBRANCH  10  11
ENDBRANCH   9  10
ENDBRANCH   8   9
ENDBRANCH   7   8
ENDBRANCH   6   7
ENDBRANCH   5   6
ENDBRANCH   4   5
ENDBRANCH   3   4
ENDBRANCH   2   3
ENDBRANCH   1   2
BRANCH   1  18
ATOM     18  C   UNL     1     131.898 141.153 106.930  1.00  0.00     0.000 C 
BRANCH  18  19
ATOM     19  C   UNL     1     132.821 141.414 105.724  1.00  0.00     0.000 C 
BRANCH  19  20
ATOM     20  C   UNL     1     132.702 142.818 105.104  1.00  0.00     0.000 C 
BRANCH  20  21
ATOM     21  C   UNL     1     133.667 143.038 103.926  1.00  0.00     0.000 C 
BRANCH  21  22
ATOM     22  C   UNL     1     134.912 143.852 104.340  1.00  0.00     0.000 C 
BRANCH  22  23
ATOM     23  C   UNL     1     134.727 145.376 104.221  1.00  0.00     0.000 C 
BRANCH  23  24
ATOM     24  C   UNL     1     134.835 146.102 105.573  1.00  0.00    -0.000 C 
BRANCH  24  25
ATOM     25  C   UNL     1     133.513 146.099 106.367  1.00  0.00    -0.000 C 
BRANCH  25  26
ATOM     26  C   UNL     1     133.663 146.504 107.847  1.00  0.00    -0.000 C 
BRANCH  26  27
ATOM     27  C   UNL     1     134.206 145.408 108.783  1.00  0.00    -0.000 C 
BRANCH  27  28
ATOM     28  C   UNL     1     133.870 143.963 108.367  1.00  0.00    -0.000 C 
BRANCH  28  29
ATOM     29  C   UNL     1     135.119 143.129 108.033  1.00  0.00    -0.000 C 
BRANCH  29  30
ATOM     30  C   UNL     1     136.406 143.971 108.045  1.00  0.00    -0.000 C 
BRANCH  30  31
ATOM     31  C   UNL     1     137.642 143.162 107.629  1.00  0.00    -0.003 C 
ATOM     32  C   UNL     1     138.020 143.443 106.177  1.00  0.00     0.004 C 
ENDBRANCH  30  31
ENDBRANCH  29  30
ENDBRANCH  28  29
ENDBRANCH  27  28
ENDBRANCH  26  27
ENDBRANCH  25  26
ENDBRANCH  24  25
ENDBRANCH  23  24
ENDBRANCH  22  23
ENDBRANCH  21  22
ENDBRANCH  20  21
ENDBRANCH  19  20
ENDBRANCH  18  19
ENDBRANCH   1  18
TORSDOF 28
ENDMDL
MODEL 6
REMARK VINA RESULT:    -3.433      2.715      6.422
REMARK INTER + INTRA:         -15.213
REMARK INTER:                  -9.433
REMARK INTRA:                  -5.780
REMARK UNBOUND:                -6.160
REMARK SMILES CCCCCCCCCCCCCCCCCCCCCCCCCCCCCC(=O)[O-]
REMARK SMILES IDX 16 1 17 2 18 3 19 4 20 5 21 6 22 7 23 8 24 9 25 10 26 11
REMARK SMILES IDX 27 12 28 13 29 14 30 15 31 16 32 17 15 18 14 19 13 20 12 21
REMARK SMILES IDX 11 22 10 23 9 24 8 25 7 26 6 27 5 28 4 29 3 30 2 31 1 32
REMARK H PARENT
REMARK Flexibility Score: inf
ROOT
ATOM      1  C   UNL     1     128.253 145.462 109.573  1.00  0.00     0.000 C 
ENDROOT
BRANCH   1   2
ATOM      2  C   UNL     1     128.230 145.996 108.135  1.00  0.00     0.000 C 
BRANCH   2   3
ATOM      3  C   UNL     1     129.513 145.614 107.388  1.00  0.00     0.000 C 
BRANCH   3   4
ATOM      4  C   UNL     1     129.291 145.615 105.867  1.00  0.00     0.000 C 
BRANCH   4   5
ATOM      5  C   UNL     1     127.856 145.233 105.477  1.00  0.00     0.000 C 
BRANCH   5   6
ATOM      6  C   UNL     1     127.739 143.784 104.981  1.00  0.00     0.000 C 
BRANCH   6   7
ATOM      7  C   UNL     1     127.297 142.853 106.117  1.00  0.00     0.000 C 
BRANCH   7   8
ATOM      8  C   UNL     1     128.206 141.616 106.208  1.00  0.00     0.000 C 
BRANCH   8   9
ATOM      9  C   UNL     1     129.700 141.980 106.230  1.00  0.00     0.000 C 
BRANCH   9  10
ATOM     10  C   UNL     1     130.255 142.122 107.658  1.00  0.00     0.000 C 
BRANCH  10  11
ATOM     11  C   UNL     1     131.739 141.724 107.762  1.00  0.00     0.000 C 
BRANCH  11  12
ATOM     12  C   UNL     1     132.656 142.315 106.672  1.00  0.00     0.000 C 
BRANCH  12  13
ATOM     13  C   UNL     1     133.085 143.774 106.903  1.00  0.00     0.006 C 
BRANCH  13  14
ATOM     14  C   UNL     1     132.849 144.664 105.677  1.00  0.00     0.053 C 
BRANCH  14  15
ATOM     15  C   UNL     1     133.671 145.911 105.765  1.00  0.00     0.041 C 
ATOM     16  O   UNL     1     134.209 146.388 104.730  1.00  0.00    -0.550 OA
ATOM     17  O   UNL     1     133.869 146.530 106.993  1.00  0.00    -0.550 OA
ENDBRANCH  14  15
ENDBRANCH  13  14
ENDBRANCH  12  13
ENDBRANCH  11  12
ENDBRANCH  10  11
ENDBRANCH   9  10
ENDBRANCH   8   9
ENDBRANCH   7   8
ENDBRANCH   6   7
ENDBRANCH   5   6
ENDBRANCH   4   5
ENDBRANCH   3   4
ENDBRANCH   2   3
ENDBRANCH   1   2
BRANCH   1  18
ATOM     18  C   UNL     1     127.926 143.961 109.613  1.00  0.00     0.000 C 
BRANCH  18  19
ATOM     19  C   UNL     1     127.571 143.457 111.025  1.00  0.00     0.000 C 
BRANCH  19  20
ATOM     20  C   UNL     1     128.280 144.192 112.177  1.00  0.00     0.000 C 
BRANCH  20  21
ATOM     21  C   UNL     1     127.310 144.671 113.272  1.00  0.00     0.000 C 
BRANCH  21  22
ATOM     22  C   UNL     1     128.055 145.273 114.483  1.00  0.00     0.000 C 
BRANCH  22  23
ATOM     23  C   UNL     1     129.468 144.700 114.694  1.00  0.00     0.000 C 
BRANCH  23  24
ATOM     24  C   UNL     1     130.486 145.760 115.146  1.00  0.00    -0.000 C 
BRANCH  24  25
ATOM     25  C   UNL     1     130.837 146.772 114.037  1.00  0.00    -0.000 C 
BRANCH  25  26
ATOM     26  C   UNL     1     132.302 146.710 113.564  1.00  0.00    -0.000 C 
BRANCH  26  27
ATOM     27  C   UNL     1     132.504 146.585 112.042  1.00  0.00    -0.000 C 
BRANCH  27  28
ATOM     28  C   UNL     1     131.365 145.876 111.285  1.00  0.00    -0.000 C 
BRANCH  28  29
ATOM     29  C   UNL     1     131.875 144.920 110.192  1.00  0.00    -0.000 C 
BRANCH  29  30
ATOM     30  C   UNL     1     132.501 143.643 110.776  1.00  0.00    -0.000 C 
BRANCH  30  31
ATOM     31  C   UNL     1     131.656 143.039 111.907  1.00  0.00    -0.003 C 
ATOM     32  C   UNL     1     130.967 141.755 111.452  1.00  0.00     0.004 C 
ENDBRANCH  30  31
ENDBRANCH  29  30
ENDBRANCH  28  29
ENDBRANCH  27  28
ENDBRANCH  26  27
ENDBRANCH  25  26
ENDBRANCH  24  25
ENDBRANCH  23  24
ENDBRANCH  22  23
ENDBRANCH  21  22
ENDBRANCH  20  21
ENDBRANCH  19  20
ENDBRANCH  18  19
ENDBRANCH   1  18
TORSDOF 28
ENDMDL
MODEL 7
REMARK VINA RESULT:    -3.409      1.766      5.257
REMARK INTER + INTRA:         -15.150
REMARK INTER:                  -9.003
REMARK INTRA:                  -6.147
REMARK UNBOUND:                -6.160
REMARK SMILES CCCCCCCCCCCCCCCCCCCCCCCCCCCCCC(=O)[O-]
REMARK SMILES IDX 16 1 17 2 18 3 19 4 20 5 21 6 22 7 23 8 24 9 25 10 26 11
REMARK SMILES IDX 27 12 28 13 29 14 30 15 31 16 32 17 15 18 14 19 13 20 12 21
REMARK SMILES IDX 11 22 10 23 9 24 8 25 7 26 6 27 5 28 4 29 3 30 2 31 1 32
REMARK H PARENT
REMARK Flexibility Score: inf
ROOT
ATOM      1  C   UNL     1     130.561 142.315 107.548  1.00  0.00     0.000 C 
ENDROOT
BRANCH   1   2
ATOM      2  C   UNL     1     131.966 142.659 107.035  1.00  0.00     0.000 C 
BRANCH   2   3
ATOM      3  C   UNL     1     131.906 143.230 105.614  1.00  0.00     0.000 C 
BRANCH   3   4
ATOM      4  C   UNL     1     132.547 144.625 105.549  1.00  0.00     0.000 C 
BRANCH   4   5
ATOM      5  C   UNL     1     134.030 144.579 105.153  1.00  0.00     0.000 C 
BRANCH   5   6
ATOM      6  C   UNL     1     134.875 145.635 105.880  1.00  0.00     0.000 C 
BRANCH   6   7
ATOM      7  C   UNL     1     134.075 146.286 107.016  1.00  0.00     0.000 C 
BRANCH   7   8
ATOM      8  C   UNL     1     134.613 145.858 108.391  1.00  0.00     0.000 C 
BRANCH   8   9
ATOM      9  C   UNL     1     133.505 145.355 109.330  1.00  0.00     0.000 C 
BRANCH   9  10
ATOM     10  C   UNL     1     132.123 145.936 108.981  1.00  0.00     0.000 C 
BRANCH  10  11
ATOM     11  C   UNL     1     131.263 146.216 110.227  1.00  0.00     0.000 C 
BRANCH  11  12
ATOM     12  C   UNL     1     132.002 146.902 111.394  1.00  0.00     0.000 C 
BRANCH  12  13
ATOM     13  C   UNL     1     131.948 146.146 112.733  1.00  0.00     0.006 C 
BRANCH  13  14
ATOM     14  C   UNL     1     133.339 145.869 113.316  1.00  0.00     0.053 C 
BRANCH  14  15
ATOM     15  C   UNL     1     133.336 146.055 114.800  1.00  0.00     0.041 C 
ATOM     16  O   UNL     1     132.250 146.228 115.414  1.00  0.00    -0.550 OA
ATOM     17  O   UNL     1     134.535 146.069 115.503  1.00  0.00    -0.550 OA
ENDBRANCH  14  15
ENDBRANCH  13  14
ENDBRANCH  12  13
ENDBRANCH  11  12
ENDBRANCH  10  11
ENDBRANCH   9  10
ENDBRANCH   8   9
ENDBRANCH   7   8
ENDBRANCH   6   7
ENDBRANCH   5   6
ENDBRANCH   4   5
ENDBRANCH   3   4
ENDBRANCH   2   3
ENDBRANCH   1   2
BRANCH   1  18
ATOM     18  C   UNL     1     129.657 141.830 106.404  1.00  0.00     0.000 C 
BRANCH  18  19
ATOM     19  C   UNL     1     128.187 141.651 106.831  1.00  0.00     0.000 C 
BRANCH  19  20
ATOM     20  C   UNL     1     127.185 142.582 106.124  1.00  0.00     0.000 C 
BRANCH  20  21
ATOM     21  C   UNL     1     127.819 143.388 104.977  1.00  0.00     0.000 C 
BRANCH  21  22
ATOM     22  C   UNL     1     127.670 144.910 105.186  1.00  0.00     0.000 C 
BRANCH  22  23
ATOM     23  C   UNL     1     128.933 145.589 105.743  1.00  0.00     0.000 C 
BRANCH  23  24
ATOM     24  C   UNL     1     128.980 145.605 107.281  1.00  0.00    -0.000 C 
BRANCH  24  25
ATOM     25  C   UNL     1     127.597 145.836 107.924  1.00  0.00    -0.000 C 
BRANCH  25  26
ATOM     26  C   UNL     1     127.506 145.399 109.399  1.00  0.00    -0.000 C 
BRANCH  26  27
ATOM     27  C   UNL     1     127.635 143.885 109.653  1.00  0.00    -0.000 C 
BRANCH  27  28
ATOM     28  C   UNL     1     128.174 143.495 111.042  1.00  0.00    -0.000 C 
BRANCH  28  29
ATOM     29  C   UNL     1     129.693 143.253 111.050  1.00  0.00    -0.000 C 
BRANCH  29  30
ATOM     30  C   UNL     1     130.229 142.942 112.457  1.00  0.00    -0.000 C 
BRANCH  30  31
ATOM     31  C   UNL     1     131.636 142.329 112.429  1.00  0.00    -0.003 C 
ATOM     32  C   UNL     1     132.256 142.441 111.038  1.00  0.00     0.004 C 
ENDBRANCH  30  31
ENDBRANCH  29  30
ENDBRANCH  28  29
ENDBRANCH  27  28
ENDBRANCH  26  27
ENDBRANCH  25  26
ENDBRANCH  24  25
ENDBRANCH  23  24
ENDBRANCH  22  23
ENDBRANCH  21  22
ENDBRANCH  20  21
ENDBRANCH  19  20
ENDBRANCH  18  19
ENDBRANCH   1  18
TORSDOF 28
ENDMDL
MODEL 8
REMARK VINA RESULT:    -3.408      2.053      5.234
REMARK INTER + INTRA:         -15.146
REMARK INTER:                  -8.708
REMARK INTRA:                  -6.438
REMARK UNBOUND:                -6.160
REMARK SMILES CCCCCCCCCCCCCCCCCCCCCCCCCCCCCC(=O)[O-]
REMARK SMILES IDX 16 1 17 2 18 3 19 4 20 5 21 6 22 7 23 8 24 9 25 10 26 11
REMARK SMILES IDX 27 12 28 13 29 14 30 15 31 16 32 17 15 18 14 19 13 20 12 21
REMARK SMILES IDX 11 22 10 23 9 24 8 25 7 26 6 27 5 28 4 29 3 30 2 31 1 32
REMARK H PARENT
REMARK Flexibility Score: inf
ROOT
ATOM      1  C   UNL     1     130.457 142.231 107.103  1.00  0.00     0.000 C 
ENDROOT
BRANCH   1   2
ATOM      2  C   UNL     1     129.799 142.349 105.722  1.00  0.00     0.000 C 
BRANCH   2   3
ATOM      3  C   UNL     1     128.276 142.472 105.851  1.00  0.00     0.000 C 
BRANCH   3   4
ATOM      4  C   UNL     1     127.717 143.507 104.863  1.00  0.00     0.000 C 
BRANCH   4   5
ATOM      5  C   UNL     1     127.329 144.827 105.544  1.00  0.00     0.000 C 
BRANCH   5   6
ATOM      6  C   UNL     1     127.452 144.768 107.074  1.00  0.00     0.000 C 
BRANCH   6   7
ATOM      7  C   UNL     1     128.589 145.673 107.565  1.00  0.00     0.000 C 
BRANCH   7   8
ATOM      8  C   UNL     1     129.563 146.011 106.424  1.00  0.00     0.000 C 
BRANCH   8   9
ATOM      9  C   UNL     1     131.035 145.856 106.838  1.00  0.00     0.000 C 
BRANCH   9  10
ATOM     10  C   UNL     1     131.967 146.824 106.088  1.00  0.00     0.000 C 
BRANCH  10  11
ATOM     11  C   UNL     1     133.163 146.109 105.431  1.00  0.00     0.000 C 
BRANCH  11  12
ATOM     12  C   UNL     1     133.239 144.589 105.682  1.00  0.00     0.000 C 
BRANCH  12  13
ATOM     13  C   UNL     1     134.526 144.107 106.373  1.00  0.00     0.006 C 
BRANCH  13  14
ATOM     14  C   UNL     1     135.704 145.067 106.173  1.00  0.00     0.053 C 
BRANCH  14  15
ATOM     15  C   UNL     1     136.116 145.676 107.476  1.00  0.00     0.041 C 
ATOM     16  O   UNL     1     135.842 146.880 107.727  1.00  0.00    -0.550 OA
ATOM     17  O   UNL     1     136.830 144.924 108.402  1.00  0.00    -0.550 OA
ENDBRANCH  14  15
ENDBRANCH  13  14
ENDBRANCH  12  13
ENDBRANCH  11  12
ENDBRANCH  10  11
ENDBRANCH   9  10
ENDBRANCH   8   9
ENDBRANCH   7   8
ENDBRANCH   6   7
ENDBRANCH   5   6
ENDBRANCH   4   5
ENDBRANCH   3   4
ENDBRANCH   2   3
ENDBRANCH   1   2
BRANCH   1  18
ATOM     18  C   UNL     1     129.555 141.468 108.085  1.00  0.00     0.000 C 
BRANCH  18  19
ATOM     19  C   UNL     1     129.457 142.144 109.466  1.00  0.00     0.000 C 
BRANCH  19  20
ATOM     20  C   UNL     1     128.024 142.392 109.971  1.00  0.00     0.000 C 
BRANCH  20  21
ATOM     21  C   UNL     1     127.953 143.456 111.080  1.00  0.00     0.000 C 
BRANCH  21  22
ATOM     22  C   UNL     1     129.031 144.547 110.906  1.00  0.00     0.000 C 
BRANCH  22  23
ATOM     23  C   UNL     1     129.866 144.806 112.173  1.00  0.00     0.000 C 
BRANCH  23  24
ATOM     24  C   UNL     1     130.766 146.048 112.058  1.00  0.00    -0.000 C 
BRANCH  24  25
ATOM     25  C   UNL     1     130.970 146.513 110.602  1.00  0.00    -0.000 C 
BRANCH  25  26
ATOM     26  C   UNL     1     132.443 146.755 110.216  1.00  0.00    -0.000 C 
BRANCH  26  27
ATOM     27  C   UNL     1     133.292 145.487 110.009  1.00  0.00    -0.000 C 
BRANCH  27  28
ATOM     28  C   UNL     1     132.515 144.248 109.525  1.00  0.00    -0.000 C 
BRANCH  28  29
ATOM     29  C   UNL     1     132.913 142.961 110.270  1.00  0.00    -0.000 C 
BRANCH  29  30
ATOM     30  C   UNL     1     133.193 143.210 111.761  1.00  0.00    -0.000 C 
BRANCH  30  31
ATOM     31  C   UNL     1     132.918 141.972 112.626  1.00  0.00    -0.003 C 
ATOM     32  C   UNL     1     131.526 141.410 112.352  1.00  0.00     0.004 C 
ENDBRANCH  30  31
ENDBRANCH  29  30
ENDBRANCH  28  29
ENDBRANCH  27  28
ENDBRANCH  26  27
ENDBRANCH  25  26
ENDBRANCH  24  25
ENDBRANCH  23  24
ENDBRANCH  22  23
ENDBRANCH  21  22
ENDBRANCH  20  21
ENDBRANCH  19  20
ENDBRANCH  18  19
ENDBRANCH   1  18
TORSDOF 28
ENDMDL
MODEL 9
REMARK VINA RESULT:    -3.388      4.006      7.706
REMARK INTER + INTRA:         -15.095
REMARK INTER:                 -11.159
REMARK INTRA:                  -3.937
REMARK UNBOUND:                -6.160
REMARK SMILES CCCCCCCCCCCCCCCCCCCCCCCCCCCCCC(=O)[O-]
REMARK SMILES IDX 16 1 17 2 18 3 19 4 20 5 21 6 22 7 23 8 24 9 25 10 26 11
REMARK SMILES IDX 27 12 28 13 29 14 30 15 31 16 32 17 15 18 14 19 13 20 12 21
REMARK SMILES IDX 11 22 10 23 9 24 8 25 7 26 6 27 5 28 4 29 3 30 2 31 1 32
REMARK H PARENT
REMARK Flexibility Score: inf
ROOT
ATOM      1  C   UNL     1     130.981 145.774 106.661  1.00  0.00     0.000 C 
ENDROOT
BRANCH   1   2
ATOM      2  C   UNL     1     132.143 146.716 106.323  1.00  0.00     0.000 C 
BRANCH   2   3
ATOM      3  C   UNL     1     133.465 145.944 106.231  1.00  0.00     0.000 C 
BRANCH   3   4
ATOM      4  C   UNL     1     134.038 145.992 104.807  1.00  0.00     0.000 C 
BRANCH   4   5
ATOM      5  C   UNL     1     134.694 144.668 104.387  1.00  0.00     0.000 C 
BRANCH   5   6
ATOM      6  C   UNL     1     134.289 143.491 105.286  1.00  0.00     0.000 C 
BRANCH   6   7
ATOM      7  C   UNL     1     135.458 143.062 106.182  1.00  0.00     0.000 C 
BRANCH   7   8
ATOM      8  C   UNL     1     136.768 143.743 105.751  1.00  0.00     0.000 C 
BRANCH   8   9
ATOM      9  C   UNL     1     137.358 144.640 106.851  1.00  0.00     0.000 C 
BRANCH   9  10
ATOM     10  C   UNL     1     137.402 146.123 106.446  1.00  0.00     0.000 C 
BRANCH  10  11
ATOM     11  C   UNL     1     138.821 146.719 106.520  1.00  0.00     0.000 C 
BRANCH  11  12
ATOM     12  C   UNL     1     139.895 145.960 105.715  1.00  0.00     0.000 C 
BRANCH  12  13
ATOM     13  C   UNL     1     141.072 145.421 106.546  1.00  0.00     0.006 C 
BRANCH  13  14
ATOM     14  C   UNL     1     142.428 145.958 106.075  1.00  0.00     0.053 C 
BRANCH  14  15
ATOM     15  C   UNL     1     143.420 145.943 107.194  1.00  0.00     0.041 C 
ATOM     16  O   UNL     1     143.338 146.788 108.125  1.00  0.00    -0.550 OA
ATOM     17  O   UNL     1     144.454 145.014 107.196  1.00  0.00    -0.550 OA
ENDBRANCH  14  15
ENDBRANCH  13  14
ENDBRANCH  12  13
ENDBRANCH  11  12
ENDBRANCH  10  11
ENDBRANCH   9  10
ENDBRANCH   8   9
ENDBRANCH   7   8
ENDBRANCH   6   7
ENDBRANCH   5   6
ENDBRANCH   4   5
ENDBRANCH   3   4
ENDBRANCH   2   3
ENDBRANCH   1   2
BRANCH   1  18
ATOM     18  C   UNL     1     131.387 144.754 107.737  1.00  0.00     0.000 C 
BRANCH  18  19
ATOM     19  C   UNL     1     131.042 143.302 107.354  1.00  0.00     0.000 C 
BRANCH  19  20
ATOM     20  C   UNL     1     130.327 143.137 106.001  1.00  0.00     0.000 C 
BRANCH  20  21
ATOM     21  C   UNL     1     129.072 142.251 106.088  1.00  0.00     0.000 C 
BRANCH  21  22
ATOM     22  C   UNL     1     127.784 143.037 105.762  1.00  0.00     0.000 C 
BRANCH  22  23
ATOM     23  C   UNL     1     128.003 144.224 104.806  1.00  0.00     0.000 C 
BRANCH  23  24
ATOM     24  C   UNL     1     127.538 145.566 105.397  1.00  0.00    -0.000 C 
BRANCH  24  25
ATOM     25  C   UNL     1     126.875 145.420 106.781  1.00  0.00    -0.000 C 
BRANCH  25  26
ATOM     26  C   UNL     1     127.732 145.940 107.951  1.00  0.00    -0.000 C 
BRANCH  26  27
ATOM     27  C   UNL     1     127.460 145.282 109.317  1.00  0.00    -0.000 C 
BRANCH  27  28
ATOM     28  C   UNL     1     128.017 143.856 109.482  1.00  0.00    -0.000 C 
BRANCH  28  29
ATOM     29  C   UNL     1     128.079 143.401 110.951  1.00  0.00    -0.000 C 
BRANCH  29  30
ATOM     30  C   UNL     1     128.994 144.296 111.803  1.00  0.00    -0.000 C 
BRANCH  30  31
ATOM     31  C   UNL     1     128.498 144.437 113.249  1.00  0.00    -0.003 C 
ATOM     32  C   UNL     1     129.509 145.196 114.104  1.00  0.00     0.004 C 
ENDBRANCH  30  31
ENDBRANCH  29  30
ENDBRANCH  28  29
ENDBRANCH  27  28
ENDBRANCH  26  27
ENDBRANCH  25  26
ENDBRANCH  24  25
ENDBRANCH  23  24
ENDBRANCH  22  23
ENDBRANCH  21  22
ENDBRANCH  20  21
ENDBRANCH  19  20
ENDBRANCH  18  19
ENDBRANCH   1  18
TORSDOF 28
ENDMDL
