MODEL 1
REMARK VINA RESULT:    -4.354      0.000      0.000
REMARK INTER + INTRA:         -17.579
REMARK INTER:                 -11.481
REMARK INTRA:                  -6.098
REMARK UNBOUND:                -6.098
REMARK SMILES CCCCCCCCCCCCCCCCCCCCCCCCCCCCCC(=O)[O-]
REMARK SMILES IDX 16 1 17 2 18 3 19 4 20 5 21 6 22 7 23 8 24 9 25 10 26 11
REMARK SMILES IDX 27 12 28 13 29 14 30 15 31 16 32 17 15 18 14 19 13 20 12 21
REMARK SMILES IDX 11 22 10 23 9 24 8 25 7 26 6 27 5 28 4 29 3 30 2 31 1 32
REMARK H PARENT
REMARK Flexibility Score: inf
ROOT
ATOM      1  C   UNL     1      27.258   4.932  10.540  1.00  0.00     0.000 C 
ENDROOT
BRANCH   1   2
ATOM      2  C   UNL     1      25.771   4.630  10.275  1.00  0.00     0.000 C 
BRANCH   2   3
ATOM      3  C   UNL     1      24.827   5.499  11.121  1.00  0.00     0.000 C 
BRANCH   3   4
ATOM      4  C   UNL     1      23.720   6.166  10.282  1.00  0.00     0.000 C 
BRANCH   4   5
ATOM      5  C   UNL     1      23.758   7.707  10.370  1.00  0.00     0.000 C 
BRANCH   5   6
ATOM      6  C   UNL     1      24.235   8.394   9.078  1.00  0.00     0.000 C 
BRANCH   6   7
ATOM      7  C   UNL     1      25.761   8.532   8.999  1.00  0.00     0.000 C 
BRANCH   7   8
ATOM      8  C   UNL     1      26.362   7.472   8.064  1.00  0.00     0.000 C 
BRANCH   8   9
ATOM      9  C   UNL     1      26.232   7.853   6.579  1.00  0.00     0.000 C 
BRANCH   9  10
ATOM     10  C   UNL     1      25.251   6.941   5.823  1.00  0.00     0.000 C 
BRANCH  10  11
ATOM     11  C   UNL     1      24.902   5.661   6.603  1.00  0.00     0.000 C 
BRANCH  11  12
ATOM     12  C   UNL     1      23.398   5.433   6.852  1.00  0.00     0.000 C 
BRANCH  12  13
ATOM     13  C   UNL     1      22.458   6.423   6.136  1.00  0.00     0.006 C 
BRANCH  13  14
ATOM     14  C   UNL     1      20.972   6.263   6.494  1.00  0.00     0.053 C 
BRANCH  14  15
ATOM     15  C   UNL     1      20.690   6.672   7.907  1.00  0.00     0.041 C 
ATOM     16  O   UNL     1      20.266   5.827   8.738  1.00  0.00    -0.550 OA
ATOM     17  O   UNL     1      20.854   7.995   8.296  1.00  0.00    -0.550 OA
ENDBRANCH  14  15
ENDBRANCH  13  14
ENDBRANCH  12  13
ENDBRANCH  11  12
ENDBRANCH  10  11
ENDBRANCH   9  10
ENDBRANCH   8   9
ENDBRANCH   7   8
ENDBRANCH   6   7
ENDBRANCH   5   6
ENDBRANCH   4   5
ENDBRANCH   3   4
ENDBRANCH   2   3
ENDBRANCH   1   2
BRANCH   1  18
ATOM     18  C   UNL     1      28.166   4.385   9.426  1.00  0.00     0.000 C 
BRANCH  18  19
ATOM     19  C   UNL     1      27.363   3.819   8.243  1.00  0.00     0.000 C 
BRANCH  19  20
ATOM     20  C   UNL     1      27.858   2.430   7.801  1.00  0.00     0.000 C 
BRANCH  20  21
ATOM     21  C   UNL     1      27.816   1.340   8.894  1.00  0.00     0.000 C 
BRANCH  21  22
ATOM     22  C   UNL     1      28.459  -0.003   8.505  1.00  0.00     0.000 C 
BRANCH  22  23
ATOM     23  C   UNL     1      27.492  -1.188   8.640  1.00  0.00     0.000 C 
BRANCH  23  24
ATOM     24  C   UNL     1      26.311  -1.044   7.670  1.00  0.00    -0.000 C 
BRANCH  24  25
ATOM     25  C   UNL     1      26.705  -1.320   6.208  1.00  0.00    -0.000 C 
BRANCH  25  26
ATOM     26  C   UNL     1      26.598  -0.105   5.264  1.00  0.00    -0.000 C 
BRANCH  26  27
ATOM     27  C   UNL     1      25.292  -0.026   4.447  1.00  0.00    -0.000 C 
BRANCH  27  28
ATOM     28  C   UNL     1      24.527   1.306   4.571  1.00  0.00    -0.000 C 
BRANCH  28  29
ATOM     29  C   UNL     1      24.659   2.008   5.936  1.00  0.00    -0.000 C 
BRANCH  29  30
ATOM     30  C   UNL     1      23.713   1.453   7.022  1.00  0.00    -0.000 C 
BRANCH  30  31
ATOM     31  C   UNL     1      24.074   1.946   8.432  1.00  0.00    -0.003 C 
ATOM     32  C   UNL     1      22.897   2.671   9.079  1.00  0.00     0.004 C 
ENDBRANCH  30  31
ENDBRANCH  29  30
ENDBRANCH  28  29
ENDBRANCH  27  28
ENDBRANCH  26  27
ENDBRANCH  25  26
ENDBRANCH  24  25
ENDBRANCH  23  24
ENDBRANCH  22  23
ENDBRANCH  21  22
ENDBRANCH  20  21
ENDBRANCH  19  20
ENDBRANCH  18  19
ENDBRANCH   1  18
TORSDOF 28
ENDMDL
MODEL 2
REMARK VINA RESULT:    -4.199      1.284      4.341
REMARK INTER + INTRA:         -17.169
REMARK INTER:                 -11.151
REMARK INTRA:                  -6.018
REMARK UNBOUND:                -6.098
REMARK SMILES CCCCCCCCCCCCCCCCCCCCCCCCCCCCCC(=O)[O-]
REMARK SMILES IDX 16 1 17 2 18 3 19 4 20 5 21 6 22 7 23 8 24 9 25 10 26 11
REMARK SMILES IDX 27 12 28 13 29 14 30 15 31 16 32 17 15 18 14 19 13 20 12 21
REMARK SMILES IDX 11 22 10 23 9 24 8 25 7 26 6 27 5 28 4 29 3 30 2 31 1 32
REMARK H PARENT
REMARK Flexibility Score: inf
ROOT
ATOM      1  C   UNL     1      27.475   1.675   8.478  1.00  0.00     0.000 C 
ENDROOT
BRANCH   1   2
ATOM      2  C   UNL     1      27.996   2.870   7.658  1.00  0.00     0.000 C 
BRANCH   2   3
ATOM      3  C   UNL     1      26.921   3.480   6.745  1.00  0.00     0.000 C 
BRANCH   3   4
ATOM      4  C   UNL     1      26.516   4.904   7.172  1.00  0.00     0.000 C 
BRANCH   4   5
ATOM      5  C   UNL     1      26.255   5.832   5.965  1.00  0.00     0.000 C 
BRANCH   5   6
ATOM      6  C   UNL     1      26.509   7.321   6.258  1.00  0.00     0.000 C 
BRANCH   6   7
ATOM      7  C   UNL     1      26.604   7.630   7.757  1.00  0.00     0.000 C 
BRANCH   7   8
ATOM      8  C   UNL     1      25.313   8.290   8.265  1.00  0.00     0.000 C 
BRANCH   8   9
ATOM      9  C   UNL     1      24.321   7.273   8.854  1.00  0.00     0.000 C 
BRANCH   9  10
ATOM     10  C   UNL     1      22.946   7.327   8.167  1.00  0.00     0.000 C 
BRANCH  10  11
ATOM     11  C   UNL     1      22.843   6.377   6.962  1.00  0.00     0.000 C 
BRANCH  11  12
ATOM     12  C   UNL     1      21.409   5.971   6.567  1.00  0.00     0.000 C 
BRANCH  12  13
ATOM     13  C   UNL     1      20.589   5.293   7.683  1.00  0.00     0.006 C 
BRANCH  13  14
ATOM     14  C   UNL     1      19.460   6.161   8.259  1.00  0.00     0.053 C 
BRANCH  14  15
ATOM     15  C   UNL     1      19.681   6.479   9.706  1.00  0.00     0.041 C 
ATOM     16  O   UNL     1      20.434   5.753  10.406  1.00  0.00    -0.550 OA
ATOM     17  O   UNL     1      19.024   7.553  10.292  1.00  0.00    -0.550 OA
ENDBRANCH  14  15
ENDBRANCH  13  14
ENDBRANCH  12  13
ENDBRANCH  11  12
ENDBRANCH  10  11
ENDBRANCH   9  10
ENDBRANCH   8   9
ENDBRANCH   7   8
ENDBRANCH   6   7
ENDBRANCH   5   6
ENDBRANCH   4   5
ENDBRANCH   3   4
ENDBRANCH   2   3
ENDBRANCH   1   2
BRANCH   1  18
ATOM     18  C   UNL     1      28.226   0.375   8.147  1.00  0.00     0.000 C 
BRANCH  18  19
ATOM     19  C   UNL     1      27.295  -0.849   8.125  1.00  0.00     0.000 C 
BRANCH  19  20
ATOM     20  C   UNL     1      25.808  -0.465   8.236  1.00  0.00     0.000 C 
BRANCH  20  21
ATOM     21  C   UNL     1      24.975  -0.694   6.957  1.00  0.00     0.000 C 
BRANCH  21  22
ATOM     22  C   UNL     1      25.378   0.169   5.748  1.00  0.00     0.000 C 
BRANCH  22  23
ATOM     23  C   UNL     1      24.506   1.422   5.593  1.00  0.00     0.000 C 
BRANCH  23  24
ATOM     24  C   UNL     1      23.403   1.459   6.661  1.00  0.00    -0.000 C 
BRANCH  24  25
ATOM     25  C   UNL     1      23.350   2.801   7.412  1.00  0.00    -0.000 C 
BRANCH  25  26
ATOM     26  C   UNL     1      23.929   2.771   8.841  1.00  0.00    -0.000 C 
BRANCH  26  27
ATOM     27  C   UNL     1      23.402   3.872   9.784  1.00  0.00    -0.000 C 
BRANCH  27  28
ATOM     28  C   UNL     1      24.406   4.350  10.851  1.00  0.00    -0.000 C 
BRANCH  28  29
ATOM     29  C   UNL     1      25.888   4.245  10.445  1.00  0.00    -0.000 C 
BRANCH  29  30
ATOM     30  C   UNL     1      26.737   5.471  10.844  1.00  0.00    -0.000 C 
BRANCH  30  31
ATOM     31  C   UNL     1      28.233   5.274  10.558  1.00  0.00    -0.003 C 
ATOM     32  C   UNL     1      28.800   4.112  11.369  1.00  0.00     0.004 C 
ENDBRANCH  30  31
ENDBRANCH  29  30
ENDBRANCH  28  29
ENDBRANCH  27  28
ENDBRANCH  26  27
ENDBRANCH  25  26
ENDBRANCH  24  25
ENDBRANCH  23  24
ENDBRANCH  22  23
ENDBRANCH  21  22
ENDBRANCH  20  21
ENDBRANCH  19  20
ENDBRANCH  18  19
ENDBRANCH   1  18
TORSDOF 28
ENDMDL
MODEL 3
REMARK VINA RESULT:    -4.144      1.408      3.585
REMARK INTER + INTRA:         -17.024
REMARK INTER:                 -11.043
REMARK INTRA:                  -5.982
REMARK UNBOUND:                -6.098
REMARK SMILES CCCCCCCCCCCCCCCCCCCCCCCCCCCCCC(=O)[O-]
REMARK SMILES IDX 16 1 17 2 18 3 19 4 20 5 21 6 22 7 23 8 24 9 25 10 26 11
REMARK SMILES IDX 27 12 28 13 29 14 30 15 31 16 32 17 15 18 14 19 13 20 12 21
REMARK SMILES IDX 11 22 10 23 9 24 8 25 7 26 6 27 5 28 4 29 3 30 2 31 1 32
REMARK H PARENT
REMARK Flexibility Score: inf
ROOT
ATOM      1  C   UNL     1      28.330   3.256   8.527  1.00  0.00     0.000 C 
ENDROOT
BRANCH   1   2
ATOM      2  C   UNL     1      28.061   2.845   9.987  1.00  0.00     0.000 C 
BRANCH   2   3
ATOM      3  C   UNL     1      28.500   3.915  10.998  1.00  0.00     0.000 C 
BRANCH   3   4
ATOM      4  C   UNL     1      27.992   5.323  10.633  1.00  0.00     0.000 C 
BRANCH   4   5
ATOM      5  C   UNL     1      26.462   5.459  10.789  1.00  0.00     0.000 C 
BRANCH   5   6
ATOM      6  C   UNL     1      25.823   6.463   9.814  1.00  0.00     0.000 C 
BRANCH   6   7
ATOM      7  C   UNL     1      26.697   6.747   8.586  1.00  0.00     0.000 C 
BRANCH   7   8
ATOM      8  C   UNL     1      26.095   7.870   7.729  1.00  0.00     0.000 C 
BRANCH   8   9
ATOM      9  C   UNL     1      25.689   7.389   6.325  1.00  0.00     0.000 C 
BRANCH   9  10
ATOM     10  C   UNL     1      24.697   6.214   6.371  1.00  0.00     0.000 C 
BRANCH  10  11
ATOM     11  C   UNL     1      23.265   6.626   5.991  1.00  0.00     0.000 C 
BRANCH  11  12
ATOM     12  C   UNL     1      22.171   6.195   6.988  1.00  0.00     0.000 C 
BRANCH  12  13
ATOM     13  C   UNL     1      22.640   6.037   8.448  1.00  0.00     0.006 C 
BRANCH  13  14
ATOM     14  C   UNL     1      21.863   6.890   9.462  1.00  0.00     0.053 C 
BRANCH  14  15
ATOM     15  C   UNL     1      22.145   8.352   9.297  1.00  0.00     0.041 C 
ATOM     16  O   UNL     1      23.272   8.818   9.609  1.00  0.00    -0.550 OA
ATOM     17  O   UNL     1      21.151   9.206   8.839  1.00  0.00    -0.550 OA
ENDBRANCH  14  15
ENDBRANCH  13  14
ENDBRANCH  12  13
ENDBRANCH  11  12
ENDBRANCH  10  11
ENDBRANCH   9  10
ENDBRANCH   8   9
ENDBRANCH   7   8
ENDBRANCH   6   7
ENDBRANCH   5   6
ENDBRANCH   4   5
ENDBRANCH   3   4
ENDBRANCH   2   3
ENDBRANCH   1   2
BRANCH   1  18
ATOM     18  C   UNL     1      27.052   3.224   7.673  1.00  0.00     0.000 C 
BRANCH  18  19
ATOM     19  C   UNL     1      25.939   2.382   8.319  1.00  0.00     0.000 C 
BRANCH  19  20
ATOM     20  C   UNL     1      24.599   3.135   8.405  1.00  0.00     0.000 C 
BRANCH  20  21
ATOM     21  C   UNL     1      23.372   2.256   8.727  1.00  0.00     0.000 C 
BRANCH  21  22
ATOM     22  C   UNL     1      22.375   2.072   7.569  1.00  0.00     0.000 C 
BRANCH  22  23
ATOM     23  C   UNL     1      22.906   2.611   6.234  1.00  0.00     0.000 C 
BRANCH  23  24
ATOM     24  C   UNL     1      22.638   1.615   5.096  1.00  0.00    -0.000 C 
BRANCH  24  25
ATOM     25  C   UNL     1      23.893   0.821   4.695  1.00  0.00    -0.000 C 
BRANCH  25  26
ATOM     26  C   UNL     1      25.215   1.611   4.771  1.00  0.00    -0.000 C 
BRANCH  26  27
ATOM     27  C   UNL     1      26.480   0.752   4.980  1.00  0.00    -0.000 C 
BRANCH  27  28
ATOM     28  C   UNL     1      26.213  -0.714   5.374  1.00  0.00    -0.000 C 
BRANCH  28  29
ATOM     29  C   UNL     1      26.432  -1.038   6.864  1.00  0.00    -0.000 C 
BRANCH  29  30
ATOM     30  C   UNL     1      27.898  -1.359   7.227  1.00  0.00    -0.000 C 
BRANCH  30  31
ATOM     31  C   UNL     1      28.455  -0.433   8.319  1.00  0.00    -0.003 C 
ATOM     32  C   UNL     1      27.997  -0.879   9.704  1.00  0.00     0.004 C 
ENDBRANCH  30  31
ENDBRANCH  29  30
ENDBRANCH  28  29
ENDBRANCH  27  28
ENDBRANCH  26  27
ENDBRANCH  25  26
ENDBRANCH  24  25
ENDBRANCH  23  24
ENDBRANCH  22  23
ENDBRANCH  21  22
ENDBRANCH  20  21
ENDBRANCH  19  20
ENDBRANCH  18  19
ENDBRANCH   1  18
TORSDOF 28
ENDMDL
MODEL 4
REMARK VINA RESULT:    -4.087      2.133      3.466
REMARK INTER + INTRA:         -16.876
REMARK INTER:                 -11.538
REMARK INTRA:                  -5.338
REMARK UNBOUND:                -6.098
REMARK SMILES CCCCCCCCCCCCCCCCCCCCCCCCCCCCCC(=O)[O-]
REMARK SMILES IDX 16 1 17 2 18 3 19 4 20 5 21 6 22 7 23 8 24 9 25 10 26 11
REMARK SMILES IDX 27 12 28 13 29 14 30 15 31 16 32 17 15 18 14 19 13 20 12 21
REMARK SMILES IDX 11 22 10 23 9 24 8 25 7 26 6 27 5 28 4 29 3 30 2 31 1 32
REMARK H PARENT
REMARK Flexibility Score: inf
ROOT
ATOM      1  C   UNL     1      25.953   4.326   9.913  1.00  0.00     0.000 C 
ENDROOT
BRANCH   1   2
ATOM      2  C   UNL     1      25.564   5.782  10.232  1.00  0.00     0.000 C 
BRANCH   2   3
ATOM      3  C   UNL     1      26.527   6.805   9.611  1.00  0.00     0.000 C 
BRANCH   3   4
ATOM      4  C   UNL     1      25.811   7.820   8.700  1.00  0.00     0.000 C 
BRANCH   4   5
ATOM      5  C   UNL     1      26.481   7.947   7.314  1.00  0.00     0.000 C 
BRANCH   5   6
ATOM      6  C   UNL     1      26.264   6.726   6.403  1.00  0.00     0.000 C 
BRANCH   6   7
ATOM      7  C   UNL     1      24.788   6.489   6.058  1.00  0.00     0.000 C 
BRANCH   7   8
ATOM      8  C   UNL     1      24.268   5.204   6.720  1.00  0.00     0.000 C 
BRANCH   8   9
ATOM      9  C   UNL     1      22.756   5.254   6.998  1.00  0.00     0.000 C 
BRANCH   9  10
ATOM     10  C   UNL     1      22.423   5.004   8.479  1.00  0.00     0.000 C 
BRANCH  10  11
ATOM     11  C   UNL     1      22.205   6.305   9.270  1.00  0.00     0.000 C 
BRANCH  11  12
ATOM     12  C   UNL     1      21.669   6.120  10.703  1.00  0.00     0.000 C 
BRANCH  12  13
ATOM     13  C   UNL     1      22.107   7.201  11.711  1.00  0.00     0.006 C 
BRANCH  13  14
ATOM     14  C   UNL     1      23.150   6.730  12.736  1.00  0.00     0.053 C 
BRANCH  14  15
ATOM     15  C   UNL     1      22.724   7.018  14.143  1.00  0.00     0.041 C 
ATOM     16  O   UNL     1      21.995   8.014  14.392  1.00  0.00    -0.550 OA
ATOM     17  O   UNL     1      23.164   6.212  15.184  1.00  0.00    -0.550 OA
ENDBRANCH  14  15
ENDBRANCH  13  14
ENDBRANCH  12  13
ENDBRANCH  11  12
ENDBRANCH  10  11
ENDBRANCH   9  10
ENDBRANCH   8   9
ENDBRANCH   7   8
ENDBRANCH   6   7
ENDBRANCH   5   6
ENDBRANCH   4   5
ENDBRANCH   3   4
ENDBRANCH   2   3
ENDBRANCH   1   2
BRANCH   1  18
ATOM     18  C   UNL     1      27.350   4.225   9.280  1.00  0.00     0.000 C 
BRANCH  18  19
ATOM     19  C   UNL     1      27.307   3.640   7.858  1.00  0.00     0.000 C 
BRANCH  19  20
ATOM     20  C   UNL     1      28.074   2.311   7.740  1.00  0.00     0.000 C 
BRANCH  20  21
ATOM     21  C   UNL     1      27.816   1.301   8.879  1.00  0.00     0.000 C 
BRANCH  21  22
ATOM     22  C   UNL     1      28.539  -0.050   8.734  1.00  0.00     0.000 C 
BRANCH  22  23
ATOM     23  C   UNL     1      27.615  -1.250   8.978  1.00  0.00     0.000 C 
BRANCH  23  24
ATOM     24  C   UNL     1      27.670  -2.233   7.799  1.00  0.00    -0.000 C 
BRANCH  24  25
ATOM     25  C   UNL     1      27.608  -1.525   6.433  1.00  0.00    -0.000 C 
BRANCH  25  26
ATOM     26  C   UNL     1      26.222  -0.966   6.053  1.00  0.00    -0.000 C 
BRANCH  26  27
ATOM     27  C   UNL     1      26.088  -0.487   4.593  1.00  0.00    -0.000 C 
BRANCH  27  28
ATOM     28  C   UNL     1      26.166   1.040   4.398  1.00  0.00    -0.000 C 
BRANCH  28  29
ATOM     29  C   UNL     1      25.392   1.869   5.441  1.00  0.00    -0.000 C 
BRANCH  29  30
ATOM     30  C   UNL     1      23.857   1.739   5.333  1.00  0.00    -0.000 C 
BRANCH  30  31
ATOM     31  C   UNL     1      23.193   1.416   6.680  1.00  0.00    -0.003 C 
ATOM     32  C   UNL     1      24.168   1.618   7.836  1.00  0.00     0.004 C 
ENDBRANCH  30  31
ENDBRANCH  29  30
ENDBRANCH  28  29
ENDBRANCH  27  28
ENDBRANCH  26  27
ENDBRANCH  25  26
ENDBRANCH  24  25
ENDBRANCH  23  24
ENDBRANCH  22  23
ENDBRANCH  21  22
ENDBRANCH  20  21
ENDBRANCH  19  20
ENDBRANCH  18  19
ENDBRANCH   1  18
TORSDOF 28
ENDMDL
MODEL 5
REMARK VINA RESULT:    -4.076      1.565      3.204
REMARK INTER + INTRA:         -16.846
REMARK INTER:                 -10.898
REMARK INTRA:                  -5.948
REMARK UNBOUND:                -6.098
REMARK SMILES CCCCCCCCCCCCCCCCCCCCCCCCCCCCCC(=O)[O-]
REMARK SMILES IDX 16 1 17 2 18 3 19 4 20 5 21 6 22 7 23 8 24 9 25 10 26 11
REMARK SMILES IDX 27 12 28 13 29 14 30 15 31 16 32 17 15 18 14 19 13 20 12 21
REMARK SMILES IDX 11 22 10 23 9 24 8 25 7 26 6 27 5 28 4 29 3 30 2 31 1 32
REMARK H PARENT
REMARK Flexibility Score: inf
ROOT
ATOM      1  C   UNL     1      27.849   2.690   8.129  1.00  0.00     0.000 C 
ENDROOT
BRANCH   1   2
ATOM      2  C   UNL     1      27.588   4.080   8.739  1.00  0.00     0.000 C 
BRANCH   2   3
ATOM      3  C   UNL     1      26.422   4.082   9.739  1.00  0.00     0.000 C 
BRANCH   3   4
ATOM      4  C   UNL     1      25.958   5.504  10.109  1.00  0.00     0.000 C 
BRANCH   4   5
ATOM      5  C   UNL     1      26.869   6.598   9.510  1.00  0.00     0.000 C 
BRANCH   5   6
ATOM      6  C   UNL     1      26.115   7.645   8.671  1.00  0.00     0.000 C 
BRANCH   6   7
ATOM      7  C   UNL     1      26.601   7.711   7.217  1.00  0.00     0.000 C 
BRANCH   7   8
ATOM      8  C   UNL     1      25.505   7.242   6.248  1.00  0.00     0.000 C 
BRANCH   8   9
ATOM      9  C   UNL     1      25.245   5.729   6.340  1.00  0.00     0.000 C 
BRANCH   9  10
ATOM     10  C   UNL     1      23.860   5.405   6.927  1.00  0.00     0.000 C 
BRANCH  10  11
ATOM     11  C   UNL     1      22.807   6.477   6.596  1.00  0.00     0.000 C 
BRANCH  11  12
ATOM     12  C   UNL     1      22.057   7.057   7.812  1.00  0.00     0.000 C 
BRANCH  12  13
ATOM     13  C   UNL     1      22.455   6.458   9.175  1.00  0.00     0.006 C 
BRANCH  13  14
ATOM     14  C   UNL     1      22.815   7.498  10.247  1.00  0.00     0.053 C 
BRANCH  14  15
ATOM     15  C   UNL     1      22.536   6.996  11.631  1.00  0.00     0.041 C 
ATOM     16  O   UNL     1      23.487   6.722  12.408  1.00  0.00    -0.550 OA
ATOM     17  O   UNL     1      21.227   6.793  12.047  1.00  0.00    -0.550 OA
ENDBRANCH  14  15
ENDBRANCH  13  14
ENDBRANCH  12  13
ENDBRANCH  11  12
ENDBRANCH  10  11
ENDBRANCH   9  10
ENDBRANCH   8   9
ENDBRANCH   7   8
ENDBRANCH   6   7
ENDBRANCH   5   6
ENDBRANCH   4   5
ENDBRANCH   3   4
ENDBRANCH   2   3
ENDBRANCH   1   2
BRANCH   1  18
ATOM     18  C   UNL     1      28.087   1.620   9.207  1.00  0.00     0.000 C 
BRANCH  18  19
ATOM     19  C   UNL     1      28.406   0.242   8.604  1.00  0.00     0.000 C 
BRANCH  19  20
ATOM     20  C   UNL     1      27.301  -0.794   8.873  1.00  0.00     0.000 C 
BRANCH  20  21
ATOM     21  C   UNL     1      26.519  -1.259   7.625  1.00  0.00     0.000 C 
BRANCH  21  22
ATOM     22  C   UNL     1      27.199  -0.961   6.277  1.00  0.00     0.000 C 
BRANCH  22  23
ATOM     23  C   UNL     1      26.219  -0.988   5.097  1.00  0.00     0.000 C 
BRANCH  23  24
ATOM     24  C   UNL     1      26.331   0.296   4.261  1.00  0.00    -0.000 C 
BRANCH  24  25
ATOM     25  C   UNL     1      26.213   1.571   5.114  1.00  0.00    -0.000 C 
BRANCH  25  26
ATOM     26  C   UNL     1      24.809   1.840   5.691  1.00  0.00    -0.000 C 
BRANCH  26  27
ATOM     27  C   UNL     1      24.735   1.897   7.231  1.00  0.00    -0.000 C 
BRANCH  27  28
ATOM     28  C   UNL     1      23.325   1.700   7.823  1.00  0.00    -0.000 C 
BRANCH  28  29
ATOM     29  C   UNL     1      22.978   2.630   9.002  1.00  0.00    -0.000 C 
BRANCH  29  30
ATOM     30  C   UNL     1      21.463   2.830   9.217  1.00  0.00    -0.000 C 
BRANCH  30  31
ATOM     31  C   UNL     1      20.639   2.514   7.960  1.00  0.00    -0.003 C 
ATOM     32  C   UNL     1      20.430   3.764   7.110  1.00  0.00     0.004 C 
ENDBRANCH  30  31
ENDBRANCH  29  30
ENDBRANCH  28  29
ENDBRANCH  27  28
ENDBRANCH  26  27
ENDBRANCH  25  26
ENDBRANCH  24  25
ENDBRANCH  23  24
ENDBRANCH  22  23
ENDBRANCH  21  22
ENDBRANCH  20  21
ENDBRANCH  19  20
ENDBRANCH  18  19
ENDBRANCH   1  18
TORSDOF 28
ENDMDL
MODEL 6
REMARK VINA RESULT:    -4.026      1.356      2.085
REMARK INTER + INTRA:         -16.715
REMARK INTER:                 -11.328
REMARK INTRA:                  -5.387
REMARK UNBOUND:                -6.098
REMARK SMILES CCCCCCCCCCCCCCCCCCCCCCCCCCCCCC(=O)[O-]
REMARK SMILES IDX 16 1 17 2 18 3 19 4 20 5 21 6 22 7 23 8 24 9 25 10 26 11
REMARK SMILES IDX 27 12 28 13 29 14 30 15 31 16 32 17 15 18 14 19 13 20 12 21
REMARK SMILES IDX 11 22 10 23 9 24 8 25 7 26 6 27 5 28 4 29 3 30 2 31 1 32
REMARK H PARENT
REMARK Flexibility Score: inf
ROOT
ATOM      1  C   UNL     1      27.016   3.785  10.009  1.00  0.00     0.000 C 
ENDROOT
BRANCH   1   2
ATOM      2  C   UNL     1      26.849   5.203  10.588  1.00  0.00     0.000 C 
BRANCH   2   3
ATOM      3  C   UNL     1      25.377   5.598  10.780  1.00  0.00     0.000 C 
BRANCH   3   4
ATOM      4  C   UNL     1      25.008   6.897  10.039  1.00  0.00     0.000 C 
BRANCH   4   5
ATOM      5  C   UNL     1      26.150   7.406   9.132  1.00  0.00     0.000 C 
BRANCH   5   6
ATOM      6  C   UNL     1      25.664   8.035   7.814  1.00  0.00     0.000 C 
BRANCH   6   7
ATOM      7  C   UNL     1      26.382   7.471   6.581  1.00  0.00     0.000 C 
BRANCH   7   8
ATOM      8  C   UNL     1      26.342   5.936   6.575  1.00  0.00     0.000 C 
BRANCH   8   9
ATOM      9  C   UNL     1      24.946   5.382   6.242  1.00  0.00     0.000 C 
BRANCH   9  10
ATOM     10  C   UNL     1      24.318   4.623   7.424  1.00  0.00     0.000 C 
BRANCH  10  11
ATOM     11  C   UNL     1      22.822   4.932   7.605  1.00  0.00     0.000 C 
BRANCH  11  12
ATOM     12  C   UNL     1      22.254   6.007   6.657  1.00  0.00     0.000 C 
BRANCH  12  13
ATOM     13  C   UNL     1      21.319   7.037   7.319  1.00  0.00     0.006 C 
BRANCH  13  14
ATOM     14  C   UNL     1      20.992   6.747   8.791  1.00  0.00     0.053 C 
BRANCH  14  15
ATOM     15  C   UNL     1      21.464   7.843   9.697  1.00  0.00     0.041 C 
ATOM     16  O   UNL     1      22.162   8.785   9.240  1.00  0.00    -0.550 OA
ATOM     17  O   UNL     1      21.168   7.802  11.053  1.00  0.00    -0.550 OA
ENDBRANCH  14  15
ENDBRANCH  13  14
ENDBRANCH  12  13
ENDBRANCH  11  12
ENDBRANCH  10  11
ENDBRANCH   9  10
ENDBRANCH   8   9
ENDBRANCH   7   8
ENDBRANCH   6   7
ENDBRANCH   5   6
ENDBRANCH   4   5
ENDBRANCH   3   4
ENDBRANCH   2   3
ENDBRANCH   1   2
BRANCH   1  18
ATOM     18  C   UNL     1      28.051   3.742   8.873  1.00  0.00     0.000 C 
BRANCH  18  19
ATOM     19  C   UNL     1      27.671   2.737   7.773  1.00  0.00     0.000 C 
BRANCH  19  20
ATOM     20  C   UNL     1      27.256   1.367   8.339  1.00  0.00     0.000 C 
BRANCH  20  21
ATOM     21  C   UNL     1      28.421   0.476   8.821  1.00  0.00     0.000 C 
BRANCH  21  22
ATOM     22  C   UNL     1      28.006  -0.765   9.631  1.00  0.00     0.000 C 
BRANCH  22  23
ATOM     23  C   UNL     1      27.425  -1.883   8.754  1.00  0.00     0.000 C 
BRANCH  23  24
ATOM     24  C   UNL     1      28.337  -2.164   7.550  1.00  0.00    -0.000 C 
BRANCH  24  25
ATOM     25  C   UNL     1      27.557  -2.272   6.228  1.00  0.00    -0.000 C 
BRANCH  25  26
ATOM     26  C   UNL     1      26.249  -1.458   6.175  1.00  0.00    -0.000 C 
BRANCH  26  27
ATOM     27  C   UNL     1      25.987  -0.726   4.843  1.00  0.00    -0.000 C 
BRANCH  27  28
ATOM     28  C   UNL     1      26.415   0.755   4.819  1.00  0.00    -0.000 C 
BRANCH  28  29
ATOM     29  C   UNL     1      25.305   1.759   5.186  1.00  0.00    -0.000 C 
BRANCH  29  30
ATOM     30  C   UNL     1      23.881   1.277   4.833  1.00  0.00    -0.000 C 
BRANCH  30  31
ATOM     31  C   UNL     1      22.860   1.587   5.938  1.00  0.00    -0.003 C 
ATOM     32  C   UNL     1      21.622   2.273   5.366  1.00  0.00     0.004 C 
ENDBRANCH  30  31
ENDBRANCH  29  30
ENDBRANCH  28  29
ENDBRANCH  27  28
ENDBRANCH  26  27
ENDBRANCH  25  26
ENDBRANCH  24  25
ENDBRANCH  23  24
ENDBRANCH  22  23
ENDBRANCH  21  22
ENDBRANCH  20  21
ENDBRANCH  19  20
ENDBRANCH  18  19
ENDBRANCH   1  18
TORSDOF 28
ENDMDL
MODEL 7
REMARK VINA RESULT:    -4.017      2.805      7.046
REMARK INTER + INTRA:         -16.689
REMARK INTER:                 -11.194
REMARK INTRA:                  -5.495
REMARK UNBOUND:                -6.098
REMARK SMILES CCCCCCCCCCCCCCCCCCCCCCCCCCCCCC(=O)[O-]
REMARK SMILES IDX 16 1 17 2 18 3 19 4 20 5 21 6 22 7 23 8 24 9 25 10 26 11
REMARK SMILES IDX 27 12 28 13 29 14 30 15 31 16 32 17 15 18 14 19 13 20 12 21
REMARK SMILES IDX 11 22 10 23 9 24 8 25 7 26 6 27 5 28 4 29 3 30 2 31 1 32
REMARK H PARENT
REMARK Flexibility Score: inf
ROOT
ATOM      1  C   UNL     1      24.568   6.319   6.292  1.00  0.00     0.000 C 
ENDROOT
BRANCH   1   2
ATOM      2  C   UNL     1      24.576   4.811   6.606  1.00  0.00     0.000 C 
BRANCH   2   3
ATOM      3  C   UNL     1      25.991   4.214   6.624  1.00  0.00     0.000 C 
BRANCH   3   4
ATOM      4  C   UNL     1      26.140   3.067   7.642  1.00  0.00     0.000 C 
BRANCH   4   5
ATOM      5  C   UNL     1      27.545   2.425   7.609  1.00  0.00     0.000 C 
BRANCH   5   6
ATOM      6  C   UNL     1      28.195   2.277   8.996  1.00  0.00     0.000 C 
BRANCH   6   7
ATOM      7  C   UNL     1      28.259   0.822   9.477  1.00  0.00     0.000 C 
BRANCH   7   8
ATOM      8  C   UNL     1      28.660  -0.120   8.332  1.00  0.00     0.000 C 
BRANCH   8   9
ATOM      9  C   UNL     1      27.888  -1.450   8.364  1.00  0.00     0.000 C 
BRANCH   9  10
ATOM     10  C   UNL     1      26.364  -1.244   8.403  1.00  0.00     0.000 C 
BRANCH  10  11
ATOM     11  C   UNL     1      25.774  -0.890   7.027  1.00  0.00     0.000 C 
BRANCH  11  12
ATOM     12  C   UNL     1      24.498  -0.025   7.062  1.00  0.00     0.000 C 
BRANCH  12  13
ATOM     13  C   UNL     1      23.871   0.276   5.687  1.00  0.00     0.006 C 
BRANCH  13  14
ATOM     14  C   UNL     1      24.724   1.179   4.782  1.00  0.00     0.053 C 
BRANCH  14  15
ATOM     15  C   UNL     1      25.236   0.445   3.581  1.00  0.00     0.041 C 
ATOM     16  O   UNL     1      26.071   0.992   2.814  1.00  0.00    -0.550 OA
ATOM     17  O   UNL     1      24.760  -0.825   3.284  1.00  0.00    -0.550 OA
ENDBRANCH  14  15
ENDBRANCH  13  14
ENDBRANCH  12  13
ENDBRANCH  11  12
ENDBRANCH  10  11
ENDBRANCH   9  10
ENDBRANCH   8   9
ENDBRANCH   7   8
ENDBRANCH   6   7
ENDBRANCH   5   6
ENDBRANCH   4   5
ENDBRANCH   3   4
ENDBRANCH   2   3
ENDBRANCH   1   2
BRANCH   1  18
ATOM     18  C   UNL     1      25.963   6.838   5.909  1.00  0.00     0.000 C 
BRANCH  18  19
ATOM     19  C   UNL     1      26.513   7.847   6.930  1.00  0.00     0.000 C 
BRANCH  19  20
ATOM     20  C   UNL     1      25.534   8.112   8.089  1.00  0.00     0.000 C 
BRANCH  20  21
ATOM     21  C   UNL     1      26.026   7.657   9.479  1.00  0.00     0.000 C 
BRANCH  21  22
ATOM     22  C   UNL     1      27.034   6.494   9.471  1.00  0.00     0.000 C 
BRANCH  22  23
ATOM     23  C   UNL     1      26.558   5.287  10.290  1.00  0.00     0.000 C 
BRANCH  23  24
ATOM     24  C   UNL     1      25.204   5.575  10.955  1.00  0.00    -0.000 C 
BRANCH  24  25
ATOM     25  C   UNL     1      24.187   4.440  10.745  1.00  0.00    -0.000 C 
BRANCH  25  26
ATOM     26  C   UNL     1      23.061   4.753   9.739  1.00  0.00    -0.000 C 
BRANCH  26  27
ATOM     27  C   UNL     1      22.289   6.061  10.007  1.00  0.00    -0.000 C 
BRANCH  27  28
ATOM     28  C   UNL     1      22.063   6.948   8.767  1.00  0.00    -0.000 C 
BRANCH  28  29
ATOM     29  C   UNL     1      20.586   7.168   8.385  1.00  0.00    -0.000 C 
BRANCH  29  30
ATOM     30  C   UNL     1      19.917   5.937   7.736  1.00  0.00    -0.000 C 
BRANCH  30  31
ATOM     31  C   UNL     1      20.833   5.226   6.729  1.00  0.00    -0.003 C 
ATOM     32  C   UNL     1      20.842   5.951   5.386  1.00  0.00     0.004 C 
ENDBRANCH  30  31
ENDBRANCH  29  30
ENDBRANCH  28  29
ENDBRANCH  27  28
ENDBRANCH  26  27
ENDBRANCH  25  26
ENDBRANCH  24  25
ENDBRANCH  23  24
ENDBRANCH  22  23
ENDBRANCH  21  22
ENDBRANCH  20  21
ENDBRANCH  19  20
ENDBRANCH  18  19
ENDBRANCH   1  18
TORSDOF 28
ENDMDL
MODEL 8
REMARK VINA RESULT:    -4.006      2.183      4.513
REMARK INTER + INTRA:         -16.663
REMARK INTER:                 -11.390
REMARK INTRA:                  -5.273
REMARK UNBOUND:                -6.098
REMARK SMILES CCCCCCCCCCCCCCCCCCCCCCCCCCCCCC(=O)[O-]
REMARK SMILES IDX 16 1 17 2 18 3 19 4 20 5 21 6 22 7 23 8 24 9 25 10 26 11
REMARK SMILES IDX 27 12 28 13 29 14 30 15 31 16 32 17 15 18 14 19 13 20 12 21
REMARK SMILES IDX 11 22 10 23 9 24 8 25 7 26 6 27 5 28 4 29 3 30 2 31 1 32
REMARK H PARENT
REMARK Flexibility Score: inf
ROOT
ATOM      1  C   UNL     1      27.288   0.939   8.830  1.00  0.00     0.000 C 
ENDROOT
BRANCH   1   2
ATOM      2  C   UNL     1      27.927   1.998   7.912  1.00  0.00     0.000 C 
BRANCH   2   3
ATOM      3  C   UNL     1      28.034   3.378   8.578  1.00  0.00     0.000 C 
BRANCH   3   4
ATOM      4  C   UNL     1      28.166   3.290  10.111  1.00  0.00     0.000 C 
BRANCH   4   5
ATOM      5  C   UNL     1      27.982   4.660  10.800  1.00  0.00     0.000 C 
BRANCH   5   6
ATOM      6  C   UNL     1      27.289   5.713   9.917  1.00  0.00     0.000 C 
BRANCH   6   7
ATOM      7  C   UNL     1      25.852   6.015  10.359  1.00  0.00     0.000 C 
BRANCH   7   8
ATOM      8  C   UNL     1      25.088   4.719  10.669  1.00  0.00     0.000 C 
BRANCH   8   9
ATOM      9  C   UNL     1      23.568   4.869  10.483  1.00  0.00     0.000 C 
BRANCH   9  10
ATOM     10  C   UNL     1      23.052   4.122   9.241  1.00  0.00     0.000 C 
BRANCH  10  11
ATOM     11  C   UNL     1      24.161   3.352   8.503  1.00  0.00     0.000 C 
BRANCH  11  12
ATOM     12  C   UNL     1      24.381   3.765   7.034  1.00  0.00     0.000 C 
BRANCH  12  13
ATOM     13  C   UNL     1      25.387   4.913   6.820  1.00  0.00     0.006 C 
BRANCH  13  14
ATOM     14  C   UNL     1      24.755   6.312   6.768  1.00  0.00     0.053 C 
BRANCH  14  15
ATOM     15  C   UNL     1      25.788   7.396   6.824  1.00  0.00     0.041 C 
ATOM     16  O   UNL     1      25.725   8.284   7.714  1.00  0.00    -0.550 OA
ATOM     17  O   UNL     1      26.795   7.450   5.871  1.00  0.00    -0.550 OA
ENDBRANCH  14  15
ENDBRANCH  13  14
ENDBRANCH  12  13
ENDBRANCH  11  12
ENDBRANCH  10  11
ENDBRANCH   9  10
ENDBRANCH   8   9
ENDBRANCH   7   8
ENDBRANCH   6   7
ENDBRANCH   5   6
ENDBRANCH   4   5
ENDBRANCH   3   4
ENDBRANCH   2   3
ENDBRANCH   1   2
BRANCH   1  18
ATOM     18  C   UNL     1      28.260  -0.206   9.158  1.00  0.00     0.000 C 
BRANCH  18  19
ATOM     19  C   UNL     1      27.529  -1.493   9.574  1.00  0.00     0.000 C 
BRANCH  19  20
ATOM     20  C   UNL     1      28.101  -2.748   8.892  1.00  0.00     0.000 C 
BRANCH  20  21
ATOM     21  C   UNL     1      28.379  -2.604   7.380  1.00  0.00     0.000 C 
BRANCH  21  22
ATOM     22  C   UNL     1      27.127  -2.519   6.488  1.00  0.00     0.000 C 
BRANCH  22  23
ATOM     23  C   UNL     1      26.960  -1.146   5.824  1.00  0.00     0.000 C 
BRANCH  23  24
ATOM     24  C   UNL     1      25.556  -0.580   6.080  1.00  0.00    -0.000 C 
BRANCH  24  25
ATOM     25  C   UNL     1      25.309   0.750   5.348  1.00  0.00    -0.000 C 
BRANCH  25  26
ATOM     26  C   UNL     1      26.317   1.072   4.226  1.00  0.00    -0.000 C 
BRANCH  26  27
ATOM     27  C   UNL     1      25.872   0.658   2.808  1.00  0.00    -0.000 C 
BRANCH  27  28
ATOM     28  C   UNL     1      26.234  -0.785   2.407  1.00  0.00    -0.000 C 
BRANCH  28  29
ATOM     29  C   UNL     1      25.034  -1.684   2.053  1.00  0.00    -0.000 C 
BRANCH  29  30
ATOM     30  C   UNL     1      24.620  -2.651   3.184  1.00  0.00    -0.000 C 
BRANCH  30  31
ATOM     31  C   UNL     1      23.111  -2.615   3.472  1.00  0.00    -0.003 C 
ATOM     32  C   UNL     1      22.641  -1.193   3.764  1.00  0.00     0.004 C 
ENDBRANCH  30  31
ENDBRANCH  29  30
ENDBRANCH  28  29
ENDBRANCH  27  28
ENDBRANCH  26  27
ENDBRANCH  25  26
ENDBRANCH  24  25
ENDBRANCH  23  24
ENDBRANCH  22  23
ENDBRANCH  21  22
ENDBRANCH  20  21
ENDBRANCH  19  20
ENDBRANCH  18  19
ENDBRANCH   1  18
TORSDOF 28
ENDMDL
MODEL 9
REMARK VINA RESULT:    -4.002      2.027      6.702
REMARK INTER + INTRA:         -16.651
REMARK INTER:                 -11.853
REMARK INTRA:                  -4.798
REMARK UNBOUND:                -6.098
REMARK SMILES CCCCCCCCCCCCCCCCCCCCCCCCCCCCCC(=O)[O-]
REMARK SMILES IDX 16 1 17 2 18 3 19 4 20 5 21 6 22 7 23 8 24 9 25 10 26 11
REMARK SMILES IDX 27 12 28 13 29 14 30 15 31 16 32 17 15 18 14 19 13 20 12 21
REMARK SMILES IDX 11 22 10 23 9 24 8 25 7 26 6 27 5 28 4 29 3 30 2 31 1 32
REMARK H PARENT
REMARK Flexibility Score: inf
ROOT
ATOM      1  C   UNL     1      28.000   1.423   8.031  1.00  0.00     0.000 C 
ENDROOT
BRANCH   1   2
ATOM      2  C   UNL     1      28.407   0.186   8.855  1.00  0.00     0.000 C 
BRANCH   2   3
ATOM      3  C   UNL     1      27.503  -1.028   8.592  1.00  0.00     0.000 C 
BRANCH   3   4
ATOM      4  C   UNL     1      26.081  -0.629   8.153  1.00  0.00     0.000 C 
BRANCH   4   5
ATOM      5  C   UNL     1      25.683  -1.252   6.797  1.00  0.00     0.000 C 
BRANCH   5   6
ATOM      6  C   UNL     1      26.823  -1.276   5.764  1.00  0.00     0.000 C 
BRANCH   6   7
ATOM      7  C   UNL     1      26.434  -0.636   4.425  1.00  0.00     0.000 C 
BRANCH   7   8
ATOM      8  C   UNL     1      26.100   0.853   4.603  1.00  0.00     0.000 C 
BRANCH   8   9
ATOM      9  C   UNL     1      24.616   1.161   4.341  1.00  0.00     0.000 C 
BRANCH   9  10
ATOM     10  C   UNL     1      23.967   1.950   5.491  1.00  0.00     0.000 C 
BRANCH  10  11
ATOM     11  C   UNL     1      24.998   2.506   6.489  1.00  0.00     0.000 C 
BRANCH  11  12
ATOM     12  C   UNL     1      24.524   3.719   7.314  1.00  0.00     0.000 C 
BRANCH  12  13
ATOM     13  C   UNL     1      24.666   5.084   6.612  1.00  0.00     0.006 C 
BRANCH  13  14
ATOM     14  C   UNL     1      26.101   5.631   6.568  1.00  0.00     0.053 C 
BRANCH  14  15
ATOM     15  C   UNL     1      26.129   7.116   6.368  1.00  0.00     0.041 C 
ATOM     16  O   UNL     1      25.526   7.634   5.392  1.00  0.00    -0.550 OA
ATOM     17  O   UNL     1      26.855   7.922   7.234  1.00  0.00    -0.550 OA
ENDBRANCH  14  15
ENDBRANCH  13  14
ENDBRANCH  12  13
ENDBRANCH  11  12
ENDBRANCH  10  11
ENDBRANCH   9  10
ENDBRANCH   8   9
ENDBRANCH   7   8
ENDBRANCH   6   7
ENDBRANCH   5   6
ENDBRANCH   4   5
ENDBRANCH   3   4
ENDBRANCH   2   3
ENDBRANCH   1   2
BRANCH   1  18
ATOM     18  C   UNL     1      27.748   2.652   8.919  1.00  0.00     0.000 C 
BRANCH  18  19
ATOM     19  C   UNL     1      28.268   2.454  10.353  1.00  0.00     0.000 C 
BRANCH  19  20
ATOM     20  C   UNL     1      28.464   3.784  11.103  1.00  0.00     0.000 C 
BRANCH  20  21
ATOM     21  C   UNL     1      28.717   5.013  10.203  1.00  0.00     0.000 C 
BRANCH  21  22
ATOM     22  C   UNL     1      27.533   5.989  10.079  1.00  0.00     0.000 C 
BRANCH  22  23
ATOM     23  C   UNL     1      26.279   5.502  10.817  1.00  0.00     0.000 C 
BRANCH  23  24
ATOM     24  C   UNL     1      25.005   5.983  10.109  1.00  0.00    -0.000 C 
BRANCH  24  25
ATOM     25  C   UNL     1      23.728   5.348  10.688  1.00  0.00    -0.000 C 
BRANCH  25  26
ATOM     26  C   UNL     1      22.701   6.350  11.253  1.00  0.00    -0.000 C 
BRANCH  26  27
ATOM     27  C   UNL     1      21.348   6.387  10.513  1.00  0.00    -0.000 C 
BRANCH  27  28
ATOM     28  C   UNL     1      20.867   7.794  10.105  1.00  0.00    -0.000 C 
BRANCH  28  29
ATOM     29  C   UNL     1      20.985   8.112   8.602  1.00  0.00    -0.000 C 
BRANCH  29  30
ATOM     30  C   UNL     1      21.786   7.064   7.800  1.00  0.00    -0.000 C 
BRANCH  30  31
ATOM     31  C   UNL     1      20.904   6.250   6.840  1.00  0.00    -0.003 C 
ATOM     32  C   UNL     1      20.939   4.764   7.187  1.00  0.00     0.004 C 
ENDBRANCH  30  31
ENDBRANCH  29  30
ENDBRANCH  28  29
ENDBRANCH  27  28
ENDBRANCH  26  27
ENDBRANCH  25  26
ENDBRANCH  24  25
ENDBRANCH  23  24
ENDBRANCH  22  23
ENDBRANCH  21  22
ENDBRANCH  20  21
ENDBRANCH  19  20
ENDBRANCH  18  19
ENDBRANCH   1  18
TORSDOF 28
ENDMDL
