MODEL 1
REMARK VINA RESULT:    -7.235      0.000      0.000
REMARK INTER + INTRA:         -11.475
REMARK INTER:                 -10.618
REMARK INTRA:                  -0.857
REMARK UNBOUND:                -0.857
REMARK SMILES O=c1c(O[C@@H]2O[C@@H](CO)[C@H](O)[C@H](O)[C@H]2O)c(-c2ccc(O)c(O)c2)oc2cc(O)cc(O)c12
REMARK SMILES IDX 4 1 3 2 16 3 25 4 2 5 26 6 1 7 33 8 27 9 31 10 28 11 30 12
REMARK SMILES IDX 17 13 18 14 19 15 20 16 24 17 22 18 21 19 23 21 32 23 29 25
REMARK SMILES IDX 5 27 14 28 6 29 12 30 7 31 10 32 15 33 13 35 8 37 9 38 11 40
REMARK H PARENT 21 20 23 22 32 24 29 26 15 34 13 36 9 39 11 41
REMARK Flexibility Score: inf
ROOT
ATOM      1  O   UNL     1     -24.340  83.001 -23.858  1.00  0.00    -0.454 OA
ENDROOT
BRANCH   1   2
ATOM      2  C   UNL     1     -23.989  84.348 -24.075  1.00  0.00     0.214 A 
ATOM      3  C   UNL     1     -23.100  84.967 -23.173  1.00  0.00     0.180 A 
ATOM      4  O   UNL     1     -22.666  86.202 -23.402  1.00  0.00    -0.452 OA
ATOM      5  C   UNL     1     -24.455  85.098 -25.175  1.00  0.00     0.239 A 
ATOM      6  C   UNL     1     -23.053  86.929 -24.441  1.00  0.00     0.146 A 
ATOM      7  O   UNL     1     -25.294  84.599 -25.971  1.00  0.00    -0.285 OA
ATOM      8  C   UNL     1     -23.982  86.413 -25.374  1.00  0.00     0.111 A 
ATOM      9  C   UNL     1     -22.526  88.215 -24.603  1.00  0.00     0.094 A 
ATOM     10  C   UNL     1     -24.381  87.224 -26.466  1.00  0.00     0.134 A 
ATOM     11  C   UNL     1     -22.916  89.007 -25.682  1.00  0.00     0.123 A 
ATOM     12  C   UNL     1     -23.845  88.514 -26.606  1.00  0.00     0.093 A 
BRANCH   3  13
ATOM     13  C   UNL     1     -22.581  84.260 -21.982  1.00  0.00     0.025 A 
ATOM     14  C   UNL     1     -22.475  84.949 -20.765  1.00  0.00     0.016 A 
ATOM     15  C   UNL     1     -21.981  84.306 -19.627  1.00  0.00     0.051 A 
ATOM     16  C   UNL     1     -21.599  82.961 -19.685  1.00  0.00     0.157 A 
ATOM     17  C   UNL     1     -22.223  82.901 -22.032  1.00  0.00     0.062 A 
ATOM     18  C   UNL     1     -21.728  82.253 -20.893  1.00  0.00     0.158 A 
BRANCH  16  19
ATOM     19  O   UNL     1     -21.097  82.324 -18.550  1.00  0.00    -0.504 OA
ATOM     20  H   UNL     1     -21.432  82.558 -17.622  1.00  0.00     0.293 HD
ENDBRANCH  16  19
BRANCH  18  21
ATOM     21  O   UNL     1     -21.373  80.909 -20.977  1.00  0.00    -0.504 OA
ATOM     22  H   UNL     1     -20.447  80.614 -21.265  1.00  0.00     0.293 HD
ENDBRANCH  18  21
ENDBRANCH   3  13
BRANCH  10  23
ATOM     23  O   UNL     1     -25.297  86.757 -27.411  1.00  0.00    -0.507 OA
ATOM     24  H   UNL     1     -25.551  85.780 -27.466  1.00  0.00     0.293 HD
ENDBRANCH  10  23
BRANCH  11  25
ATOM     25  O   UNL     1     -22.376  90.283 -25.829  1.00  0.00    -0.508 OA
ATOM     26  H   UNL     1     -22.465  90.799 -26.699  1.00  0.00     0.293 HD
ENDBRANCH  11  25
ENDBRANCH   1   2
BRANCH   1  27
ATOM     27  C   UNL     1     -25.296  82.528 -22.903  1.00  0.00     0.339 C 
ATOM     28  C   UNL     1     -26.716  82.568 -23.507  1.00  0.00     0.214 C 
ATOM     29  O   UNL     1     -24.969  81.228 -22.434  1.00  0.00    -0.332 OA
ATOM     30  C   UNL     1     -26.880  81.496 -24.596  1.00  0.00     0.180 C 
ATOM     31  C   UNL     1     -24.967  80.273 -23.483  1.00  0.00     0.179 C 
ATOM     32  C   UNL     1     -26.391  80.131 -24.076  1.00  0.00     0.177 C 
BRANCH  28  33
ATOM     33  O   UNL     1     -27.675  82.354 -22.501  1.00  0.00    -0.384 OA
ATOM     34  H   UNL     1     -28.400  83.011 -22.649  1.00  0.00     0.211 HD
ENDBRANCH  28  33
BRANCH  30  35
ATOM     35  O   UNL     1     -26.158  81.874 -25.741  1.00  0.00    -0.387 OA
ATOM     36  H   UNL     1     -26.665  82.607 -26.178  1.00  0.00     0.211 HD
ENDBRANCH  30  35
BRANCH  31  37
ATOM     37  C   UNL     1     -24.462  78.941 -22.903  1.00  0.00     0.191 C 
BRANCH  37  38
ATOM     38  O   UNL     1     -23.519  79.175 -21.889  1.00  0.00    -0.394 OA
ATOM     39  H   UNL     1     -23.778  80.036 -21.468  1.00  0.00     0.210 HD
ENDBRANCH  37  38
ENDBRANCH  31  37
BRANCH  32  40
ATOM     40  O   UNL     1     -26.408  79.199 -25.129  1.00  0.00    -0.387 OA
ATOM     41  H   UNL     1     -25.618  79.390 -25.704  1.00  0.00     0.211 HD
ENDBRANCH  32  40
ENDBRANCH   1  27
TORSDOF 12
ENDMDL
MODEL 2
REMARK VINA RESULT:    -7.156      1.582      4.665
REMARK INTER + INTRA:         -11.359
REMARK INTER:                 -10.309
REMARK INTRA:                  -1.051
REMARK UNBOUND:                -0.857
REMARK SMILES O=c1c(O[C@@H]2O[C@@H](CO)[C@H](O)[C@H](O)[C@H]2O)c(-c2ccc(O)c(O)c2)oc2cc(O)cc(O)c12
REMARK SMILES IDX 4 1 3 2 16 3 25 4 2 5 26 6 1 7 33 8 27 9 31 10 28 11 30 12
REMARK SMILES IDX 17 13 18 14 19 15 20 16 24 17 22 18 21 19 23 21 32 23 29 25
REMARK SMILES IDX 5 27 14 28 6 29 12 30 7 31 10 32 15 33 13 35 8 37 9 38 11 40
REMARK H PARENT 21 20 23 22 32 24 29 26 15 34 13 36 9 39 11 41
REMARK Flexibility Score: inf
ROOT
ATOM      1  O   UNL     1     -23.520  84.479 -22.496  1.00  0.00    -0.454 OA
ENDROOT
BRANCH   1   2
ATOM      2  C   UNL     1     -23.819  85.031 -23.756  1.00  0.00     0.214 A 
ATOM      3  C   UNL     1     -24.741  84.359 -24.586  1.00  0.00     0.180 A 
ATOM      4  O   UNL     1     -25.125  84.902 -25.736  1.00  0.00    -0.452 OA
ATOM      5  C   UNL     1     -23.269  86.246 -24.216  1.00  0.00     0.239 A 
ATOM      6  C   UNL     1     -24.658  86.057 -26.189  1.00  0.00     0.146 A 
ATOM      7  O   UNL     1     -22.400  86.846 -23.529  1.00  0.00    -0.285 OA
ATOM      8  C   UNL     1     -23.692  86.781 -25.452  1.00  0.00     0.111 A 
ATOM      9  C   UNL     1     -25.138  86.553 -27.406  1.00  0.00     0.094 A 
ATOM     10  C   UNL     1     -23.208  88.007 -25.973  1.00  0.00     0.134 A 
ATOM     11  C   UNL     1     -24.663  87.763 -27.912  1.00  0.00     0.123 A 
ATOM     12  C   UNL     1     -23.697  88.483 -27.199  1.00  0.00     0.093 A 
BRANCH   3  13
ATOM     13  C   UNL     1     -25.348  83.070 -24.191  1.00  0.00     0.025 A 
ATOM     14  C   UNL     1     -24.817  81.876 -24.700  1.00  0.00     0.016 A 
ATOM     15  C   UNL     1     -25.377  80.645 -24.348  1.00  0.00     0.051 A 
ATOM     16  C   UNL     1     -26.467  80.588 -23.470  1.00  0.00     0.157 A 
ATOM     17  C   UNL     1     -26.424  83.010 -23.288  1.00  0.00     0.062 A 
ATOM     18  C   UNL     1     -26.987  81.778 -22.932  1.00  0.00     0.158 A 
BRANCH  16  19
ATOM     19  O   UNL     1     -27.029  79.359 -23.129  1.00  0.00    -0.504 OA
ATOM     20  H   UNL     1     -28.031  79.249 -23.017  1.00  0.00     0.293 HD
ENDBRANCH  16  19
BRANCH  18  21
ATOM     21  O   UNL     1     -28.059  81.753 -22.043  1.00  0.00    -0.504 OA
ATOM     22  H   UNL     1     -28.977  82.102 -22.296  1.00  0.00     0.293 HD
ENDBRANCH  18  21
ENDBRANCH   3  13
BRANCH  10  23
ATOM     23  O   UNL     1     -22.252  88.755 -25.281  1.00  0.00    -0.507 OA
ATOM     24  H   UNL     1     -21.425  89.112 -25.740  1.00  0.00     0.293 HD
ENDBRANCH  10  23
BRANCH  11  25
ATOM     25  O   UNL     1     -25.157  88.242 -29.123  1.00  0.00    -0.508 OA
ATOM     26  H   UNL     1     -24.614  88.180 -29.978  1.00  0.00     0.293 HD
ENDBRANCH  11  25
ENDBRANCH   1   2
BRANCH   1  27
ATOM     27  C   UNL     1     -22.212  84.339 -21.931  1.00  0.00     0.339 C 
ATOM     28  C   UNL     1     -22.314  83.970 -20.436  1.00  0.00     0.214 C 
ATOM     29  O   UNL     1     -21.431  83.392 -22.646  1.00  0.00    -0.332 OA
ATOM     30  C   UNL     1     -22.831  82.535 -20.258  1.00  0.00     0.180 C 
ATOM     31  C   UNL     1     -22.008  82.095 -22.608  1.00  0.00     0.179 C 
ATOM     32  C   UNL     1     -22.034  81.568 -21.152  1.00  0.00     0.177 C 
BRANCH  28  33
ATOM     33  O   UNL     1     -21.054  84.086 -19.823  1.00  0.00    -0.384 OA
ATOM     34  H   UNL     1     -20.703  83.168 -19.708  1.00  0.00     0.211 HD
ENDBRANCH  28  33
BRANCH  30  35
ATOM     35  O   UNL     1     -24.199  82.484 -20.576  1.00  0.00    -0.387 OA
ATOM     36  H   UNL     1     -24.703  82.625 -19.733  1.00  0.00     0.211 HD
ENDBRANCH  30  35
BRANCH  31  37
ATOM     37  C   UNL     1     -21.173  81.185 -23.524  1.00  0.00     0.191 C 
BRANCH  37  38
ATOM     38  O   UNL     1     -20.580  81.935 -24.552  1.00  0.00    -0.394 OA
ATOM     39  H   UNL     1     -21.297  82.520 -24.912  1.00  0.00     0.210 HD
ENDBRANCH  37  38
ENDBRANCH  31  37
BRANCH  32  40
ATOM     40  O   UNL     1     -22.616  80.289 -21.089  1.00  0.00    -0.387 OA
ATOM     41  H   UNL     1     -23.289  80.307 -20.355  1.00  0.00     0.211 HD
ENDBRANCH  32  40
ENDBRANCH   1  27
TORSDOF 12
ENDMDL
MODEL 3
REMARK VINA RESULT:    -6.907      1.626      2.227
REMARK INTER + INTRA:         -10.994
REMARK INTER:                  -9.230
REMARK INTRA:                  -1.764
REMARK UNBOUND:                -0.857
REMARK SMILES O=c1c(O[C@@H]2O[C@@H](CO)[C@H](O)[C@H](O)[C@H]2O)c(-c2ccc(O)c(O)c2)oc2cc(O)cc(O)c12
REMARK SMILES IDX 4 1 3 2 16 3 25 4 2 5 26 6 1 7 33 8 27 9 31 10 28 11 30 12
REMARK SMILES IDX 17 13 18 14 19 15 20 16 24 17 22 18 21 19 23 21 32 23 29 25
REMARK SMILES IDX 5 27 14 28 6 29 12 30 7 31 10 32 15 33 13 35 8 37 9 38 11 40
REMARK H PARENT 21 20 23 22 32 24 29 26 15 34 13 36 9 39 11 41
REMARK Flexibility Score: inf
ROOT
ATOM      1  O   UNL     1     -25.303  82.940 -24.032  1.00  0.00    -0.454 OA
ENDROOT
BRANCH   1   2
ATOM      2  C   UNL     1     -24.641  84.180 -24.106  1.00  0.00     0.214 A 
ATOM      3  C   UNL     1     -23.233  84.200 -24.023  1.00  0.00     0.180 A 
ATOM      4  O   UNL     1     -22.568  85.338 -24.191  1.00  0.00    -0.452 OA
ATOM      5  C   UNL     1     -25.316  85.404 -24.299  1.00  0.00     0.239 A 
ATOM      6  C   UNL     1     -23.162  86.503 -24.408  1.00  0.00     0.146 A 
ATOM      7  O   UNL     1     -26.575  85.435 -24.321  1.00  0.00    -0.285 OA
ATOM      8  C   UNL     1     -24.573  86.594 -24.458  1.00  0.00     0.111 A 
ATOM      9  C   UNL     1     -22.372  87.644 -24.589  1.00  0.00     0.094 A 
ATOM     10  C   UNL     1     -25.172  87.859 -24.679  1.00  0.00     0.134 A 
ATOM     11  C   UNL     1     -22.966  88.886 -24.813  1.00  0.00     0.123 A 
ATOM     12  C   UNL     1     -24.361  88.992 -24.852  1.00  0.00     0.093 A 
BRANCH   3  13
ATOM     13  C   UNL     1     -22.449  82.965 -23.800  1.00  0.00     0.025 A 
ATOM     14  C   UNL     1     -21.919  82.280 -24.903  1.00  0.00     0.016 A 
ATOM     15  C   UNL     1     -21.182  81.107 -24.720  1.00  0.00     0.051 A 
ATOM     16  C   UNL     1     -20.949  80.611 -23.432  1.00  0.00     0.157 A 
ATOM     17  C   UNL     1     -22.192  82.482 -22.506  1.00  0.00     0.062 A 
ATOM     18  C   UNL     1     -21.452  81.307 -22.318  1.00  0.00     0.158 A 
BRANCH  16  19
ATOM     19  O   UNL     1     -20.220  79.436 -23.253  1.00  0.00    -0.504 OA
ATOM     20  H   UNL     1     -19.752  78.982 -24.029  1.00  0.00     0.293 HD
ENDBRANCH  16  19
BRANCH  18  21
ATOM     21  O   UNL     1     -21.222  80.849 -21.023  1.00  0.00    -0.504 OA
ATOM     22  H   UNL     1     -21.946  80.857 -20.313  1.00  0.00     0.293 HD
ENDBRANCH  18  21
ENDBRANCH   3  13
BRANCH  10  23
ATOM     23  O   UNL     1     -26.561  87.997 -24.734  1.00  0.00    -0.507 OA
ATOM     24  H   UNL     1     -27.164  87.570 -24.044  1.00  0.00     0.293 HD
ENDBRANCH  10  23
BRANCH  11  25
ATOM     25  O   UNL     1     -22.163  90.008 -24.996  1.00  0.00    -0.508 OA
ATOM     26  H   UNL     1     -22.449  90.925 -24.665  1.00  0.00     0.293 HD
ENDBRANCH  11  25
ENDBRANCH   1   2
BRANCH   1  27
ATOM     27  C   UNL     1     -25.935  82.396 -22.868  1.00  0.00     0.339 C 
ATOM     28  C   UNL     1     -27.413  82.068 -23.169  1.00  0.00     0.214 C 
ATOM     29  O   UNL     1     -25.241  81.258 -22.378  1.00  0.00    -0.332 OA
ATOM     30  C   UNL     1     -27.526  80.863 -24.116  1.00  0.00     0.180 C 
ATOM     31  C   UNL     1     -25.215  80.205 -23.329  1.00  0.00     0.179 C 
ATOM     32  C   UNL     1     -26.654  79.702 -23.606  1.00  0.00     0.177 C 
BRANCH  28  33
ATOM     33  O   UNL     1     -28.098  81.782 -21.975  1.00  0.00    -0.384 OA
ATOM     34  H   UNL     1     -27.854  82.489 -21.326  1.00  0.00     0.211 HD
ENDBRANCH  28  33
BRANCH  30  35
ATOM     35  O   UNL     1     -27.131  81.243 -25.411  1.00  0.00    -0.387 OA
ATOM     36  H   UNL     1     -26.565  82.053 -25.319  1.00  0.00     0.211 HD
ENDBRANCH  30  35
BRANCH  31  37
ATOM     37  C   UNL     1     -24.324  79.086 -22.765  1.00  0.00     0.191 C 
BRANCH  37  38
ATOM     38  O   UNL     1     -23.762  78.333 -23.810  1.00  0.00    -0.394 OA
ATOM     39  H   UNL     1     -23.829  78.901 -24.622  1.00  0.00     0.210 HD
ENDBRANCH  37  38
ENDBRANCH  31  37
BRANCH  32  40
ATOM     40  O   UNL     1     -26.652  78.667 -24.559  1.00  0.00    -0.387 OA
ATOM     41  H   UNL     1     -26.650  77.806 -24.059  1.00  0.00     0.211 HD
ENDBRANCH  32  40
ENDBRANCH   1  27
TORSDOF 12
ENDMDL
MODEL 4
REMARK VINA RESULT:    -6.883      2.658      7.902
REMARK INTER + INTRA:         -10.960
REMARK INTER:                  -9.171
REMARK INTRA:                  -1.789
REMARK UNBOUND:                -0.857
REMARK SMILES O=c1c(O[C@@H]2O[C@@H](CO)[C@H](O)[C@H](O)[C@H]2O)c(-c2ccc(O)c(O)c2)oc2cc(O)cc(O)c12
REMARK SMILES IDX 4 1 3 2 16 3 25 4 2 5 26 6 1 7 33 8 27 9 31 10 28 11 30 12
REMARK SMILES IDX 17 13 18 14 19 15 20 16 24 17 22 18 21 19 23 21 32 23 29 25
REMARK SMILES IDX 5 27 14 28 6 29 12 30 7 31 10 32 15 33 13 35 8 37 9 38 11 40
REMARK H PARENT 21 20 23 22 32 24 29 26 15 34 13 36 9 39 11 41
REMARK Flexibility Score: inf
ROOT
ATOM      1  O   UNL     1     -24.262  86.655 -24.890  1.00  0.00    -0.454 OA
ENDROOT
BRANCH   1   2
ATOM      2  C   UNL     1     -24.173  85.476 -24.126  1.00  0.00     0.214 A 
ATOM      3  C   UNL     1     -25.348  84.730 -23.897  1.00  0.00     0.180 A 
ATOM      4  O   UNL     1     -25.287  83.561 -23.268  1.00  0.00    -0.452 OA
ATOM      5  C   UNL     1     -22.957  84.983 -23.607  1.00  0.00     0.239 A 
ATOM      6  C   UNL     1     -24.160  83.046 -22.795  1.00  0.00     0.146 A 
ATOM      7  O   UNL     1     -21.897  85.650 -23.742  1.00  0.00    -0.285 OA
ATOM      8  C   UNL     1     -22.937  83.744 -22.931  1.00  0.00     0.111 A 
ATOM      9  C   UNL     1     -24.198  81.800 -22.161  1.00  0.00     0.094 A 
ATOM     10  C   UNL     1     -21.756  83.168 -22.402  1.00  0.00     0.134 A 
ATOM     11  C   UNL     1     -23.031  81.233 -21.648  1.00  0.00     0.123 A 
ATOM     12  C   UNL     1     -21.816  81.919 -21.764  1.00  0.00     0.093 A 
BRANCH   3  13
ATOM     13  C   UNL     1     -26.668  85.186 -24.386  1.00  0.00     0.025 A 
ATOM     14  C   UNL     1     -27.011  84.978 -25.730  1.00  0.00     0.016 A 
ATOM     15  C   UNL     1     -28.249  85.405 -26.218  1.00  0.00     0.051 A 
ATOM     16  C   UNL     1     -29.167  86.033 -25.368  1.00  0.00     0.157 A 
ATOM     17  C   UNL     1     -27.601  85.791 -23.527  1.00  0.00     0.062 A 
ATOM     18  C   UNL     1     -28.842  86.220 -24.013  1.00  0.00     0.158 A 
BRANCH  16  19
ATOM     19  O   UNL     1     -30.397  86.467 -25.861  1.00  0.00    -0.504 OA
ATOM     20  H   UNL     1     -30.718  87.418 -25.717  1.00  0.00     0.293 HD
ENDBRANCH  16  19
BRANCH  18  21
ATOM     21  O   UNL     1     -29.742  86.826 -23.138  1.00  0.00    -0.504 OA
ATOM     22  H   UNL     1     -30.082  86.357 -22.306  1.00  0.00     0.293 HD
ENDBRANCH  18  21
ENDBRANCH   3  13
BRANCH  10  23
ATOM     23  O   UNL     1     -20.526  83.822 -22.511  1.00  0.00    -0.507 OA
ATOM     24  H   UNL     1     -20.461  84.780 -22.828  1.00  0.00     0.293 HD
ENDBRANCH  10  23
BRANCH  11  25
ATOM     25  O   UNL     1     -23.088  79.989 -21.026  1.00  0.00    -0.508 OA
ATOM     26  H   UNL     1     -22.719  79.155 -21.473  1.00  0.00     0.293 HD
ENDBRANCH  11  25
ENDBRANCH   1   2
BRANCH   1  27
ATOM     27  C   UNL     1     -24.176  87.991 -24.383  1.00  0.00     0.339 C 
ATOM     28  C   UNL     1     -23.136  88.800 -25.187  1.00  0.00     0.214 C 
ATOM     29  O   UNL     1     -25.443  88.634 -24.381  1.00  0.00    -0.332 OA
ATOM     30  C   UNL     1     -23.645  89.091 -26.608  1.00  0.00     0.180 C 
ATOM     31  C   UNL     1     -25.977  88.752 -25.691  1.00  0.00     0.179 C 
ATOM     32  C   UNL     1     -25.072  89.666 -26.554  1.00  0.00     0.177 C 
BRANCH  28  33
ATOM     33  O   UNL     1     -22.863  90.016 -24.537  1.00  0.00    -0.384 OA
ATOM     34  H   UNL     1     -23.359  90.003 -23.681  1.00  0.00     0.211 HD
ENDBRANCH  28  33
BRANCH  30  35
ATOM     35  O   UNL     1     -23.619  87.908 -27.368  1.00  0.00    -0.387 OA
ATOM     36  H   UNL     1     -24.294  87.294 -26.977  1.00  0.00     0.211 HD
ENDBRANCH  30  35
BRANCH  31  37
ATOM     37  C   UNL     1     -27.400  89.322 -25.567  1.00  0.00     0.191 C 
BRANCH  37  38
ATOM     38  O   UNL     1     -28.134  89.067 -26.738  1.00  0.00    -0.394 OA
ATOM     39  H   UNL     1     -29.076  89.296 -26.524  1.00  0.00     0.210 HD
ENDBRANCH  37  38
ENDBRANCH  31  37
BRANCH  32  40
ATOM     40  O   UNL     1     -25.575  89.785 -27.862  1.00  0.00    -0.387 OA
ATOM     41  H   UNL     1     -26.417  90.313 -27.807  1.00  0.00     0.211 HD
ENDBRANCH  32  40
ENDBRANCH   1  27
TORSDOF 12
ENDMDL
MODEL 5
REMARK VINA RESULT:    -6.819      1.714      2.499
REMARK INTER + INTRA:         -10.866
REMARK INTER:                 -11.269
REMARK INTRA:                   0.403
REMARK UNBOUND:                -0.857
REMARK SMILES O=c1c(O[C@@H]2O[C@@H](CO)[C@H](O)[C@H](O)[C@H]2O)c(-c2ccc(O)c(O)c2)oc2cc(O)cc(O)c12
REMARK SMILES IDX 4 1 3 2 16 3 25 4 2 5 26 6 1 7 33 8 27 9 31 10 28 11 30 12
REMARK SMILES IDX 17 13 18 14 19 15 20 16 24 17 22 18 21 19 23 21 32 23 29 25
REMARK SMILES IDX 5 27 14 28 6 29 12 30 7 31 10 32 15 33 13 35 8 37 9 38 11 40
REMARK H PARENT 21 20 23 22 32 24 29 26 15 34 13 36 9 39 11 41
REMARK Flexibility Score: inf
ROOT
ATOM      1  O   UNL     1     -23.741  82.861 -24.035  1.00  0.00    -0.454 OA
ENDROOT
BRANCH   1   2
ATOM      2  C   UNL     1     -23.543  84.246 -24.188  1.00  0.00     0.214 A 
ATOM      3  C   UNL     1     -22.869  84.948 -23.166  1.00  0.00     0.180 A 
ATOM      4  O   UNL     1     -22.574  86.234 -23.320  1.00  0.00    -0.452 OA
ATOM      5  C   UNL     1     -23.952  84.963 -25.332  1.00  0.00     0.239 A 
ATOM      6  C   UNL     1     -22.910  86.936 -24.394  1.00  0.00     0.146 A 
ATOM      7  O   UNL     1     -24.606  84.383 -26.239  1.00  0.00    -0.285 OA
ATOM      8  C   UNL     1     -23.632  86.333 -25.450  1.00  0.00     0.111 A 
ATOM      9  C   UNL     1     -22.538  88.282 -24.468  1.00  0.00     0.094 A 
ATOM     10  C   UNL     1     -23.984  87.117 -26.576  1.00  0.00     0.134 A 
ATOM     11  C   UNL     1     -22.882  89.049 -25.582  1.00  0.00     0.123 A 
ATOM     12  C   UNL     1     -23.607  88.468 -26.628  1.00  0.00     0.093 A 
BRANCH   3  13
ATOM     13  C   UNL     1     -22.425  84.279 -21.924  1.00  0.00     0.025 A 
ATOM     14  C   UNL     1     -22.268  85.037 -20.754  1.00  0.00     0.016 A 
ATOM     15  C   UNL     1     -21.842  84.430 -19.570  1.00  0.00     0.051 A 
ATOM     16  C   UNL     1     -21.583  83.054 -19.532  1.00  0.00     0.157 A 
ATOM     17  C   UNL     1     -22.192  82.894 -21.878  1.00  0.00     0.062 A 
ATOM     18  C   UNL     1     -21.766  82.282 -20.693  1.00  0.00     0.158 A 
BRANCH  16  19
ATOM     19  O   UNL     1     -21.149  82.454 -18.351  1.00  0.00    -0.504 OA
ATOM     20  H   UNL     1     -20.745  81.524 -18.349  1.00  0.00     0.293 HD
ENDBRANCH  16  19
BRANCH  18  21
ATOM     21  O   UNL     1     -21.533  80.908 -20.683  1.00  0.00    -0.504 OA
ATOM     22  H   UNL     1     -21.719  80.337 -19.866  1.00  0.00     0.293 HD
ENDBRANCH  18  21
ENDBRANCH   3  13
BRANCH  10  23
ATOM     23  O   UNL     1     -24.699  86.564 -27.643  1.00  0.00    -0.507 OA
ATOM     24  H   UNL     1     -25.594  86.936 -27.930  1.00  0.00     0.293 HD
ENDBRANCH  10  23
BRANCH  11  25
ATOM     25  O   UNL     1     -22.498  90.386 -25.640  1.00  0.00    -0.508 OA
ATOM     26  H   UNL     1     -22.955  91.094 -25.073  1.00  0.00     0.293 HD
ENDBRANCH  11  25
ENDBRANCH   1   2
BRANCH   1  27
ATOM     27  C   UNL     1     -23.920  81.918 -25.097  1.00  0.00     0.339 C 
ATOM     28  C   UNL     1     -22.667  81.886 -25.998  1.00  0.00     0.214 C 
ATOM     29  O   UNL     1     -24.235  80.624 -24.602  1.00  0.00    -0.332 OA
ATOM     30  C   UNL     1     -21.481  81.237 -25.267  1.00  0.00     0.180 C 
ATOM     31  C   UNL     1     -23.193  80.100 -23.792  1.00  0.00     0.179 C 
ATOM     32  C   UNL     1     -21.912  79.898 -24.640  1.00  0.00     0.177 C 
BRANCH  28  33
ATOM     33  O   UNL     1     -22.935  81.164 -27.174  1.00  0.00    -0.384 OA
ATOM     34  H   UNL     1     -23.901  81.272 -27.364  1.00  0.00     0.211 HD
ENDBRANCH  28  33
BRANCH  30  35
ATOM     35  O   UNL     1     -21.002  82.112 -24.277  1.00  0.00    -0.387 OA
ATOM     36  H   UNL     1     -20.729  82.951 -24.734  1.00  0.00     0.211 HD
ENDBRANCH  30  35
BRANCH  31  37
ATOM     37  C   UNL     1     -23.687  78.774 -23.192  1.00  0.00     0.191 C 
BRANCH  37  38
ATOM     38  O   UNL     1     -23.185  77.687 -23.925  1.00  0.00    -0.394 OA
ATOM     39  H   UNL     1     -22.271  77.520 -23.574  1.00  0.00     0.210 HD
ENDBRANCH  37  38
ENDBRANCH  31  37
BRANCH  32  40
ATOM     40  O   UNL     1     -20.861  79.394 -23.853  1.00  0.00    -0.387 OA
ATOM     41  H   UNL     1     -21.094  79.573 -22.901  1.00  0.00     0.211 HD
ENDBRANCH  32  40
ENDBRANCH   1  27
TORSDOF 12
ENDMDL
MODEL 6
REMARK VINA RESULT:    -6.782      2.433      7.894
REMARK INTER + INTRA:         -10.810
REMARK INTER:                  -9.267
REMARK INTRA:                  -1.544
REMARK UNBOUND:                -0.857
REMARK SMILES O=c1c(O[C@@H]2O[C@@H](CO)[C@H](O)[C@H](O)[C@H]2O)c(-c2ccc(O)c(O)c2)oc2cc(O)cc(O)c12
REMARK SMILES IDX 4 1 3 2 16 3 25 4 2 5 26 6 1 7 33 8 27 9 31 10 28 11 30 12
REMARK SMILES IDX 17 13 18 14 19 15 20 16 24 17 22 18 21 19 23 21 32 23 29 25
REMARK SMILES IDX 5 27 14 28 6 29 12 30 7 31 10 32 15 33 13 35 8 37 9 38 11 40
REMARK H PARENT 21 20 23 22 32 24 29 26 15 34 13 36 9 39 11 41
REMARK Flexibility Score: inf
ROOT
ATOM      1  O   UNL     1     -24.592  86.430 -24.804  1.00  0.00    -0.454 OA
ENDROOT
BRANCH   1   2
ATOM      2  C   UNL     1     -24.425  85.240 -24.071  1.00  0.00     0.214 A 
ATOM      3  C   UNL     1     -25.547  84.409 -23.870  1.00  0.00     0.180 A 
ATOM      4  O   UNL     1     -25.408  83.230 -23.272  1.00  0.00    -0.452 OA
ATOM      5  C   UNL     1     -23.180  84.818 -23.558  1.00  0.00     0.239 A 
ATOM      6  C   UNL     1     -24.251  82.781 -22.806  1.00  0.00     0.146 A 
ATOM      7  O   UNL     1     -22.168  85.559 -23.668  1.00  0.00    -0.285 OA
ATOM      8  C   UNL     1     -23.078  83.565 -22.916  1.00  0.00     0.111 A 
ATOM      9  C   UNL     1     -24.205  81.518 -22.206  1.00  0.00     0.094 A 
ATOM     10  C   UNL     1     -21.862  83.057 -22.395  1.00  0.00     0.134 A 
ATOM     11  C   UNL     1     -23.004  81.020 -21.701  1.00  0.00     0.123 A 
ATOM     12  C   UNL     1     -21.839  81.790 -21.791  1.00  0.00     0.093 A 
BRANCH   3  13
ATOM     13  C   UNL     1     -26.892  84.786 -24.355  1.00  0.00     0.025 A 
ATOM     14  C   UNL     1     -27.286  84.410 -25.648  1.00  0.00     0.016 A 
ATOM     15  C   UNL     1     -28.549  84.760 -26.133  1.00  0.00     0.051 A 
ATOM     16  C   UNL     1     -29.442  85.477 -25.328  1.00  0.00     0.157 A 
ATOM     17  C   UNL     1     -27.800  85.481 -23.538  1.00  0.00     0.062 A 
ATOM     18  C   UNL     1     -29.067  85.833 -24.021  1.00  0.00     0.158 A 
BRANCH  16  19
ATOM     19  O   UNL     1     -30.698  85.833 -25.818  1.00  0.00    -0.504 OA
ATOM     20  H   UNL     1     -30.938  85.711 -26.796  1.00  0.00     0.293 HD
ENDBRANCH  16  19
BRANCH  18  21
ATOM     21  O   UNL     1     -29.941  86.530 -23.189  1.00  0.00    -0.504 OA
ATOM     22  H   UNL     1     -30.726  87.057 -23.555  1.00  0.00     0.293 HD
ENDBRANCH  18  21
ENDBRANCH   3  13
BRANCH  10  23
ATOM     23  O   UNL     1     -20.680  83.797 -22.478  1.00  0.00    -0.507 OA
ATOM     24  H   UNL     1     -20.690  84.805 -22.562  1.00  0.00     0.293 HD
ENDBRANCH  10  23
BRANCH  11  25
ATOM     25  O   UNL     1     -22.978  79.758 -21.112  1.00  0.00    -0.508 OA
ATOM     26  H   UNL     1     -23.589  79.523 -20.336  1.00  0.00     0.293 HD
ENDBRANCH  11  25
ENDBRANCH   1   2
BRANCH   1  27
ATOM     27  C   UNL     1     -23.996  86.724 -26.072  1.00  0.00     0.339 C 
ATOM     28  C   UNL     1     -25.090  87.019 -27.120  1.00  0.00     0.214 C 
ATOM     29  O   UNL     1     -23.066  87.794 -25.979  1.00  0.00    -0.332 OA
ATOM     30  C   UNL     1     -25.776  88.364 -26.835  1.00  0.00     0.180 C 
ATOM     31  C   UNL     1     -23.688  88.998 -25.557  1.00  0.00     0.179 C 
ATOM     32  C   UNL     1     -24.720  89.463 -26.615  1.00  0.00     0.177 C 
BRANCH  28  33
ATOM     33  O   UNL     1     -24.529  87.051 -28.409  1.00  0.00    -0.384 OA
ATOM     34  H   UNL     1     -23.545  87.038 -28.295  1.00  0.00     0.211 HD
ENDBRANCH  28  33
BRANCH  30  35
ATOM     35  O   UNL     1     -26.601  88.241 -25.703  1.00  0.00    -0.387 OA
ATOM     36  H   UNL     1     -26.092  88.597 -24.929  1.00  0.00     0.211 HD
ENDBRANCH  30  35
BRANCH  31  37
ATOM     37  C   UNL     1     -22.583  90.047 -25.348  1.00  0.00     0.191 C 
BRANCH  37  38
ATOM     38  O   UNL     1     -22.458  90.862 -26.485  1.00  0.00    -0.394 OA
ATOM     39  H   UNL     1     -22.855  90.345 -27.235  1.00  0.00     0.210 HD
ENDBRANCH  37  38
ENDBRANCH  31  37
BRANCH  32  40
ATOM     40  O   UNL     1     -25.359  90.648 -26.208  1.00  0.00    -0.387 OA
ATOM     41  H   UNL     1     -25.575  91.163 -27.033  1.00  0.00     0.211 HD
ENDBRANCH  32  40
ENDBRANCH   1  27
TORSDOF 12
ENDMDL
MODEL 7
REMARK VINA RESULT:    -6.706      3.569      6.047
REMARK INTER + INTRA:         -10.700
REMARK INTER:                  -9.237
REMARK INTRA:                  -1.462
REMARK UNBOUND:                -0.857
REMARK SMILES O=c1c(O[C@@H]2O[C@@H](CO)[C@H](O)[C@H](O)[C@H]2O)c(-c2ccc(O)c(O)c2)oc2cc(O)cc(O)c12
REMARK SMILES IDX 4 1 3 2 16 3 25 4 2 5 26 6 1 7 33 8 27 9 31 10 28 11 30 12
REMARK SMILES IDX 17 13 18 14 19 15 20 16 24 17 22 18 21 19 23 21 32 23 29 25
REMARK SMILES IDX 5 27 14 28 6 29 12 30 7 31 10 32 15 33 13 35 8 37 9 38 11 40
REMARK H PARENT 21 20 23 22 32 24 29 26 15 34 13 36 9 39 11 41
REMARK Flexibility Score: inf
ROOT
ATOM      1  O   UNL     1     -26.667  87.830 -25.333  1.00  0.00    -0.454 OA
ENDROOT
BRANCH   1   2
ATOM      2  C   UNL     1     -25.748  88.405 -26.231  1.00  0.00     0.214 A 
ATOM      3  C   UNL     1     -24.479  87.805 -26.374  1.00  0.00     0.180 A 
ATOM      4  O   UNL     1     -23.624  88.257 -27.286  1.00  0.00    -0.452 OA
ATOM      5  C   UNL     1     -26.047  89.532 -27.025  1.00  0.00     0.239 A 
ATOM      6  C   UNL     1     -23.879  89.292 -28.075  1.00  0.00     0.146 A 
ATOM      7  O   UNL     1     -27.147  90.129 -26.885  1.00  0.00    -0.285 OA
ATOM      8  C   UNL     1     -25.105  89.990 -27.971  1.00  0.00     0.111 A 
ATOM      9  C   UNL     1     -22.919  89.682 -29.015  1.00  0.00     0.094 A 
ATOM     10  C   UNL     1     -25.337  91.099 -28.823  1.00  0.00     0.134 A 
ATOM     11  C   UNL     1     -23.155  90.769 -29.856  1.00  0.00     0.123 A 
ATOM     12  C   UNL     1     -24.358  91.477 -29.754  1.00  0.00     0.093 A 
BRANCH   3  13
ATOM     13  C   UNL     1     -24.075  86.634 -25.566  1.00  0.00     0.025 A 
ATOM     14  C   UNL     1     -24.506  85.355 -25.947  1.00  0.00     0.016 A 
ATOM     15  C   UNL     1     -24.145  84.233 -25.196  1.00  0.00     0.051 A 
ATOM     16  C   UNL     1     -23.335  84.372 -24.062  1.00  0.00     0.157 A 
ATOM     17  C   UNL     1     -23.240  86.769 -24.444  1.00  0.00     0.062 A 
ATOM     18  C   UNL     1     -22.875  85.647 -23.689  1.00  0.00     0.158 A 
BRANCH  16  19
ATOM     19  O   UNL     1     -22.984  83.251 -23.310  1.00  0.00    -0.504 OA
ATOM     20  H   UNL     1     -23.415  83.062 -22.412  1.00  0.00     0.293 HD
ENDBRANCH  16  19
BRANCH  18  21
ATOM     21  O   UNL     1     -22.053  85.814 -22.577  1.00  0.00    -0.504 OA
ATOM     22  H   UNL     1     -21.442  86.617 -22.475  1.00  0.00     0.293 HD
ENDBRANCH  18  21
ENDBRANCH   3  13
BRANCH  10  23
ATOM     23  O   UNL     1     -26.532  91.820 -28.755  1.00  0.00    -0.507 OA
ATOM     24  H   UNL     1     -27.200  91.670 -28.010  1.00  0.00     0.293 HD
ENDBRANCH  10  23
BRANCH  11  25
ATOM     25  O   UNL     1     -22.189  91.138 -30.788  1.00  0.00    -0.508 OA
ATOM     26  H   UNL     1     -22.148  92.081 -31.164  1.00  0.00     0.293 HD
ENDBRANCH  11  25
ENDBRANCH   1   2
BRANCH   1  27
ATOM     27  C   UNL     1     -27.868  87.139 -25.690  1.00  0.00     0.339 C 
ATOM     28  C   UNL     1     -27.839  85.698 -25.136  1.00  0.00     0.214 C 
ATOM     29  O   UNL     1     -29.025  87.838 -25.255  1.00  0.00    -0.332 OA
ATOM     30  C   UNL     1     -27.980  85.695 -23.606  1.00  0.00     0.180 C 
ATOM     31  C   UNL     1     -29.062  87.969 -23.842  1.00  0.00     0.179 C 
ATOM     32  C   UNL     1     -29.172  86.572 -23.181  1.00  0.00     0.177 C 
BRANCH  28  33
ATOM     33  O   UNL     1     -28.884  84.943 -25.698  1.00  0.00    -0.384 OA
ATOM     34  H   UNL     1     -29.042  84.175 -25.093  1.00  0.00     0.211 HD
ENDBRANCH  28  33
BRANCH  30  35
ATOM     35  O   UNL     1     -26.791  86.165 -23.023  1.00  0.00    -0.387 OA
ATOM     36  H   UNL     1     -26.855  87.155 -22.980  1.00  0.00     0.211 HD
ENDBRANCH  30  35
BRANCH  31  37
ATOM     37  C   UNL     1     -30.264  88.859 -23.485  1.00  0.00     0.191 C 
BRANCH  37  38
ATOM     38  O   UNL     1     -30.040  89.519 -22.265  1.00  0.00    -0.394 OA
ATOM     39  H   UNL     1     -29.183  90.009 -22.374  1.00  0.00     0.210 HD
ENDBRANCH  37  38
ENDBRANCH  31  37
BRANCH  32  40
ATOM     40  O   UNL     1     -29.195  86.678 -21.778  1.00  0.00    -0.387 OA
ATOM     41  H   UNL     1     -30.148  86.769 -21.506  1.00  0.00     0.211 HD
ENDBRANCH  32  40
ENDBRANCH   1  27
TORSDOF 12
ENDMDL
MODEL 8
REMARK VINA RESULT:    -6.698      1.861      4.671
REMARK INTER + INTRA:         -10.687
REMARK INTER:                  -8.861
REMARK INTRA:                  -1.827
REMARK UNBOUND:                -0.857
REMARK SMILES O=c1c(O[C@@H]2O[C@@H](CO)[C@H](O)[C@H](O)[C@H]2O)c(-c2ccc(O)c(O)c2)oc2cc(O)cc(O)c12
REMARK SMILES IDX 4 1 3 2 16 3 25 4 2 5 26 6 1 7 33 8 27 9 31 10 28 11 30 12
REMARK SMILES IDX 17 13 18 14 19 15 20 16 24 17 22 18 21 19 23 21 32 23 29 25
REMARK SMILES IDX 5 27 14 28 6 29 12 30 7 31 10 32 15 33 13 35 8 37 9 38 11 40
REMARK H PARENT 21 20 23 22 32 24 29 26 15 34 13 36 9 39 11 41
REMARK Flexibility Score: inf
ROOT
ATOM      1  O   UNL     1     -23.321  83.401 -23.370  1.00  0.00    -0.454 OA
ENDROOT
BRANCH   1   2
ATOM      2  C   UNL     1     -23.761  84.600 -23.964  1.00  0.00     0.214 A 
ATOM      3  C   UNL     1     -25.083  84.665 -24.453  1.00  0.00     0.180 A 
ATOM      4  O   UNL     1     -25.566  85.809 -24.926  1.00  0.00    -0.452 OA
ATOM      5  C   UNL     1     -22.956  85.754 -24.061  1.00  0.00     0.239 A 
ATOM      6  C   UNL     1     -24.853  86.924 -25.003  1.00  0.00     0.146 A 
ATOM      7  O   UNL     1     -21.754  85.718 -23.688  1.00  0.00    -0.285 OA
ATOM      8  C   UNL     1     -23.503  86.945 -24.584  1.00  0.00     0.111 A 
ATOM      9  C   UNL     1     -25.458  88.082 -25.503  1.00  0.00     0.094 A 
ATOM     10  C   UNL     1     -22.769  88.153 -24.693  1.00  0.00     0.134 A 
ATOM     11  C   UNL     1     -24.735  89.270 -25.601  1.00  0.00     0.123 A 
ATOM     12  C   UNL     1     -23.393  89.302 -25.203  1.00  0.00     0.093 A 
BRANCH   3  13
ATOM     13  C   UNL     1     -25.988  83.495 -24.410  1.00  0.00     0.025 A 
ATOM     14  C   UNL     1     -26.147  82.708 -25.560  1.00  0.00     0.016 A 
ATOM     15  C   UNL     1     -27.001  81.602 -25.548  1.00  0.00     0.051 A 
ATOM     16  C   UNL     1     -27.697  81.258 -24.383  1.00  0.00     0.157 A 
ATOM     17  C   UNL     1     -26.665  83.132 -23.233  1.00  0.00     0.062 A 
ATOM     18  C   UNL     1     -27.521  82.024 -23.218  1.00  0.00     0.158 A 
BRANCH  16  19
ATOM     19  O   UNL     1     -28.556  80.160 -24.378  1.00  0.00    -0.504 OA
ATOM     20  H   UNL     1     -28.205  79.214 -24.480  1.00  0.00     0.293 HD
ENDBRANCH  16  19
BRANCH  18  21
ATOM     21  O   UNL     1     -28.186  81.697 -22.038  1.00  0.00    -0.504 OA
ATOM     22  H   UNL     1     -28.099  80.783 -21.608  1.00  0.00     0.293 HD
ENDBRANCH  18  21
ENDBRANCH   3  13
BRANCH  10  23
ATOM     23  O   UNL     1     -21.432  88.220 -24.294  1.00  0.00    -0.507 OA
ATOM     24  H   UNL     1     -20.957  89.106 -24.179  1.00  0.00     0.293 HD
ENDBRANCH  10  23
BRANCH  11  25
ATOM     25  O   UNL     1     -25.356  90.414 -26.096  1.00  0.00    -0.508 OA
ATOM     26  H   UNL     1     -25.438  91.257 -25.536  1.00  0.00     0.293 HD
ENDBRANCH  11  25
ENDBRANCH   1   2
BRANCH   1  27
ATOM     27  C   UNL     1     -22.427  82.453 -23.961  1.00  0.00     0.339 C 
ATOM     28  C   UNL     1     -21.280  82.120 -22.982  1.00  0.00     0.214 C 
ATOM     29  O   UNL     1     -23.108  81.278 -24.378  1.00  0.00    -0.332 OA
ATOM     30  C   UNL     1     -21.794  81.292 -21.794  1.00  0.00     0.180 C 
ATOM     31  C   UNL     1     -23.717  80.606 -23.286  1.00  0.00     0.179 C 
ATOM     32  C   UNL     1     -22.634  80.104 -22.299  1.00  0.00     0.177 C 
BRANCH  28  33
ATOM     33  O   UNL     1     -20.272  81.399 -23.646  1.00  0.00    -0.384 OA
ATOM     34  H   UNL     1     -19.926  80.730 -23.004  1.00  0.00     0.211 HD
ENDBRANCH  28  33
BRANCH  30  35
ATOM     35  O   UNL     1     -22.560  82.110 -20.946  1.00  0.00    -0.387 OA
ATOM     36  H   UNL     1     -23.285  81.547 -20.570  1.00  0.00     0.211 HD
ENDBRANCH  30  35
BRANCH  31  37
ATOM     37  C   UNL     1     -24.544  79.441 -23.856  1.00  0.00     0.191 C 
BRANCH  37  38
ATOM     38  O   UNL     1     -25.509  79.023 -22.924  1.00  0.00    -0.394 OA
ATOM     39  H   UNL     1     -26.019  79.837 -22.675  1.00  0.00     0.210 HD
ENDBRANCH  37  38
ENDBRANCH  31  37
BRANCH  32  40
ATOM     40  O   UNL     1     -23.218  79.447 -21.201  1.00  0.00    -0.387 OA
ATOM     41  H   UNL     1     -23.835  78.756 -21.565  1.00  0.00     0.211 HD
ENDBRANCH  32  40
ENDBRANCH   1  27
TORSDOF 12
ENDMDL
MODEL 9
REMARK VINA RESULT:    -6.628      1.708      4.860
REMARK INTER + INTRA:         -10.585
REMARK INTER:                  -8.885
REMARK INTRA:                  -1.700
REMARK UNBOUND:                -0.857
REMARK SMILES O=c1c(O[C@@H]2O[C@@H](CO)[C@H](O)[C@H](O)[C@H]2O)c(-c2ccc(O)c(O)c2)oc2cc(O)cc(O)c12
REMARK SMILES IDX 4 1 3 2 16 3 25 4 2 5 26 6 1 7 33 8 27 9 31 10 28 11 30 12
REMARK SMILES IDX 17 13 18 14 19 15 20 16 24 17 22 18 21 19 23 21 32 23 29 25
REMARK SMILES IDX 5 27 14 28 6 29 12 30 7 31 10 32 15 33 13 35 8 37 9 38 11 40
REMARK H PARENT 21 20 23 22 32 24 29 26 15 34 13 36 9 39 11 41
REMARK Flexibility Score: inf
ROOT
ATOM      1  O   UNL     1     -23.593  84.954 -23.381  1.00  0.00    -0.454 OA
ENDROOT
BRANCH   1   2
ATOM      2  C   UNL     1     -24.111  85.817 -24.365  1.00  0.00     0.214 A 
ATOM      3  C   UNL     1     -25.284  85.433 -25.049  1.00  0.00     0.180 A 
ATOM      4  O   UNL     1     -25.859  86.266 -25.910  1.00  0.00    -0.452 OA
ATOM      5  C   UNL     1     -23.536  87.067 -24.676  1.00  0.00     0.239 A 
ATOM      6  C   UNL     1     -25.370  87.462 -26.205  1.00  0.00     0.146 A 
ATOM      7  O   UNL     1     -22.458  87.420 -24.128  1.00  0.00    -0.285 OA
ATOM      8  C   UNL     1     -24.171  87.916 -25.609  1.00  0.00     0.111 A 
ATOM      9  C   UNL     1     -26.059  88.272 -27.114  1.00  0.00     0.094 A 
ATOM     10  C   UNL     1     -23.672  89.195 -25.958  1.00  0.00     0.134 A 
ATOM     11  C   UNL     1     -25.568  89.533 -27.450  1.00  0.00     0.123 A 
ATOM     12  C   UNL     1     -24.375  89.989 -26.877  1.00  0.00     0.093 A 
BRANCH   3  13
ATOM     13  C   UNL     1     -25.940  84.131 -24.800  1.00  0.00     0.025 A 
ATOM     14  C   UNL     1     -25.747  83.080 -25.708  1.00  0.00     0.016 A 
ATOM     15  C   UNL     1     -26.361  81.843 -25.500  1.00  0.00     0.051 A 
ATOM     16  C   UNL     1     -27.164  81.632 -24.373  1.00  0.00     0.157 A 
ATOM     17  C   UNL     1     -26.723  83.910 -23.654  1.00  0.00     0.062 A 
ATOM     18  C   UNL     1     -27.340  82.670 -23.441  1.00  0.00     0.158 A 
BRANCH  16  19
ATOM     19  O   UNL     1     -27.784  80.399 -24.173  1.00  0.00    -0.504 OA
ATOM     20  H   UNL     1     -28.760  80.335 -23.907  1.00  0.00     0.293 HD
ENDBRANCH  16  19
BRANCH  18  21
ATOM     21  O   UNL     1     -28.118  82.486 -22.301  1.00  0.00    -0.504 OA
ATOM     22  H   UNL     1     -27.711  82.430 -21.374  1.00  0.00     0.293 HD
ENDBRANCH  18  21
ENDBRANCH   3  13
BRANCH  10  23
ATOM     23  O   UNL     1     -22.489  89.684 -25.396  1.00  0.00    -0.507 OA
ATOM     24  H   UNL     1     -22.498  90.408 -24.690  1.00  0.00     0.293 HD
ENDBRANCH  10  23
BRANCH  11  25
ATOM     25  O   UNL     1     -26.272  90.326 -28.352  1.00  0.00    -0.508 OA
ATOM     26  H   UNL     1     -27.197  90.684 -28.135  1.00  0.00     0.293 HD
ENDBRANCH  11  25
ENDBRANCH   1   2
BRANCH   1  27
ATOM     27  C   UNL     1     -22.416  84.149 -23.508  1.00  0.00     0.339 C 
ATOM     28  C   UNL     1     -21.506  84.337 -22.275  1.00  0.00     0.214 C 
ATOM     29  O   UNL     1     -22.737  82.780 -23.711  1.00  0.00    -0.332 OA
ATOM     30  C   UNL     1     -22.131  83.693 -21.028  1.00  0.00     0.180 C 
ATOM     31  C   UNL     1     -23.458  82.239 -22.615  1.00  0.00     0.179 C 
ATOM     32  C   UNL     1     -22.578  82.253 -21.340  1.00  0.00     0.177 C 
BRANCH  28  33
ATOM     33  O   UNL     1     -20.247  83.758 -22.512  1.00  0.00    -0.384 OA
ATOM     34  H   UNL     1     -19.815  83.635 -21.629  1.00  0.00     0.211 HD
ENDBRANCH  28  33
BRANCH  30  35
ATOM     35  O   UNL     1     -23.224  84.465 -20.597  1.00  0.00    -0.387 OA
ATOM     36  H   UNL     1     -23.339  85.202 -21.252  1.00  0.00     0.211 HD
ENDBRANCH  30  35
BRANCH  31  37
ATOM     37  C   UNL     1     -23.881  80.809 -22.992  1.00  0.00     0.191 C 
BRANCH  37  38
ATOM     38  O   UNL     1     -22.992  79.873 -22.439  1.00  0.00    -0.394 OA
ATOM     39  H   UNL     1     -22.546  80.335 -21.681  1.00  0.00     0.210 HD
ENDBRANCH  37  38
ENDBRANCH  31  37
BRANCH  32  40
ATOM     40  O   UNL     1     -23.279  81.734 -20.237  1.00  0.00    -0.387 OA
ATOM     41  H   UNL     1     -22.787  80.925 -19.930  1.00  0.00     0.211 HD
ENDBRANCH  32  40
ENDBRANCH   1  27
TORSDOF 12
ENDMDL
