MODEL 1
REMARK VINA RESULT:    -3.082      0.000      0.000
REMARK INTER + INTRA:         -14.386
REMARK INTER:                  -8.126
REMARK INTRA:                  -6.259
REMARK UNBOUND:                -6.259
REMARK SMILES CCCCCCCCCCCCCCCCCCCCCCCCCCCCCC(=O)[O-]
REMARK SMILES IDX 16 1 17 2 18 3 19 4 20 5 21 6 22 7 23 8 24 9 25 10 26 11
REMARK SMILES IDX 27 12 28 13 29 14 30 15 31 16 32 17 15 18 14 19 13 20 12 21
REMARK SMILES IDX 11 22 10 23 9 24 8 25 7 26 6 27 5 28 4 29 3 30 2 31 1 32
REMARK H PARENT
REMARK Flexibility Score: inf
ROOT
ATOM      1  C   UNL     1      52.455  52.198  50.220  1.00  0.00     0.000 C 
ENDROOT
BRANCH   1   2
ATOM      2  C   UNL     1      51.858  53.017  51.375  1.00  0.00     0.000 C 
BRANCH   2   3
ATOM      3  C   UNL     1      52.764  54.183  51.808  1.00  0.00     0.000 C 
BRANCH   3   4
ATOM      4  C   UNL     1      52.187  55.554  51.423  1.00  0.00     0.000 C 
BRANCH   4   5
ATOM      5  C   UNL     1      53.161  56.388  50.571  1.00  0.00     0.000 C 
BRANCH   5   6
ATOM      6  C   UNL     1      54.623  55.951  50.743  1.00  0.00     0.000 C 
BRANCH   6   7
ATOM      7  C   UNL     1      55.294  55.582  49.407  1.00  0.00     0.000 C 
BRANCH   7   8
ATOM      8  C   UNL     1      56.382  54.499  49.572  1.00  0.00     0.000 C 
BRANCH   8   9
ATOM      9  C   UNL     1      55.993  53.355  50.530  1.00  0.00     0.000 C 
BRANCH   9  10
ATOM     10  C   UNL     1      56.197  51.932  49.978  1.00  0.00     0.000 C 
BRANCH  10  11
ATOM     11  C   UNL     1      55.874  50.794  50.966  1.00  0.00     0.000 C 
BRANCH  11  12
ATOM     12  C   UNL     1      55.144  49.614  50.302  1.00  0.00     0.000 C 
BRANCH  12  13
ATOM     13  C   UNL     1      54.597  48.607  51.327  1.00  0.00     0.006 C 
BRANCH  13  14
ATOM     14  C   UNL     1      53.075  48.430  51.235  1.00  0.00     0.053 C 
BRANCH  14  15
ATOM     15  C   UNL     1      52.713  46.978  51.225  1.00  0.00     0.041 C 
ATOM     16  O   UNL     1      52.151  46.458  52.225  1.00  0.00    -0.550 OA
ATOM     17  O   UNL     1      52.982  46.199  50.105  1.00  0.00    -0.550 OA
ENDBRANCH  14  15
ENDBRANCH  13  14
ENDBRANCH  12  13
ENDBRANCH  11  12
ENDBRANCH  10  11
ENDBRANCH   9  10
ENDBRANCH   8   9
ENDBRANCH   7   8
ENDBRANCH   6   7
ENDBRANCH   5   6
ENDBRANCH   4   5
ENDBRANCH   3   4
ENDBRANCH   2   3
ENDBRANCH   1   2
BRANCH   1  18
ATOM     18  C   UNL     1      52.415  52.953  48.879  1.00  0.00     0.000 C 
BRANCH  18  19
ATOM     19  C   UNL     1      53.229  52.248  47.781  1.00  0.00     0.000 C 
BRANCH  19  20
ATOM     20  C   UNL     1      54.017  53.239  46.909  1.00  0.00     0.000 C 
BRANCH  20  21
ATOM     21  C   UNL     1      55.432  52.742  46.563  1.00  0.00     0.000 C 
BRANCH  21  22
ATOM     22  C   UNL     1      56.312  53.754  45.805  1.00  0.00     0.000 C 
BRANCH  22  23
ATOM     23  C   UNL     1      55.491  54.811  45.043  1.00  0.00     0.000 C 
BRANCH  23  24
ATOM     24  C   UNL     1      56.152  56.198  45.061  1.00  0.00    -0.000 C 
BRANCH  24  25
ATOM     25  C   UNL     1      56.883  56.485  46.385  1.00  0.00    -0.000 C 
BRANCH  25  26
ATOM     26  C   UNL     1      56.759  57.953  46.830  1.00  0.00    -0.000 C 
BRANCH  26  27
ATOM     27  C   UNL     1      55.446  58.643  46.417  1.00  0.00    -0.000 C 
BRANCH  27  28
ATOM     28  C   UNL     1      54.352  58.540  47.494  1.00  0.00    -0.000 C 
BRANCH  28  29
ATOM     29  C   UNL     1      52.991  58.125  46.916  1.00  0.00    -0.000 C 
BRANCH  29  30
ATOM     30  C   UNL     1      52.798  56.598  46.899  1.00  0.00    -0.000 C 
BRANCH  30  31
ATOM     31  C   UNL     1      51.955  56.125  45.704  1.00  0.00    -0.003 C 
ATOM     32  C   UNL     1      52.426  56.717  44.376  1.00  0.00     0.004 C 
ENDBRANCH  30  31
ENDBRANCH  29  30
ENDBRANCH  28  29
ENDBRANCH  27  28
ENDBRANCH  26  27
ENDBRANCH  25  26
ENDBRANCH  24  25
ENDBRANCH  23  24
ENDBRANCH  22  23
ENDBRANCH  21  22
ENDBRANCH  20  21
ENDBRANCH  19  20
ENDBRANCH  18  19
ENDBRANCH   1  18
TORSDOF 28
ENDMDL
MODEL 2
REMARK VINA RESULT:    -2.964      1.258      3.665
REMARK INTER + INTRA:         -14.074
REMARK INTER:                  -7.571
REMARK INTRA:                  -6.504
REMARK UNBOUND:                -6.259
REMARK SMILES CCCCCCCCCCCCCCCCCCCCCCCCCCCCCC(=O)[O-]
REMARK SMILES IDX 16 1 17 2 18 3 19 4 20 5 21 6 22 7 23 8 24 9 25 10 26 11
REMARK SMILES IDX 27 12 28 13 29 14 30 15 31 16 32 17 15 18 14 19 13 20 12 21
REMARK SMILES IDX 11 22 10 23 9 24 8 25 7 26 6 27 5 28 4 29 3 30 2 31 1 32
REMARK H PARENT
REMARK Flexibility Score: inf
ROOT
ATOM      1  C   UNL     1      54.549  53.847  47.670  1.00  0.00     0.000 C 
ENDROOT
BRANCH   1   2
ATOM      2  C   UNL     1      53.406  52.879  47.329  1.00  0.00     0.000 C 
BRANCH   2   3
ATOM      3  C   UNL     1      52.256  52.932  48.351  1.00  0.00     0.000 C 
BRANCH   3   4
ATOM      4  C   UNL     1      52.646  53.670  49.640  1.00  0.00     0.000 C 
BRANCH   4   5
ATOM      5  C   UNL     1      52.050  53.016  50.900  1.00  0.00     0.000 C 
BRANCH   5   6
ATOM      6  C   UNL     1      53.015  53.040  52.094  1.00  0.00     0.000 C 
BRANCH   6   7
ATOM      7  C   UNL     1      54.389  53.636  51.737  1.00  0.00     0.000 C 
BRANCH   7   8
ATOM      8  C   UNL     1      55.557  52.836  52.350  1.00  0.00     0.000 C 
BRANCH   8   9
ATOM      9  C   UNL     1      56.653  52.444  51.338  1.00  0.00     0.000 C 
BRANCH   9  10
ATOM     10  C   UNL     1      56.581  50.998  50.812  1.00  0.00     0.000 C 
BRANCH  10  11
ATOM     11  C   UNL     1      55.811  50.821  49.489  1.00  0.00     0.000 C 
BRANCH  11  12
ATOM     12  C   UNL     1      54.399  50.245  49.690  1.00  0.00     0.000 C 
BRANCH  12  13
ATOM     13  C   UNL     1      54.192  49.672  51.101  1.00  0.00     0.006 C 
BRANCH  13  14
ATOM     14  C   UNL     1      52.795  49.068  51.301  1.00  0.00     0.053 C 
BRANCH  14  15
ATOM     15  C   UNL     1      52.861  47.573  51.298  1.00  0.00     0.041 C 
ATOM     16  O   UNL     1      52.464  46.919  52.299  1.00  0.00    -0.550 OA
ATOM     17  O   UNL     1      53.347  46.898  50.184  1.00  0.00    -0.550 OA
ENDBRANCH  14  15
ENDBRANCH  13  14
ENDBRANCH  12  13
ENDBRANCH  11  12
ENDBRANCH  10  11
ENDBRANCH   9  10
ENDBRANCH   8   9
ENDBRANCH   7   8
ENDBRANCH   6   7
ENDBRANCH   5   6
ENDBRANCH   4   5
ENDBRANCH   3   4
ENDBRANCH   2   3
ENDBRANCH   1   2
BRANCH   1  18
ATOM     18  C   UNL     1      55.573  53.978  46.528  1.00  0.00     0.000 C 
BRANCH  18  19
ATOM     19  C   UNL     1      56.609  55.084  46.789  1.00  0.00     0.000 C 
BRANCH  19  20
ATOM     20  C   UNL     1      56.217  56.420  46.136  1.00  0.00     0.000 C 
BRANCH  20  21
ATOM     21  C   UNL     1      55.460  56.240  44.808  1.00  0.00     0.000 C 
BRANCH  21  22
ATOM     22  C   UNL     1      54.114  56.984  44.718  1.00  0.00     0.000 C 
BRANCH  22  23
ATOM     23  C   UNL     1      52.899  56.042  44.812  1.00  0.00     0.000 C 
BRANCH  23  24
ATOM     24  C   UNL     1      52.118  56.215  46.124  1.00  0.00    -0.000 C 
BRANCH  24  25
ATOM     25  C   UNL     1      52.590  57.435  46.934  1.00  0.00    -0.000 C 
BRANCH  25  26
ATOM     26  C   UNL     1      53.029  57.070  48.363  1.00  0.00    -0.000 C 
BRANCH  26  27
ATOM     27  C   UNL     1      54.212  57.893  48.904  1.00  0.00    -0.000 C 
BRANCH  27  28
ATOM     28  C   UNL     1      55.233  57.038  49.675  1.00  0.00    -0.000 C 
BRANCH  28  29
ATOM     29  C   UNL     1      54.897  56.921  51.169  1.00  0.00    -0.000 C 
BRANCH  29  30
ATOM     30  C   UNL     1      54.164  58.163  51.707  1.00  0.00    -0.000 C 
BRANCH  30  31
ATOM     31  C   UNL     1      52.917  57.801  52.529  1.00  0.00    -0.003 C 
ATOM     32  C   UNL     1      52.048  56.744  51.849  1.00  0.00     0.004 C 
ENDBRANCH  30  31
ENDBRANCH  29  30
ENDBRANCH  28  29
ENDBRANCH  27  28
ENDBRANCH  26  27
ENDBRANCH  25  26
ENDBRANCH  24  25
ENDBRANCH  23  24
ENDBRANCH  22  23
ENDBRANCH  21  22
ENDBRANCH  20  21
ENDBRANCH  19  20
ENDBRANCH  18  19
ENDBRANCH   1  18
TORSDOF 28
ENDMDL
MODEL 3
REMARK VINA RESULT:    -2.918      1.330      3.569
REMARK INTER + INTRA:         -13.955
REMARK INTER:                  -8.706
REMARK INTRA:                  -5.249
REMARK UNBOUND:                -6.259
REMARK SMILES CCCCCCCCCCCCCCCCCCCCCCCCCCCCCC(=O)[O-]
REMARK SMILES IDX 16 1 17 2 18 3 19 4 20 5 21 6 22 7 23 8 24 9 25 10 26 11
REMARK SMILES IDX 27 12 28 13 29 14 30 15 31 16 32 17 15 18 14 19 13 20 12 21
REMARK SMILES IDX 11 22 10 23 9 24 8 25 7 26 6 27 5 28 4 29 3 30 2 31 1 32
REMARK H PARENT
REMARK Flexibility Score: inf
ROOT
ATOM      1  C   UNL     1      52.407  52.378  50.130  1.00  0.00     0.000 C 
ENDROOT
BRANCH   1   2
ATOM      2  C   UNL     1      52.451  53.099  48.774  1.00  0.00     0.000 C 
BRANCH   2   3
ATOM      3  C   UNL     1      53.126  52.259  47.675  1.00  0.00     0.000 C 
BRANCH   3   4
ATOM      4  C   UNL     1      54.228  53.031  46.933  1.00  0.00     0.000 C 
BRANCH   4   5
ATOM      5  C   UNL     1      54.956  54.039  47.840  1.00  0.00     0.000 C 
BRANCH   5   6
ATOM      6  C   UNL     1      56.198  53.440  48.515  1.00  0.00     0.000 C 
BRANCH   6   7
ATOM      7  C   UNL     1      56.000  53.205  50.023  1.00  0.00     0.000 C 
BRANCH   7   8
ATOM      8  C   UNL     1      55.976  51.706  50.390  1.00  0.00     0.000 C 
BRANCH   8   9
ATOM      9  C   UNL     1      56.239  50.761  49.200  1.00  0.00     0.000 C 
BRANCH   9  10
ATOM     10  C   UNL     1      55.241  49.597  49.047  1.00  0.00     0.000 C 
BRANCH  10  11
ATOM     11  C   UNL     1      55.730  48.427  48.173  1.00  0.00     0.000 C 
BRANCH  11  12
ATOM     12  C   UNL     1      54.933  47.132  48.406  1.00  0.00     0.000 C 
BRANCH  12  13
ATOM     13  C   UNL     1      54.731  46.825  49.899  1.00  0.00     0.006 C 
BRANCH  13  14
ATOM     14  C   UNL     1      53.292  46.408  50.233  1.00  0.00     0.053 C 
BRANCH  14  15
ATOM     15  C   UNL     1      52.759  47.216  51.374  1.00  0.00     0.041 C 
ATOM     16  O   UNL     1      52.718  48.473  51.295  1.00  0.00    -0.550 OA
ATOM     17  O   UNL     1      52.293  46.583  52.521  1.00  0.00    -0.550 OA
ENDBRANCH  14  15
ENDBRANCH  13  14
ENDBRANCH  12  13
ENDBRANCH  11  12
ENDBRANCH  10  11
ENDBRANCH   9  10
ENDBRANCH   8   9
ENDBRANCH   7   8
ENDBRANCH   6   7
ENDBRANCH   5   6
ENDBRANCH   4   5
ENDBRANCH   3   4
ENDBRANCH   2   3
ENDBRANCH   1   2
BRANCH   1  18
ATOM     18  C   UNL     1      51.957  53.301  51.276  1.00  0.00     0.000 C 
BRANCH  18  19
ATOM     19  C   UNL     1      53.079  53.567  52.293  1.00  0.00     0.000 C 
BRANCH  19  20
ATOM     20  C   UNL     1      53.502  55.045  52.326  1.00  0.00     0.000 C 
BRANCH  20  21
ATOM     21  C   UNL     1      52.824  55.888  51.230  1.00  0.00     0.000 C 
BRANCH  21  22
ATOM     22  C   UNL     1      53.785  56.515  50.202  1.00  0.00     0.000 C 
BRANCH  22  23
ATOM     23  C   UNL     1      53.087  56.898  48.884  1.00  0.00     0.000 C 
BRANCH  23  24
ATOM     24  C   UNL     1      52.784  58.402  48.790  1.00  0.00    -0.000 C 
BRANCH  24  25
ATOM     25  C   UNL     1      53.290  59.023  47.477  1.00  0.00    -0.000 C 
BRANCH  25  26
ATOM     26  C   UNL     1      54.772  59.434  47.542  1.00  0.00    -0.000 C 
BRANCH  26  27
ATOM     27  C   UNL     1      55.694  58.675  46.571  1.00  0.00    -0.000 C 
BRANCH  27  28
ATOM     28  C   UNL     1      55.007  58.334  45.237  1.00  0.00    -0.000 C 
BRANCH  28  29
ATOM     29  C   UNL     1      55.299  56.900  44.771  1.00  0.00    -0.000 C 
BRANCH  29  30
ATOM     30  C   UNL     1      54.072  55.979  44.890  1.00  0.00    -0.000 C 
BRANCH  30  31
ATOM     31  C   UNL     1      52.754  56.718  44.609  1.00  0.00    -0.003 C 
ATOM     32  C   UNL     1      51.619  56.273  45.531  1.00  0.00     0.004 C 
ENDBRANCH  30  31
ENDBRANCH  29  30
ENDBRANCH  28  29
ENDBRANCH  27  28
ENDBRANCH  26  27
ENDBRANCH  25  26
ENDBRANCH  24  25
ENDBRANCH  23  24
ENDBRANCH  22  23
ENDBRANCH  21  22
ENDBRANCH  20  21
ENDBRANCH  19  20
ENDBRANCH  18  19
ENDBRANCH   1  18
TORSDOF 28
ENDMDL
MODEL 4
REMARK VINA RESULT:    -2.886      1.554      3.979
REMARK INTER + INTRA:         -13.870
REMARK INTER:                  -8.821
REMARK INTRA:                  -5.050
REMARK UNBOUND:                -6.259
REMARK SMILES CCCCCCCCCCCCCCCCCCCCCCCCCCCCCC(=O)[O-]
REMARK SMILES IDX 16 1 17 2 18 3 19 4 20 5 21 6 22 7 23 8 24 9 25 10 26 11
REMARK SMILES IDX 27 12 28 13 29 14 30 15 31 16 32 17 15 18 14 19 13 20 12 21
REMARK SMILES IDX 11 22 10 23 9 24 8 25 7 26 6 27 5 28 4 29 3 30 2 31 1 32
REMARK H PARENT
REMARK Flexibility Score: inf
ROOT
ATOM      1  C   UNL     1      52.039  53.056  51.550  1.00  0.00     0.000 C 
ENDROOT
BRANCH   1   2
ATOM      2  C   UNL     1      52.251  52.307  50.225  1.00  0.00     0.000 C 
BRANCH   2   3
ATOM      3  C   UNL     1      52.336  53.252  49.013  1.00  0.00     0.000 C 
BRANCH   3   4
ATOM      4  C   UNL     1      53.196  52.680  47.876  1.00  0.00     0.000 C 
BRANCH   4   5
ATOM      5  C   UNL     1      54.210  51.633  48.371  1.00  0.00     0.000 C 
BRANCH   5   6
ATOM      6  C   UNL     1      55.552  52.255  48.781  1.00  0.00     0.000 C 
BRANCH   6   7
ATOM      7  C   UNL     1      56.187  51.554  49.996  1.00  0.00     0.000 C 
BRANCH   7   8
ATOM      8  C   UNL     1      55.458  50.245  50.370  1.00  0.00     0.000 C 
BRANCH   8   9
ATOM      9  C   UNL     1      55.270  50.039  51.886  1.00  0.00     0.000 C 
BRANCH   9  10
ATOM     10  C   UNL     1      54.024  49.231  52.295  1.00  0.00     0.000 C 
BRANCH  10  11
ATOM     11  C   UNL     1      53.058  48.891  51.144  1.00  0.00     0.000 C 
BRANCH  11  12
ATOM     12  C   UNL     1      52.703  47.396  51.082  1.00  0.00     0.000 C 
BRANCH  12  13
ATOM     13  C   UNL     1      52.710  46.730  52.468  1.00  0.00     0.006 C 
BRANCH  13  14
ATOM     14  C   UNL     1      51.924  45.412  52.501  1.00  0.00     0.053 C 
BRANCH  14  15
ATOM     15  C   UNL     1      52.811  44.259  52.148  1.00  0.00     0.041 C 
ATOM     16  O   UNL     1      53.342  43.567  53.056  1.00  0.00    -0.550 OA
ATOM     17  O   UNL     1      53.041  43.938  50.814  1.00  0.00    -0.550 OA
ENDBRANCH  14  15
ENDBRANCH  13  14
ENDBRANCH  12  13
ENDBRANCH  11  12
ENDBRANCH  10  11
ENDBRANCH   9  10
ENDBRANCH   8   9
ENDBRANCH   7   8
ENDBRANCH   6   7
ENDBRANCH   5   6
ENDBRANCH   4   5
ENDBRANCH   3   4
ENDBRANCH   2   3
ENDBRANCH   1   2
BRANCH   1  18
ATOM     18  C   UNL     1      53.277  53.003  52.463  1.00  0.00     0.000 C 
BRANCH  18  19
ATOM     19  C   UNL     1      53.948  54.377  52.627  1.00  0.00     0.000 C 
BRANCH  19  20
ATOM     20  C   UNL     1      54.988  54.655  51.530  1.00  0.00     0.000 C 
BRANCH  20  21
ATOM     21  C   UNL     1      54.666  55.912  50.701  1.00  0.00     0.000 C 
BRANCH  21  22
ATOM     22  C   UNL     1      55.431  56.029  49.369  1.00  0.00     0.000 C 
BRANCH  22  23
ATOM     23  C   UNL     1      54.499  56.187  48.153  1.00  0.00     0.000 C 
BRANCH  23  24
ATOM     24  C   UNL     1      53.616  57.441  48.244  1.00  0.00    -0.000 C 
BRANCH  24  25
ATOM     25  C   UNL     1      52.475  57.434  47.211  1.00  0.00    -0.000 C 
BRANCH  25  26
ATOM     26  C   UNL     1      52.293  56.065  46.532  1.00  0.00    -0.000 C 
BRANCH  26  27
ATOM     27  C   UNL     1      52.046  56.128  45.014  1.00  0.00    -0.000 C 
BRANCH  27  28
ATOM     28  C   UNL     1      53.162  56.870  44.257  1.00  0.00    -0.000 C 
BRANCH  28  29
ATOM     29  C   UNL     1      54.547  56.251  44.492  1.00  0.00    -0.000 C 
BRANCH  29  30
ATOM     30  C   UNL     1      55.657  57.312  44.600  1.00  0.00    -0.000 C 
BRANCH  30  31
ATOM     31  C   UNL     1      55.135  58.656  45.131  1.00  0.00    -0.003 C 
ATOM     32  C   UNL     1      56.120  59.803  44.907  1.00  0.00     0.004 C 
ENDBRANCH  30  31
ENDBRANCH  29  30
ENDBRANCH  28  29
ENDBRANCH  27  28
ENDBRANCH  26  27
ENDBRANCH  25  26
ENDBRANCH  24  25
ENDBRANCH  23  24
ENDBRANCH  22  23
ENDBRANCH  21  22
ENDBRANCH  20  21
ENDBRANCH  19  20
ENDBRANCH  18  19
ENDBRANCH   1  18
TORSDOF 28
ENDMDL
MODEL 5
REMARK VINA RESULT:    -2.880      3.803      7.384
REMARK INTER + INTRA:         -13.852
REMARK INTER:                  -6.993
REMARK INTRA:                  -6.859
REMARK UNBOUND:                -6.259
REMARK SMILES CCCCCCCCCCCCCCCCCCCCCCCCCCCCCC(=O)[O-]
REMARK SMILES IDX 16 1 17 2 18 3 19 4 20 5 21 6 22 7 23 8 24 9 25 10 26 11
REMARK SMILES IDX 27 12 28 13 29 14 30 15 31 16 32 17 15 18 14 19 13 20 12 21
REMARK SMILES IDX 11 22 10 23 9 24 8 25 7 26 6 27 5 28 4 29 3 30 2 31 1 32
REMARK H PARENT
REMARK Flexibility Score: inf
ROOT
ATOM      1  C   UNL     1      52.333  54.848  51.283  1.00  0.00     0.000 C 
ENDROOT
BRANCH   1   2
ATOM      2  C   UNL     1      52.120  53.327  51.240  1.00  0.00     0.000 C 
BRANCH   2   3
ATOM      3  C   UNL     1      52.123  52.765  49.807  1.00  0.00     0.000 C 
BRANCH   3   4
ATOM      4  C   UNL     1      53.126  51.617  49.624  1.00  0.00     0.000 C 
BRANCH   4   5
ATOM      5  C   UNL     1      54.122  51.877  48.480  1.00  0.00     0.000 C 
BRANCH   5   6
ATOM      6  C   UNL     1      53.561  52.822  47.408  1.00  0.00     0.000 C 
BRANCH   6   7
ATOM      7  C   UNL     1      54.664  53.551  46.620  1.00  0.00     0.000 C 
BRANCH   7   8
ATOM      8  C   UNL     1      54.183  54.895  46.034  1.00  0.00     0.000 C 
BRANCH   8   9
ATOM      9  C   UNL     1      52.764  55.304  46.477  1.00  0.00     0.000 C 
BRANCH   9  10
ATOM     10  C   UNL     1      52.486  56.820  46.490  1.00  0.00     0.000 C 
BRANCH  10  11
ATOM     11  C   UNL     1      53.732  57.715  46.348  1.00  0.00     0.000 C 
BRANCH  11  12
ATOM     12  C   UNL     1      53.693  58.946  47.269  1.00  0.00     0.000 C 
BRANCH  12  13
ATOM     13  C   UNL     1      52.594  58.846  48.339  1.00  0.00     0.006 C 
BRANCH  13  14
ATOM     14  C   UNL     1      53.124  59.080  49.761  1.00  0.00     0.053 C 
BRANCH  14  15
ATOM     15  C   UNL     1      52.001  59.068  50.751  1.00  0.00     0.041 C 
ATOM     16  O   UNL     1      52.078  58.357  51.787  1.00  0.00    -0.550 OA
ATOM     17  O   UNL     1      50.873  59.854  50.538  1.00  0.00    -0.550 OA
ENDBRANCH  14  15
ENDBRANCH  13  14
ENDBRANCH  12  13
ENDBRANCH  11  12
ENDBRANCH  10  11
ENDBRANCH   9  10
ENDBRANCH   8   9
ENDBRANCH   7   8
ENDBRANCH   6   7
ENDBRANCH   5   6
ENDBRANCH   4   5
ENDBRANCH   3   4
ENDBRANCH   2   3
ENDBRANCH   1   2
BRANCH   1  18
ATOM     18  C   UNL     1      53.123  55.368  50.069  1.00  0.00     0.000 C 
BRANCH  18  19
ATOM     19  C   UNL     1      54.644  55.312  50.288  1.00  0.00     0.000 C 
BRANCH  19  20
ATOM     20  C   UNL     1      55.412  56.198  49.292  1.00  0.00     0.000 C 
BRANCH  20  21
ATOM     21  C   UNL     1      56.751  55.582  48.850  1.00  0.00     0.000 C 
BRANCH  21  22
ATOM     22  C   UNL     1      57.759  55.327  49.986  1.00  0.00     0.000 C 
BRANCH  22  23
ATOM     23  C   UNL     1      58.072  56.592  50.807  1.00  0.00     0.000 C 
BRANCH  23  24
ATOM     24  C   UNL     1      57.650  56.461  52.279  1.00  0.00    -0.000 C 
BRANCH  24  25
ATOM     25  C   UNL     1      57.077  57.772  52.846  1.00  0.00    -0.000 C 
BRANCH  25  26
ATOM     26  C   UNL     1      55.547  57.863  52.709  1.00  0.00    -0.000 C 
BRANCH  26  27
ATOM     27  C   UNL     1      54.770  57.686  54.025  1.00  0.00    -0.000 C 
BRANCH  27  28
ATOM     28  C   UNL     1      53.925  56.399  54.051  1.00  0.00    -0.000 C 
BRANCH  28  29
ATOM     29  C   UNL     1      54.626  55.247  54.787  1.00  0.00    -0.000 C 
BRANCH  29  30
ATOM     30  C   UNL     1      54.515  53.911  54.032  1.00  0.00    -0.000 C 
BRANCH  30  31
ATOM     31  C   UNL     1      55.830  53.514  53.343  1.00  0.00    -0.003 C 
ATOM     32  C   UNL     1      55.630  52.478  52.238  1.00  0.00     0.004 C 
ENDBRANCH  30  31
ENDBRANCH  29  30
ENDBRANCH  28  29
ENDBRANCH  27  28
ENDBRANCH  26  27
ENDBRANCH  25  26
ENDBRANCH  24  25
ENDBRANCH  23  24
ENDBRANCH  22  23
ENDBRANCH  21  22
ENDBRANCH  20  21
ENDBRANCH  19  20
ENDBRANCH  18  19
ENDBRANCH   1  18
TORSDOF 28
ENDMDL
MODEL 6
REMARK VINA RESULT:    -2.866      1.499      3.375
REMARK INTER + INTRA:         -13.816
REMARK INTER:                  -8.481
REMARK INTRA:                  -5.336
REMARK UNBOUND:                -6.259
REMARK SMILES CCCCCCCCCCCCCCCCCCCCCCCCCCCCCC(=O)[O-]
REMARK SMILES IDX 16 1 17 2 18 3 19 4 20 5 21 6 22 7 23 8 24 9 25 10 26 11
REMARK SMILES IDX 27 12 28 13 29 14 30 15 31 16 32 17 15 18 14 19 13 20 12 21
REMARK SMILES IDX 11 22 10 23 9 24 8 25 7 26 6 27 5 28 4 29 3 30 2 31 1 32
REMARK H PARENT
REMARK Flexibility Score: inf
ROOT
ATOM      1  C   UNL     1      55.862  53.145  52.254  1.00  0.00     0.000 C 
ENDROOT
BRANCH   1   2
ATOM      2  C   UNL     1      54.849  52.543  53.240  1.00  0.00     0.000 C 
BRANCH   2   3
ATOM      3  C   UNL     1      53.512  53.306  53.260  1.00  0.00     0.000 C 
BRANCH   3   4
ATOM      4  C   UNL     1      53.578  54.634  52.492  1.00  0.00     0.000 C 
BRANCH   4   5
ATOM      5  C   UNL     1      52.523  54.726  51.375  1.00  0.00     0.000 C 
BRANCH   5   6
ATOM      6  C   UNL     1      51.963  53.354  50.975  1.00  0.00     0.000 C 
BRANCH   6   7
ATOM      7  C   UNL     1      52.360  52.943  49.545  1.00  0.00     0.000 C 
BRANCH   7   8
ATOM      8  C   UNL     1      52.962  51.523  49.484  1.00  0.00     0.000 C 
BRANCH   8   9
ATOM      9  C   UNL     1      52.655  50.654  50.721  1.00  0.00     0.000 C 
BRANCH   9  10
ATOM     10  C   UNL     1      53.578  49.436  50.919  1.00  0.00     0.000 C 
BRANCH  10  11
ATOM     11  C   UNL     1      53.561  48.825  52.333  1.00  0.00     0.000 C 
BRANCH  11  12
ATOM     12  C   UNL     1      53.636  47.289  52.322  1.00  0.00     0.000 C 
BRANCH  12  13
ATOM     13  C   UNL     1      52.273  46.630  52.588  1.00  0.00     0.006 C 
BRANCH  13  14
ATOM     14  C   UNL     1      51.910  45.567  51.542  1.00  0.00     0.053 C 
BRANCH  14  15
ATOM     15  C   UNL     1      52.921  44.463  51.538  1.00  0.00     0.041 C 
ATOM     16  O   UNL     1      52.942  43.620  52.474  1.00  0.00    -0.550 OA
ATOM     17  O   UNL     1      53.834  44.355  50.494  1.00  0.00    -0.550 OA
ENDBRANCH  14  15
ENDBRANCH  13  14
ENDBRANCH  12  13
ENDBRANCH  11  12
ENDBRANCH  10  11
ENDBRANCH   9  10
ENDBRANCH   8   9
ENDBRANCH   7   8
ENDBRANCH   6   7
ENDBRANCH   5   6
ENDBRANCH   4   5
ENDBRANCH   3   4
ENDBRANCH   2   3
ENDBRANCH   1   2
BRANCH   1  18
ATOM     18  C   UNL     1      56.239  52.170  51.125  1.00  0.00     0.000 C 
BRANCH  18  19
ATOM     19  C   UNL     1      56.267  52.848  49.745  1.00  0.00     0.000 C 
BRANCH  19  20
ATOM     20  C   UNL     1      55.974  54.355  49.827  1.00  0.00     0.000 C 
BRANCH  20  21
ATOM     21  C   UNL     1      55.447  54.938  48.504  1.00  0.00     0.000 C 
BRANCH  21  22
ATOM     22  C   UNL     1      55.353  53.934  47.340  1.00  0.00     0.000 C 
BRANCH  22  23
ATOM     23  C   UNL     1      54.557  54.479  46.139  1.00  0.00     0.000 C 
BRANCH  23  24
ATOM     24  C   UNL     1      53.104  54.823  46.500  1.00  0.00    -0.000 C 
BRANCH  24  25
ATOM     25  C   UNL     1      52.520  55.928  45.602  1.00  0.00    -0.000 C 
BRANCH  25  26
ATOM     26  C   UNL     1      51.964  57.118  46.404  1.00  0.00    -0.000 C 
BRANCH  26  27
ATOM     27  C   UNL     1      52.773  57.483  47.661  1.00  0.00    -0.000 C 
BRANCH  27  28
ATOM     28  C   UNL     1      52.992  58.999  47.812  1.00  0.00    -0.000 C 
BRANCH  28  29
ATOM     29  C   UNL     1      54.317  59.469  47.192  1.00  0.00    -0.000 C 
BRANCH  29  30
ATOM     30  C   UNL     1      55.330  58.322  47.027  1.00  0.00    -0.000 C 
BRANCH  30  31
ATOM     31  C   UNL     1      56.183  58.470  45.758  1.00  0.00    -0.003 C 
ATOM     32  C   UNL     1      55.707  57.571  44.617  1.00  0.00     0.004 C 
ENDBRANCH  30  31
ENDBRANCH  29  30
ENDBRANCH  28  29
ENDBRANCH  27  28
ENDBRANCH  26  27
ENDBRANCH  25  26
ENDBRANCH  24  25
ENDBRANCH  23  24
ENDBRANCH  22  23
ENDBRANCH  21  22
ENDBRANCH  20  21
ENDBRANCH  19  20
ENDBRANCH  18  19
ENDBRANCH   1  18
TORSDOF 28
ENDMDL
MODEL 7
REMARK VINA RESULT:    -2.853      1.905      4.451
REMARK INTER + INTRA:         -13.781
REMARK INTER:                  -8.982
REMARK INTRA:                  -4.799
REMARK UNBOUND:                -6.259
REMARK SMILES CCCCCCCCCCCCCCCCCCCCCCCCCCCCCC(=O)[O-]
REMARK SMILES IDX 16 1 17 2 18 3 19 4 20 5 21 6 22 7 23 8 24 9 25 10 26 11
REMARK SMILES IDX 27 12 28 13 29 14 30 15 31 16 32 17 15 18 14 19 13 20 12 21
REMARK SMILES IDX 11 22 10 23 9 24 8 25 7 26 6 27 5 28 4 29 3 30 2 31 1 32
REMARK H PARENT
REMARK Flexibility Score: inf
ROOT
ATOM      1  C   UNL     1      54.983  53.049  48.398  1.00  0.00     0.000 C 
ENDROOT
BRANCH   1   2
ATOM      2  C   UNL     1      53.958  52.272  47.556  1.00  0.00     0.000 C 
BRANCH   2   3
ATOM      3  C   UNL     1      52.556  52.259  48.189  1.00  0.00     0.000 C 
BRANCH   3   4
ATOM      4  C   UNL     1      52.388  53.330  49.277  1.00  0.00     0.000 C 
BRANCH   4   5
ATOM      5  C   UNL     1      51.981  52.735  50.637  1.00  0.00     0.000 C 
BRANCH   5   6
ATOM      6  C   UNL     1      52.564  51.333  50.868  1.00  0.00     0.000 C 
BRANCH   6   7
ATOM      7  C   UNL     1      53.905  51.364  51.625  1.00  0.00     0.000 C 
BRANCH   7   8
ATOM      8  C   UNL     1      54.909  50.320  51.090  1.00  0.00     0.000 C 
BRANCH   8   9
ATOM      9  C   UNL     1      54.328  49.378  50.017  1.00  0.00     0.000 C 
BRANCH   9  10
ATOM     10  C   UNL     1      54.014  47.947  50.493  1.00  0.00     0.000 C 
BRANCH  10  11
ATOM     11  C   UNL     1      52.700  47.793  51.283  1.00  0.00     0.000 C 
BRANCH  11  12
ATOM     12  C   UNL     1      52.777  46.704  52.366  1.00  0.00     0.000 C 
BRANCH  12  13
ATOM     13  C   UNL     1      52.276  45.339  51.867  1.00  0.00     0.006 C 
BRANCH  13  14
ATOM     14  C   UNL     1      51.109  44.791  52.701  1.00  0.00     0.053 C 
BRANCH  14  15
ATOM     15  C   UNL     1      51.604  43.828  53.733  1.00  0.00     0.041 C 
ATOM     16  O   UNL     1      52.831  43.550  53.804  1.00  0.00    -0.550 OA
ATOM     17  O   UNL     1      50.714  43.245  54.629  1.00  0.00    -0.550 OA
ENDBRANCH  14  15
ENDBRANCH  13  14
ENDBRANCH  12  13
ENDBRANCH  11  12
ENDBRANCH  10  11
ENDBRANCH   9  10
ENDBRANCH   8   9
ENDBRANCH   7   8
ENDBRANCH   6   7
ENDBRANCH   5   6
ENDBRANCH   4   5
ENDBRANCH   3   4
ENDBRANCH   2   3
ENDBRANCH   1   2
BRANCH   1  18
ATOM     18  C   UNL     1      56.132  53.622  47.550  1.00  0.00     0.000 C 
BRANCH  18  19
ATOM     19  C   UNL     1      55.822  55.027  47.009  1.00  0.00     0.000 C 
BRANCH  19  20
ATOM     20  C   UNL     1      55.443  55.011  45.519  1.00  0.00     0.000 C 
BRANCH  20  21
ATOM     21  C   UNL     1      54.054  55.617  45.245  1.00  0.00     0.000 C 
BRANCH  21  22
ATOM     22  C   UNL     1      53.119  55.683  46.467  1.00  0.00     0.000 C 
BRANCH  22  23
ATOM     23  C   UNL     1      52.446  57.058  46.634  1.00  0.00     0.000 C 
BRANCH  23  24
ATOM     24  C   UNL     1      52.753  57.705  47.993  1.00  0.00    -0.000 C 
BRANCH  24  25
ATOM     25  C   UNL     1      54.222  58.146  48.117  1.00  0.00    -0.000 C 
BRANCH  25  26
ATOM     26  C   UNL     1      54.596  58.587  49.543  1.00  0.00    -0.000 C 
BRANCH  26  27
ATOM     27  C   UNL     1      53.459  59.266  50.326  1.00  0.00    -0.000 C 
BRANCH  27  28
ATOM     28  C   UNL     1      53.221  58.629  51.707  1.00  0.00    -0.000 C 
BRANCH  28  29
ATOM     29  C   UNL     1      51.992  57.708  51.729  1.00  0.00    -0.000 C 
BRANCH  29  30
ATOM     30  C   UNL     1      52.362  56.226  51.538  1.00  0.00    -0.000 C 
BRANCH  30  31
ATOM     31  C   UNL     1      53.675  55.853  52.244  1.00  0.00    -0.003 C 
ATOM     32  C   UNL     1      54.724  55.293  51.284  1.00  0.00     0.004 C 
ENDBRANCH  30  31
ENDBRANCH  29  30
ENDBRANCH  28  29
ENDBRANCH  27  28
ENDBRANCH  26  27
ENDBRANCH  25  26
ENDBRANCH  24  25
ENDBRANCH  23  24
ENDBRANCH  22  23
ENDBRANCH  21  22
ENDBRANCH  20  21
ENDBRANCH  19  20
ENDBRANCH  18  19
ENDBRANCH   1  18
TORSDOF 28
ENDMDL
MODEL 8
REMARK VINA RESULT:    -2.844      1.317      3.044
REMARK INTER + INTRA:         -13.759
REMARK INTER:                  -8.423
REMARK INTRA:                  -5.336
REMARK UNBOUND:                -6.259
REMARK SMILES CCCCCCCCCCCCCCCCCCCCCCCCCCCCCC(=O)[O-]
REMARK SMILES IDX 16 1 17 2 18 3 19 4 20 5 21 6 22 7 23 8 24 9 25 10 26 11
REMARK SMILES IDX 27 12 28 13 29 14 30 15 31 16 32 17 15 18 14 19 13 20 12 21
REMARK SMILES IDX 11 22 10 23 9 24 8 25 7 26 6 27 5 28 4 29 3 30 2 31 1 32
REMARK H PARENT
REMARK Flexibility Score: inf
ROOT
ATOM      1  C   UNL     1      52.744  53.358  49.066  1.00  0.00     0.000 C 
ENDROOT
BRANCH   1   2
ATOM      2  C   UNL     1      52.002  52.463  50.071  1.00  0.00     0.000 C 
BRANCH   2   3
ATOM      3  C   UNL     1      51.856  53.117  51.456  1.00  0.00     0.000 C 
BRANCH   3   4
ATOM      4  C   UNL     1      52.994  54.099  51.769  1.00  0.00     0.000 C 
BRANCH   4   5
ATOM      5  C   UNL     1      53.809  53.685  53.008  1.00  0.00     0.000 C 
BRANCH   5   6
ATOM      6  C   UNL     1      54.952  52.718  52.671  1.00  0.00     0.000 C 
BRANCH   6   7
ATOM      7  C   UNL     1      55.661  53.072  51.351  1.00  0.00     0.000 C 
BRANCH   7   8
ATOM      8  C   UNL     1      55.857  51.843  50.438  1.00  0.00     0.000 C 
BRANCH   8   9
ATOM      9  C   UNL     1      55.337  50.522  51.038  1.00  0.00     0.000 C 
BRANCH   9  10
ATOM     10  C   UNL     1      54.231  49.818  50.229  1.00  0.00     0.000 C 
BRANCH  10  11
ATOM     11  C   UNL     1      53.048  49.288  51.062  1.00  0.00     0.000 C 
BRANCH  11  12
ATOM     12  C   UNL     1      53.488  48.347  52.196  1.00  0.00     0.000 C 
BRANCH  12  13
ATOM     13  C   UNL     1      52.710  47.021  52.197  1.00  0.00     0.006 C 
BRANCH  13  14
ATOM     14  C   UNL     1      53.612  45.801  51.965  1.00  0.00     0.053 C 
BRANCH  14  15
ATOM     15  C   UNL     1      54.176  45.818  50.579  1.00  0.00     0.041 C 
ATOM     16  O   UNL     1      55.399  45.583  50.390  1.00  0.00    -0.550 OA
ATOM     17  O   UNL     1      53.350  46.080  49.491  1.00  0.00    -0.550 OA
ENDBRANCH  14  15
ENDBRANCH  13  14
ENDBRANCH  12  13
ENDBRANCH  11  12
ENDBRANCH  10  11
ENDBRANCH   9  10
ENDBRANCH   8   9
ENDBRANCH   7   8
ENDBRANCH   6   7
ENDBRANCH   5   6
ENDBRANCH   4   5
ENDBRANCH   3   4
ENDBRANCH   2   3
ENDBRANCH   1   2
BRANCH   1  18
ATOM     18  C   UNL     1      52.845  52.721  47.669  1.00  0.00     0.000 C 
BRANCH  18  19
ATOM     19  C   UNL     1      54.296  52.411  47.266  1.00  0.00     0.000 C 
BRANCH  19  20
ATOM     20  C   UNL     1      55.159  53.679  47.163  1.00  0.00     0.000 C 
BRANCH  20  21
ATOM     21  C   UNL     1      55.454  54.089  45.709  1.00  0.00     0.000 C 
BRANCH  21  22
ATOM     22  C   UNL     1      55.908  55.549  45.521  1.00  0.00     0.000 C 
BRANCH  22  23
ATOM     23  C   UNL     1      55.296  56.212  44.273  1.00  0.00     0.000 C 
BRANCH  23  24
ATOM     24  C   UNL     1      54.072  57.080  44.605  1.00  0.00    -0.000 C 
BRANCH  24  25
ATOM     25  C   UNL     1      52.745  56.325  44.413  1.00  0.00    -0.000 C 
BRANCH  25  26
ATOM     26  C   UNL     1      51.873  56.318  45.681  1.00  0.00    -0.000 C 
BRANCH  26  27
ATOM     27  C   UNL     1      52.655  56.441  47.001  1.00  0.00    -0.000 C 
BRANCH  27  28
ATOM     28  C   UNL     1      52.581  57.852  47.611  1.00  0.00    -0.000 C 
BRANCH  28  29
ATOM     29  C   UNL     1      53.810  58.191  48.467  1.00  0.00    -0.000 C 
BRANCH  29  30
ATOM     30  C   UNL     1      54.760  56.991  48.636  1.00  0.00    -0.000 C 
BRANCH  30  31
ATOM     31  C   UNL     1      55.011  56.643  50.112  1.00  0.00    -0.003 C 
ATOM     32  C   UNL     1      54.126  57.442  51.067  1.00  0.00     0.004 C 
ENDBRANCH  30  31
ENDBRANCH  29  30
ENDBRANCH  28  29
ENDBRANCH  27  28
ENDBRANCH  26  27
ENDBRANCH  25  26
ENDBRANCH  24  25
ENDBRANCH  23  24
ENDBRANCH  22  23
ENDBRANCH  21  22
ENDBRANCH  20  21
ENDBRANCH  19  20
ENDBRANCH  18  19
ENDBRANCH   1  18
TORSDOF 28
ENDMDL
MODEL 9
REMARK VINA RESULT:    -2.805      2.900      4.990
REMARK INTER + INTRA:         -13.656
REMARK INTER:                  -7.880
REMARK INTRA:                  -5.776
REMARK UNBOUND:                -6.259
REMARK SMILES CCCCCCCCCCCCCCCCCCCCCCCCCCCCCC(=O)[O-]
REMARK SMILES IDX 16 1 17 2 18 3 19 4 20 5 21 6 22 7 23 8 24 9 25 10 26 11
REMARK SMILES IDX 27 12 28 13 29 14 30 15 31 16 32 17 15 18 14 19 13 20 12 21
REMARK SMILES IDX 11 22 10 23 9 24 8 25 7 26 6 27 5 28 4 29 3 30 2 31 1 32
REMARK H PARENT
REMARK Flexibility Score: inf
ROOT
ATOM      1  C   UNL     1      51.996  52.983  51.094  1.00  0.00     0.000 C 
ENDROOT
BRANCH   1   2
ATOM      2  C   UNL     1      53.075  51.903  50.916  1.00  0.00     0.000 C 
BRANCH   2   3
ATOM      3  C   UNL     1      53.166  51.386  49.469  1.00  0.00     0.000 C 
BRANCH   3   4
ATOM      4  C   UNL     1      52.561  52.365  48.452  1.00  0.00     0.000 C 
BRANCH   4   5
ATOM      5  C   UNL     1      53.484  52.608  47.244  1.00  0.00     0.000 C 
BRANCH   5   6
ATOM      6  C   UNL     1      54.028  54.042  47.191  1.00  0.00     0.000 C 
BRANCH   6   7
ATOM      7  C   UNL     1      53.913  54.772  48.542  1.00  0.00     0.000 C 
BRANCH   7   8
ATOM      8  C   UNL     1      55.289  55.166  49.120  1.00  0.00     0.000 C 
BRANCH   8   9
ATOM      9  C   UNL     1      55.984  54.042  49.913  1.00  0.00     0.000 C 
BRANCH   9  10
ATOM     10  C   UNL     1      57.318  53.545  49.323  1.00  0.00     0.000 C 
BRANCH  10  11
ATOM     11  C   UNL     1      57.187  52.518  48.181  1.00  0.00     0.000 C 
BRANCH  11  12
ATOM     12  C   UNL     1      56.831  51.108  48.682  1.00  0.00     0.000 C 
BRANCH  12  13
ATOM     13  C   UNL     1      56.173  50.245  47.593  1.00  0.00     0.006 C 
BRANCH  13  14
ATOM     14  C   UNL     1      56.491  50.733  46.172  1.00  0.00     0.053 C 
BRANCH  14  15
ATOM     15  C   UNL     1      57.489  49.832  45.515  1.00  0.00     0.041 C 
ATOM     16  O   UNL     1      58.722  50.072  45.616  1.00  0.00    -0.550 OA
ATOM     17  O   UNL     1      57.061  48.718  44.802  1.00  0.00    -0.550 OA
ENDBRANCH  14  15
ENDBRANCH  13  14
ENDBRANCH  12  13
ENDBRANCH  11  12
ENDBRANCH  10  11
ENDBRANCH   9  10
ENDBRANCH   8   9
ENDBRANCH   7   8
ENDBRANCH   6   7
ENDBRANCH   5   6
ENDBRANCH   4   5
ENDBRANCH   3   4
ENDBRANCH   2   3
ENDBRANCH   1   2
BRANCH   1  18
ATOM     18  C   UNL     1      52.533  54.245  51.793  1.00  0.00     0.000 C 
BRANCH  18  19
ATOM     19  C   UNL     1      53.716  53.942  52.728  1.00  0.00     0.000 C 
BRANCH  19  20
ATOM     20  C   UNL     1      54.143  55.172  53.547  1.00  0.00     0.000 C 
BRANCH  20  21
ATOM     21  C   UNL     1      55.120  56.089  52.789  1.00  0.00     0.000 C 
BRANCH  21  22
ATOM     22  C   UNL     1      54.499  57.380  52.224  1.00  0.00     0.000 C 
BRANCH  22  23
ATOM     23  C   UNL     1      53.067  57.630  52.734  1.00  0.00     0.000 C 
BRANCH  23  24
ATOM     24  C   UNL     1      52.087  57.973  51.601  1.00  0.00    -0.000 C 
BRANCH  24  25
ATOM     25  C   UNL     1      52.759  57.953  50.216  1.00  0.00    -0.000 C 
BRANCH  25  26
ATOM     26  C   UNL     1      52.660  59.304  49.485  1.00  0.00    -0.000 C 
BRANCH  26  27
ATOM     27  C   UNL     1      52.383  59.200  47.974  1.00  0.00    -0.000 C 
BRANCH  27  28
ATOM     28  C   UNL     1      52.699  57.805  47.403  1.00  0.00    -0.000 C 
BRANCH  28  29
ATOM     29  C   UNL     1      53.792  57.842  46.325  1.00  0.00    -0.000 C 
BRANCH  29  30
ATOM     30  C   UNL     1      53.406  57.044  45.067  1.00  0.00    -0.000 C 
BRANCH  30  31
ATOM     31  C   UNL     1      52.015  56.404  45.180  1.00  0.00    -0.003 C 
ATOM     32  C   UNL     1      51.223  56.473  43.875  1.00  0.00     0.004 C 
ENDBRANCH  30  31
ENDBRANCH  29  30
ENDBRANCH  28  29
ENDBRANCH  27  28
ENDBRANCH  26  27
ENDBRANCH  25  26
ENDBRANCH  24  25
ENDBRANCH  23  24
ENDBRANCH  22  23
ENDBRANCH  21  22
ENDBRANCH  20  21
ENDBRANCH  19  20
ENDBRANCH  18  19
ENDBRANCH   1  18
TORSDOF 28
ENDMDL
