MODEL 1
REMARK VINA RESULT:    -5.336      0.000      0.000
REMARK INTER + INTRA:         -10.402
REMARK INTER:                  -7.052
REMARK INTRA:                  -3.350
REMARK UNBOUND:                -3.350
REMARK SMILES CC[C@@H](C=C[C@@H](C)[C@H]1CC[C@@H]2[C@H]3CC=C4C[C@H](O)CC[C@@]4(C)[C@H]3CC[C@]21C)C(C)C
REMARK SMILES IDX 6 1 7 2 5 3 4 4 3 5 2 6 1 7 28 8 29 9 30 10 8 11 9 12 26 13
REMARK SMILES IDX 10 14 11 15 25 16 27 17 12 18 24 19 23 20 13 21 21 22 14 23
REMARK SMILES IDX 15 24 20 25 22 26 16 27 19 28 17 29 18 30
REMARK H PARENT 18 31
REMARK Flexibility Score: inf
ROOT
ATOM      1  C   UNL     1      19.826   1.274  28.515  1.00  0.00     0.012 C 
ATOM      2  C   UNL     1      20.908   1.724  29.509  1.00  0.00     0.012 C 
ENDROOT
BRANCH   1   3
ATOM      3  C   UNL     1      20.307   0.840  27.123  1.00  0.00    -0.028 C 
ATOM      4  C   UNL     1      19.879  -0.100  26.244  1.00  0.00    -0.027 C 
BRANCH   4   5
ATOM      5  C   UNL     1      18.701  -1.064  26.314  1.00  0.00     0.014 C 
BRANCH   5   6
ATOM      6  C   UNL     1      19.148  -2.406  26.952  1.00  0.00     0.004 C 
ATOM      7  C   UNL     1      18.952  -2.481  28.469  1.00  0.00     0.004 C 
ENDBRANCH   5   6
BRANCH   5   8
ATOM      8  C   UNL     1      18.061  -1.231  24.896  1.00  0.00    -0.011 C 
ATOM      9  C   UNL     1      16.626  -1.783  24.960  1.00  0.00     0.008 C 
ATOM     10  C   UNL     1      18.043   0.111  24.139  1.00  0.00     0.008 C 
ENDBRANCH   5   8
ENDBRANCH   4   5
ENDBRANCH   1   3
BRANCH   1  11
ATOM     11  C   UNL     1      18.660   2.327  28.464  1.00  0.00     0.002 C 
ATOM     12  C   UNL     1      18.634   3.125  27.132  1.00  0.00     0.005 C 
ATOM     13  C   UNL     1      17.175   1.847  28.670  1.00  0.00    -0.026 C 
ATOM     14  C   UNL     1      17.255   2.931  26.493  1.00  0.00     0.005 C 
ATOM     15  C   UNL     1      16.663   1.736  27.221  1.00  0.00    -0.001 C 
ATOM     16  C   UNL     1      16.909   0.496  29.424  1.00  0.00     0.007 C 
ATOM     17  C   UNL     1      16.438   2.984  29.455  1.00  0.00     0.012 C 
ATOM     18  C   UNL     1      15.130   1.533  27.130  1.00  0.00     0.000 C 
ATOM     19  C   UNL     1      15.817  -0.385  28.760  1.00  0.00     0.005 C 
ATOM     20  C   UNL     1      14.638   0.428  28.141  1.00  0.00     0.003 C 
ATOM     21  C   UNL     1      14.723   1.224  25.691  1.00  0.00     0.031 C 
ATOM     22  C   UNL     1      13.424  -0.489  27.647  1.00  0.00    -0.008 C 
ATOM     23  C   UNL     1      13.256   0.963  25.611  1.00  0.00    -0.027 C 
ATOM     24  C   UNL     1      12.646   0.144  26.488  1.00  0.00    -0.065 C 
ATOM     25  C   UNL     1      13.877  -1.890  27.124  1.00  0.00     0.014 C 
ATOM     26  C   UNL     1      12.480  -0.681  28.870  1.00  0.00     0.016 C 
ATOM     27  C   UNL     1      11.426  -0.599  25.996  1.00  0.00     0.063 C 
ATOM     28  C   UNL     1      12.723  -2.734  26.523  1.00  0.00     0.033 C 
ATOM     29  C   UNL     1      11.891  -1.970  25.469  1.00  0.00     0.118 C 
BRANCH  29  30
ATOM     30  O   UNL     1      10.778  -2.747  25.113  1.00  0.00    -0.393 OA
ATOM     31  H   UNL     1      10.098  -2.123  24.747  1.00  0.00     0.210 HD
ENDBRANCH  29  30
ENDBRANCH   1  11
TORSDOF 6
ENDMDL
MODEL 2
REMARK VINA RESULT:    -5.161     12.251     15.341
REMARK INTER + INTRA:         -10.171
REMARK INTER:                  -6.814
REMARK INTRA:                  -3.357
REMARK UNBOUND:                -3.350
REMARK SMILES CC[C@@H](C=C[C@@H](C)[C@H]1CC[C@@H]2[C@H]3CC=C4C[C@H](O)CC[C@@]4(C)[C@H]3CC[C@]21C)C(C)C
REMARK SMILES IDX 6 1 7 2 5 3 4 4 3 5 2 6 1 7 28 8 29 9 30 10 8 11 9 12 26 13
REMARK SMILES IDX 10 14 11 15 25 16 27 17 12 18 24 19 23 20 13 21 21 22 14 23
REMARK SMILES IDX 15 24 20 25 22 26 16 27 19 28 17 29 18 30
REMARK H PARENT 18 31
REMARK Flexibility Score: inf
ROOT
ATOM      1  C   UNL     1      18.576 -14.938  20.356  1.00  0.00     0.012 C 
ATOM      2  C   UNL     1      19.136 -15.412  19.006  1.00  0.00     0.012 C 
ENDROOT
BRANCH   1   3
ATOM      3  C   UNL     1      19.574 -14.286  21.324  1.00  0.00    -0.028 C 
ATOM      4  C   UNL     1      19.465 -13.288  22.237  1.00  0.00    -0.027 C 
BRANCH   4   5
ATOM      5  C   UNL     1      18.260 -12.461  22.668  1.00  0.00     0.014 C 
BRANCH   5   6
ATOM      6  C   UNL     1      18.149 -11.187  21.791  1.00  0.00     0.004 C 
ATOM      7  C   UNL     1      17.346 -11.374  20.500  1.00  0.00     0.004 C 
ENDBRANCH   5   6
BRANCH   5   8
ATOM      8  C   UNL     1      18.340 -12.158  24.201  1.00  0.00    -0.011 C 
ATOM      9  C   UNL     1      16.985 -11.720  24.784  1.00  0.00     0.008 C 
ATOM     10  C   UNL     1      18.841 -13.390  24.979  1.00  0.00     0.008 C 
ENDBRANCH   5   8
ENDBRANCH   4   5
ENDBRANCH   1   3
BRANCH   1  11
ATOM     11  C   UNL     1      17.723 -16.077  21.024  1.00  0.00     0.002 C 
ATOM     12  C   UNL     1      18.430 -16.708  22.255  1.00  0.00     0.005 C 
ATOM     13  C   UNL     1      16.264 -15.760  21.522  1.00  0.00    -0.026 C 
ATOM     14  C   UNL     1      17.495 -16.563  23.461  1.00  0.00     0.005 C 
ATOM     15  C   UNL     1      16.477 -15.521  23.028  1.00  0.00    -0.001 C 
ATOM     16  C   UNL     1      15.496 -14.539  20.902  1.00  0.00     0.007 C 
ATOM     17  C   UNL     1      15.408 -17.044  21.257  1.00  0.00     0.012 C 
ATOM     18  C   UNL     1      15.152 -15.447  23.827  1.00  0.00     0.000 C 
ATOM     19  C   UNL     1      14.733 -13.685  21.949  1.00  0.00     0.005 C 
ATOM     20  C   UNL     1      14.100 -14.520  23.106  1.00  0.00     0.003 C 
ATOM     21  C   UNL     1      15.424 -15.005  25.263  1.00  0.00     0.031 C 
ATOM     22  C   UNL     1      13.145 -13.663  24.059  1.00  0.00    -0.008 C 
ATOM     23  C   UNL     1      14.143 -14.868  26.016  1.00  0.00    -0.027 C 
ATOM     24  C   UNL     1      13.091 -14.219  25.487  1.00  0.00    -0.065 C 
ATOM     25  C   UNL     1      13.594 -12.174  24.213  1.00  0.00     0.014 C 
ATOM     26  C   UNL     1      11.723 -13.704  23.426  1.00  0.00     0.016 C 
ATOM     27  C   UNL     1      12.152 -13.534  26.453  1.00  0.00     0.063 C 
ATOM     28  C   UNL     1      12.751 -11.370  25.236  1.00  0.00     0.033 C 
ATOM     29  C   UNL     1      12.618 -12.073  26.606  1.00  0.00     0.118 C 
BRANCH  29  30
ATOM     30  O   UNL     1      11.706 -11.361  27.400  1.00  0.00    -0.393 OA
ATOM     31  H   UNL     1      11.608 -10.463  26.988  1.00  0.00     0.210 HD
ENDBRANCH  29  30
ENDBRANCH   1  11
TORSDOF 6
ENDMDL
MODEL 3
REMARK VINA RESULT:    -5.125      9.818     13.696
REMARK INTER + INTRA:         -10.123
REMARK INTER:                  -8.055
REMARK INTRA:                  -2.067
REMARK UNBOUND:                -3.350
REMARK SMILES CC[C@@H](C=C[C@@H](C)[C@H]1CC[C@@H]2[C@H]3CC=C4C[C@H](O)CC[C@@]4(C)[C@H]3CC[C@]21C)C(C)C
REMARK SMILES IDX 6 1 7 2 5 3 4 4 3 5 2 6 1 7 28 8 29 9 30 10 8 11 9 12 26 13
REMARK SMILES IDX 10 14 11 15 25 16 27 17 12 18 24 19 23 20 13 21 21 22 14 23
REMARK SMILES IDX 15 24 20 25 22 26 16 27 19 28 17 29 18 30
REMARK H PARENT 18 31
REMARK Flexibility Score: inf
ROOT
ATOM      1  C   UNL     1      13.481 -14.221  25.949  1.00  0.00     0.012 C 
ATOM      2  C   UNL     1      12.884 -15.382  26.760  1.00  0.00     0.012 C 
ENDROOT
BRANCH   1   3
ATOM      3  C   UNL     1      12.504 -13.415  25.080  1.00  0.00    -0.028 C 
ATOM      4  C   UNL     1      12.069 -12.130  25.121  1.00  0.00    -0.027 C 
BRANCH   4   5
ATOM      5  C   UNL     1      12.442 -10.982  26.050  1.00  0.00     0.014 C 
BRANCH   5   6
ATOM      6  C   UNL     1      11.727 -11.151  27.417  1.00  0.00     0.004 C 
ATOM      7  C   UNL     1      10.859  -9.958  27.830  1.00  0.00     0.004 C 
ENDBRANCH   5   6
BRANCH   5   8
ATOM      8  C   UNL     1      12.143  -9.612  25.355  1.00  0.00    -0.011 C 
ATOM      9  C   UNL     1      13.427  -8.841  25.003  1.00  0.00     0.008 C 
ATOM     10  C   UNL     1      11.317  -9.816  24.071  1.00  0.00     0.008 C 
ENDBRANCH   5   8
ENDBRANCH   4   5
ENDBRANCH   1   3
BRANCH   1  11
ATOM     11  C   UNL     1      14.754 -14.702  25.163  1.00  0.00     0.002 C 
ATOM     12  C   UNL     1      14.401 -15.344  23.792  1.00  0.00     0.005 C 
ATOM     13  C   UNL     1      15.897 -13.671  24.837  1.00  0.00    -0.026 C 
ATOM     14  C   UNL     1      15.150 -14.569  22.703  1.00  0.00     0.005 C 
ATOM     15  C   UNL     1      15.580 -13.279  23.381  1.00  0.00    -0.001 C 
ATOM     16  C   UNL     1      16.025 -12.374  25.712  1.00  0.00     0.007 C 
ATOM     17  C   UNL     1      17.251 -14.451  24.941  1.00  0.00     0.012 C 
ATOM     18  C   UNL     1      16.713 -12.465  22.708  1.00  0.00     0.000 C 
ATOM     19  C   UNL     1      16.298 -11.089  24.886  1.00  0.00     0.005 C 
ATOM     20  C   UNL     1      17.229 -11.314  23.654  1.00  0.00     0.003 C 
ATOM     21  C   UNL     1      16.250 -11.935  21.353  1.00  0.00     0.031 C 
ATOM     22  C   UNL     1      17.672  -9.956  22.935  1.00  0.00    -0.008 C 
ATOM     23  C   UNL     1      17.315 -11.095  20.732  1.00  0.00    -0.027 C 
ATOM     24  C   UNL     1      17.958 -10.150  21.442  1.00  0.00    -0.065 C 
ATOM     25  C   UNL     1      16.586  -8.833  23.005  1.00  0.00     0.014 C 
ATOM     26  C   UNL     1      18.961  -9.464  23.657  1.00  0.00     0.016 C 
ATOM     27  C   UNL     1      18.465  -8.947  20.680  1.00  0.00     0.063 C 
ATOM     28  C   UNL     1      16.953  -7.560  22.200  1.00  0.00     0.033 C 
ATOM     29  C   UNL     1      17.378  -7.857  20.744  1.00  0.00     0.118 C 
BRANCH  29  30
ATOM     30  O   UNL     1      17.851  -6.675  20.154  1.00  0.00    -0.393 OA
ATOM     31  H   UNL     1      17.910  -6.847  19.178  1.00  0.00     0.210 HD
ENDBRANCH  29  30
ENDBRANCH   1  11
TORSDOF 6
ENDMDL
MODEL 4
REMARK VINA RESULT:    -5.079     11.368     14.164
REMARK INTER + INTRA:         -10.062
REMARK INTER:                  -7.296
REMARK INTRA:                  -2.766
REMARK UNBOUND:                -3.350
REMARK SMILES CC[C@@H](C=C[C@@H](C)[C@H]1CC[C@@H]2[C@H]3CC=C4C[C@H](O)CC[C@@]4(C)[C@H]3CC[C@]21C)C(C)C
REMARK SMILES IDX 6 1 7 2 5 3 4 4 3 5 2 6 1 7 28 8 29 9 30 10 8 11 9 12 26 13
REMARK SMILES IDX 10 14 11 15 25 16 27 17 12 18 24 19 23 20 13 21 21 22 14 23
REMARK SMILES IDX 15 24 20 25 22 26 16 27 19 28 17 29 18 30
REMARK H PARENT 18 31
REMARK Flexibility Score: inf
ROOT
ATOM      1  C   UNL     1      18.162 -15.619  22.748  1.00  0.00     0.012 C 
ATOM      2  C   UNL     1      18.546 -17.105  22.823  1.00  0.00     0.012 C 
ENDROOT
BRANCH   1   3
ATOM      3  C   UNL     1      18.861 -14.782  21.667  1.00  0.00    -0.028 C 
ATOM      4  C   UNL     1      18.407 -14.078  20.600  1.00  0.00    -0.027 C 
BRANCH   4   5
ATOM      5  C   UNL     1      16.988 -13.828  20.103  1.00  0.00     0.014 C 
BRANCH   5   6
ATOM      6  C   UNL     1      16.226 -12.922  21.105  1.00  0.00     0.004 C 
ATOM      7  C   UNL     1      16.856 -11.541  21.317  1.00  0.00     0.004 C 
ENDBRANCH   5   6
BRANCH   5   8
ATOM      8  C   UNL     1      16.271 -15.190  19.824  1.00  0.00    -0.011 C 
ATOM      9  C   UNL     1      15.046 -15.405  20.731  1.00  0.00     0.008 C 
ATOM     10  C   UNL     1      15.823 -15.285  18.353  1.00  0.00     0.008 C 
ENDBRANCH   5   8
ENDBRANCH   4   5
ENDBRANCH   1   3
BRANCH   1  11
ATOM     11  C   UNL     1      18.229 -14.965  24.176  1.00  0.00     0.002 C 
ATOM     12  C   UNL     1      19.153 -13.717  24.217  1.00  0.00     0.005 C 
ATOM     13  C   UNL     1      16.898 -14.499  24.876  1.00  0.00    -0.026 C 
ATOM     14  C   UNL     1      18.322 -12.531  24.719  1.00  0.00     0.005 C 
ATOM     15  C   UNL     1      16.880 -12.989  24.572  1.00  0.00    -0.001 C 
ATOM     16  C   UNL     1      15.537 -15.140  24.428  1.00  0.00     0.007 C 
ATOM     17  C   UNL     1      17.074 -14.776  26.407  1.00  0.00     0.012 C 
ATOM     18  C   UNL     1      15.803 -12.218  25.375  1.00  0.00     0.000 C 
ATOM     19  C   UNL     1      14.384 -14.113  24.276  1.00  0.00     0.005 C 
ATOM     20  C   UNL     1      14.415 -12.966  25.334  1.00  0.00     0.003 C 
ATOM     21  C   UNL     1      15.700 -10.779  24.876  1.00  0.00     0.031 C 
ATOM     22  C   UNL     1      13.114 -12.036  25.301  1.00  0.00    -0.008 C 
ATOM     23  C   UNL     1      14.618 -10.054  25.603  1.00  0.00    -0.027 C 
ATOM     24  C   UNL     1      13.404 -10.607  25.777  1.00  0.00    -0.065 C 
ATOM     25  C   UNL     1      12.498 -11.879  23.874  1.00  0.00     0.014 C 
ATOM     26  C   UNL     1      12.064 -12.699  26.241  1.00  0.00     0.016 C 
ATOM     27  C   UNL     1      12.227  -9.664  25.866  1.00  0.00     0.063 C 
ATOM     28  C   UNL     1      11.317 -10.876  23.811  1.00  0.00     0.033 C 
ATOM     29  C   UNL     1      11.641  -9.507  24.449  1.00  0.00     0.118 C 
BRANCH  29  30
ATOM     30  O   UNL     1      10.470  -8.735  24.498  1.00  0.00    -0.393 OA
ATOM     31  H   UNL     1      10.356  -8.450  25.443  1.00  0.00     0.210 HD
ENDBRANCH  29  30
ENDBRANCH   1  11
TORSDOF 6
ENDMDL
MODEL 5
REMARK VINA RESULT:    -5.025      2.605      6.454
REMARK INTER + INTRA:          -9.991
REMARK INTER:                  -7.566
REMARK INTRA:                  -2.424
REMARK UNBOUND:                -3.350
REMARK SMILES CC[C@@H](C=C[C@@H](C)[C@H]1CC[C@@H]2[C@H]3CC=C4C[C@H](O)CC[C@@]4(C)[C@H]3CC[C@]21C)C(C)C
REMARK SMILES IDX 6 1 7 2 5 3 4 4 3 5 2 6 1 7 28 8 29 9 30 10 8 11 9 12 26 13
REMARK SMILES IDX 10 14 11 15 25 16 27 17 12 18 24 19 23 20 13 21 21 22 14 23
REMARK SMILES IDX 15 24 20 25 22 26 16 27 19 28 17 29 18 30
REMARK H PARENT 18 31
REMARK Flexibility Score: inf
ROOT
ATOM      1  C   UNL     1      13.840   0.743  24.849  1.00  0.00     0.012 C 
ATOM      2  C   UNL     1      13.907   1.112  23.359  1.00  0.00     0.012 C 
ENDROOT
BRANCH   1   3
ATOM      3  C   UNL     1      12.445   0.719  25.490  1.00  0.00    -0.028 C 
ATOM      4  C   UNL     1      11.773  -0.209  26.216  1.00  0.00    -0.027 C 
BRANCH   4   5
ATOM      5  C   UNL     1      12.198  -1.588  26.706  1.00  0.00     0.014 C 
BRANCH   5   6
ATOM      6  C   UNL     1      13.047  -1.457  27.997  1.00  0.00     0.004 C 
ATOM      7  C   UNL     1      12.463  -0.503  29.045  1.00  0.00     0.004 C 
ENDBRANCH   5   6
BRANCH   5   8
ATOM      8  C   UNL     1      12.925  -2.363  25.557  1.00  0.00    -0.011 C 
ATOM      9  C   UNL     1      14.359  -2.769  25.940  1.00  0.00     0.008 C 
ATOM     10  C   UNL     1      12.138  -3.628  25.163  1.00  0.00     0.008 C 
ENDBRANCH   5   8
ENDBRANCH   4   5
ENDBRANCH   1   3
BRANCH   1  11
ATOM     11  C   UNL     1      14.881   1.588  25.668  1.00  0.00     0.002 C 
ATOM     12  C   UNL     1      14.355   1.981  27.076  1.00  0.00     0.005 C 
ATOM     13  C   UNL     1      16.318   1.001  25.931  1.00  0.00    -0.026 C 
ATOM     14  C   UNL     1      15.347   1.450  28.116  1.00  0.00     0.005 C 
ATOM     15  C   UNL     1      16.186   0.435  27.357  1.00  0.00    -0.001 C 
ATOM     16  C   UNL     1      16.872  -0.114  24.975  1.00  0.00     0.007 C 
ATOM     17  C   UNL     1      17.314   2.209  25.881  1.00  0.00     0.012 C 
ATOM     18  C   UNL     1      17.544   0.026  27.980  1.00  0.00     0.000 C 
ATOM     19  C   UNL     1      17.590  -1.272  25.717  1.00  0.00     0.005 C 
ATOM     20  C   UNL     1      18.409  -0.813  26.964  1.00  0.00     0.003 C 
ATOM     21  C   UNL     1      17.320  -0.713  29.297  1.00  0.00     0.031 C 
ATOM     22  C   UNL     1      19.310  -1.973  27.595  1.00  0.00    -0.008 C 
ATOM     23  C   UNL     1      18.622  -1.167  29.866  1.00  0.00    -0.027 C 
ATOM     24  C   UNL     1      19.540  -1.784  29.099  1.00  0.00    -0.065 C 
ATOM     25  C   UNL     1      18.681  -3.397  27.450  1.00  0.00     0.014 C 
ATOM     26  C   UNL     1      20.675  -1.940  26.847  1.00  0.00     0.016 C 
ATOM     27  C   UNL     1      20.448  -2.779  29.783  1.00  0.00     0.063 C 
ATOM     28  C   UNL     1      19.483  -4.510  28.173  1.00  0.00     0.033 C 
ATOM     29  C   UNL     1      19.806  -4.173  29.646  1.00  0.00     0.118 C 
BRANCH  29  30
ATOM     30  O   UNL     1      20.672  -5.150  30.160  1.00  0.00    -0.393 OA
ATOM     31  H   UNL     1      20.215  -5.553  30.944  1.00  0.00     0.210 HD
ENDBRANCH  29  30
ENDBRANCH   1  11
TORSDOF 6
ENDMDL
MODEL 6
REMARK VINA RESULT:    -5.016     11.207     14.824
REMARK INTER + INTRA:          -9.979
REMARK INTER:                  -7.800
REMARK INTRA:                  -2.180
REMARK UNBOUND:                -3.350
REMARK SMILES CC[C@@H](C=C[C@@H](C)[C@H]1CC[C@@H]2[C@H]3CC=C4C[C@H](O)CC[C@@]4(C)[C@H]3CC[C@]21C)C(C)C
REMARK SMILES IDX 6 1 7 2 5 3 4 4 3 5 2 6 1 7 28 8 29 9 30 10 8 11 9 12 26 13
REMARK SMILES IDX 10 14 11 15 25 16 27 17 12 18 24 19 23 20 13 21 21 22 14 23
REMARK SMILES IDX 15 24 20 25 22 26 16 27 19 28 17 29 18 30
REMARK H PARENT 18 31
REMARK Flexibility Score: inf
ROOT
ATOM      1  C   UNL     1      15.142 -14.571  25.501  1.00  0.00     0.012 C 
ATOM      2  C   UNL     1      16.016 -14.849  26.734  1.00  0.00     0.012 C 
ENDROOT
BRANCH   1   3
ATOM      3  C   UNL     1      13.639 -14.851  25.646  1.00  0.00    -0.028 C 
ATOM      4  C   UNL     1      12.530 -14.094  25.445  1.00  0.00    -0.027 C 
BRANCH   4   5
ATOM      5  C   UNL     1      12.380 -12.662  24.947  1.00  0.00     0.014 C 
BRANCH   5   6
ATOM      6  C   UNL     1      12.555 -12.613  23.406  1.00  0.00     0.004 C 
ATOM      7  C   UNL     1      11.296 -12.196  22.639  1.00  0.00     0.004 C 
ENDBRANCH   5   6
BRANCH   5   8
ATOM      8  C   UNL     1      13.365 -11.721  25.716  1.00  0.00    -0.011 C 
ATOM      9  C   UNL     1      14.423 -11.096  24.790  1.00  0.00     0.008 C 
ATOM     10  C   UNL     1      12.601 -10.591  26.432  1.00  0.00     0.008 C 
ENDBRANCH   5   8
ENDBRANCH   4   5
ENDBRANCH   1   3
BRANCH   1  11
ATOM     11  C   UNL     1      15.773 -15.234  24.224  1.00  0.00     0.002 C 
ATOM     12  C   UNL     1      14.700 -15.705  23.203  1.00  0.00     0.005 C 
ATOM     13  C   UNL     1      16.811 -14.422  23.363  1.00  0.00    -0.026 C 
ATOM     14  C   UNL     1      14.988 -15.018  21.865  1.00  0.00     0.005 C 
ATOM     15  C   UNL     1      15.935 -13.882  22.217  1.00  0.00    -0.001 C 
ATOM     16  C   UNL     1      17.589 -13.234  24.031  1.00  0.00     0.007 C 
ATOM     17  C   UNL     1      17.869 -15.452  22.842  1.00  0.00     0.012 C 
ATOM     18  C   UNL     1      16.757 -13.257  21.063  1.00  0.00     0.000 C 
ATOM     19  C   UNL     1      17.694 -11.973  23.132  1.00  0.00     0.005 C 
ATOM     20  C   UNL     1      17.874 -12.291  21.615  1.00  0.00     0.003 C 
ATOM     21  C   UNL     1      15.830 -12.561  20.069  1.00  0.00     0.031 C 
ATOM     22  C   UNL     1      18.190 -10.998  20.728  1.00  0.00    -0.008 C 
ATOM     23  C   UNL     1      16.623 -11.901  18.992  1.00  0.00    -0.027 C 
ATOM     24  C   UNL     1      17.698 -11.145  19.283  1.00  0.00    -0.065 C 
ATOM     25  C   UNL     1      17.512  -9.696  21.264  1.00  0.00     0.014 C 
ATOM     26  C   UNL     1      19.735 -10.811  20.739  1.00  0.00     0.016 C 
ATOM     27  C   UNL     1      18.017 -10.014  18.333  1.00  0.00     0.063 C 
ATOM     28  C   UNL     1      17.705  -8.466  20.339  1.00  0.00     0.033 C 
ATOM     29  C   UNL     1      17.329  -8.743  18.866  1.00  0.00     0.118 C 
BRANCH  29  30
ATOM     30  O   UNL     1      17.696  -7.637  18.084  1.00  0.00    -0.393 OA
ATOM     31  H   UNL     1      16.913  -7.417  17.515  1.00  0.00     0.210 HD
ENDBRANCH  29  30
ENDBRANCH   1  11
TORSDOF 6
ENDMDL
MODEL 7
REMARK VINA RESULT:    -4.958     14.226     17.035
REMARK INTER + INTRA:          -9.902
REMARK INTER:                  -6.828
REMARK INTRA:                  -3.074
REMARK UNBOUND:                -3.350
REMARK SMILES CC[C@@H](C=C[C@@H](C)[C@H]1CC[C@@H]2[C@H]3CC=C4C[C@H](O)CC[C@@]4(C)[C@H]3CC[C@]21C)C(C)C
REMARK SMILES IDX 6 1 7 2 5 3 4 4 3 5 2 6 1 7 28 8 29 9 30 10 8 11 9 12 26 13
REMARK SMILES IDX 10 14 11 15 25 16 27 17 12 18 24 19 23 20 13 21 21 22 14 23
REMARK SMILES IDX 15 24 20 25 22 26 16 27 19 28 17 29 18 30
REMARK H PARENT 18 31
REMARK Flexibility Score: inf
ROOT
ATOM      1  C   UNL     1      18.593 -16.018  17.285  1.00  0.00     0.012 C 
ATOM      2  C   UNL     1      19.255 -16.875  16.194  1.00  0.00     0.012 C 
ENDROOT
BRANCH   1   3
ATOM      3  C   UNL     1      17.856 -14.755  16.815  1.00  0.00    -0.028 C 
ATOM      4  C   UNL     1      16.736 -14.121  17.245  1.00  0.00    -0.027 C 
BRANCH   4   5
ATOM      5  C   UNL     1      15.806 -14.425  18.413  1.00  0.00     0.014 C 
BRANCH   5   6
ATOM      6  C   UNL     1      14.626 -15.312  17.937  1.00  0.00     0.004 C 
ATOM      7  C   UNL     1      14.003 -14.878  16.606  1.00  0.00     0.004 C 
ENDBRANCH   5   6
BRANCH   5   8
ATOM      8  C   UNL     1      15.348 -13.093  19.094  1.00  0.00    -0.011 C 
ATOM      9  C   UNL     1      14.930 -13.297  20.561  1.00  0.00     0.008 C 
ATOM     10  C   UNL     1      16.467 -12.035  19.039  1.00  0.00     0.008 C 
ENDBRANCH   5   8
ENDBRANCH   4   5
ENDBRANCH   1   3
BRANCH   1  11
ATOM     11  C   UNL     1      19.609 -15.741  18.452  1.00  0.00     0.002 C 
ATOM     12  C   UNL     1      20.078 -14.260  18.497  1.00  0.00     0.005 C 
ATOM     13  C   UNL     1      19.192 -16.071  19.934  1.00  0.00    -0.026 C 
ATOM     14  C   UNL     1      19.745 -13.702  19.884  1.00  0.00     0.005 C 
ATOM     15  C   UNL     1      18.751 -14.694  20.465  1.00  0.00    -0.001 C 
ATOM     16  C   UNL     1      18.053 -17.120  20.189  1.00  0.00     0.007 C 
ATOM     17  C   UNL     1      20.481 -16.582  20.661  1.00  0.00     0.012 C 
ATOM     18  C   UNL     1      18.537 -14.671  21.999  1.00  0.00     0.000 C 
ATOM     19  C   UNL     1      17.045 -16.691  21.288  1.00  0.00     0.005 C 
ATOM     20  C   UNL     1      17.695 -15.916  22.476  1.00  0.00     0.003 C 
ATOM     21  C   UNL     1      17.904 -13.349  22.425  1.00  0.00     0.031 C 
ATOM     22  C   UNL     1      16.692 -15.664  23.696  1.00  0.00    -0.008 C 
ATOM     23  C   UNL     1      17.636 -13.350  23.892  1.00  0.00    -0.027 C 
ATOM     24  C   UNL     1      17.042 -14.400  24.490  1.00  0.00    -0.065 C 
ATOM     25  C   UNL     1      15.207 -15.472  23.249  1.00  0.00     0.014 C 
ATOM     26  C   UNL     1      16.789 -16.910  24.624  1.00  0.00     0.016 C 
ATOM     27  C   UNL     1      16.209 -14.109  25.716  1.00  0.00     0.063 C 
ATOM     28  C   UNL     1      14.250 -15.097  24.410  1.00  0.00     0.033 C 
ATOM     29  C   UNL     1      14.752 -13.907  25.257  1.00  0.00     0.118 C 
BRANCH  29  30
ATOM     30  O   UNL     1      13.916 -13.754  26.374  1.00  0.00    -0.393 OA
ATOM     31  H   UNL     1      13.070 -13.352  26.045  1.00  0.00     0.210 HD
ENDBRANCH  29  30
ENDBRANCH   1  11
TORSDOF 6
ENDMDL
MODEL 8
REMARK VINA RESULT:    -4.799      0.977      2.136
REMARK INTER + INTRA:          -9.692
REMARK INTER:                  -7.063
REMARK INTRA:                  -2.628
REMARK UNBOUND:                -3.350
REMARK SMILES CC[C@@H](C=C[C@@H](C)[C@H]1CC[C@@H]2[C@H]3CC=C4C[C@H](O)CC[C@@]4(C)[C@H]3CC[C@]21C)C(C)C
REMARK SMILES IDX 6 1 7 2 5 3 4 4 3 5 2 6 1 7 28 8 29 9 30 10 8 11 9 12 26 13
REMARK SMILES IDX 10 14 11 15 25 16 27 17 12 18 24 19 23 20 13 21 21 22 14 23
REMARK SMILES IDX 15 24 20 25 22 26 16 27 19 28 17 29 18 30
REMARK H PARENT 18 31
REMARK Flexibility Score: inf
ROOT
ATOM      1  C   UNL     1      20.036   0.550  29.097  1.00  0.00     0.012 C 
ATOM      2  C   UNL     1      21.053   0.871  30.204  1.00  0.00     0.012 C 
ENDROOT
BRANCH   1   3
ATOM      3  C   UNL     1      20.606   0.061  27.758  1.00  0.00    -0.028 C 
ATOM      4  C   UNL     1      20.617  -1.146  27.139  1.00  0.00    -0.027 C 
BRANCH   4   5
ATOM      5  C   UNL     1      20.007  -2.481  27.551  1.00  0.00     0.014 C 
BRANCH   5   6
ATOM      6  C   UNL     1      18.459  -2.388  27.530  1.00  0.00     0.004 C 
ATOM      7  C   UNL     1      17.870  -1.916  26.197  1.00  0.00     0.004 C 
ENDBRANCH   5   6
BRANCH   5   8
ATOM      8  C   UNL     1      20.587  -2.931  28.932  1.00  0.00    -0.011 C 
ATOM      9  C   UNL     1      19.565  -2.782  30.074  1.00  0.00     0.008 C 
ATOM     10  C   UNL     1      21.063  -4.395  28.879  1.00  0.00     0.008 C 
ENDBRANCH   5   8
ENDBRANCH   4   5
ENDBRANCH   1   3
BRANCH   1  11
ATOM     11  C   UNL     1      19.012   1.732  28.938  1.00  0.00     0.002 C 
ATOM     12  C   UNL     1      19.178   2.487  27.590  1.00  0.00     0.005 C 
ATOM     13  C   UNL     1      17.469   1.438  29.041  1.00  0.00    -0.026 C 
ATOM     14  C   UNL     1      17.835   2.440  26.854  1.00  0.00     0.005 C 
ATOM     15  C   UNL     1      17.053   1.345  27.561  1.00  0.00    -0.001 C 
ATOM     16  C   UNL     1      16.988   0.151  29.801  1.00  0.00     0.007 C 
ATOM     17  C   UNL     1      16.820   2.677  29.744  1.00  0.00     0.012 C 
ATOM     18  C   UNL     1      15.518   1.323  27.358  1.00  0.00     0.000 C 
ATOM     19  C   UNL     1      15.849  -0.613  29.075  1.00  0.00     0.005 C 
ATOM     20  C   UNL     1      14.825   0.315  28.352  1.00  0.00     0.003 C 
ATOM     21  C   UNL     1      15.181   1.022  25.900  1.00  0.00     0.031 C 
ATOM     22  C   UNL     1      13.548  -0.466  27.788  1.00  0.00    -0.008 C 
ATOM     23  C   UNL     1      13.703   0.935  25.716  1.00  0.00    -0.027 C 
ATOM     24  C   UNL     1      12.937   0.220  26.561  1.00  0.00    -0.065 C 
ATOM     25  C   UNL     1      13.865  -1.926  27.330  1.00  0.00     0.014 C 
ATOM     26  C   UNL     1      12.501  -0.508  28.940  1.00  0.00     0.016 C 
ATOM     27  C   UNL     1      11.675  -0.387  25.994  1.00  0.00     0.063 C 
ATOM     28  C   UNL     1      12.664  -2.644  26.662  1.00  0.00     0.033 C 
ATOM     29  C   UNL     1      12.008  -1.819  25.533  1.00  0.00     0.118 C 
BRANCH  29  30
ATOM     30  O   UNL     1      10.838  -2.468  25.110  1.00  0.00    -0.393 OA
ATOM     31  H   UNL     1      10.695  -2.211  24.162  1.00  0.00     0.210 HD
ENDBRANCH  29  30
ENDBRANCH   1  11
TORSDOF 6
ENDMDL
MODEL 9
REMARK VINA RESULT:    -4.785     11.573     14.777
REMARK INTER + INTRA:          -9.674
REMARK INTER:                  -6.911
REMARK INTRA:                  -2.763
REMARK UNBOUND:                -3.350
REMARK SMILES CC[C@@H](C=C[C@@H](C)[C@H]1CC[C@@H]2[C@H]3CC=C4C[C@H](O)CC[C@@]4(C)[C@H]3CC[C@]21C)C(C)C
REMARK SMILES IDX 6 1 7 2 5 3 4 4 3 5 2 6 1 7 28 8 29 9 30 10 8 11 9 12 26 13
REMARK SMILES IDX 10 14 11 15 25 16 27 17 12 18 24 19 23 20 13 21 21 22 14 23
REMARK SMILES IDX 15 24 20 25 22 26 16 27 19 28 17 29 18 30
REMARK H PARENT 18 31
REMARK Flexibility Score: inf
ROOT
ATOM      1  C   UNL     1      16.416 -14.805  25.192  1.00  0.00     0.012 C 
ATOM      2  C   UNL     1      16.629 -15.190  26.664  1.00  0.00     0.012 C 
ENDROOT
BRANCH   1   3
ATOM      3  C   UNL     1      15.158 -15.362  24.510  1.00  0.00    -0.028 C 
ATOM      4  C   UNL     1      14.052 -14.779  23.983  1.00  0.00    -0.027 C 
BRANCH   4   5
ATOM      5  C   UNL     1      13.675 -13.309  23.840  1.00  0.00     0.014 C 
BRANCH   5   6
ATOM      6  C   UNL     1      14.648 -12.603  22.860  1.00  0.00     0.004 C 
ATOM      7  C   UNL     1      14.641 -13.174  21.438  1.00  0.00     0.004 C 
ENDBRANCH   5   6
BRANCH   5   8
ATOM      8  C   UNL     1      13.610 -12.634  25.250  1.00  0.00    -0.011 C 
ATOM      9  C   UNL     1      14.585 -11.450  25.379  1.00  0.00     0.008 C 
ATOM     10  C   UNL     1      12.184 -12.138  25.556  1.00  0.00     0.008 C 
ENDBRANCH   5   8
ENDBRANCH   4   5
ENDBRANCH   1   3
BRANCH   1  11
ATOM     11  C   UNL     1      17.729 -15.059  24.366  1.00  0.00     0.002 C 
ATOM     12  C   UNL     1      17.513 -16.053  23.192  1.00  0.00     0.005 C 
ATOM     13  C   UNL     1      18.484 -13.838  23.719  1.00  0.00    -0.026 C 
ATOM     14  C   UNL     1      17.927 -15.350  21.895  1.00  0.00     0.005 C 
ATOM     15  C   UNL     1      17.982 -13.876  22.263  1.00  0.00    -0.001 C 
ATOM     16  C   UNL     1      18.258 -12.402  24.312  1.00  0.00     0.007 C 
ATOM     17  C   UNL     1      20.014 -14.155  23.808  1.00  0.00     0.012 C 
ATOM     18  C   UNL     1      18.772 -12.936  21.320  1.00  0.00     0.000 C 
ATOM     19  C   UNL     1      18.080 -11.302  23.233  1.00  0.00     0.005 C 
ATOM     20  C   UNL     1      18.965 -11.510  21.965  1.00  0.00     0.003 C 
ATOM     21  C   UNL     1      18.095 -12.866  19.954  1.00  0.00     0.031 C 
ATOM     22  C   UNL     1      18.931 -10.270  20.956  1.00  0.00    -0.008 C 
ATOM     23  C   UNL     1      18.817 -11.910  19.064  1.00  0.00    -0.027 C 
ATOM     24  C   UNL     1      19.179 -10.690  19.503  1.00  0.00    -0.065 C 
ATOM     25  C   UNL     1      17.561  -9.518  20.940  1.00  0.00     0.014 C 
ATOM     26  C   UNL     1      20.047  -9.286  21.415  1.00  0.00     0.016 C 
ATOM     27  C   UNL     1      19.251  -9.586  18.473  1.00  0.00     0.063 C 
ATOM     28  C   UNL     1      17.476  -8.398  19.871  1.00  0.00     0.033 C 
ATOM     29  C   UNL     1      17.889  -8.867  18.459  1.00  0.00     0.118 C 
BRANCH  29  30
ATOM     30  O   UNL     1      17.945  -7.755  17.605  1.00  0.00    -0.393 OA
ATOM     31  H   UNL     1      18.630  -7.958  16.915  1.00  0.00     0.210 HD
ENDBRANCH  29  30
ENDBRANCH   1  11
TORSDOF 6
ENDMDL
