MODEL 1
REMARK VINA RESULT:    -4.015      0.000      0.000
REMARK INTER + INTRA:          -9.659
REMARK INTER:                  -8.708
REMARK INTRA:                  -0.951
REMARK UNBOUND:                -0.951
REMARK SMILES CCCCCCCCCCCCCCCCCCCCCC(=O)[O-]
REMARK SMILES IDX 12 1 11 2 10 3 9 4 8 5 7 6 6 7 5 8 4 9 3 10 2 11 1 12 13 13
REMARK SMILES IDX 14 14 15 15 16 16 17 17 18 18 19 19 20 20 21 21 22 22 23 23
REMARK SMILES IDX 24 24
REMARK H PARENT
REMARK Flexibility Score: inf
ROOT
ATOM      1  C   UNL     1       7.511   4.513   9.004  1.00  0.00     0.000 C 
ENDROOT
BRANCH   1   2
ATOM      2  C   UNL     1       6.781   3.385   9.753  1.00  0.00     0.000 C 
BRANCH   2   3
ATOM      3  C   UNL     1       6.320   2.250   8.820  1.00  0.00     0.000 C 
BRANCH   3   4
ATOM      4  C   UNL     1       4.794   2.047   8.738  1.00  0.00    -0.000 C 
BRANCH   4   5
ATOM      5  C   UNL     1       3.993   3.285   8.289  1.00  0.00    -0.000 C 
BRANCH   5   6
ATOM      6  C   UNL     1       2.847   3.695   9.234  1.00  0.00    -0.000 C 
BRANCH   6   7
ATOM      7  C   UNL     1       2.227   2.542  10.049  1.00  0.00    -0.000 C 
BRANCH   7   8
ATOM      8  C   UNL     1       0.706   2.369   9.883  1.00  0.00    -0.000 C 
BRANCH   8   9
ATOM      9  C   UNL     1       0.028   3.618   9.294  1.00  0.00    -0.000 C 
BRANCH   9  10
ATOM     10  C   UNL     1      -1.505   3.502   9.268  1.00  0.00    -0.000 C 
BRANCH  10  11
ATOM     11  C   UNL     1      -2.181   4.718   8.616  1.00  0.00    -0.003 C 
ATOM     12  C   UNL     1      -2.032   5.962   9.489  1.00  0.00     0.004 C 
ENDBRANCH  10  11
ENDBRANCH   9  10
ENDBRANCH   8   9
ENDBRANCH   7   8
ENDBRANCH   6   7
ENDBRANCH   5   6
ENDBRANCH   4   5
ENDBRANCH   3   4
ENDBRANCH   2   3
ENDBRANCH   1   2
BRANCH   1  13
ATOM     13  C   UNL     1       8.767   5.003   9.746  1.00  0.00     0.000 C 
BRANCH  13  14
ATOM     14  C   UNL     1       8.899   6.537   9.739  1.00  0.00     0.000 C 
BRANCH  14  15
ATOM     15  C   UNL     1       9.066   7.121   8.323  1.00  0.00     0.000 C 
BRANCH  15  16
ATOM     16  C   UNL     1       9.124   8.658   8.252  1.00  0.00     0.000 C 
BRANCH  16  17
ATOM     17  C   UNL     1       8.055   9.340   9.123  1.00  0.00     0.000 C 
BRANCH  17  18
ATOM     18  C   UNL     1       7.323  10.477   8.390  1.00  0.00     0.000 C 
BRANCH  18  19
ATOM     19  C   UNL     1       6.257  11.212   9.228  1.00  0.00     0.000 C 
BRANCH  19  20
ATOM     20  C   UNL     1       5.509  12.339   8.491  1.00  0.00     0.006 C 
BRANCH  20  21
ATOM     21  C   UNL     1       4.096  11.933   8.055  1.00  0.00     0.053 C 
BRANCH  21  22
ATOM     22  C   UNL     1       3.856  12.330   6.633  1.00  0.00     0.041 C 
ATOM     23  O   UNL     1       3.512  13.508   6.352  1.00  0.00    -0.550 OA
ATOM     24  O   UNL     1       3.956  11.382   5.619  1.00  0.00    -0.550 OA
ENDBRANCH  21  22
ENDBRANCH  20  21
ENDBRANCH  19  20
ENDBRANCH  18  19
ENDBRANCH  17  18
ENDBRANCH  16  17
ENDBRANCH  15  16
ENDBRANCH  14  15
ENDBRANCH  13  14
ENDBRANCH   1  13
TORSDOF 20
ENDMDL
MODEL 2
REMARK VINA RESULT:    -3.613      1.285      2.083
REMARK INTER + INTRA:          -8.789
REMARK INTER:                  -7.777
REMARK INTRA:                  -1.012
REMARK UNBOUND:                -0.951
REMARK SMILES CCCCCCCCCCCCCCCCCCCCCC(=O)[O-]
REMARK SMILES IDX 12 1 11 2 10 3 9 4 8 5 7 6 6 7 5 8 4 9 3 10 2 11 1 12 13 13
REMARK SMILES IDX 14 14 15 15 16 16 17 17 18 18 19 19 20 20 21 21 22 22 23 23
REMARK SMILES IDX 24 24
REMARK H PARENT
REMARK Flexibility Score: inf
ROOT
ATOM      1  C   UNL     1       8.269   5.544   8.804  1.00  0.00     0.000 C 
ENDROOT
BRANCH   1   2
ATOM      2  C   UNL     1       8.011   4.779  10.113  1.00  0.00     0.000 C 
BRANCH   2   3
ATOM      3  C   UNL     1       8.310   3.273   9.994  1.00  0.00     0.000 C 
BRANCH   3   4
ATOM      4  C   UNL     1       7.070   2.358   9.965  1.00  0.00    -0.000 C 
BRANCH   4   5
ATOM      5  C   UNL     1       6.352   2.272   8.604  1.00  0.00    -0.000 C 
BRANCH   5   6
ATOM      6  C   UNL     1       4.901   1.757   8.665  1.00  0.00    -0.000 C 
BRANCH   6   7
ATOM      7  C   UNL     1       3.819   2.812   8.361  1.00  0.00    -0.000 C 
BRANCH   7   8
ATOM      8  C   UNL     1       2.978   3.254   9.573  1.00  0.00    -0.000 C 
BRANCH   8   9
ATOM      9  C   UNL     1       1.492   2.886   9.431  1.00  0.00    -0.000 C 
BRANCH   9  10
ATOM     10  C   UNL     1       0.562   4.100   9.596  1.00  0.00    -0.000 C 
BRANCH  10  11
ATOM     11  C   UNL     1      -0.810   3.890   8.939  1.00  0.00    -0.003 C 
ATOM     12  C   UNL     1      -1.486   2.627   9.468  1.00  0.00     0.004 C 
ENDBRANCH  10  11
ENDBRANCH   9  10
ENDBRANCH   8   9
ENDBRANCH   7   8
ENDBRANCH   6   7
ENDBRANCH   5   6
ENDBRANCH   4   5
ENDBRANCH   3   4
ENDBRANCH   2   3
ENDBRANCH   1   2
BRANCH   1  13
ATOM     13  C   UNL     1       9.531   6.421   8.867  1.00  0.00     0.000 C 
BRANCH  13  14
ATOM     14  C   UNL     1       9.601   7.443   7.717  1.00  0.00     0.000 C 
BRANCH  14  15
ATOM     15  C   UNL     1       8.868   8.760   8.037  1.00  0.00     0.000 C 
BRANCH  15  16
ATOM     16  C   UNL     1       8.450   8.934   9.509  1.00  0.00     0.000 C 
BRANCH  16  17
ATOM     17  C   UNL     1       7.138   9.720   9.670  1.00  0.00     0.000 C 
BRANCH  17  18
ATOM     18  C   UNL     1       6.988  10.854   8.641  1.00  0.00     0.000 C 
BRANCH  18  19
ATOM     19  C   UNL     1       6.325  12.138   9.178  1.00  0.00     0.000 C 
BRANCH  19  20
ATOM     20  C   UNL     1       5.346  12.823   8.206  1.00  0.00     0.006 C 
BRANCH  20  21
ATOM     21  C   UNL     1       4.372  11.839   7.546  1.00  0.00     0.053 C 
BRANCH  21  22
ATOM     22  C   UNL     1       3.040  11.893   8.224  1.00  0.00     0.041 C 
ATOM     23  O   UNL     1       2.666  12.945   8.805  1.00  0.00    -0.550 OA
ATOM     24  O   UNL     1       2.234  10.760   8.265  1.00  0.00    -0.550 OA
ENDBRANCH  21  22
ENDBRANCH  20  21
ENDBRANCH  19  20
ENDBRANCH  18  19
ENDBRANCH  17  18
ENDBRANCH  16  17
ENDBRANCH  15  16
ENDBRANCH  14  15
ENDBRANCH  13  14
ENDBRANCH   1  13
TORSDOF 20
ENDMDL
MODEL 3
REMARK VINA RESULT:    -3.543      2.867      8.159
REMARK INTER + INTRA:          -8.636
REMARK INTER:                  -7.426
REMARK INTRA:                  -1.210
REMARK UNBOUND:                -0.951
REMARK SMILES CCCCCCCCCCCCCCCCCCCCCC(=O)[O-]
REMARK SMILES IDX 12 1 11 2 10 3 9 4 8 5 7 6 6 7 5 8 4 9 3 10 2 11 1 12 13 13
REMARK SMILES IDX 14 14 15 15 16 16 17 17 18 18 19 19 20 20 21 21 22 22 23 23
REMARK SMILES IDX 24 24
REMARK H PARENT
REMARK Flexibility Score: inf
ROOT
ATOM      1  C   UNL     1       9.608   6.588   8.325  1.00  0.00     0.000 C 
ENDROOT
BRANCH   1   2
ATOM      2  C   UNL     1      10.194   7.936   8.776  1.00  0.00     0.000 C 
BRANCH   2   3
ATOM      3  C   UNL     1       9.623   8.414  10.125  1.00  0.00     0.000 C 
BRANCH   3   4
ATOM      4  C   UNL     1       8.843   9.743  10.074  1.00  0.00    -0.000 C 
BRANCH   4   5
ATOM      5  C   UNL     1       7.401   9.635   9.540  1.00  0.00    -0.000 C 
BRANCH   5   6
ATOM      6  C   UNL     1       7.009  10.709   8.507  1.00  0.00    -0.000 C 
BRANCH   6   7
ATOM      7  C   UNL     1       6.217  11.904   9.074  1.00  0.00    -0.000 C 
BRANCH   7   8
ATOM      8  C   UNL     1       5.998  13.068   8.091  1.00  0.00    -0.000 C 
BRANCH   8   9
ATOM      9  C   UNL     1       4.595  13.687   8.205  1.00  0.00    -0.000 C 
BRANCH   9  10
ATOM     10  C   UNL     1       3.514  12.835   7.519  1.00  0.00    -0.000 C 
BRANCH  10  11
ATOM     11  C   UNL     1       2.641  12.065   8.520  1.00  0.00    -0.003 C 
ATOM     12  C   UNL     1       1.357  12.830   8.832  1.00  0.00     0.004 C 
ENDBRANCH  10  11
ENDBRANCH   9  10
ENDBRANCH   8   9
ENDBRANCH   7   8
ENDBRANCH   6   7
ENDBRANCH   5   6
ENDBRANCH   4   5
ENDBRANCH   3   4
ENDBRANCH   2   3
ENDBRANCH   1   2
BRANCH   1  13
ATOM     13  C   UNL     1       8.515   6.066   9.275  1.00  0.00     0.000 C 
BRANCH  13  14
ATOM     14  C   UNL     1       8.787   4.631   9.760  1.00  0.00     0.000 C 
BRANCH  14  15
ATOM     15  C   UNL     1       7.498   3.841  10.055  1.00  0.00     0.000 C 
BRANCH  15  16
ATOM     16  C   UNL     1       7.460   2.413   9.479  1.00  0.00     0.000 C 
BRANCH  16  17
ATOM     17  C   UNL     1       6.056   1.989   9.018  1.00  0.00     0.000 C 
BRANCH  17  18
ATOM     18  C   UNL     1       5.149   3.186   8.684  1.00  0.00     0.000 C 
BRANCH  18  19
ATOM     19  C   UNL     1       3.722   2.816   8.228  1.00  0.00     0.000 C 
BRANCH  19  20
ATOM     20  C   UNL     1       2.700   2.635   9.365  1.00  0.00     0.006 C 
BRANCH  20  21
ATOM     21  C   UNL     1       2.341   3.953  10.063  1.00  0.00     0.053 C 
BRANCH  21  22
ATOM     22  C   UNL     1       0.999   4.432   9.609  1.00  0.00     0.041 C 
ATOM     23  O   UNL     1       0.602   5.587   9.915  1.00  0.00    -0.550 OA
ATOM     24  O   UNL     1       0.160   3.581   8.898  1.00  0.00    -0.550 OA
ENDBRANCH  21  22
ENDBRANCH  20  21
ENDBRANCH  19  20
ENDBRANCH  18  19
ENDBRANCH  17  18
ENDBRANCH  16  17
ENDBRANCH  15  16
ENDBRANCH  14  15
ENDBRANCH  13  14
ENDBRANCH   1  13
TORSDOF 20
ENDMDL
MODEL 4
REMARK VINA RESULT:    -3.446      1.402      2.505
REMARK INTER + INTRA:          -8.425
REMARK INTER:                  -7.244
REMARK INTRA:                  -1.181
REMARK UNBOUND:                -0.951
REMARK SMILES CCCCCCCCCCCCCCCCCCCCCC(=O)[O-]
REMARK SMILES IDX 12 1 11 2 10 3 9 4 8 5 7 6 6 7 5 8 4 9 3 10 2 11 1 12 13 13
REMARK SMILES IDX 14 14 15 15 16 16 17 17 18 18 19 19 20 20 21 21 22 22 23 23
REMARK SMILES IDX 24 24
REMARK H PARENT
REMARK Flexibility Score: inf
ROOT
ATOM      1  C   UNL     1       6.636   3.582   8.368  1.00  0.00     0.000 C 
ENDROOT
BRANCH   1   2
ATOM      2  C   UNL     1       5.222   2.986   8.252  1.00  0.00     0.000 C 
BRANCH   2   3
ATOM      3  C   UNL     1       4.729   2.358   9.569  1.00  0.00     0.000 C 
BRANCH   3   4
ATOM      4  C   UNL     1       3.496   1.441   9.438  1.00  0.00    -0.000 C 
BRANCH   4   5
ATOM      5  C   UNL     1       2.218   1.963  10.124  1.00  0.00    -0.000 C 
BRANCH   5   6
ATOM      6  C   UNL     1       1.964   3.474   9.960  1.00  0.00    -0.000 C 
BRANCH   6   7
ATOM      7  C   UNL     1       0.481   3.897  10.012  1.00  0.00    -0.000 C 
BRANCH   7   8
ATOM      8  C   UNL     1      -0.530   2.765   9.755  1.00  0.00    -0.000 C 
BRANCH   8   9
ATOM      9  C   UNL     1      -1.810   3.259   9.061  1.00  0.00    -0.000 C 
BRANCH   9  10
ATOM     10  C   UNL     1      -1.694   4.709   8.565  1.00  0.00    -0.000 C 
BRANCH  10  11
ATOM     11  C   UNL     1      -2.641   5.667   9.303  1.00  0.00    -0.003 C 
ATOM     12  C   UNL     1      -1.968   7.012   9.565  1.00  0.00     0.004 C 
ENDBRANCH  10  11
ENDBRANCH   9  10
ENDBRANCH   8   9
ENDBRANCH   7   8
ENDBRANCH   6   7
ENDBRANCH   5   6
ENDBRANCH   4   5
ENDBRANCH   3   4
ENDBRANCH   2   3
ENDBRANCH   1   2
BRANCH   1  13
ATOM     13  C   UNL     1       7.109   3.710   9.826  1.00  0.00     0.000 C 
BRANCH  13  14
ATOM     14  C   UNL     1       8.619   3.459   9.984  1.00  0.00     0.000 C 
BRANCH  14  15
ATOM     15  C   UNL     1       9.434   4.759  10.124  1.00  0.00     0.000 C 
BRANCH  15  16
ATOM     16  C   UNL     1       8.631   6.059   9.930  1.00  0.00     0.000 C 
BRANCH  16  17
ATOM     17  C   UNL     1       8.881   6.720   8.565  1.00  0.00     0.000 C 
BRANCH  17  18
ATOM     18  C   UNL     1       9.650   8.048   8.675  1.00  0.00     0.000 C 
BRANCH  18  19
ATOM     19  C   UNL     1       8.885   9.188   9.377  1.00  0.00     0.000 C 
BRANCH  19  20
ATOM     20  C   UNL     1       7.690   9.756   8.589  1.00  0.00     0.006 C 
BRANCH  20  21
ATOM     21  C   UNL     1       7.101  11.021   9.226  1.00  0.00     0.053 C 
BRANCH  21  22
ATOM     22  C   UNL     1       6.455  11.876   8.182  1.00  0.00     0.041 C 
ATOM     23  O   UNL     1       6.584  13.127   8.218  1.00  0.00    -0.550 OA
ATOM     24  O   UNL     1       5.661  11.294   7.199  1.00  0.00    -0.550 OA
ENDBRANCH  21  22
ENDBRANCH  20  21
ENDBRANCH  19  20
ENDBRANCH  18  19
ENDBRANCH  17  18
ENDBRANCH  16  17
ENDBRANCH  15  16
ENDBRANCH  14  15
ENDBRANCH  13  14
ENDBRANCH   1  13
TORSDOF 20
ENDMDL
MODEL 5
REMARK VINA RESULT:    -3.421      2.964      8.135
REMARK INTER + INTRA:          -8.372
REMARK INTER:                  -7.458
REMARK INTRA:                  -0.914
REMARK UNBOUND:                -0.951
REMARK SMILES CCCCCCCCCCCCCCCCCCCCCC(=O)[O-]
REMARK SMILES IDX 12 1 11 2 10 3 9 4 8 5 7 6 6 7 5 8 4 9 3 10 2 11 1 12 13 13
REMARK SMILES IDX 14 14 15 15 16 16 17 17 18 18 19 19 20 20 21 21 22 22 23 23
REMARK SMILES IDX 24 24
REMARK H PARENT
REMARK Flexibility Score: inf
ROOT
ATOM      1  C   UNL     1       8.022   5.072   8.711  1.00  0.00     0.000 C 
ENDROOT
BRANCH   1   2
ATOM      2  C   UNL     1       8.842   6.374   8.714  1.00  0.00     0.000 C 
BRANCH   2   3
ATOM      3  C   UNL     1       8.261   7.442   9.659  1.00  0.00     0.000 C 
BRANCH   3   4
ATOM      4  C   UNL     1       8.351   8.893   9.144  1.00  0.00    -0.000 C 
BRANCH   4   5
ATOM      5  C   UNL     1       7.821   9.965  10.116  1.00  0.00    -0.000 C 
BRANCH   5   6
ATOM      6  C   UNL     1       6.556  10.706   9.639  1.00  0.00    -0.000 C 
BRANCH   6   7
ATOM      7  C   UNL     1       6.679  11.392   8.263  1.00  0.00    -0.000 C 
BRANCH   7   8
ATOM      8  C   UNL     1       5.611  12.462   7.970  1.00  0.00    -0.000 C 
BRANCH   8   9
ATOM      9  C   UNL     1       4.202  11.867   7.810  1.00  0.00    -0.000 C 
BRANCH   9  10
ATOM     10  C   UNL     1       3.351  12.007   9.083  1.00  0.00    -0.000 C 
BRANCH  10  11
ATOM     11  C   UNL     1       1.845  11.902   8.804  1.00  0.00    -0.003 C 
ATOM     12  C   UNL     1       1.111  13.159   9.267  1.00  0.00     0.004 C 
ENDBRANCH  10  11
ENDBRANCH   9  10
ENDBRANCH   8   9
ENDBRANCH   7   8
ENDBRANCH   6   7
ENDBRANCH   5   6
ENDBRANCH   4   5
ENDBRANCH   3   4
ENDBRANCH   2   3
ENDBRANCH   1   2
BRANCH   1  13
ATOM     13  C   UNL     1       7.616   4.622  10.125  1.00  0.00     0.000 C 
BRANCH  13  14
ATOM     14  C   UNL     1       6.772   3.334  10.117  1.00  0.00     0.000 C 
BRANCH  14  15
ATOM     15  C   UNL     1       6.169   3.018   8.735  1.00  0.00     0.000 C 
BRANCH  15  16
ATOM     16  C   UNL     1       4.653   3.257   8.613  1.00  0.00     0.000 C 
BRANCH  16  17
ATOM     17  C   UNL     1       3.905   3.061   9.943  1.00  0.00     0.000 C 
BRANCH  17  18
ATOM     18  C   UNL     1       2.468   3.610   9.908  1.00  0.00     0.000 C 
BRANCH  18  19
ATOM     19  C   UNL     1       1.405   2.619   9.392  1.00  0.00     0.000 C 
BRANCH  19  20
ATOM     20  C   UNL     1      -0.051   2.987   9.733  1.00  0.00     0.006 C 
BRANCH  20  21
ATOM     21  C   UNL     1      -0.299   4.500   9.739  1.00  0.00     0.053 C 
BRANCH  21  22
ATOM     22  C   UNL     1      -1.587   4.818   9.047  1.00  0.00     0.041 C 
ATOM     23  O   UNL     1      -2.332   3.890   8.636  1.00  0.00    -0.550 OA
ATOM     24  O   UNL     1      -1.938   6.142   8.803  1.00  0.00    -0.550 OA
ENDBRANCH  21  22
ENDBRANCH  20  21
ENDBRANCH  19  20
ENDBRANCH  18  19
ENDBRANCH  17  18
ENDBRANCH  16  17
ENDBRANCH  15  16
ENDBRANCH  14  15
ENDBRANCH  13  14
ENDBRANCH   1  13
TORSDOF 20
ENDMDL
MODEL 6
REMARK VINA RESULT:    -3.371      4.126      8.122
REMARK INTER + INTRA:          -8.263
REMARK INTER:                  -7.608
REMARK INTRA:                  -0.655
REMARK UNBOUND:                -0.951
REMARK SMILES CCCCCCCCCCCCCCCCCCCCCC(=O)[O-]
REMARK SMILES IDX 12 1 11 2 10 3 9 4 8 5 7 6 6 7 5 8 4 9 3 10 2 11 1 12 13 13
REMARK SMILES IDX 14 14 15 15 16 16 17 17 18 18 19 19 20 20 21 21 22 22 23 23
REMARK SMILES IDX 24 24
REMARK H PARENT
REMARK Flexibility Score: inf
ROOT
ATOM      1  C   UNL     1       8.489   8.114   8.598  1.00  0.00     0.000 C 
ENDROOT
BRANCH   1   2
ATOM      2  C   UNL     1       8.186   9.488   7.976  1.00  0.00     0.000 C 
BRANCH   2   3
ATOM      3  C   UNL     1       7.305  10.371   8.880  1.00  0.00     0.000 C 
BRANCH   3   4
ATOM      4  C   UNL     1       6.150  11.099   8.163  1.00  0.00    -0.000 C 
BRANCH   4   5
ATOM      5  C   UNL     1       6.225  12.638   8.199  1.00  0.00    -0.000 C 
BRANCH   5   6
ATOM      6  C   UNL     1       5.020  13.362   7.567  1.00  0.00    -0.000 C 
BRANCH   6   7
ATOM      7  C   UNL     1       3.850  13.647   8.530  1.00  0.00    -0.000 C 
BRANCH   7   8
ATOM      8  C   UNL     1       2.490  13.071   8.094  1.00  0.00    -0.000 C 
BRANCH   8   9
ATOM      9  C   UNL     1       1.667  12.531   9.276  1.00  0.00    -0.000 C 
BRANCH   9  10
ATOM     10  C   UNL     1       2.200  11.189   9.805  1.00  0.00    -0.000 C 
BRANCH  10  11
ATOM     11  C   UNL     1       1.852  10.008   8.886  1.00  0.00    -0.003 C 
ATOM     12  C   UNL     1       0.961   8.997   9.604  1.00  0.00     0.004 C 
ENDBRANCH  10  11
ENDBRANCH   9  10
ENDBRANCH   8   9
ENDBRANCH   7   8
ENDBRANCH   6   7
ENDBRANCH   5   6
ENDBRANCH   4   5
ENDBRANCH   3   4
ENDBRANCH   2   3
ENDBRANCH   1   2
BRANCH   1  13
ATOM     13  C   UNL     1       9.247   7.181   7.638  1.00  0.00     0.000 C 
BRANCH  13  14
ATOM     14  C   UNL     1      10.758   7.131   7.929  1.00  0.00     0.000 C 
BRANCH  14  15
ATOM     15  C   UNL     1      11.110   6.241   9.136  1.00  0.00     0.000 C 
BRANCH  15  16
ATOM     16  C   UNL     1       9.952   5.983  10.118  1.00  0.00     0.000 C 
BRANCH  16  17
ATOM     17  C   UNL     1       9.487   4.517  10.125  1.00  0.00     0.000 C 
BRANCH  17  18
ATOM     18  C   UNL     1       8.040   4.345   9.630  1.00  0.00     0.000 C 
BRANCH  18  19
ATOM     19  C   UNL     1       7.614   2.889   9.354  1.00  0.00     0.000 C 
BRANCH  19  20
ATOM     20  C   UNL     1       6.165   2.546   9.748  1.00  0.00     0.006 C 
BRANCH  20  21
ATOM     21  C   UNL     1       5.137   3.019   8.712  1.00  0.00     0.053 C 
BRANCH  21  22
ATOM     22  C   UNL     1       4.787   1.902   7.781  1.00  0.00     0.041 C 
ATOM     23  O   UNL     1       5.695   1.243   7.211  1.00  0.00    -0.550 OA
ATOM     24  O   UNL     1       3.453   1.626   7.496  1.00  0.00    -0.550 OA
ENDBRANCH  21  22
ENDBRANCH  20  21
ENDBRANCH  19  20
ENDBRANCH  18  19
ENDBRANCH  17  18
ENDBRANCH  16  17
ENDBRANCH  15  16
ENDBRANCH  14  15
ENDBRANCH  13  14
ENDBRANCH   1  13
TORSDOF 20
ENDMDL
MODEL 7
REMARK VINA RESULT:    -3.338      2.801      8.256
REMARK INTER + INTRA:          -8.193
REMARK INTER:                  -7.313
REMARK INTRA:                  -0.879
REMARK UNBOUND:                -0.951
REMARK SMILES CCCCCCCCCCCCCCCCCCCCCC(=O)[O-]
REMARK SMILES IDX 12 1 11 2 10 3 9 4 8 5 7 6 6 7 5 8 4 9 3 10 2 11 1 12 13 13
REMARK SMILES IDX 14 14 15 15 16 16 17 17 18 18 19 19 20 20 21 21 22 22 23 23
REMARK SMILES IDX 24 24
REMARK H PARENT
REMARK Flexibility Score: inf
ROOT
ATOM      1  C   UNL     1       7.170   2.977   9.087  1.00  0.00     0.000 C 
ENDROOT
BRANCH   1   2
ATOM      2  C   UNL     1       6.707   4.335   9.641  1.00  0.00     0.000 C 
BRANCH   2   3
ATOM      3  C   UNL     1       7.876   5.212  10.125  1.00  0.00     0.000 C 
BRANCH   3   4
ATOM      4  C   UNL     1       8.915   5.576   9.045  1.00  0.00    -0.000 C 
BRANCH   4   5
ATOM      5  C   UNL     1       8.717   6.955   8.386  1.00  0.00    -0.000 C 
BRANCH   5   6
ATOM      6  C   UNL     1       8.937   8.160   9.321  1.00  0.00    -0.000 C 
BRANCH   6   7
ATOM      7  C   UNL     1       7.649   8.854   9.809  1.00  0.00    -0.000 C 
BRANCH   7   8
ATOM      8  C   UNL     1       7.552  10.355   9.481  1.00  0.00    -0.000 C 
BRANCH   8   9
ATOM      9  C   UNL     1       6.966  10.621   8.084  1.00  0.00    -0.000 C 
BRANCH   9  10
ATOM     10  C   UNL     1       6.046  11.853   8.052  1.00  0.00    -0.000 C 
BRANCH  10  11
ATOM     11  C   UNL     1       4.853  11.678   7.101  1.00  0.00    -0.003 C 
ATOM     12  C   UNL     1       3.737  12.666   7.432  1.00  0.00     0.004 C 
ENDBRANCH  10  11
ENDBRANCH   9  10
ENDBRANCH   8   9
ENDBRANCH   7   8
ENDBRANCH   6   7
ENDBRANCH   5   6
ENDBRANCH   4   5
ENDBRANCH   3   4
ENDBRANCH   2   3
ENDBRANCH   1   2
BRANCH   1  13
ATOM     13  C   UNL     1       6.934   1.821  10.074  1.00  0.00     0.000 C 
BRANCH  13  14
ATOM     14  C   UNL     1       5.483   1.306  10.049  1.00  0.00     0.000 C 
BRANCH  14  15
ATOM     15  C   UNL     1       4.899   1.220   8.626  1.00  0.00     0.000 C 
BRANCH  15  16
ATOM     16  C   UNL     1       4.101   2.456   8.171  1.00  0.00     0.000 C 
BRANCH  16  17
ATOM     17  C   UNL     1       3.171   3.006   9.265  1.00  0.00     0.000 C 
BRANCH  17  18
ATOM     18  C   UNL     1       1.823   2.266   9.333  1.00  0.00     0.000 C 
BRANCH  18  19
ATOM     19  C   UNL     1       0.718   2.995  10.124  1.00  0.00     0.000 C 
BRANCH  19  20
ATOM     20  C   UNL     1      -0.400   3.613   9.266  1.00  0.00     0.006 C 
BRANCH  20  21
ATOM     21  C   UNL     1      -1.489   4.296  10.104  1.00  0.00     0.053 C 
BRANCH  21  22
ATOM     22  C   UNL     1      -2.121   5.408   9.328  1.00  0.00     0.041 C 
ATOM     23  O   UNL     1      -2.899   6.217   9.899  1.00  0.00    -0.550 OA
ATOM     24  O   UNL     1      -1.898   5.516   7.959  1.00  0.00    -0.550 OA
ENDBRANCH  21  22
ENDBRANCH  20  21
ENDBRANCH  19  20
ENDBRANCH  18  19
ENDBRANCH  17  18
ENDBRANCH  16  17
ENDBRANCH  15  16
ENDBRANCH  14  15
ENDBRANCH  13  14
ENDBRANCH   1  13
TORSDOF 20
ENDMDL
MODEL 8
REMARK VINA RESULT:    -2.845      3.465      5.613
REMARK INTER + INTRA:          -7.122
REMARK INTER:                  -6.030
REMARK INTRA:                  -1.091
REMARK UNBOUND:                -0.951
REMARK SMILES CCCCCCCCCCCCCCCCCCCCCC(=O)[O-]
REMARK SMILES IDX 12 1 11 2 10 3 9 4 8 5 7 6 6 7 5 8 4 9 3 10 2 11 1 12 13 13
REMARK SMILES IDX 14 14 15 15 16 16 17 17 18 18 19 19 20 20 21 21 22 22 23 23
REMARK SMILES IDX 24 24
REMARK H PARENT
REMARK Flexibility Score: inf
ROOT
ATOM      1  C   UNL     1       4.577   1.075   8.653  1.00  0.00     0.000 C 
ENDROOT
BRANCH   1   2
ATOM      2  C   UNL     1       3.446   0.626   9.595  1.00  0.00     0.000 C 
BRANCH   2   3
ATOM      3  C   UNL     1       2.048   1.009   9.074  1.00  0.00     0.000 C 
BRANCH   3   4
ATOM      4  C   UNL     1       1.179   1.816  10.059  1.00  0.00    -0.000 C 
BRANCH   4   5
ATOM      5  C   UNL     1      -0.268   2.073   9.594  1.00  0.00    -0.000 C 
BRANCH   5   6
ATOM      6  C   UNL     1      -0.830   3.462   9.954  1.00  0.00    -0.000 C 
BRANCH   6   7
ATOM      7  C   UNL     1      -1.404   4.264   8.768  1.00  0.00    -0.000 C 
BRANCH   7   8
ATOM      8  C   UNL     1      -2.493   5.287   9.139  1.00  0.00    -0.000 C 
BRANCH   8   9
ATOM      9  C   UNL     1      -1.956   6.727   9.207  1.00  0.00    -0.000 C 
BRANCH   9  10
ATOM     10  C   UNL     1      -0.705   6.852  10.093  1.00  0.00    -0.000 C 
BRANCH  10  11
ATOM     11  C   UNL     1       0.050   8.171   9.870  1.00  0.00    -0.003 C 
ATOM     12  C   UNL     1       1.559   7.965   9.979  1.00  0.00     0.004 C 
ENDBRANCH  10  11
ENDBRANCH   9  10
ENDBRANCH   8   9
ENDBRANCH   7   8
ENDBRANCH   6   7
ENDBRANCH   5   6
ENDBRANCH   4   5
ENDBRANCH   3   4
ENDBRANCH   2   3
ENDBRANCH   1   2
BRANCH   1  13
ATOM     13  C   UNL     1       4.380   2.508   8.129  1.00  0.00     0.000 C 
BRANCH  13  14
ATOM     14  C   UNL     1       4.611   3.573   9.216  1.00  0.00     0.000 C 
BRANCH  14  15
ATOM     15  C   UNL     1       5.880   3.317  10.051  1.00  0.00     0.000 C 
BRANCH  15  16
ATOM     16  C   UNL     1       7.177   3.158   9.236  1.00  0.00     0.000 C 
BRANCH  16  17
ATOM     17  C   UNL     1       8.446   3.319  10.090  1.00  0.00     0.000 C 
BRANCH  17  18
ATOM     18  C   UNL     1       9.259   4.573   9.725  1.00  0.00     0.000 C 
BRANCH  18  19
ATOM     19  C   UNL     1       8.544   5.561   8.781  1.00  0.00     0.000 C 
BRANCH  19  20
ATOM     20  C   UNL     1       8.369   6.986   9.338  1.00  0.00     0.006 C 
BRANCH  20  21
ATOM     21  C   UNL     1       9.309   8.004   8.679  1.00  0.00     0.053 C 
BRANCH  21  22
ATOM     22  C   UNL     1      10.395   8.400   9.630  1.00  0.00     0.041 C 
ATOM     23  O   UNL     1      10.481   9.589  10.033  1.00  0.00    -0.550 OA
ATOM     24  O   UNL     1      11.348   7.467  10.025  1.00  0.00    -0.550 OA
ENDBRANCH  21  22
ENDBRANCH  20  21
ENDBRANCH  19  20
ENDBRANCH  18  19
ENDBRANCH  17  18
ENDBRANCH  16  17
ENDBRANCH  15  16
ENDBRANCH  14  15
ENDBRANCH  13  14
ENDBRANCH   1  13
TORSDOF 20
ENDMDL
MODEL 9
REMARK VINA RESULT:    -2.632      2.349      7.517
REMARK INTER + INTRA:          -6.660
REMARK INTER:                  -5.544
REMARK INTRA:                  -1.116
REMARK UNBOUND:                -0.951
REMARK SMILES CCCCCCCCCCCCCCCCCCCCCC(=O)[O-]
REMARK SMILES IDX 12 1 11 2 10 3 9 4 8 5 7 6 6 7 5 8 4 9 3 10 2 11 1 12 13 13
REMARK SMILES IDX 14 14 15 15 16 16 17 17 18 18 19 19 20 20 21 21 22 22 23 23
REMARK SMILES IDX 24 24
REMARK H PARENT
REMARK Flexibility Score: inf
ROOT
ATOM      1  C   UNL     1       7.962   5.155   8.557  1.00  0.00     0.000 C 
ENDROOT
BRANCH   1   2
ATOM      2  C   UNL     1       8.882   6.388   8.538  1.00  0.00     0.000 C 
BRANCH   2   3
ATOM      3  C   UNL     1       8.450   7.470   9.545  1.00  0.00     0.000 C 
BRANCH   3   4
ATOM      4  C   UNL     1       8.571   8.922   9.041  1.00  0.00    -0.000 C 
BRANCH   4   5
ATOM      5  C   UNL     1       8.312  10.007  10.106  1.00  0.00    -0.000 C 
BRANCH   5   6
ATOM      6  C   UNL     1       6.898  10.618  10.080  1.00  0.00    -0.000 C 
BRANCH   6   7
ATOM      7  C   UNL     1       6.850  12.159  10.123  1.00  0.00    -0.000 C 
BRANCH   7   8
ATOM      8  C   UNL     1       5.461  12.776   9.882  1.00  0.00    -0.000 C 
BRANCH   8   9
ATOM      9  C   UNL     1       5.298  13.335   8.458  1.00  0.00    -0.000 C 
BRANCH   9  10
ATOM     10  C   UNL     1       4.587  12.353   7.513  1.00  0.00    -0.000 C 
BRANCH  10  11
ATOM     11  C   UNL     1       3.107  12.702   7.299  1.00  0.00    -0.003 C 
ATOM     12  C   UNL     1       2.314  12.557   8.596  1.00  0.00     0.004 C 
ENDBRANCH  10  11
ENDBRANCH   9  10
ENDBRANCH   8   9
ENDBRANCH   7   8
ENDBRANCH   6   7
ENDBRANCH   5   6
ENDBRANCH   4   5
ENDBRANCH   3   4
ENDBRANCH   2   3
ENDBRANCH   1   2
BRANCH   1  13
ATOM     13  C   UNL     1       7.519   4.766   9.978  1.00  0.00     0.000 C 
BRANCH  13  14
ATOM     14  C   UNL     1       6.659   3.490  10.002  1.00  0.00     0.000 C 
BRANCH  14  15
ATOM     15  C   UNL     1       6.277   2.994   8.594  1.00  0.00     0.000 C 
BRANCH  15  16
ATOM     16  C   UNL     1       4.777   3.074   8.257  1.00  0.00     0.000 C 
BRANCH  16  17
ATOM     17  C   UNL     1       3.876   2.958   9.498  1.00  0.00     0.000 C 
BRANCH  17  18
ATOM     18  C   UNL     1       2.515   3.651   9.316  1.00  0.00     0.000 C 
BRANCH  18  19
ATOM     19  C   UNL     1       2.333   4.952  10.124  1.00  0.00     0.000 C 
BRANCH  19  20
ATOM     20  C   UNL     1       1.704   6.122   9.346  1.00  0.00     0.006 C 
BRANCH  20  21
ATOM     21  C   UNL     1       1.748   7.446  10.119  1.00  0.00     0.053 C 
BRANCH  21  22
ATOM     22  C   UNL     1       0.727   8.397   9.579  1.00  0.00     0.041 C 
ATOM     23  O   UNL     1       1.084   9.380   8.878  1.00  0.00    -0.550 OA
ATOM     24  O   UNL     1      -0.617   8.232   9.900  1.00  0.00    -0.550 OA
ENDBRANCH  21  22
ENDBRANCH  20  21
ENDBRANCH  19  20
ENDBRANCH  18  19
ENDBRANCH  17  18
ENDBRANCH  16  17
ENDBRANCH  15  16
ENDBRANCH  14  15
ENDBRANCH  13  14
ENDBRANCH   1  13
TORSDOF 20
ENDMDL
