MODEL 1
REMARK VINA RESULT:    -5.155      0.000      0.000
REMARK INTER + INTRA:          -6.157
REMARK INTER:                  -6.360
REMARK INTRA:                   0.203
REMARK UNBOUND:                 0.203
REMARK SMILES Oc1cc(O)c2cc(O)c(-c3cc(O)c(O)c(O)c3)[o+]c2c1
REMARK SMILES IDX 10 1 20 2 21 3 22 4 2 5 3 6 4 7 6 8 7 9 8 10 11 11 12 12
REMARK SMILES IDX 13 13 19 14 15 15 17 16 14 17 16 19 18 21 9 23 1 25 5 27
REMARK H PARENT 14 18 16 20 18 22 9 24 1 26 5 28
REMARK Flexibility Score: inf
ROOT
ATOM      1  C   UNL     1      20.361  -1.918  19.512  1.00  0.00     0.402 A 
ATOM      2  O   UNL     1      19.281  -1.688  20.253  1.00  0.00    -0.202 OA
ATOM      3  C   UNL     1      18.591  -0.554  20.207  1.00  0.00     0.368 A 
ATOM      4  C   UNL     1      17.467  -0.407  21.024  1.00  0.00     0.162 A 
ATOM      5  C   UNL     1      16.721   0.772  20.992  1.00  0.00     0.128 A 
ATOM      6  C   UNL     1      17.100   1.814  20.137  1.00  0.00     0.093 A 
ATOM      7  C   UNL     1      18.222   1.691  19.308  1.00  0.00     0.136 A 
ATOM      8  C   UNL     1      18.985   0.494  19.340  1.00  0.00     0.125 A 
ATOM      9  C   UNL     1      20.131   0.288  18.554  1.00  0.00     0.078 A 
ATOM     10  C   UNL     1      20.833  -0.917  18.643  1.00  0.00     0.223 A 
ENDROOT
BRANCH   1  11
ATOM     11  C   UNL     1      21.039  -3.227  19.648  1.00  0.00     0.091 A 
ATOM     12  C   UNL     1      21.791  -3.773  18.597  1.00  0.00     0.068 A 
ATOM     13  C   UNL     1      22.406  -5.021  18.734  1.00  0.00     0.162 A 
ATOM     14  C   UNL     1      20.882  -3.967  20.829  1.00  0.00     0.068 A 
ATOM     15  C   UNL     1      22.268  -5.752  19.928  1.00  0.00     0.200 A 
ATOM     16  C   UNL     1      21.491  -5.217  20.984  1.00  0.00     0.162 A 
BRANCH  13  17
ATOM     17  O   UNL     1      23.150  -5.522  17.666  1.00  0.00    -0.504 OA
ATOM     18  H   UNL     1      24.139  -5.329  17.557  1.00  0.00     0.293 HD
ENDBRANCH  13  17
BRANCH  15  19
ATOM     19  O   UNL     1      22.907  -6.991  20.027  1.00  0.00    -0.502 OA
ATOM     20  H   UNL     1      22.956  -7.539  20.874  1.00  0.00     0.293 HD
ENDBRANCH  15  19
BRANCH  16  21
ATOM     21  O   UNL     1      21.296  -5.887  22.194  1.00  0.00    -0.504 OA
ATOM     22  H   UNL     1      20.850  -5.479  23.002  1.00  0.00     0.293 HD
ENDBRANCH  16  21
ENDBRANCH   1  11
BRANCH  10  23
ATOM     23  O   UNL     1      22.000  -1.102  17.901  1.00  0.00    -0.500 OA
ATOM     24  H   UNL     1      22.856  -0.607  18.121  1.00  0.00     0.294 HD
ENDBRANCH  10  23
BRANCH   5  25
ATOM     25  O   UNL     1      15.604   0.899  21.814  1.00  0.00    -0.507 OA
ATOM     26  H   UNL     1      15.695   1.037  22.815  1.00  0.00     0.293 HD
ENDBRANCH   5  25
BRANCH   7  27
ATOM     27  O   UNL     1      18.533   2.774  18.481  1.00  0.00    -0.507 OA
ATOM     28  H   UNL     1      18.406   3.742  18.737  1.00  0.00     0.293 HD
ENDBRANCH   7  27
TORSDOF 7
ENDMDL
MODEL 2
REMARK VINA RESULT:    -5.051      0.571      1.892
REMARK INTER + INTRA:          -6.029
REMARK INTER:                  -6.242
REMARK INTRA:                   0.212
REMARK UNBOUND:                 0.203
REMARK SMILES Oc1cc(O)c2cc(O)c(-c3cc(O)c(O)c(O)c3)[o+]c2c1
REMARK SMILES IDX 10 1 20 2 21 3 22 4 2 5 3 6 4 7 6 8 7 9 8 10 11 11 12 12
REMARK SMILES IDX 13 13 19 14 15 15 17 16 14 17 16 19 18 21 9 23 1 25 5 27
REMARK H PARENT 14 18 16 20 18 22 9 24 1 26 5 28
REMARK Flexibility Score: inf
ROOT
ATOM      1  C   UNL     1      20.674  -2.346  19.419  1.00  0.00     0.402 A 
ATOM      2  O   UNL     1      19.534  -2.144  20.073  1.00  0.00    -0.202 OA
ATOM      3  C   UNL     1      18.867  -0.995  20.038  1.00  0.00     0.368 A 
ATOM      4  C   UNL     1      17.674  -0.880  20.757  1.00  0.00     0.162 A 
ATOM      5  C   UNL     1      16.950   0.313  20.735  1.00  0.00     0.128 A 
ATOM      6  C   UNL     1      17.420   1.400  19.989  1.00  0.00     0.093 A 
ATOM      7  C   UNL     1      18.612   1.310  19.259  1.00  0.00     0.136 A 
ATOM      8  C   UNL     1      19.353   0.098  19.281  1.00  0.00     0.125 A 
ATOM      9  C   UNL     1      20.563  -0.079  18.592  1.00  0.00     0.078 A 
ATOM     10  C   UNL     1      21.239  -1.300  18.665  1.00  0.00     0.223 A 
ENDROOT
BRANCH   1  11
ATOM     11  C   UNL     1      21.320  -3.674  19.530  1.00  0.00     0.091 A 
ATOM     12  C   UNL     1      21.228  -4.436  20.705  1.00  0.00     0.068 A 
ATOM     13  C   UNL     1      21.863  -5.677  20.802  1.00  0.00     0.162 A 
ATOM     14  C   UNL     1      22.088  -4.160  18.463  1.00  0.00     0.068 A 
ATOM     15  C   UNL     1      22.614  -6.175  19.721  1.00  0.00     0.200 A 
ATOM     16  C   UNL     1      22.730  -5.401  18.541  1.00  0.00     0.162 A 
BRANCH  13  17
ATOM     17  O   UNL     1      21.738  -6.403  21.987  1.00  0.00    -0.504 OA
ATOM     18  H   UNL     1      20.925  -6.324  22.586  1.00  0.00     0.293 HD
ENDBRANCH  13  17
BRANCH  15  19
ATOM     19  O   UNL     1      23.225  -7.425  19.856  1.00  0.00    -0.502 OA
ATOM     20  H   UNL     1      22.811  -8.210  20.337  1.00  0.00     0.293 HD
ENDBRANCH  15  19
BRANCH  16  21
ATOM     21  O   UNL     1      23.467  -5.820  17.432  1.00  0.00    -0.504 OA
ATOM     22  H   UNL     1      23.859  -5.195  16.743  1.00  0.00     0.293 HD
ENDBRANCH  16  21
ENDBRANCH   1  11
BRANCH  10  23
ATOM     23  O   UNL     1      22.466  -1.460  18.022  1.00  0.00    -0.500 OA
ATOM     24  H   UNL     1      22.686  -2.297  17.494  1.00  0.00     0.294 HD
ENDBRANCH  10  23
BRANCH   5  25
ATOM     25  O   UNL     1      15.764   0.409  21.459  1.00  0.00    -0.507 OA
ATOM     26  H   UNL     1      15.274  -0.417  21.786  1.00  0.00     0.293 HD
ENDBRANCH   5  25
BRANCH   7  27
ATOM     27  O   UNL     1      19.012   2.437  18.537  1.00  0.00    -0.507 OA
ATOM     28  H   UNL     1      19.121   2.463  17.534  1.00  0.00     0.293 HD
ENDBRANCH   7  27
TORSDOF 7
ENDMDL
MODEL 3
REMARK VINA RESULT:    -4.983     13.568     15.583
REMARK INTER + INTRA:          -5.945
REMARK INTER:                  -5.673
REMARK INTRA:                  -0.273
REMARK UNBOUND:                 0.203
REMARK SMILES Oc1cc(O)c2cc(O)c(-c3cc(O)c(O)c(O)c3)[o+]c2c1
REMARK SMILES IDX 10 1 20 2 21 3 22 4 2 5 3 6 4 7 6 8 7 9 8 10 11 11 12 12
REMARK SMILES IDX 13 13 19 14 15 15 17 16 14 17 16 19 18 21 9 23 1 25 5 27
REMARK H PARENT 14 18 16 20 18 22 9 24 1 26 5 28
REMARK Flexibility Score: inf
ROOT
ATOM      1  C   UNL     1      14.067  -8.437   9.336  1.00  0.00     0.402 A 
ATOM      2  O   UNL     1      13.344  -9.264   8.586  1.00  0.00    -0.202 OA
ATOM      3  C   UNL     1      13.531 -10.579   8.561  1.00  0.00     0.368 A 
ATOM      4  C   UNL     1      12.719 -11.367   7.741  1.00  0.00     0.162 A 
ATOM      5  C   UNL     1      12.890 -12.751   7.699  1.00  0.00     0.128 A 
ATOM      6  C   UNL     1      13.881 -13.355   8.481  1.00  0.00     0.093 A 
ATOM      7  C   UNL     1      14.708 -12.588   9.312  1.00  0.00     0.136 A 
ATOM      8  C   UNL     1      14.539 -11.179   9.355  1.00  0.00     0.125 A 
ATOM      9  C   UNL     1      15.330 -10.330  10.147  1.00  0.00     0.078 A 
ATOM     10  C   UNL     1      15.105  -8.951  10.134  1.00  0.00     0.223 A 
ENDROOT
BRANCH   1  11
ATOM     11  C   UNL     1      13.755  -6.990   9.283  1.00  0.00     0.091 A 
ATOM     12  C   UNL     1      14.634  -6.075   8.683  1.00  0.00     0.068 A 
ATOM     13  C   UNL     1      14.336  -4.710   8.663  1.00  0.00     0.162 A 
ATOM     14  C   UNL     1      12.588  -6.512   9.894  1.00  0.00     0.068 A 
ATOM     15  C   UNL     1      13.152  -4.234   9.255  1.00  0.00     0.200 A 
ATOM     16  C   UNL     1      12.273  -5.149   9.882  1.00  0.00     0.162 A 
BRANCH  13  17
ATOM     17  O   UNL     1      15.235  -3.838   8.049  1.00  0.00    -0.504 OA
ATOM     18  H   UNL     1      15.259  -3.703   7.045  1.00  0.00     0.293 HD
ENDBRANCH  13  17
BRANCH  15  19
ATOM     19  O   UNL     1      12.888  -2.862   9.204  1.00  0.00    -0.502 OA
ATOM     20  H   UNL     1      13.311  -2.179   9.815  1.00  0.00     0.293 HD
ENDBRANCH  15  19
BRANCH  16  21
ATOM     21  O   UNL     1      11.086  -4.753  10.503  1.00  0.00    -0.504 OA
ATOM     22  H   UNL     1      10.420  -5.391  10.912  1.00  0.00     0.293 HD
ENDBRANCH  16  21
ENDBRANCH   1  11
BRANCH  10  23
ATOM     23  O   UNL     1      15.923  -8.103  10.882  1.00  0.00    -0.500 OA
ATOM     24  H   UNL     1      16.661  -8.461  11.475  1.00  0.00     0.294 HD
ENDBRANCH  10  23
BRANCH   5  25
ATOM     25  O   UNL     1      12.070 -13.519   6.875  1.00  0.00    -0.507 OA
ATOM     26  H   UNL     1      12.411 -14.361   6.425  1.00  0.00     0.293 HD
ENDBRANCH   5  25
BRANCH   7  27
ATOM     27  O   UNL     1      15.672 -13.265  10.064  1.00  0.00    -0.507 OA
ATOM     28  H   UNL     1      15.610 -14.238  10.327  1.00  0.00     0.293 HD
ENDBRANCH   7  27
TORSDOF 7
ENDMDL
MODEL 4
REMARK VINA RESULT:    -4.953      1.481      1.519
REMARK INTER + INTRA:          -5.908
REMARK INTER:                  -5.525
REMARK INTRA:                  -0.383
REMARK UNBOUND:                 0.203
REMARK SMILES Oc1cc(O)c2cc(O)c(-c3cc(O)c(O)c(O)c3)[o+]c2c1
REMARK SMILES IDX 10 1 20 2 21 3 22 4 2 5 3 6 4 7 6 8 7 9 8 10 11 11 12 12
REMARK SMILES IDX 13 13 19 14 15 15 17 16 14 17 16 19 18 21 9 23 1 25 5 27
REMARK H PARENT 14 18 16 20 18 22 9 24 1 26 5 28
REMARK Flexibility Score: inf
ROOT
ATOM      1  C   UNL     1      21.237  -1.861  19.265  1.00  0.00     0.402 A 
ATOM      2  O   UNL     1      20.126  -1.934  19.993  1.00  0.00    -0.202 OA
ATOM      3  C   UNL     1      19.187  -0.994  19.987  1.00  0.00     0.368 A 
ATOM      4  C   UNL     1      18.052  -1.162  20.785  1.00  0.00     0.162 A 
ATOM      5  C   UNL     1      17.048  -0.193  20.795  1.00  0.00     0.128 A 
ATOM      6  C   UNL     1      17.177   0.953  20.003  1.00  0.00     0.093 A 
ATOM      7  C   UNL     1      18.304   1.145  19.194  1.00  0.00     0.136 A 
ATOM      8  C   UNL     1      19.329   0.162  19.183  1.00  0.00     0.125 A 
ATOM      9  C   UNL     1      20.499   0.276  18.414  1.00  0.00     0.078 A 
ATOM     10  C   UNL     1      21.467  -0.731  18.458  1.00  0.00     0.223 A 
ENDROOT
BRANCH   1  11
ATOM     11  C   UNL     1      22.206  -2.978  19.351  1.00  0.00     0.091 A 
ATOM     12  C   UNL     1      22.201  -4.023  18.414  1.00  0.00     0.068 A 
ATOM     13  C   UNL     1      23.107  -5.081  18.524  1.00  0.00     0.162 A 
ATOM     14  C   UNL     1      23.109  -3.027  20.422  1.00  0.00     0.068 A 
ATOM     15  C   UNL     1      24.030  -5.118  19.584  1.00  0.00     0.200 A 
ATOM     16  C   UNL     1      24.024  -4.079  20.546  1.00  0.00     0.162 A 
BRANCH  13  17
ATOM     17  O   UNL     1      23.071  -6.095  17.565  1.00  0.00    -0.504 OA
ATOM     18  H   UNL     1      23.158  -7.074  17.809  1.00  0.00     0.293 HD
ENDBRANCH  13  17
BRANCH  15  19
ATOM     19  O   UNL     1      24.925  -6.190  19.651  1.00  0.00    -0.502 OA
ATOM     20  H   UNL     1      24.650  -7.161  19.636  1.00  0.00     0.293 HD
ENDBRANCH  15  19
BRANCH  16  21
ATOM     21  O   UNL     1      24.900  -4.050  21.634  1.00  0.00    -0.504 OA
ATOM     22  H   UNL     1      25.808  -4.491  21.642  1.00  0.00     0.293 HD
ENDBRANCH  16  21
ENDBRANCH   1  11
BRANCH  10  23
ATOM     23  O   UNL     1      22.651  -0.595  17.735  1.00  0.00    -0.500 OA
ATOM     24  H   UNL     1      22.938   0.294  17.343  1.00  0.00     0.294 HD
ENDBRANCH  10  23
BRANCH   5  25
ATOM     25  O   UNL     1      15.924  -0.378  21.597  1.00  0.00    -0.507 OA
ATOM     26  H   UNL     1      15.216   0.342  21.693  1.00  0.00     0.293 HD
ENDBRANCH   5  25
BRANCH   7  27
ATOM     27  O   UNL     1      18.357   2.313  18.429  1.00  0.00    -0.507 OA
ATOM     28  H   UNL     1      19.203   2.701  18.037  1.00  0.00     0.293 HD
ENDBRANCH   7  27
TORSDOF 7
ENDMDL
MODEL 5
REMARK VINA RESULT:    -4.943      1.708      2.922
REMARK INTER + INTRA:          -5.896
REMARK INTER:                  -5.516
REMARK INTRA:                  -0.380
REMARK UNBOUND:                 0.203
REMARK SMILES Oc1cc(O)c2cc(O)c(-c3cc(O)c(O)c(O)c3)[o+]c2c1
REMARK SMILES IDX 10 1 20 2 21 3 22 4 2 5 3 6 4 7 6 8 7 9 8 10 11 11 12 12
REMARK SMILES IDX 13 13 19 14 15 15 17 16 14 17 16 19 18 21 9 23 1 25 5 27
REMARK H PARENT 14 18 16 20 18 22 9 24 1 26 5 28
REMARK Flexibility Score: inf
ROOT
ATOM      1  C   UNL     1      20.742  -2.633  20.009  1.00  0.00     0.402 A 
ATOM      2  O   UNL     1      20.573  -1.473  19.382  1.00  0.00    -0.202 OA
ATOM      3  C   UNL     1      19.508  -0.698  19.555  1.00  0.00     0.368 A 
ATOM      4  C   UNL     1      19.422   0.508  18.852  1.00  0.00     0.162 A 
ATOM      5  C   UNL     1      18.317   1.342  19.018  1.00  0.00     0.128 A 
ATOM      6  C   UNL     1      17.287   0.972  19.891  1.00  0.00     0.093 A 
ATOM      7  C   UNL     1      17.349  -0.230  20.607  1.00  0.00     0.136 A 
ATOM      8  C   UNL     1      18.472  -1.084  20.439  1.00  0.00     0.125 A 
ATOM      9  C   UNL     1      18.613  -2.313  21.104  1.00  0.00     0.078 A 
ATOM     10  C   UNL     1      19.745  -3.101  20.885  1.00  0.00     0.223 A 
ENDROOT
BRANCH   1  11
ATOM     11  C   UNL     1      21.979  -3.403  19.739  1.00  0.00     0.091 A 
ATOM     12  C   UNL     1      22.038  -4.351  18.706  1.00  0.00     0.068 A 
ATOM     13  C   UNL     1      23.206  -5.085  18.480  1.00  0.00     0.162 A 
ATOM     14  C   UNL     1      23.096  -3.225  20.566  1.00  0.00     0.068 A 
ATOM     15  C   UNL     1      24.336  -4.889  19.295  1.00  0.00     0.200 A 
ATOM     16  C   UNL     1      24.274  -3.950  20.353  1.00  0.00     0.162 A 
BRANCH  13  17
ATOM     17  O   UNL     1      23.222  -6.012  17.438  1.00  0.00    -0.504 OA
ATOM     18  H   UNL     1      23.495  -5.761  16.495  1.00  0.00     0.293 HD
ENDBRANCH  13  17
BRANCH  15  19
ATOM     19  O   UNL     1      25.486  -5.637  19.029  1.00  0.00    -0.502 OA
ATOM     20  H   UNL     1      26.207  -5.831  19.708  1.00  0.00     0.293 HD
ENDBRANCH  15  19
BRANCH  16  21
ATOM     21  O   UNL     1      25.348  -3.709  21.212  1.00  0.00    -0.504 OA
ATOM     22  H   UNL     1      25.823  -2.821  21.291  1.00  0.00     0.293 HD
ENDBRANCH  16  21
ENDBRANCH   1  11
BRANCH  10  23
ATOM     23  O   UNL     1      19.862  -4.345  21.507  1.00  0.00    -0.500 OA
ATOM     24  H   UNL     1      19.113  -5.026  21.482  1.00  0.00     0.294 HD
ENDBRANCH  10  23
BRANCH   5  25
ATOM     25  O   UNL     1      18.250   2.540  18.309  1.00  0.00    -0.507 OA
ATOM     26  H   UNL     1      17.594   3.270  18.562  1.00  0.00     0.293 HD
ENDBRANCH   5  25
BRANCH   7  27
ATOM     27  O   UNL     1      16.284  -0.527  21.460  1.00  0.00    -0.507 OA
ATOM     28  H   UNL     1      16.063  -1.453  21.797  1.00  0.00     0.293 HD
ENDBRANCH   7  27
TORSDOF 7
ENDMDL
MODEL 6
REMARK VINA RESULT:    -4.904      1.840      7.458
REMARK INTER + INTRA:          -5.847
REMARK INTER:                  -5.496
REMARK INTRA:                  -0.352
REMARK UNBOUND:                 0.203
REMARK SMILES Oc1cc(O)c2cc(O)c(-c3cc(O)c(O)c(O)c3)[o+]c2c1
REMARK SMILES IDX 10 1 20 2 21 3 22 4 2 5 3 6 4 7 6 8 7 9 8 10 11 11 12 12
REMARK SMILES IDX 13 13 19 14 15 15 17 16 14 17 16 19 18 21 9 23 1 25 5 27
REMARK H PARENT 14 18 16 20 18 22 9 24 1 26 5 28
REMARK Flexibility Score: inf
ROOT
ATOM      1  C   UNL     1      20.115  -3.345  20.732  1.00  0.00     0.402 A 
ATOM      2  O   UNL     1      20.839  -3.594  19.645  1.00  0.00    -0.202 OA
ATOM      3  C   UNL     1      21.715  -4.590  19.564  1.00  0.00     0.368 A 
ATOM      4  C   UNL     1      22.429  -4.774  18.376  1.00  0.00     0.162 A 
ATOM      5  C   UNL     1      23.351  -5.814  18.262  1.00  0.00     0.128 A 
ATOM      6  C   UNL     1      23.564  -6.679  19.341  1.00  0.00     0.093 A 
ATOM      7  C   UNL     1      22.861  -6.517  20.542  1.00  0.00     0.136 A 
ATOM      8  C   UNL     1      21.924  -5.458  20.663  1.00  0.00     0.125 A 
ATOM      9  C   UNL     1      21.185  -5.212  21.832  1.00  0.00     0.078 A 
ATOM     10  C   UNL     1      20.282  -4.146  21.877  1.00  0.00     0.223 A 
ENDROOT
BRANCH   1  11
ATOM     11  C   UNL     1      19.165  -2.209  20.696  1.00  0.00     0.091 A 
ATOM     12  C   UNL     1      19.595  -0.890  20.901  1.00  0.00     0.068 A 
ATOM     13  C   UNL     1      18.682   0.168  20.886  1.00  0.00     0.162 A 
ATOM     14  C   UNL     1      17.797  -2.459  20.511  1.00  0.00     0.068 A 
ATOM     15  C   UNL     1      17.313  -0.080  20.677  1.00  0.00     0.200 A 
ATOM     16  C   UNL     1      16.869  -1.412  20.493  1.00  0.00     0.162 A 
BRANCH  13  17
ATOM     17  O   UNL     1      19.156   1.464  21.087  1.00  0.00    -0.504 OA
ATOM     18  H   UNL     1      18.787   2.260  20.581  1.00  0.00     0.293 HD
ENDBRANCH  13  17
BRANCH  15  19
ATOM     19  O   UNL     1      16.435   1.007  20.661  1.00  0.00    -0.502 OA
ATOM     20  H   UNL     1      16.725   1.972  20.718  1.00  0.00     0.293 HD
ENDBRANCH  15  19
BRANCH  16  21
ATOM     21  O   UNL     1      15.527  -1.740  20.293  1.00  0.00    -0.504 OA
ATOM     22  H   UNL     1      15.055  -1.681  19.402  1.00  0.00     0.293 HD
ENDBRANCH  16  21
ENDBRANCH   1  11
BRANCH  10  23
ATOM     23  O   UNL     1      19.584  -3.870  23.054  1.00  0.00    -0.500 OA
ATOM     24  H   UNL     1      19.124  -4.600  23.584  1.00  0.00     0.294 HD
ENDBRANCH  10  23
BRANCH   5  25
ATOM     25  O   UNL     1      24.053  -5.981  17.070  1.00  0.00    -0.507 OA
ATOM     26  H   UNL     1      23.998  -6.843  16.539  1.00  0.00     0.293 HD
ENDBRANCH   5  25
BRANCH   7  27
ATOM     27  O   UNL     1      23.128  -7.424  21.571  1.00  0.00    -0.507 OA
ATOM     28  H   UNL     1      23.431  -7.162  22.498  1.00  0.00     0.293 HD
ENDBRANCH   7  27
TORSDOF 7
ENDMDL
MODEL 7
REMARK VINA RESULT:    -4.831      1.847      7.041
REMARK INTER + INTRA:          -5.757
REMARK INTER:                  -5.396
REMARK INTRA:                  -0.362
REMARK UNBOUND:                 0.203
REMARK SMILES Oc1cc(O)c2cc(O)c(-c3cc(O)c(O)c(O)c3)[o+]c2c1
REMARK SMILES IDX 10 1 20 2 21 3 22 4 2 5 3 6 4 7 6 8 7 9 8 10 11 11 12 12
REMARK SMILES IDX 13 13 19 14 15 15 17 16 14 17 16 19 18 21 9 23 1 25 5 27
REMARK H PARENT 14 18 16 20 18 22 9 24 1 26 5 28
REMARK Flexibility Score: inf
ROOT
ATOM      1  C   UNL     1      20.570  -2.884  19.837  1.00  0.00     0.402 A 
ATOM      2  O   UNL     1      20.758  -3.974  20.574  1.00  0.00    -0.202 OA
ATOM      3  C   UNL     1      21.560  -4.970  20.212  1.00  0.00     0.368 A 
ATOM      4  C   UNL     1      21.696  -6.076  21.056  1.00  0.00     0.162 A 
ATOM      5  C   UNL     1      22.534  -7.133  20.704  1.00  0.00     0.128 A 
ATOM      6  C   UNL     1      23.244  -7.088  19.498  1.00  0.00     0.093 A 
ATOM      7  C   UNL     1      23.127  -5.992  18.635  1.00  0.00     0.136 A 
ATOM      8  C   UNL     1      22.272  -4.914  18.989  1.00  0.00     0.125 A 
ATOM      9  C   UNL     1      22.082  -3.782  18.181  1.00  0.00     0.078 A 
ATOM     10  C   UNL     1      21.220  -2.762  18.595  1.00  0.00     0.223 A 
ENDROOT
BRANCH   1  11
ATOM     11  C   UNL     1      19.656  -1.838  20.354  1.00  0.00     0.091 A 
ATOM     12  C   UNL     1      20.149  -0.665  20.946  1.00  0.00     0.068 A 
ATOM     13  C   UNL     1      19.273   0.301  21.449  1.00  0.00     0.162 A 
ATOM     14  C   UNL     1      18.271  -2.046  20.304  1.00  0.00     0.068 A 
ATOM     15  C   UNL     1      17.882   0.102  21.377  1.00  0.00     0.200 A 
ATOM     16  C   UNL     1      17.379  -1.090  20.802  1.00  0.00     0.162 A 
BRANCH  13  17
ATOM     17  O   UNL     1      19.807   1.455  22.023  1.00  0.00    -0.504 OA
ATOM     18  H   UNL     1      19.271   2.309  22.120  1.00  0.00     0.293 HD
ENDBRANCH  13  17
BRANCH  15  19
ATOM     19  O   UNL     1      17.041   1.098  21.883  1.00  0.00    -0.502 OA
ATOM     20  H   UNL     1      16.488   1.001  22.723  1.00  0.00     0.293 HD
ENDBRANCH  15  19
BRANCH  16  21
ATOM     21  O   UNL     1      16.014  -1.365  20.706  1.00  0.00    -0.504 OA
ATOM     22  H   UNL     1      15.344  -0.760  20.253  1.00  0.00     0.293 HD
ENDBRANCH  16  21
ENDBRANCH   1  11
BRANCH  10  23
ATOM     23  O   UNL     1      20.992  -1.661  17.770  1.00  0.00    -0.500 OA
ATOM     24  H   UNL     1      21.306  -1.643  16.807  1.00  0.00     0.294 HD
ENDBRANCH  10  23
BRANCH   5  25
ATOM     25  O   UNL     1      22.656  -8.227  21.558  1.00  0.00    -0.507 OA
ATOM     26  H   UNL     1      23.420  -8.299  22.222  1.00  0.00     0.293 HD
ENDBRANCH   5  25
BRANCH   7  27
ATOM     27  O   UNL     1      23.870  -6.020  17.452  1.00  0.00    -0.507 OA
ATOM     28  H   UNL     1      24.746  -6.510  17.341  1.00  0.00     0.293 HD
ENDBRANCH   7  27
TORSDOF 7
ENDMDL
MODEL 8
REMARK VINA RESULT:    -4.826     14.039     14.419
REMARK INTER + INTRA:          -5.751
REMARK INTER:                  -5.652
REMARK INTRA:                  -0.100
REMARK UNBOUND:                 0.203
REMARK SMILES Oc1cc(O)c2cc(O)c(-c3cc(O)c(O)c(O)c3)[o+]c2c1
REMARK SMILES IDX 10 1 20 2 21 3 22 4 2 5 3 6 4 7 6 8 7 9 8 10 11 11 12 12
REMARK SMILES IDX 13 13 19 14 15 15 17 16 14 17 16 19 18 21 9 23 1 25 5 27
REMARK H PARENT 14 18 16 20 18 22 9 24 1 26 5 28
REMARK Flexibility Score: inf
ROOT
ATOM      1  C   UNL     1      11.667  -4.151   8.753  1.00  0.00     0.402 A 
ATOM      2  O   UNL     1      10.390  -4.276   8.405  1.00  0.00    -0.202 OA
ATOM      3  C   UNL     1       9.641  -3.256   7.999  1.00  0.00     0.368 A 
ATOM      4  C   UNL     1       8.307  -3.488   7.651  1.00  0.00     0.162 A 
ATOM      5  C   UNL     1       7.500  -2.437   7.217  1.00  0.00     0.128 A 
ATOM      6  C   UNL     1       8.026  -1.143   7.129  1.00  0.00     0.093 A 
ATOM      7  C   UNL     1       9.359  -0.884   7.470  1.00  0.00     0.136 A 
ATOM      8  C   UNL     1      10.184  -1.951   7.915  1.00  0.00     0.125 A 
ATOM      9  C   UNL     1      11.527  -1.783   8.291  1.00  0.00     0.078 A 
ATOM     10  C   UNL     1      12.275  -2.882   8.723  1.00  0.00     0.223 A 
ENDROOT
BRANCH   1  11
ATOM     11  C   UNL     1      12.399  -5.365   9.181  1.00  0.00     0.091 A 
ATOM     12  C   UNL     1      13.642  -5.704   8.624  1.00  0.00     0.068 A 
ATOM     13  C   UNL     1      14.308  -6.866   9.023  1.00  0.00     0.162 A 
ATOM     14  C   UNL     1      11.816  -6.228  10.120  1.00  0.00     0.068 A 
ATOM     15  C   UNL     1      13.733  -7.719   9.983  1.00  0.00     0.200 A 
ATOM     16  C   UNL     1      12.469  -7.394  10.531  1.00  0.00     0.162 A 
BRANCH  13  17
ATOM     17  O   UNL     1      15.545  -7.159   8.448  1.00  0.00    -0.504 OA
ATOM     18  H   UNL     1      15.685  -7.961   7.845  1.00  0.00     0.293 HD
ENDBRANCH  13  17
BRANCH  15  19
ATOM     19  O   UNL     1      14.438  -8.866  10.360  1.00  0.00    -0.502 OA
ATOM     20  H   UNL     1      14.970  -9.440   9.724  1.00  0.00     0.293 HD
ENDBRANCH  15  19
BRANCH  16  21
ATOM     21  O   UNL     1      11.828  -8.196  11.478  1.00  0.00    -0.504 OA
ATOM     22  H   UNL     1      10.860  -8.095  11.745  1.00  0.00     0.293 HD
ENDBRANCH  16  21
ENDBRANCH   1  11
BRANCH  10  23
ATOM     23  O   UNL     1      13.594  -2.707   9.144  1.00  0.00    -0.500 OA
ATOM     24  H   UNL     1      14.043  -1.800   9.128  1.00  0.00     0.294 HD
ENDBRANCH  10  23
BRANCH   5  25
ATOM     25  O   UNL     1       6.172  -2.688   6.875  1.00  0.00    -0.507 OA
ATOM     26  H   UNL     1       5.419  -2.091   7.200  1.00  0.00     0.293 HD
ENDBRANCH   5  25
BRANCH   7  27
ATOM     27  O   UNL     1       9.811   0.433   7.352  1.00  0.00    -0.507 OA
ATOM     28  H   UNL     1       9.840   0.950   6.486  1.00  0.00     0.293 HD
ENDBRANCH   7  27
TORSDOF 7
ENDMDL
MODEL 9
REMARK VINA RESULT:    -4.782      1.819      7.068
REMARK INTER + INTRA:          -5.698
REMARK INTER:                  -5.375
REMARK INTRA:                  -0.322
REMARK UNBOUND:                 0.203
REMARK SMILES Oc1cc(O)c2cc(O)c(-c3cc(O)c(O)c(O)c3)[o+]c2c1
REMARK SMILES IDX 10 1 20 2 21 3 22 4 2 5 3 6 4 7 6 8 7 9 8 10 11 11 12 12
REMARK SMILES IDX 13 13 19 14 15 15 17 16 14 17 16 19 18 21 9 23 1 25 5 27
REMARK H PARENT 14 18 16 20 18 22 9 24 1 26 5 28
REMARK Flexibility Score: inf
ROOT
ATOM      1  C   UNL     1      20.528  -2.882  19.834  1.00  0.00     0.402 A 
ATOM      2  O   UNL     1      20.762  -3.974  20.555  1.00  0.00    -0.202 OA
ATOM      3  C   UNL     1      21.581  -4.945  20.164  1.00  0.00     0.368 A 
ATOM      4  C   UNL     1      21.765  -6.055  20.994  1.00  0.00     0.162 A 
ATOM      5  C   UNL     1      22.622  -7.086  20.611  1.00  0.00     0.128 A 
ATOM      6  C   UNL     1      23.303  -7.011  19.390  1.00  0.00     0.093 A 
ATOM      7  C   UNL     1      23.137  -5.909  18.542  1.00  0.00     0.136 A 
ATOM      8  C   UNL     1      22.263  -4.858  18.927  1.00  0.00     0.125 A 
ATOM      9  C   UNL     1      22.025  -3.723  18.135  1.00  0.00     0.078 A 
ATOM     10  C   UNL     1      21.147  -2.731  18.579  1.00  0.00     0.223 A 
ENDROOT
BRANCH   1  11
ATOM     11  C   UNL     1      19.600  -1.866  20.382  1.00  0.00     0.091 A 
ATOM     12  C   UNL     1      18.210  -2.060  20.364  1.00  0.00     0.068 A 
ATOM     13  C   UNL     1      17.347  -1.081  20.864  1.00  0.00     0.162 A 
ATOM     14  C   UNL     1      20.112  -0.659  20.878  1.00  0.00     0.068 A 
ATOM     15  C   UNL     1      17.863   0.120  21.383  1.00  0.00     0.200 A 
ATOM     16  C   UNL     1      19.263   0.332  21.383  1.00  0.00     0.162 A 
BRANCH  13  17
ATOM     17  O   UNL     1      15.973  -1.321  20.832  1.00  0.00    -0.504 OA
ATOM     18  H   UNL     1      15.303  -0.597  20.601  1.00  0.00     0.293 HD
ENDBRANCH  13  17
BRANCH  15  19
ATOM     19  O   UNL     1      16.965   1.069  21.882  1.00  0.00    -0.502 OA
ATOM     20  H   UNL     1      15.991   0.885  22.069  1.00  0.00     0.293 HD
ENDBRANCH  15  19
BRANCH  16  21
ATOM     21  O   UNL     1      19.850   1.502  21.870  1.00  0.00    -0.504 OA
ATOM     22  H   UNL     1      20.370   1.559  22.733  1.00  0.00     0.293 HD
ENDBRANCH  16  21
ENDBRANCH   1  11
BRANCH  10  23
ATOM     23  O   UNL     1      20.871  -1.628  17.771  1.00  0.00    -0.500 OA
ATOM     24  H   UNL     1      20.095  -1.624  17.120  1.00  0.00     0.294 HD
ENDBRANCH  10  23
BRANCH   5  25
ATOM     25  O   UNL     1      22.792  -8.185  21.451  1.00  0.00    -0.507 OA
ATOM     26  H   UNL     1      23.491  -8.895  21.261  1.00  0.00     0.293 HD
ENDBRANCH   5  25
BRANCH   7  27
ATOM     27  O   UNL     1      23.854  -5.906  17.342  1.00  0.00    -0.507 OA
ATOM     28  H   UNL     1      24.439  -6.665  17.025  1.00  0.00     0.293 HD
ENDBRANCH   7  27
TORSDOF 7
ENDMDL
