MODEL 1
REMARK VINA RESULT:    -4.649      0.000      0.000
REMARK INTER + INTRA:         -13.150
REMARK INTER:                 -10.628
REMARK INTRA:                  -2.522
REMARK UNBOUND:                -2.522
REMARK SMILES CCCCCCCCCCCCCCCCCCCCCCCC(=O)[O-]
REMARK SMILES IDX 13 1 14 2 15 3 16 4 17 5 18 6 19 7 20 8 21 9 22 10 23 11
REMARK SMILES IDX 24 12 25 13 26 14 12 15 11 16 10 17 9 18 8 19 7 20 6 21 5 22
REMARK SMILES IDX 4 23 3 24 2 25 1 26
REMARK H PARENT
REMARK Flexibility Score: inf
ROOT
ATOM      1  C   UNL     1       3.753  43.317   9.127  1.00  0.00     0.000 C 
ENDROOT
BRANCH   1   2
ATOM      2  C   UNL     1       4.143  42.758  10.511  1.00  0.00     0.000 C 
BRANCH   2   3
ATOM      3  C   UNL     1       4.228  43.830  11.611  1.00  0.00     0.000 C 
BRANCH   3   4
ATOM      4  C   UNL     1       2.934  43.955  12.429  1.00  0.00     0.000 C 
BRANCH   4   5
ATOM      5  C   UNL     1       1.962  42.785  12.195  1.00  0.00     0.000 C 
BRANCH   5   6
ATOM      6  C   UNL     1       0.474  43.178  12.314  1.00  0.00     0.000 C 
BRANCH   6   7
ATOM      7  C   UNL     1      -0.318  42.213  13.214  1.00  0.00     0.000 C 
BRANCH   7   8
ATOM      8  C   UNL     1       0.594  41.240  13.978  1.00  0.00     0.000 C 
BRANCH   8   9
ATOM      9  C   UNL     1       0.120  39.783  13.866  1.00  0.00     0.000 C 
BRANCH   9  10
ATOM     10  C   UNL     1       1.208  38.900  13.244  1.00  0.00     0.006 C 
BRANCH  10  11
ATOM     11  C   UNL     1       2.458  39.720  12.910  1.00  0.00     0.053 C 
BRANCH  11  12
ATOM     12  C   UNL     1       3.634  38.827  12.671  1.00  0.00     0.041 C 
ATOM     13  O   UNL     1       3.532  37.842  11.891  1.00  0.00    -0.550 OA
ATOM     14  O   UNL     1       4.839  39.069  13.321  1.00  0.00    -0.550 OA
ENDBRANCH  11  12
ENDBRANCH  10  11
ENDBRANCH   9  10
ENDBRANCH   8   9
ENDBRANCH   7   8
ENDBRANCH   6   7
ENDBRANCH   5   6
ENDBRANCH   4   5
ENDBRANCH   3   4
ENDBRANCH   2   3
ENDBRANCH   1   2
BRANCH   1  15
ATOM     15  C   UNL     1       2.291  43.008   8.755  1.00  0.00     0.000 C 
BRANCH  15  16
ATOM     16  C   UNL     1       1.362  44.216   9.009  1.00  0.00     0.000 C 
BRANCH  16  17
ATOM     17  C   UNL     1       0.441  44.546   7.821  1.00  0.00     0.000 C 
BRANCH  17  18
ATOM     18  C   UNL     1       0.088  46.040   7.737  1.00  0.00    -0.000 C 
BRANCH  18  19
ATOM     19  C   UNL     1       0.267  46.764   9.082  1.00  0.00    -0.000 C 
BRANCH  19  20
ATOM     20  C   UNL     1       1.185  47.991   8.971  1.00  0.00    -0.000 C 
BRANCH  20  21
ATOM     21  C   UNL     1       2.101  47.881   7.742  1.00  0.00    -0.000 C 
BRANCH  21  22
ATOM     22  C   UNL     1       3.579  47.650   8.112  1.00  0.00    -0.000 C 
BRANCH  22  23
ATOM     23  C   UNL     1       3.812  46.717   9.315  1.00  0.00    -0.000 C 
BRANCH  23  24
ATOM     24  C   UNL     1       5.191  46.853   9.989  1.00  0.00    -0.000 C 
BRANCH  24  25
ATOM     25  C   UNL     1       6.068  47.972   9.389  1.00  0.00    -0.003 C 
ATOM     26  C   UNL     1       7.539  47.573   9.281  1.00  0.00     0.004 C 
ENDBRANCH  24  25
ENDBRANCH  23  24
ENDBRANCH  22  23
ENDBRANCH  21  22
ENDBRANCH  20  21
ENDBRANCH  19  20
ENDBRANCH  18  19
ENDBRANCH  17  18
ENDBRANCH  16  17
ENDBRANCH  15  16
ENDBRANCH   1  15
TORSDOF 22
ENDMDL
MODEL 2
REMARK VINA RESULT:    -4.633      2.966      7.624
REMARK INTER + INTRA:         -13.114
REMARK INTER:                  -9.769
REMARK INTRA:                  -3.345
REMARK UNBOUND:                -2.522
REMARK SMILES CCCCCCCCCCCCCCCCCCCCCCCC(=O)[O-]
REMARK SMILES IDX 13 1 14 2 15 3 16 4 17 5 18 6 19 7 20 8 21 9 22 10 23 11
REMARK SMILES IDX 24 12 25 13 26 14 12 15 11 16 10 17 9 18 8 19 7 20 6 21 5 22
REMARK SMILES IDX 4 23 3 24 2 25 1 26
REMARK H PARENT
REMARK Flexibility Score: inf
ROOT
ATOM      1  C   UNL     1       1.021  44.296   8.578  1.00  0.00     0.000 C 
ENDROOT
BRANCH   1   2
ATOM      2  C   UNL     1       0.349  44.381   7.191  1.00  0.00     0.000 C 
BRANCH   2   3
ATOM      3  C   UNL     1      -0.596  45.584   7.032  1.00  0.00     0.000 C 
BRANCH   3   4
ATOM      4  C   UNL     1      -1.010  46.203   8.374  1.00  0.00     0.000 C 
BRANCH   4   5
ATOM      5  C   UNL     1      -0.666  47.700   8.476  1.00  0.00     0.000 C 
BRANCH   5   6
ATOM      6  C   UNL     1       0.724  47.980   9.086  1.00  0.00     0.000 C 
BRANCH   6   7
ATOM      7  C   UNL     1       1.818  48.124   8.012  1.00  0.00     0.000 C 
BRANCH   7   8
ATOM      8  C   UNL     1       3.047  47.249   8.305  1.00  0.00     0.000 C 
BRANCH   8   9
ATOM      9  C   UNL     1       3.199  46.935   9.801  1.00  0.00     0.000 C 
BRANCH   9  10
ATOM     10  C   UNL     1       4.659  46.613  10.147  1.00  0.00     0.006 C 
BRANCH  10  11
ATOM     11  C   UNL     1       5.591  46.976   8.987  1.00  0.00     0.053 C 
BRANCH  11  12
ATOM     12  C   UNL     1       6.704  47.861   9.454  1.00  0.00     0.041 C 
ATOM     13  O   UNL     1       6.489  49.083   9.679  1.00  0.00    -0.550 OA
ATOM     14  O   UNL     1       7.983  47.344   9.625  1.00  0.00    -0.550 OA
ENDBRANCH  11  12
ENDBRANCH  10  11
ENDBRANCH   9  10
ENDBRANCH   8   9
ENDBRANCH   7   8
ENDBRANCH   6   7
ENDBRANCH   5   6
ENDBRANCH   4   5
ENDBRANCH   3   4
ENDBRANCH   2   3
ENDBRANCH   1   2
BRANCH   1  15
ATOM     15  C   UNL     1       1.867  43.022   8.749  1.00  0.00     0.000 C 
BRANCH  15  16
ATOM     16  C   UNL     1       3.283  43.334   9.281  1.00  0.00     0.000 C 
BRANCH  16  17
ATOM     17  C   UNL     1       3.631  42.589  10.582  1.00  0.00     0.000 C 
BRANCH  17  18
ATOM     18  C   UNL     1       3.485  43.471  11.833  1.00  0.00    -0.000 C 
BRANCH  18  19
ATOM     19  C   UNL     1       2.021  43.842  12.123  1.00  0.00    -0.000 C 
BRANCH  19  20
ATOM     20  C   UNL     1       1.119  42.607  12.273  1.00  0.00    -0.000 C 
BRANCH  20  21
ATOM     21  C   UNL     1       1.587  41.727  13.442  1.00  0.00    -0.000 C 
BRANCH  21  22
ATOM     22  C   UNL     1       0.832  40.386  13.524  1.00  0.00    -0.000 C 
BRANCH  22  23
ATOM     23  C   UNL     1       1.678  39.141  13.196  1.00  0.00    -0.000 C 
BRANCH  23  24
ATOM     24  C   UNL     1       2.892  39.399  12.282  1.00  0.00    -0.000 C 
BRANCH  24  25
ATOM     25  C   UNL     1       4.229  38.906  12.872  1.00  0.00    -0.003 C 
ATOM     26  C   UNL     1       5.152  40.053  13.280  1.00  0.00     0.004 C 
ENDBRANCH  24  25
ENDBRANCH  23  24
ENDBRANCH  22  23
ENDBRANCH  21  22
ENDBRANCH  20  21
ENDBRANCH  19  20
ENDBRANCH  18  19
ENDBRANCH  17  18
ENDBRANCH  16  17
ENDBRANCH  15  16
ENDBRANCH   1  15
TORSDOF 22
ENDMDL
MODEL 3
REMARK VINA RESULT:    -4.551      1.218      2.504
REMARK INTER + INTRA:         -12.927
REMARK INTER:                 -10.086
REMARK INTRA:                  -2.841
REMARK UNBOUND:                -2.522
REMARK SMILES CCCCCCCCCCCCCCCCCCCCCCCC(=O)[O-]
REMARK SMILES IDX 13 1 14 2 15 3 16 4 17 5 18 6 19 7 20 8 21 9 22 10 23 11
REMARK SMILES IDX 24 12 25 13 26 14 12 15 11 16 10 17 9 18 8 19 7 20 6 21 5 22
REMARK SMILES IDX 4 23 3 24 2 25 1 26
REMARK H PARENT
REMARK Flexibility Score: inf
ROOT
ATOM      1  C   UNL     1       1.555  43.816   9.057  1.00  0.00     0.000 C 
ENDROOT
BRANCH   1   2
ATOM      2  C   UNL     1       2.757  42.909   8.717  1.00  0.00     0.000 C 
BRANCH   2   3
ATOM      3  C   UNL     1       4.102  43.440   9.242  1.00  0.00     0.000 C 
BRANCH   3   4
ATOM      4  C   UNL     1       4.106  44.960   9.455  1.00  0.00     0.000 C 
BRANCH   4   5
ATOM      5  C   UNL     1       4.237  45.359  10.936  1.00  0.00     0.000 C 
BRANCH   5   6
ATOM      6  C   UNL     1       4.555  44.175  11.874  1.00  0.00     0.000 C 
BRANCH   6   7
ATOM      7  C   UNL     1       3.423  43.903  12.880  1.00  0.00     0.000 C 
BRANCH   7   8
ATOM      8  C   UNL     1       2.075  43.640  12.191  1.00  0.00     0.000 C 
BRANCH   8   9
ATOM      9  C   UNL     1       1.570  42.208  12.419  1.00  0.00     0.000 C 
BRANCH   9  10
ATOM     10  C   UNL     1       2.660  41.183  12.082  1.00  0.00     0.006 C 
BRANCH  10  11
ATOM     11  C   UNL     1       2.456  39.884  12.868  1.00  0.00     0.053 C 
BRANCH  11  12
ATOM     12  C   UNL     1       3.596  38.941  12.645  1.00  0.00     0.041 C 
ATOM     13  O   UNL     1       4.709  39.152  13.199  1.00  0.00    -0.550 OA
ATOM     14  O   UNL     1       3.438  37.838  11.814  1.00  0.00    -0.550 OA
ENDBRANCH  11  12
ENDBRANCH  10  11
ENDBRANCH   9  10
ENDBRANCH   8   9
ENDBRANCH   7   8
ENDBRANCH   6   7
ENDBRANCH   5   6
ENDBRANCH   4   5
ENDBRANCH   3   4
ENDBRANCH   2   3
ENDBRANCH   1   2
BRANCH   1  15
ATOM     15  C   UNL     1       0.668  44.106   7.833  1.00  0.00     0.000 C 
BRANCH  15  16
ATOM     16  C   UNL     1      -0.235  45.340   8.053  1.00  0.00     0.000 C 
BRANCH  16  17
ATOM     17  C   UNL     1      -0.336  45.776   9.525  1.00  0.00     0.000 C 
BRANCH  17  18
ATOM     18  C   UNL     1       0.227  47.186   9.770  1.00  0.00    -0.000 C 
BRANCH  18  19
ATOM     19  C   UNL     1      -0.055  48.144   8.601  1.00  0.00    -0.000 C 
BRANCH  19  20
ATOM     20  C   UNL     1       1.231  48.717   7.986  1.00  0.00    -0.000 C 
BRANCH  20  21
ATOM     21  C   UNL     1       2.394  47.724   8.126  1.00  0.00    -0.000 C 
BRANCH  21  22
ATOM     22  C   UNL     1       3.604  48.084   7.241  1.00  0.00    -0.000 C 
BRANCH  22  23
ATOM     23  C   UNL     1       4.678  48.949   7.927  1.00  0.00    -0.000 C 
BRANCH  23  24
ATOM     24  C   UNL     1       5.737  48.163   8.724  1.00  0.00    -0.000 C 
BRANCH  24  25
ATOM     25  C   UNL     1       6.659  49.056   9.581  1.00  0.00    -0.003 C 
ATOM     26  C   UNL     1       6.694  50.505   9.096  1.00  0.00     0.004 C 
ENDBRANCH  24  25
ENDBRANCH  23  24
ENDBRANCH  22  23
ENDBRANCH  21  22
ENDBRANCH  20  21
ENDBRANCH  19  20
ENDBRANCH  18  19
ENDBRANCH  17  18
ENDBRANCH  16  17
ENDBRANCH  15  16
ENDBRANCH   1  15
TORSDOF 22
ENDMDL
MODEL 4
REMARK VINA RESULT:    -4.548      3.109      8.312
REMARK INTER + INTRA:         -12.920
REMARK INTER:                 -10.767
REMARK INTRA:                  -2.153
REMARK UNBOUND:                -2.522
REMARK SMILES CCCCCCCCCCCCCCCCCCCCCCCC(=O)[O-]
REMARK SMILES IDX 13 1 14 2 15 3 16 4 17 5 18 6 19 7 20 8 21 9 22 10 23 11
REMARK SMILES IDX 24 12 25 13 26 14 12 15 11 16 10 17 9 18 8 19 7 20 6 21 5 22
REMARK SMILES IDX 4 23 3 24 2 25 1 26
REMARK H PARENT
REMARK Flexibility Score: inf
ROOT
ATOM      1  C   UNL     1       3.757  43.667   9.449  1.00  0.00     0.000 C 
ENDROOT
BRANCH   1   2
ATOM      2  C   UNL     1       2.444  43.248   8.753  1.00  0.00     0.000 C 
BRANCH   2   3
ATOM      3  C   UNL     1       1.235  44.116   9.138  1.00  0.00     0.000 C 
BRANCH   3   4
ATOM      4  C   UNL     1       0.429  44.596   7.922  1.00  0.00     0.000 C 
BRANCH   4   5
ATOM      5  C   UNL     1       0.111  46.101   7.970  1.00  0.00     0.000 C 
BRANCH   5   6
ATOM      6  C   UNL     1       0.475  46.773   9.311  1.00  0.00     0.000 C 
BRANCH   6   7
ATOM      7  C   UNL     1       1.855  47.454   9.272  1.00  0.00     0.000 C 
BRANCH   7   8
ATOM      8  C   UNL     1       2.290  47.816   7.842  1.00  0.00     0.000 C 
BRANCH   8   9
ATOM      9  C   UNL     1       3.791  48.129   7.749  1.00  0.00     0.000 C 
BRANCH   9  10
ATOM     10  C   UNL     1       4.623  47.014   8.394  1.00  0.00     0.006 C 
BRANCH  10  11
ATOM     11  C   UNL     1       5.359  47.525   9.636  1.00  0.00     0.053 C 
BRANCH  11  12
ATOM     12  C   UNL     1       6.690  48.101   9.268  1.00  0.00     0.041 C 
ATOM     13  O   UNL     1       7.745  47.445   9.485  1.00  0.00    -0.550 OA
ATOM     14  O   UNL     1       6.771  49.368   8.702  1.00  0.00    -0.550 OA
ENDBRANCH  11  12
ENDBRANCH  10  11
ENDBRANCH   9  10
ENDBRANCH   8   9
ENDBRANCH   7   8
ENDBRANCH   6   7
ENDBRANCH   5   6
ENDBRANCH   4   5
ENDBRANCH   3   4
ENDBRANCH   2   3
ENDBRANCH   1   2
BRANCH   1  15
ATOM     15  C   UNL     1       3.515  44.567  10.674  1.00  0.00     0.000 C 
BRANCH  15  16
ATOM     16  C   UNL     1       3.614  43.780  11.999  1.00  0.00     0.000 C 
BRANCH  16  17
ATOM     17  C   UNL     1       2.510  42.722  12.172  1.00  0.00     0.000 C 
BRANCH  17  18
ATOM     18  C   UNL     1       2.920  41.338  11.642  1.00  0.00    -0.000 C 
BRANCH  18  19
ATOM     19  C   UNL     1       4.251  40.850  12.239  1.00  0.00    -0.000 C 
BRANCH  19  20
ATOM     20  C   UNL     1       4.122  39.478  12.920  1.00  0.00    -0.000 C 
BRANCH  20  21
ATOM     21  C   UNL     1       3.040  38.628  12.237  1.00  0.00    -0.000 C 
BRANCH  21  22
ATOM     22  C   UNL     1       1.872  38.271  13.176  1.00  0.00    -0.000 C 
BRANCH  22  23
ATOM     23  C   UNL     1       0.737  39.311  13.227  1.00  0.00    -0.000 C 
BRANCH  23  24
ATOM     24  C   UNL     1       0.821  40.312  14.396  1.00  0.00    -0.000 C 
BRANCH  24  25
ATOM     25  C   UNL     1      -0.511  41.034  14.693  1.00  0.00    -0.003 C 
ATOM     26  C   UNL     1      -0.638  41.457  16.155  1.00  0.00     0.004 C 
ENDBRANCH  24  25
ENDBRANCH  23  24
ENDBRANCH  22  23
ENDBRANCH  21  22
ENDBRANCH  20  21
ENDBRANCH  19  20
ENDBRANCH  18  19
ENDBRANCH  17  18
ENDBRANCH  16  17
ENDBRANCH  15  16
ENDBRANCH   1  15
TORSDOF 22
ENDMDL
MODEL 5
REMARK VINA RESULT:    -4.473      3.521      8.118
REMARK INTER + INTRA:         -12.748
REMARK INTER:                 -10.804
REMARK INTRA:                  -1.944
REMARK UNBOUND:                -2.522
REMARK SMILES CCCCCCCCCCCCCCCCCCCCCCCC(=O)[O-]
REMARK SMILES IDX 13 1 14 2 15 3 16 4 17 5 18 6 19 7 20 8 21 9 22 10 23 11
REMARK SMILES IDX 24 12 25 13 26 14 12 15 11 16 10 17 9 18 8 19 7 20 6 21 5 22
REMARK SMILES IDX 4 23 3 24 2 25 1 26
REMARK H PARENT
REMARK Flexibility Score: inf
ROOT
ATOM      1  C   UNL     1       0.458  44.544   7.502  1.00  0.00     0.000 C 
ENDROOT
BRANCH   1   2
ATOM      2  C   UNL     1      -0.528  45.730   7.563  1.00  0.00     0.000 C 
BRANCH   2   3
ATOM      3  C   UNL     1      -0.705  46.316   8.973  1.00  0.00     0.000 C 
BRANCH   3   4
ATOM      4  C   UNL     1       0.139  47.577   9.211  1.00  0.00     0.000 C 
BRANCH   4   5
ATOM      5  C   UNL     1       0.838  48.080   7.934  1.00  0.00     0.000 C 
BRANCH   5   6
ATOM      6  C   UNL     1       2.372  47.909   7.955  1.00  0.00     0.000 C 
BRANCH   6   7
ATOM      7  C   UNL     1       2.863  47.168   9.211  1.00  0.00     0.000 C 
BRANCH   7   8
ATOM      8  C   UNL     1       4.208  46.458   8.985  1.00  0.00     0.000 C 
BRANCH   8   9
ATOM      9  C   UNL     1       5.295  46.939   9.958  1.00  0.00     0.000 C 
BRANCH   9  10
ATOM     10  C   UNL     1       6.544  47.402   9.198  1.00  0.00     0.006 C 
BRANCH  10  11
ATOM     11  C   UNL     1       6.956  48.814   9.625  1.00  0.00     0.053 C 
BRANCH  11  12
ATOM     12  C   UNL     1       6.252  49.847   8.802  1.00  0.00     0.041 C 
ATOM     13  O   UNL     1       6.507  51.070   8.970  1.00  0.00    -0.550 OA
ATOM     14  O   UNL     1       5.302  49.464   7.863  1.00  0.00    -0.550 OA
ENDBRANCH  11  12
ENDBRANCH  10  11
ENDBRANCH   9  10
ENDBRANCH   8   9
ENDBRANCH   7   8
ENDBRANCH   6   7
ENDBRANCH   5   6
ENDBRANCH   4   5
ENDBRANCH   3   4
ENDBRANCH   2   3
ENDBRANCH   1   2
BRANCH   1  15
ATOM     15  C   UNL     1       1.117  44.252   8.862  1.00  0.00     0.000 C 
BRANCH  15  16
ATOM     16  C   UNL     1       2.130  43.090   8.777  1.00  0.00     0.000 C 
BRANCH  16  17
ATOM     17  C   UNL     1       3.539  43.462   9.272  1.00  0.00     0.000 C 
BRANCH  17  18
ATOM     18  C   UNL     1       3.955  42.684  10.531  1.00  0.00    -0.000 C 
BRANCH  18  19
ATOM     19  C   UNL     1       3.778  43.507  11.818  1.00  0.00    -0.000 C 
BRANCH  19  20
ATOM     20  C   UNL     1       2.301  43.732  12.174  1.00  0.00    -0.000 C 
BRANCH  20  21
ATOM     21  C   UNL     1       1.489  42.442  11.983  1.00  0.00    -0.000 C 
BRANCH  21  22
ATOM     22  C   UNL     1       1.202  41.710  13.308  1.00  0.00    -0.000 C 
BRANCH  22  23
ATOM     23  C   UNL     1       1.744  40.270  13.387  1.00  0.00    -0.000 C 
BRANCH  23  24
ATOM     24  C   UNL     1       2.877  39.944  12.395  1.00  0.00    -0.000 C 
BRANCH  24  25
ATOM     25  C   UNL     1       3.539  38.571  12.637  1.00  0.00    -0.003 C 
ATOM     26  C   UNL     1       2.916  37.460  11.793  1.00  0.00     0.004 C 
ENDBRANCH  24  25
ENDBRANCH  23  24
ENDBRANCH  22  23
ENDBRANCH  21  22
ENDBRANCH  20  21
ENDBRANCH  19  20
ENDBRANCH  18  19
ENDBRANCH  17  18
ENDBRANCH  16  17
ENDBRANCH  15  16
ENDBRANCH   1  15
TORSDOF 22
ENDMDL
MODEL 6
REMARK VINA RESULT:    -4.402      1.453      2.008
REMARK INTER + INTRA:         -12.585
REMARK INTER:                 -10.629
REMARK INTRA:                  -1.956
REMARK UNBOUND:                -2.522
REMARK SMILES CCCCCCCCCCCCCCCCCCCCCCCC(=O)[O-]
REMARK SMILES IDX 13 1 14 2 15 3 16 4 17 5 18 6 19 7 20 8 21 9 22 10 23 11
REMARK SMILES IDX 24 12 25 13 26 14 12 15 11 16 10 17 9 18 8 19 7 20 6 21 5 22
REMARK SMILES IDX 4 23 3 24 2 25 1 26
REMARK H PARENT
REMARK Flexibility Score: inf
ROOT
ATOM      1  C   UNL     1       3.668  43.226   9.491  1.00  0.00     0.000 C 
ENDROOT
BRANCH   1   2
ATOM      2  C   UNL     1       4.066  44.709   9.647  1.00  0.00     0.000 C 
BRANCH   2   3
ATOM      3  C   UNL     1       4.194  45.166  11.109  1.00  0.00     0.000 C 
BRANCH   3   4
ATOM      4  C   UNL     1       3.725  44.104  12.114  1.00  0.00     0.000 C 
BRANCH   4   5
ATOM      5  C   UNL     1       2.195  44.073  12.283  1.00  0.00     0.000 C 
BRANCH   5   6
ATOM      6  C   UNL     1       1.567  42.687  12.027  1.00  0.00     0.000 C 
BRANCH   6   7
ATOM      7  C   UNL     1       2.323  41.558  12.749  1.00  0.00     0.000 C 
BRANCH   7   8
ATOM      8  C   UNL     1       3.324  40.839  11.830  1.00  0.00     0.000 C 
BRANCH   8   9
ATOM      9  C   UNL     1       4.395  40.070  12.618  1.00  0.00     0.000 C 
BRANCH   9  10
ATOM     10  C   UNL     1       4.172  38.556  12.509  1.00  0.00     0.006 C 
BRANCH  10  11
ATOM     11  C   UNL     1       2.678  38.219  12.507  1.00  0.00     0.053 C 
BRANCH  11  12
ATOM     12  C   UNL     1       2.425  36.918  11.811  1.00  0.00     0.041 C 
ATOM     13  O   UNL     1       3.385  36.270  11.313  1.00  0.00    -0.550 OA
ATOM     14  O   UNL     1       1.129  36.428  11.696  1.00  0.00    -0.550 OA
ENDBRANCH  11  12
ENDBRANCH  10  11
ENDBRANCH   9  10
ENDBRANCH   8   9
ENDBRANCH   7   8
ENDBRANCH   6   7
ENDBRANCH   5   6
ENDBRANCH   4   5
ENDBRANCH   3   4
ENDBRANCH   2   3
ENDBRANCH   1   2
BRANCH   1  15
ATOM     15  C   UNL     1       2.534  43.021   8.471  1.00  0.00     0.000 C 
BRANCH  15  16
ATOM     16  C   UNL     1       1.291  43.874   8.807  1.00  0.00     0.000 C 
BRANCH  16  17
ATOM     17  C   UNL     1       0.635  44.520   7.574  1.00  0.00     0.000 C 
BRANCH  17  18
ATOM     18  C   UNL     1       0.003  45.888   7.882  1.00  0.00    -0.000 C 
BRANCH  18  19
ATOM     19  C   UNL     1       0.339  46.386   9.298  1.00  0.00    -0.000 C 
BRANCH  19  20
ATOM     20  C   UNL     1       1.608  47.252   9.331  1.00  0.00    -0.000 C 
BRANCH  20  21
ATOM     21  C   UNL     1       1.726  48.100   8.056  1.00  0.00    -0.000 C 
BRANCH  21  22
ATOM     22  C   UNL     1       3.128  48.037   7.419  1.00  0.00    -0.000 C 
BRANCH  22  23
ATOM     23  C   UNL     1       4.260  47.615   8.375  1.00  0.00    -0.000 C 
BRANCH  23  24
ATOM     24  C   UNL     1       5.500  48.530   8.361  1.00  0.00    -0.000 C 
BRANCH  24  25
ATOM     25  C   UNL     1       6.399  48.377   9.606  1.00  0.00    -0.003 C 
ATOM     26  C   UNL     1       7.594  47.457   9.361  1.00  0.00     0.004 C 
ENDBRANCH  24  25
ENDBRANCH  23  24
ENDBRANCH  22  23
ENDBRANCH  21  22
ENDBRANCH  20  21
ENDBRANCH  19  20
ENDBRANCH  18  19
ENDBRANCH  17  18
ENDBRANCH  16  17
ENDBRANCH  15  16
ENDBRANCH   1  15
TORSDOF 22
ENDMDL
MODEL 7
REMARK VINA RESULT:    -4.357      2.121      3.562
REMARK INTER + INTRA:         -12.482
REMARK INTER:                 -10.577
REMARK INTRA:                  -1.905
REMARK UNBOUND:                -2.522
REMARK SMILES CCCCCCCCCCCCCCCCCCCCCCCC(=O)[O-]
REMARK SMILES IDX 13 1 14 2 15 3 16 4 17 5 18 6 19 7 20 8 21 9 22 10 23 11
REMARK SMILES IDX 24 12 25 13 26 14 12 15 11 16 10 17 9 18 8 19 7 20 6 21 5 22
REMARK SMILES IDX 4 23 3 24 2 25 1 26
REMARK H PARENT
REMARK Flexibility Score: inf
ROOT
ATOM      1  C   UNL     1      -0.426  45.204  11.168  1.00  0.00     0.000 C 
ENDROOT
BRANCH   1   2
ATOM      2  C   UNL     1       0.807  44.284  11.051  1.00  0.00     0.000 C 
BRANCH   2   3
ATOM      3  C   UNL     1       1.336  44.135   9.615  1.00  0.00     0.000 C 
BRANCH   3   4
ATOM      4  C   UNL     1       2.409  43.045   9.480  1.00  0.00     0.000 C 
BRANCH   4   5
ATOM      5  C   UNL     1       3.842  43.607   9.504  1.00  0.00     0.000 C 
BRANCH   5   6
ATOM      6  C   UNL     1       4.280  44.136  10.887  1.00  0.00     0.000 C 
BRANCH   6   7
ATOM      7  C   UNL     1       4.167  43.066  11.987  1.00  0.00     0.000 C 
BRANCH   7   8
ATOM      8  C   UNL     1       3.830  41.676  11.423  1.00  0.00     0.000 C 
BRANCH   8   9
ATOM      9  C   UNL     1       3.186  40.758  12.472  1.00  0.00     0.000 C 
BRANCH   9  10
ATOM     10  C   UNL     1       1.690  41.063  12.622  1.00  0.00     0.006 C 
BRANCH  10  11
ATOM     11  C   UNL     1       1.070  40.233  13.751  1.00  0.00     0.053 C 
BRANCH  11  12
ATOM     12  C   UNL     1       0.034  41.023  14.487  1.00  0.00     0.041 C 
ATOM     13  O   UNL     1      -0.032  40.961  15.745  1.00  0.00    -0.550 OA
ATOM     14  O   UNL     1      -0.870  41.813  13.787  1.00  0.00    -0.550 OA
ENDBRANCH  11  12
ENDBRANCH  10  11
ENDBRANCH   9  10
ENDBRANCH   8   9
ENDBRANCH   7   8
ENDBRANCH   6   7
ENDBRANCH   5   6
ENDBRANCH   4   5
ENDBRANCH   3   4
ENDBRANCH   2   3
ENDBRANCH   1   2
BRANCH   1  15
ATOM     15  C   UNL     1      -0.325  46.445  10.262  1.00  0.00     0.000 C 
BRANCH  15  16
ATOM     16  C   UNL     1      -1.125  46.272   8.952  1.00  0.00     0.000 C 
BRANCH  16  17
ATOM     17  C   UNL     1      -0.569  47.096   7.777  1.00  0.00     0.000 C 
BRANCH  17  18
ATOM     18  C   UNL     1      -0.221  48.541   8.173  1.00  0.00    -0.000 C 
BRANCH  18  19
ATOM     19  C   UNL     1       1.286  48.834   8.067  1.00  0.00    -0.000 C 
BRANCH  19  20
ATOM     20  C   UNL     1       2.112  47.569   7.787  1.00  0.00    -0.000 C 
BRANCH  20  21
ATOM     21  C   UNL     1       3.084  47.284   8.941  1.00  0.00    -0.000 C 
BRANCH  21  22
ATOM     22  C   UNL     1       4.546  47.140   8.476  1.00  0.00    -0.000 C 
BRANCH  22  23
ATOM     23  C   UNL     1       5.598  47.208   9.599  1.00  0.00    -0.000 C 
BRANCH  23  24
ATOM     24  C   UNL     1       6.625  48.349   9.464  1.00  0.00    -0.000 C 
BRANCH  24  25
ATOM     25  C   UNL     1       6.144  49.516   8.577  1.00  0.00    -0.003 C 
ATOM     26  C   UNL     1       6.648  50.873   9.064  1.00  0.00     0.004 C 
ENDBRANCH  24  25
ENDBRANCH  23  24
ENDBRANCH  22  23
ENDBRANCH  21  22
ENDBRANCH  20  21
ENDBRANCH  19  20
ENDBRANCH  18  19
ENDBRANCH  17  18
ENDBRANCH  16  17
ENDBRANCH  15  16
ENDBRANCH   1  15
TORSDOF 22
ENDMDL
MODEL 8
REMARK VINA RESULT:    -4.252      3.156      8.187
REMARK INTER + INTRA:         -12.242
REMARK INTER:                 -10.139
REMARK INTRA:                  -2.103
REMARK UNBOUND:                -2.522
REMARK SMILES CCCCCCCCCCCCCCCCCCCCCCCC(=O)[O-]
REMARK SMILES IDX 13 1 14 2 15 3 16 4 17 5 18 6 19 7 20 8 21 9 22 10 23 11
REMARK SMILES IDX 24 12 25 13 26 14 12 15 11 16 10 17 9 18 8 19 7 20 6 21 5 22
REMARK SMILES IDX 4 23 3 24 2 25 1 26
REMARK H PARENT
REMARK Flexibility Score: inf
ROOT
ATOM      1  C   UNL     1       1.293  44.701  11.195  1.00  0.00     0.000 C 
ENDROOT
BRANCH   1   2
ATOM      2  C   UNL     1      -0.195  45.106  11.265  1.00  0.00     0.000 C 
BRANCH   2   3
ATOM      3  C   UNL     1      -0.597  46.169  10.230  1.00  0.00     0.000 C 
BRANCH   3   4
ATOM      4  C   UNL     1      -0.348  45.723   8.782  1.00  0.00     0.000 C 
BRANCH   4   5
ATOM      5  C   UNL     1       0.074  46.881   7.860  1.00  0.00     0.000 C 
BRANCH   5   6
ATOM      6  C   UNL     1       0.619  48.112   8.616  1.00  0.00     0.000 C 
BRANCH   6   7
ATOM      7  C   UNL     1       1.838  48.738   7.916  1.00  0.00     0.000 C 
BRANCH   7   8
ATOM      8  C   UNL     1       2.993  47.738   7.742  1.00  0.00     0.000 C 
BRANCH   8   9
ATOM      9  C   UNL     1       3.240  46.903   9.007  1.00  0.00     0.000 C 
BRANCH   9  10
ATOM     10  C   UNL     1       4.707  46.462   9.094  1.00  0.00     0.006 C 
BRANCH  10  11
ATOM     11  C   UNL     1       5.504  47.383  10.023  1.00  0.00     0.053 C 
BRANCH  11  12
ATOM     12  C   UNL     1       6.658  48.001   9.300  1.00  0.00     0.041 C 
ATOM     13  O   UNL     1       7.761  47.394   9.234  1.00  0.00    -0.550 OA
ATOM     14  O   UNL     1       6.526  49.254   8.713  1.00  0.00    -0.550 OA
ENDBRANCH  11  12
ENDBRANCH  10  11
ENDBRANCH   9  10
ENDBRANCH   8   9
ENDBRANCH   7   8
ENDBRANCH   6   7
ENDBRANCH   5   6
ENDBRANCH   4   5
ENDBRANCH   3   4
ENDBRANCH   2   3
ENDBRANCH   1   2
BRANCH   1  15
ATOM     15  C   UNL     1       1.487  43.229  10.788  1.00  0.00     0.000 C 
BRANCH  15  16
ATOM     16  C   UNL     1       2.734  43.035   9.898  1.00  0.00     0.000 C 
BRANCH  16  17
ATOM     17  C   UNL     1       4.035  43.550  10.538  1.00  0.00     0.000 C 
BRANCH  17  18
ATOM     18  C   UNL     1       4.419  42.780  11.813  1.00  0.00    -0.000 C 
BRANCH  18  19
ATOM     19  C   UNL     1       4.011  41.298  11.751  1.00  0.00    -0.000 C 
BRANCH  19  20
ATOM     20  C   UNL     1       4.933  40.399  12.588  1.00  0.00    -0.000 C 
BRANCH  20  21
ATOM     21  C   UNL     1       4.137  39.266  13.254  1.00  0.00    -0.000 C 
BRANCH  21  22
ATOM     22  C   UNL     1       2.917  38.821  12.425  1.00  0.00    -0.000 C 
BRANCH  22  23
ATOM     23  C   UNL     1       1.553  39.023  13.113  1.00  0.00    -0.000 C 
BRANCH  23  24
ATOM     24  C   UNL     1       1.225  40.479  13.496  1.00  0.00    -0.000 C 
BRANCH  24  25
ATOM     25  C   UNL     1      -0.016  40.618  14.402  1.00  0.00    -0.003 C 
ATOM     26  C   UNL     1      -1.086  41.528  13.800  1.00  0.00     0.004 C 
ENDBRANCH  24  25
ENDBRANCH  23  24
ENDBRANCH  22  23
ENDBRANCH  21  22
ENDBRANCH  20  21
ENDBRANCH  19  20
ENDBRANCH  18  19
ENDBRANCH  17  18
ENDBRANCH  16  17
ENDBRANCH  15  16
ENDBRANCH   1  15
TORSDOF 22
ENDMDL
MODEL 9
REMARK VINA RESULT:    -4.126      3.083      7.452
REMARK INTER + INTRA:         -11.954
REMARK INTER:                  -8.848
REMARK INTRA:                  -3.106
REMARK UNBOUND:                -2.522
REMARK SMILES CCCCCCCCCCCCCCCCCCCCCCCC(=O)[O-]
REMARK SMILES IDX 13 1 14 2 15 3 16 4 17 5 18 6 19 7 20 8 21 9 22 10 23 11
REMARK SMILES IDX 24 12 25 13 26 14 12 15 11 16 10 17 9 18 8 19 7 20 6 21 5 22
REMARK SMILES IDX 4 23 3 24 2 25 1 26
REMARK H PARENT
REMARK Flexibility Score: inf
ROOT
ATOM      1  C   UNL     1       0.029  42.302  13.197  1.00  0.00     0.000 C 
ENDROOT
BRANCH   1   2
ATOM      2  C   UNL     1       0.529  43.330  12.160  1.00  0.00     0.000 C 
BRANCH   2   3
ATOM      3  C   UNL     1      -0.510  44.405  11.803  1.00  0.00     0.000 C 
BRANCH   3   4
ATOM      4  C   UNL     1       0.081  45.565  10.988  1.00  0.00     0.000 C 
BRANCH   4   5
ATOM      5  C   UNL     1      -0.984  46.348  10.199  1.00  0.00     0.000 C 
BRANCH   5   6
ATOM      6  C   UNL     1      -0.532  46.760   8.782  1.00  0.00     0.000 C 
BRANCH   6   7
ATOM      7  C   UNL     1       0.520  47.883   8.804  1.00  0.00     0.000 C 
BRANCH   7   8
ATOM      8  C   UNL     1       1.860  47.446   8.191  1.00  0.00     0.000 C 
BRANCH   8   9
ATOM      9  C   UNL     1       2.891  47.051   9.258  1.00  0.00     0.000 C 
BRANCH   9  10
ATOM     10  C   UNL     1       4.307  47.032   8.669  1.00  0.00     0.006 C 
BRANCH  10  11
ATOM     11  C   UNL     1       5.364  47.143   9.773  1.00  0.00     0.053 C 
BRANCH  11  12
ATOM     12  C   UNL     1       6.546  47.931   9.303  1.00  0.00     0.041 C 
ATOM     13  O   UNL     1       7.693  47.410   9.301  1.00  0.00    -0.550 OA
ATOM     14  O   UNL     1       6.386  49.247   8.885  1.00  0.00    -0.550 OA
ENDBRANCH  11  12
ENDBRANCH  10  11
ENDBRANCH   9  10
ENDBRANCH   8   9
ENDBRANCH   7   8
ENDBRANCH   6   7
ENDBRANCH   5   6
ENDBRANCH   4   5
ENDBRANCH   3   4
ENDBRANCH   2   3
ENDBRANCH   1   2
BRANCH   1  15
ATOM     15  C   UNL     1       1.120  41.295  13.606  1.00  0.00     0.000 C 
BRANCH  15  16
ATOM     16  C   UNL     1       0.604  39.840  13.578  1.00  0.00     0.000 C 
BRANCH  16  17
ATOM     17  C   UNL     1       1.692  38.806  13.236  1.00  0.00     0.000 C 
BRANCH  17  18
ATOM     18  C   UNL     1       2.742  39.348  12.252  1.00  0.00    -0.000 C 
BRANCH  18  19
ATOM     19  C   UNL     1       4.171  39.279  12.817  1.00  0.00    -0.000 C 
BRANCH  19  20
ATOM     20  C   UNL     1       4.861  40.652  12.842  1.00  0.00    -0.000 C 
BRANCH  20  21
ATOM     21  C   UNL     1       4.284  41.574  11.757  1.00  0.00    -0.000 C 
BRANCH  21  22
ATOM     22  C   UNL     1       4.248  43.055  12.183  1.00  0.00    -0.000 C 
BRANCH  22  23
ATOM     23  C   UNL     1       3.843  44.042  11.072  1.00  0.00    -0.000 C 
BRANCH  23  24
ATOM     24  C   UNL     1       3.747  43.432   9.660  1.00  0.00    -0.000 C 
BRANCH  24  25
ATOM     25  C   UNL     1       2.369  42.817   9.341  1.00  0.00    -0.003 C 
ATOM     26  C   UNL     1       1.538  43.687   8.399  1.00  0.00     0.004 C 
ENDBRANCH  24  25
ENDBRANCH  23  24
ENDBRANCH  22  23
ENDBRANCH  21  22
ENDBRANCH  20  21
ENDBRANCH  19  20
ENDBRANCH  18  19
ENDBRANCH  17  18
ENDBRANCH  16  17
ENDBRANCH  15  16
ENDBRANCH   1  15
TORSDOF 22
ENDMDL
