MODEL 1
REMARK VINA RESULT:    -7.306      0.000      0.000
REMARK INTER + INTRA:          -8.876
REMARK INTER:                  -8.587
REMARK INTRA:                  -0.289
REMARK UNBOUND:                -0.289
REMARK SMILES O=c1cc(-c2ccc(O)c(O)c2)oc2cc(O)cc(O)c12
REMARK SMILES IDX 4 1 3 2 2 3 1 4 21 5 19 6 18 7 16 8 15 9 14 10 13 11 5 12
REMARK SMILES IDX 6 13 7 14 8 15 12 16 10 17 9 18 11 20 20 22 17 24
REMARK H PARENT 9 19 11 21 20 23 17 25
REMARK Flexibility Score: inf
ROOT
ATOM      1  C   UNL     1     -10.701  -8.900  38.749  1.00  0.00     0.138 A 
ATOM      2  C   UNL     1      -9.829  -9.234  37.699  1.00  0.00     0.100 A 
ATOM      3  C   UNL     1      -8.767 -10.105  37.939  1.00  0.00     0.197 A 
ATOM      4  O   UNL     1      -7.989 -10.397  36.990  1.00  0.00    -0.289 OA
ATOM      5  C   UNL     1      -8.580 -10.635  39.231  1.00  0.00     0.107 A 
ATOM      6  C   UNL     1      -7.530 -11.524  39.559  1.00  0.00     0.134 A 
ATOM      7  C   UNL     1      -7.410 -12.004  40.873  1.00  0.00     0.093 A 
ATOM      8  C   UNL     1      -8.316 -11.611  41.860  1.00  0.00     0.123 A 
ATOM      9  C   UNL     1      -9.356 -10.732  41.541  1.00  0.00     0.094 A 
ATOM     10  C   UNL     1      -9.494 -10.244  40.239  1.00  0.00     0.146 A 
ATOM     11  O   UNL     1     -10.491  -9.410  39.961  1.00  0.00    -0.456 OA
ENDROOT
BRANCH   1  12
ATOM     12  C   UNL     1     -11.848  -7.977  38.552  1.00  0.00     0.021 A 
ATOM     13  C   UNL     1     -12.394  -7.237  39.618  1.00  0.00     0.016 A 
ATOM     14  C   UNL     1     -13.468  -6.369  39.401  1.00  0.00     0.051 A 
ATOM     15  C   UNL     1     -14.009  -6.221  38.118  1.00  0.00     0.157 A 
ATOM     16  C   UNL     1     -12.389  -7.811  37.264  1.00  0.00     0.062 A 
ATOM     17  C   UNL     1     -13.467  -6.941  37.047  1.00  0.00     0.158 A 
BRANCH  15  18
ATOM     18  O   UNL     1     -15.080  -5.357  37.899  1.00  0.00    -0.504 OA
ATOM     19  H   UNL     1     -15.647  -5.010  38.665  1.00  0.00     0.293 HD
ENDBRANCH  15  18
BRANCH  17  20
ATOM     20  O   UNL     1     -14.005  -6.788  35.771  1.00  0.00    -0.504 OA
ATOM     21  H   UNL     1     -14.696  -7.433  35.405  1.00  0.00     0.293 HD
ENDBRANCH  17  20
ENDBRANCH   1  12
BRANCH   6  22
ATOM     22  O   UNL     1      -6.609 -11.935  38.594  1.00  0.00    -0.507 OA
ATOM     23  H   UNL     1      -6.170 -11.276  37.963  1.00  0.00     0.293 HD
ENDBRANCH   6  22
BRANCH   8  24
ATOM     24  O   UNL     1      -8.174 -12.101  43.157  1.00  0.00    -0.508 OA
ATOM     25  H   UNL     1      -7.711 -11.562  43.879  1.00  0.00     0.293 HD
ENDBRANCH   8  24
TORSDOF 5
ENDMDL
MODEL 2
REMARK VINA RESULT:    -7.159      1.482      3.150
REMARK INTER + INTRA:          -8.703
REMARK INTER:                  -8.394
REMARK INTRA:                  -0.308
REMARK UNBOUND:                -0.289
REMARK SMILES O=c1cc(-c2ccc(O)c(O)c2)oc2cc(O)cc(O)c12
REMARK SMILES IDX 4 1 3 2 2 3 1 4 21 5 19 6 18 7 16 8 15 9 14 10 13 11 5 12
REMARK SMILES IDX 6 13 7 14 8 15 12 16 10 17 9 18 11 20 20 22 17 24
REMARK H PARENT 9 19 11 21 20 23 17 25
REMARK Flexibility Score: inf
ROOT
ATOM      1  C   UNL     1     -10.582  -8.871  38.364  1.00  0.00     0.138 A 
ATOM      2  C   UNL     1     -10.225  -9.596  39.513  1.00  0.00     0.100 A 
ATOM      3  C   UNL     1      -9.105 -10.427  39.480  1.00  0.00     0.197 A 
ATOM      4  O   UNL     1      -8.794 -11.075  40.516  1.00  0.00    -0.289 OA
ATOM      5  C   UNL     1      -8.350 -10.531  38.294  1.00  0.00     0.107 A 
ATOM      6  C   UNL     1      -7.202 -11.348  38.176  1.00  0.00     0.134 A 
ATOM      7  C   UNL     1      -6.508 -11.400  36.958  1.00  0.00     0.093 A 
ATOM      8  C   UNL     1      -6.939 -10.653  35.860  1.00  0.00     0.123 A 
ATOM      9  C   UNL     1      -8.073  -9.842  35.971  1.00  0.00     0.094 A 
ATOM     10  C   UNL     1      -8.778  -9.776  37.176  1.00  0.00     0.146 A 
ATOM     11  O   UNL     1      -9.853  -8.998  37.257  1.00  0.00    -0.456 OA
ENDROOT
BRANCH   1  12
ATOM     12  C   UNL     1     -11.764  -7.971  38.340  1.00  0.00     0.021 A 
ATOM     13  C   UNL     1     -12.233  -7.336  39.506  1.00  0.00     0.016 A 
ATOM     14  C   UNL     1     -13.342  -6.487  39.452  1.00  0.00     0.051 A 
ATOM     15  C   UNL     1     -13.995  -6.252  38.235  1.00  0.00     0.157 A 
ATOM     16  C   UNL     1     -12.417  -7.718  37.120  1.00  0.00     0.062 A 
ATOM     17  C   UNL     1     -13.530  -6.867  37.067  1.00  0.00     0.158 A 
BRANCH  15  18
ATOM     18  O   UNL     1     -15.101  -5.408  38.178  1.00  0.00    -0.504 OA
ATOM     19  H   UNL     1     -16.046  -5.763  38.275  1.00  0.00     0.293 HD
ENDBRANCH  15  18
BRANCH  17  20
ATOM     20  O   UNL     1     -14.178  -6.629  35.857  1.00  0.00    -0.504 OA
ATOM     21  H   UNL     1     -14.531  -7.388  35.285  1.00  0.00     0.293 HD
ENDBRANCH  17  20
ENDBRANCH   1  12
BRANCH   6  22
ATOM     22  O   UNL     1      -6.747 -12.107  39.256  1.00  0.00    -0.507 OA
ATOM     23  H   UNL     1      -5.842 -12.562  39.244  1.00  0.00     0.293 HD
ENDBRANCH   6  22
BRANCH   8  24
ATOM     24  O   UNL     1      -6.231 -10.723  34.661  1.00  0.00    -0.508 OA
ATOM     25  H   UNL     1      -5.968 -11.612  34.253  1.00  0.00     0.293 HD
ENDBRANCH   8  24
TORSDOF 5
ENDMDL
MODEL 3
REMARK VINA RESULT:    -7.117      1.554      2.325
REMARK INTER + INTRA:          -8.654
REMARK INTER:                  -8.344
REMARK INTRA:                  -0.310
REMARK UNBOUND:                -0.289
REMARK SMILES O=c1cc(-c2ccc(O)c(O)c2)oc2cc(O)cc(O)c12
REMARK SMILES IDX 4 1 3 2 2 3 1 4 21 5 19 6 18 7 16 8 15 9 14 10 13 11 5 12
REMARK SMILES IDX 6 13 7 14 8 15 12 16 10 17 9 18 11 20 20 22 17 24
REMARK H PARENT 9 19 11 21 20 23 17 25
REMARK Flexibility Score: inf
ROOT
ATOM      1  C   UNL     1     -11.601  -8.112  38.192  1.00  0.00     0.138 A 
ATOM      2  C   UNL     1     -11.013  -8.219  36.920  1.00  0.00     0.100 A 
ATOM      3  C   UNL     1      -9.891  -9.030  36.749  1.00  0.00     0.197 A 
ATOM      4  O   UNL     1      -9.370  -9.119  35.604  1.00  0.00    -0.289 OA
ATOM      5  C   UNL     1      -9.361  -9.727  37.853  1.00  0.00     0.107 A 
ATOM      6  C   UNL     1      -8.228 -10.570  37.765  1.00  0.00     0.134 A 
ATOM      7  C   UNL     1      -7.759 -11.225  38.914  1.00  0.00     0.093 A 
ATOM      8  C   UNL     1      -8.399 -11.054  40.143  1.00  0.00     0.123 A 
ATOM      9  C   UNL     1      -9.519 -10.221  40.236  1.00  0.00     0.094 A 
ATOM     10  C   UNL     1     -10.003  -9.560  39.103  1.00  0.00     0.146 A 
ATOM     11  O   UNL     1     -11.070  -8.776  39.216  1.00  0.00    -0.456 OA
ENDROOT
BRANCH   1  12
ATOM     12  C   UNL     1     -12.796  -7.263  38.434  1.00  0.00     0.021 A 
ATOM     13  C   UNL     1     -13.703  -6.952  37.403  1.00  0.00     0.016 A 
ATOM     14  C   UNL     1     -14.825  -6.159  37.663  1.00  0.00     0.051 A 
ATOM     15  C   UNL     1     -15.062  -5.671  38.954  1.00  0.00     0.157 A 
ATOM     16  C   UNL     1     -13.051  -6.780  39.730  1.00  0.00     0.062 A 
ATOM     17  C   UNL     1     -14.175  -5.984  39.989  1.00  0.00     0.158 A 
BRANCH  15  18
ATOM     18  O   UNL     1     -16.179  -4.879  39.215  1.00  0.00    -0.504 OA
ATOM     19  H   UNL     1     -16.093  -3.972  39.661  1.00  0.00     0.293 HD
ENDBRANCH  15  18
BRANCH  17  20
ATOM     20  O   UNL     1     -14.416  -5.501  41.274  1.00  0.00    -0.504 OA
ATOM     21  H   UNL     1     -15.340  -5.201  41.564  1.00  0.00     0.293 HD
ENDBRANCH  17  20
ENDBRANCH   1  12
BRANCH   6  22
ATOM     22  O   UNL     1      -7.568 -10.761  36.550  1.00  0.00    -0.507 OA
ATOM     23  H   UNL     1      -8.065 -10.760  35.668  1.00  0.00     0.293 HD
ENDBRANCH   6  22
BRANCH   8  24
ATOM     24  O   UNL     1      -7.912 -11.715  41.269  1.00  0.00    -0.508 OA
ATOM     25  H   UNL     1      -7.857 -12.726  41.306  1.00  0.00     0.293 HD
ENDBRANCH   8  24
TORSDOF 5
ENDMDL
MODEL 4
REMARK VINA RESULT:    -6.960      1.681      7.012
REMARK INTER + INTRA:          -8.469
REMARK INTER:                  -8.155
REMARK INTRA:                  -0.314
REMARK UNBOUND:                -0.289
REMARK SMILES O=c1cc(-c2ccc(O)c(O)c2)oc2cc(O)cc(O)c12
REMARK SMILES IDX 4 1 3 2 2 3 1 4 21 5 19 6 18 7 16 8 15 9 14 10 13 11 5 12
REMARK SMILES IDX 6 13 7 14 8 15 12 16 10 17 9 18 11 20 20 22 17 24
REMARK H PARENT 9 19 11 21 20 23 17 25
REMARK Flexibility Score: inf
ROOT
ATOM      1  C   UNL     1     -10.709  -9.154  39.618  1.00  0.00     0.138 A 
ATOM      2  C   UNL     1     -10.838  -9.378  38.237  1.00  0.00     0.100 A 
ATOM      3  C   UNL     1     -11.737  -8.608  37.498  1.00  0.00     0.197 A 
ATOM      4  O   UNL     1     -11.847  -8.818  36.259  1.00  0.00    -0.289 OA
ATOM      5  C   UNL     1     -12.505  -7.620  38.147  1.00  0.00     0.107 A 
ATOM      6  C   UNL     1     -13.437  -6.797  37.472  1.00  0.00     0.134 A 
ATOM      7  C   UNL     1     -14.166  -5.839  38.192  1.00  0.00     0.093 A 
ATOM      8  C   UNL     1     -13.982  -5.690  39.569  1.00  0.00     0.123 A 
ATOM      9  C   UNL     1     -13.062  -6.502  40.241  1.00  0.00     0.094 A 
ATOM     10  C   UNL     1     -12.325  -7.461  39.541  1.00  0.00     0.146 A 
ATOM     11  O   UNL     1     -11.455  -8.219  40.202  1.00  0.00    -0.456 OA
ENDROOT
BRANCH   1  12
ATOM     12  C   UNL     1      -9.769  -9.943  40.455  1.00  0.00     0.021 A 
ATOM     13  C   UNL     1      -8.703 -10.668  39.888  1.00  0.00     0.016 A 
ATOM     14  C   UNL     1      -7.828 -11.393  40.702  1.00  0.00     0.051 A 
ATOM     15  C   UNL     1      -7.998 -11.401  42.092  1.00  0.00     0.157 A 
ATOM     16  C   UNL     1      -9.923  -9.946  41.853  1.00  0.00     0.062 A 
ATOM     17  C   UNL     1      -9.046 -10.674  42.668  1.00  0.00     0.158 A 
BRANCH  15  18
ATOM     18  O   UNL     1      -7.128 -12.125  42.905  1.00  0.00    -0.504 OA
ATOM     19  H   UNL     1      -6.773 -13.033  42.626  1.00  0.00     0.293 HD
ENDBRANCH  15  18
BRANCH  17  20
ATOM     20  O   UNL     1      -9.210 -10.681  44.052  1.00  0.00    -0.504 OA
ATOM     21  H   UNL     1     -10.121 -10.809  44.479  1.00  0.00     0.293 HD
ENDBRANCH  17  20
ENDBRANCH   1  12
BRANCH   6  22
ATOM     22  O   UNL     1     -13.642  -6.923  36.097  1.00  0.00    -0.507 OA
ATOM     23  H   UNL     1     -14.550  -7.155  35.714  1.00  0.00     0.293 HD
ENDBRANCH   6  22
BRANCH   8  24
ATOM     24  O   UNL     1     -14.720  -4.732  40.261  1.00  0.00    -0.508 OA
ATOM     25  H   UNL     1     -14.604  -3.742  40.080  1.00  0.00     0.293 HD
ENDBRANCH   8  24
TORSDOF 5
ENDMDL
MODEL 5
REMARK VINA RESULT:    -6.898      1.842      7.594
REMARK INTER + INTRA:          -8.397
REMARK INTER:                  -8.104
REMARK INTRA:                  -0.293
REMARK UNBOUND:                -0.289
REMARK SMILES O=c1cc(-c2ccc(O)c(O)c2)oc2cc(O)cc(O)c12
REMARK SMILES IDX 4 1 3 2 2 3 1 4 21 5 19 6 18 7 16 8 15 9 14 10 13 11 5 12
REMARK SMILES IDX 6 13 7 14 8 15 12 16 10 17 9 18 11 20 20 22 17 24
REMARK H PARENT 9 19 11 21 20 23 17 25
REMARK Flexibility Score: inf
ROOT
ATOM      1  C   UNL     1     -11.230  -8.357  40.530  1.00  0.00     0.138 A 
ATOM      2  C   UNL     1     -11.790  -7.412  41.406  1.00  0.00     0.100 A 
ATOM      3  C   UNL     1     -12.732  -6.503  40.925  1.00  0.00     0.197 A 
ATOM      4  O   UNL     1     -13.227  -5.658  41.719  1.00  0.00    -0.289 OA
ATOM      5  C   UNL     1     -13.107  -6.542  39.567  1.00  0.00     0.107 A 
ATOM      6  C   UNL     1     -14.054  -5.658  38.999  1.00  0.00     0.134 A 
ATOM      7  C   UNL     1     -14.369  -5.759  37.636  1.00  0.00     0.093 A 
ATOM      8  C   UNL     1     -13.756  -6.723  36.833  1.00  0.00     0.123 A 
ATOM      9  C   UNL     1     -12.819  -7.600  37.389  1.00  0.00     0.094 A 
ATOM     10  C   UNL     1     -12.492  -7.516  38.745  1.00  0.00     0.146 A 
ATOM     11  O   UNL     1     -11.599  -8.362  39.250  1.00  0.00    -0.456 OA
ENDROOT
BRANCH   1  12
ATOM     12  C   UNL     1     -10.223  -9.349  40.986  1.00  0.00     0.021 A 
ATOM     13  C   UNL     1      -9.436 -10.077  40.073  1.00  0.00     0.016 A 
ATOM     14  C   UNL     1      -8.489 -10.997  40.532  1.00  0.00     0.051 A 
ATOM     15  C   UNL     1      -8.308 -11.200  41.905  1.00  0.00     0.157 A 
ATOM     16  C   UNL     1     -10.024  -9.550  42.364  1.00  0.00     0.062 A 
ATOM     17  C   UNL     1      -9.075 -10.473  42.823  1.00  0.00     0.158 A 
BRANCH  15  18
ATOM     18  O   UNL     1      -7.365 -12.118  42.365  1.00  0.00    -0.504 OA
ATOM     19  H   UNL     1      -6.432 -12.162  41.971  1.00  0.00     0.293 HD
ENDBRANCH  15  18
BRANCH  17  20
ATOM     20  O   UNL     1      -8.889 -10.674  44.189  1.00  0.00    -0.504 OA
ATOM     21  H   UNL     1      -7.976 -10.586  44.620  1.00  0.00     0.293 HD
ENDBRANCH  17  20
ENDBRANCH   1  12
BRANCH   6  22
ATOM     22  O   UNL     1     -14.683  -4.684  39.777  1.00  0.00    -0.507 OA
ATOM     23  H   UNL     1     -14.366  -3.722  39.784  1.00  0.00     0.293 HD
ENDBRANCH   6  22
BRANCH   8  24
ATOM     24  O   UNL     1     -14.086  -6.801  35.481  1.00  0.00    -0.508 OA
ATOM     25  H   UNL     1     -14.026  -5.993  34.874  1.00  0.00     0.293 HD
ENDBRANCH   8  24
TORSDOF 5
ENDMDL
MODEL 6
REMARK VINA RESULT:    -6.865      1.826      3.690
REMARK INTER + INTRA:          -8.358
REMARK INTER:                  -8.072
REMARK INTRA:                  -0.286
REMARK UNBOUND:                -0.289
REMARK SMILES O=c1cc(-c2ccc(O)c(O)c2)oc2cc(O)cc(O)c12
REMARK SMILES IDX 4 1 3 2 2 3 1 4 21 5 19 6 18 7 16 8 15 9 14 10 13 11 5 12
REMARK SMILES IDX 6 13 7 14 8 15 12 16 10 17 9 18 11 20 20 22 17 24
REMARK H PARENT 9 19 11 21 20 23 17 25
REMARK Flexibility Score: inf
ROOT
ATOM      1  C   UNL     1     -10.813  -8.668  38.058  1.00  0.00     0.138 A 
ATOM      2  C   UNL     1     -10.396  -9.432  39.161  1.00  0.00     0.100 A 
ATOM      3  C   UNL     1      -9.255 -10.227  39.052  1.00  0.00     0.197 A 
ATOM      4  O   UNL     1      -8.889 -10.911  40.047  1.00  0.00    -0.289 OA
ATOM      5  C   UNL     1      -8.539 -10.256  37.839  1.00  0.00     0.107 A 
ATOM      6  C   UNL     1      -7.373 -11.033  37.646  1.00  0.00     0.134 A 
ATOM      7  C   UNL     1      -6.720 -11.010  36.404  1.00  0.00     0.093 A 
ATOM      8  C   UNL     1      -7.210 -10.227  35.356  1.00  0.00     0.123 A 
ATOM      9  C   UNL     1      -8.362  -9.457  35.542  1.00  0.00     0.094 A 
ATOM     10  C   UNL     1      -9.027  -9.465  36.771  1.00  0.00     0.146 A 
ATOM     11  O   UNL     1     -10.119  -8.723  36.923  1.00  0.00    -0.456 OA
ENDROOT
BRANCH   1  12
ATOM     12  C   UNL     1     -12.020  -7.803  38.115  1.00  0.00     0.021 A 
ATOM     13  C   UNL     1     -12.802  -7.549  36.973  1.00  0.00     0.016 A 
ATOM     14  C   UNL     1     -13.938  -6.739  37.059  1.00  0.00     0.051 A 
ATOM     15  C   UNL     1     -14.315  -6.177  38.285  1.00  0.00     0.157 A 
ATOM     16  C   UNL     1     -12.414  -7.246  39.345  1.00  0.00     0.062 A 
ATOM     17  C   UNL     1     -13.553  -6.433  39.430  1.00  0.00     0.158 A 
BRANCH  15  18
ATOM     18  O   UNL     1     -15.446  -5.368  38.373  1.00  0.00    -0.504 OA
ATOM     19  H   UNL     1     -15.818  -4.886  37.562  1.00  0.00     0.293 HD
ENDBRANCH  15  18
BRANCH  17  20
ATOM     20  O   UNL     1     -13.932  -5.875  40.650  1.00  0.00    -0.504 OA
ATOM     21  H   UNL     1     -13.299  -5.847  41.441  1.00  0.00     0.293 HD
ENDBRANCH  17  20
ENDBRANCH   1  12
BRANCH   6  22
ATOM     22  O   UNL     1      -6.859 -11.825  38.674  1.00  0.00    -0.507 OA
ATOM     23  H   UNL     1      -7.407 -12.561  39.104  1.00  0.00     0.293 HD
ENDBRANCH   6  22
BRANCH   8  24
ATOM     24  O   UNL     1      -6.543 -10.223  34.132  1.00  0.00    -0.508 OA
ATOM     25  H   UNL     1      -7.040 -10.342  33.258  1.00  0.00     0.293 HD
ENDBRANCH   8  24
TORSDOF 5
ENDMDL
MODEL 7
REMARK VINA RESULT:    -6.778      2.491      3.893
REMARK INTER + INTRA:          -8.255
REMARK INTER:                  -7.947
REMARK INTRA:                  -0.308
REMARK UNBOUND:                -0.289
REMARK SMILES O=c1cc(-c2ccc(O)c(O)c2)oc2cc(O)cc(O)c12
REMARK SMILES IDX 4 1 3 2 2 3 1 4 21 5 19 6 18 7 16 8 15 9 14 10 13 11 5 12
REMARK SMILES IDX 6 13 7 14 8 15 12 16 10 17 9 18 11 20 20 22 17 24
REMARK H PARENT 9 19 11 21 20 23 17 25
REMARK Flexibility Score: inf
ROOT
ATOM      1  C   UNL     1     -10.261  -9.102  40.808  1.00  0.00     0.138 A 
ATOM      2  C   UNL     1      -9.752 -10.406  40.922  1.00  0.00     0.100 A 
ATOM      3  C   UNL     1      -9.047 -10.770  42.070  1.00  0.00     0.197 A 
ATOM      4  O   UNL     1      -8.593 -11.943  42.163  1.00  0.00    -0.289 OA
ATOM      5  C   UNL     1      -8.853  -9.824  43.097  1.00  0.00     0.107 A 
ATOM      6  C   UNL     1      -8.152 -10.111  44.291  1.00  0.00     0.134 A 
ATOM      7  C   UNL     1      -7.997  -9.111  45.263  1.00  0.00     0.093 A 
ATOM      8  C   UNL     1      -8.528  -7.835  45.063  1.00  0.00     0.123 A 
ATOM      9  C   UNL     1      -9.222  -7.546  43.884  1.00  0.00     0.094 A 
ATOM     10  C   UNL     1      -9.387  -8.528  42.903  1.00  0.00     0.146 A 
ATOM     11  O   UNL     1     -10.052  -8.229  41.792  1.00  0.00    -0.456 OA
ENDROOT
BRANCH   1  12
ATOM     12  C   UNL     1     -11.018  -8.659  39.609  1.00  0.00     0.021 A 
ATOM     13  C   UNL     1     -10.830  -9.261  38.350  1.00  0.00     0.016 A 
ATOM     14  C   UNL     1     -11.564  -8.829  37.242  1.00  0.00     0.051 A 
ATOM     15  C   UNL     1     -12.500  -7.796  37.373  1.00  0.00     0.157 A 
ATOM     16  C   UNL     1     -11.971  -7.632  39.734  1.00  0.00     0.062 A 
ATOM     17  C   UNL     1     -12.706  -7.198  38.622  1.00  0.00     0.158 A 
BRANCH  15  18
ATOM     18  O   UNL     1     -13.232  -7.363  36.269  1.00  0.00    -0.504 OA
ATOM     19  H   UNL     1     -13.348  -6.376  36.064  1.00  0.00     0.293 HD
ENDBRANCH  15  18
BRANCH  17  20
ATOM     20  O   UNL     1     -13.642  -6.174  38.750  1.00  0.00    -0.504 OA
ATOM     21  H   UNL     1     -13.490  -5.391  39.376  1.00  0.00     0.293 HD
ENDBRANCH  17  20
ENDBRANCH   1  12
BRANCH   6  22
ATOM     22  O   UNL     1      -7.610 -11.377  44.520  1.00  0.00    -0.507 OA
ATOM     23  H   UNL     1      -8.018 -12.212  44.116  1.00  0.00     0.293 HD
ENDBRANCH   6  22
BRANCH   8  24
ATOM     24  O   UNL     1      -8.359  -6.860  46.045  1.00  0.00    -0.508 OA
ATOM     25  H   UNL     1      -8.951  -6.038  46.081  1.00  0.00     0.293 HD
ENDBRANCH   8  24
TORSDOF 5
ENDMDL
MODEL 8
REMARK VINA RESULT:    -6.718      1.393      6.849
REMARK INTER + INTRA:          -8.185
REMARK INTER:                  -7.899
REMARK INTRA:                  -0.287
REMARK UNBOUND:                -0.289
REMARK SMILES O=c1cc(-c2ccc(O)c(O)c2)oc2cc(O)cc(O)c12
REMARK SMILES IDX 4 1 3 2 2 3 1 4 21 5 19 6 18 7 16 8 15 9 14 10 13 11 5 12
REMARK SMILES IDX 6 13 7 14 8 15 12 16 10 17 9 18 11 20 20 22 17 24
REMARK H PARENT 9 19 11 21 20 23 17 25
REMARK Flexibility Score: inf
ROOT
ATOM      1  C   UNL     1     -11.085  -8.610  38.635  1.00  0.00     0.138 A 
ATOM      2  C   UNL     1     -11.782  -8.472  37.423  1.00  0.00     0.100 A 
ATOM      3  C   UNL     1     -12.869  -7.600  37.352  1.00  0.00     0.197 A 
ATOM      4  O   UNL     1     -13.489  -7.484  36.260  1.00  0.00    -0.289 OA
ATOM      5  C   UNL     1     -13.256  -6.875  38.496  1.00  0.00     0.107 A 
ATOM      6  C   UNL     1     -14.345  -5.972  38.510  1.00  0.00     0.134 A 
ATOM      7  C   UNL     1     -14.669  -5.292  39.693  1.00  0.00     0.093 A 
ATOM      8  C   UNL     1     -13.929  -5.497  40.859  1.00  0.00     0.123 A 
ATOM      9  C   UNL     1     -12.851  -6.389  40.852  1.00  0.00     0.094 A 
ATOM     10  C   UNL     1     -12.511  -7.076  39.683  1.00  0.00     0.146 A 
ATOM     11  O   UNL     1     -11.482  -7.917  39.701  1.00  0.00    -0.456 OA
ENDROOT
BRANCH   1  12
ATOM     12  C   UNL     1      -9.921  -9.523  38.770  1.00  0.00     0.021 A 
ATOM     13  C   UNL     1      -9.598 -10.133  39.997  1.00  0.00     0.016 A 
ATOM     14  C   UNL     1      -8.501 -10.995  40.092  1.00  0.00     0.051 A 
ATOM     15  C   UNL     1      -7.715 -11.266  38.965  1.00  0.00     0.157 A 
ATOM     16  C   UNL     1      -9.134  -9.812  37.641  1.00  0.00     0.062 A 
ATOM     17  C   UNL     1      -8.034 -10.676  37.737  1.00  0.00     0.158 A 
BRANCH  15  18
ATOM     18  O   UNL     1      -6.621 -12.124  39.057  1.00  0.00    -0.504 OA
ATOM     19  H   UNL     1      -6.437 -12.827  38.350  1.00  0.00     0.293 HD
ENDBRANCH  15  18
BRANCH  17  20
ATOM     20  O   UNL     1      -7.253 -10.951  36.616  1.00  0.00    -0.504 OA
ATOM     21  H   UNL     1      -7.457 -11.733  36.005  1.00  0.00     0.293 HD
ENDBRANCH  17  20
ENDBRANCH   1  12
BRANCH   6  22
ATOM     22  O   UNL     1     -15.104  -5.746  37.360  1.00  0.00    -0.507 OA
ATOM     23  H   UNL     1     -15.811  -5.022  37.323  1.00  0.00     0.293 HD
ENDBRANCH   6  22
BRANCH   8  24
ATOM     24  O   UNL     1     -14.272  -4.809  42.021  1.00  0.00    -0.508 OA
ATOM     25  H   UNL     1     -13.846  -5.031  42.913  1.00  0.00     0.293 HD
ENDBRANCH   8  24
TORSDOF 5
ENDMDL
MODEL 9
REMARK VINA RESULT:    -6.693      6.121      9.458
REMARK INTER + INTRA:          -8.155
REMARK INTER:                  -7.870
REMARK INTRA:                  -0.285
REMARK UNBOUND:                -0.289
REMARK SMILES O=c1cc(-c2ccc(O)c(O)c2)oc2cc(O)cc(O)c12
REMARK SMILES IDX 4 1 3 2 2 3 1 4 21 5 19 6 18 7 16 8 15 9 14 10 13 11 5 12
REMARK SMILES IDX 6 13 7 14 8 15 12 16 10 17 9 18 11 20 20 22 17 24
REMARK H PARENT 9 19 11 21 20 23 17 25
REMARK Flexibility Score: inf
ROOT
ATOM      1  C   UNL     1     -12.920  -8.801  45.055  1.00  0.00     0.138 A 
ATOM      2  C   UNL     1     -13.510  -9.949  45.611  1.00  0.00     0.100 A 
ATOM      3  C   UNL     1     -14.899 -10.075  45.612  1.00  0.00     0.197 A 
ATOM      4  O   UNL     1     -15.419 -11.108  46.116  1.00  0.00    -0.289 OA
ATOM      5  C   UNL     1     -15.692  -9.050  45.058  1.00  0.00     0.107 A 
ATOM      6  C   UNL     1     -17.104  -9.099  45.017  1.00  0.00     0.134 A 
ATOM      7  C   UNL     1     -17.821  -8.033  44.452  1.00  0.00     0.093 A 
ATOM      8  C   UNL     1     -17.154  -6.924  43.929  1.00  0.00     0.123 A 
ATOM      9  C   UNL     1     -15.757  -6.870  43.967  1.00  0.00     0.094 A 
ATOM     10  C   UNL     1     -15.024  -7.921  44.525  1.00  0.00     0.146 A 
ATOM     11  O   UNL     1     -13.697  -7.847  44.547  1.00  0.00    -0.456 OA
ENDROOT
BRANCH   1  12
ATOM     12  C   UNL     1     -11.447  -8.612  45.026  1.00  0.00     0.021 A 
ATOM     13  C   UNL     1     -10.864  -7.333  45.097  1.00  0.00     0.016 A 
ATOM     14  C   UNL     1      -9.474  -7.186  45.078  1.00  0.00     0.051 A 
ATOM     15  C   UNL     1      -8.645  -8.312  44.996  1.00  0.00     0.157 A 
ATOM     16  C   UNL     1     -10.606  -9.738  44.958  1.00  0.00     0.062 A 
ATOM     17  C   UNL     1      -9.212  -9.590  44.939  1.00  0.00     0.158 A 
BRANCH  15  18
ATOM     18  O   UNL     1      -7.259  -8.169  44.976  1.00  0.00    -0.504 OA
ATOM     19  H   UNL     1      -6.725  -8.299  44.124  1.00  0.00     0.293 HD
ENDBRANCH  15  18
BRANCH  17  20
ATOM     20  O   UNL     1      -8.385 -10.709  44.861  1.00  0.00    -0.504 OA
ATOM     21  H   UNL     1      -8.758 -11.633  44.676  1.00  0.00     0.293 HD
ENDBRANCH  17  20
ENDBRANCH   1  12
BRANCH   6  22
ATOM     22  O   UNL     1     -17.800 -10.195  45.532  1.00  0.00    -0.507 OA
ATOM     23  H   UNL     1     -17.438 -10.739  46.306  1.00  0.00     0.293 HD
ENDBRANCH   6  22
BRANCH   8  24
ATOM     24  O   UNL     1     -17.890  -5.878  43.374  1.00  0.00    -0.508 OA
ATOM     25  H   UNL     1     -18.639  -5.428  43.887  1.00  0.00     0.293 HD
ENDBRANCH   8  24
TORSDOF 5
ENDMDL
