MODEL 1
REMARK VINA RESULT:     0.216      0.000      0.000
REMARK INTER + INTRA:           0.606
REMARK INTER:                   0.261
REMARK INTRA:                   0.345
REMARK UNBOUND:                 0.345
REMARK SMILES O=c1c(O)c(-c2ccc(O)c(O)c2)oc2cc(O)cc(O)c12
REMARK SMILES IDX 5 1 3 2 2 3 1 4 22 5 20 6 19 7 17 8 16 9 15 10 14 11 6 12
REMARK SMILES IDX 7 13 8 14 9 15 13 16 11 17 10 18 12 20 4 22 21 24 18 26
REMARK H PARENT 10 19 12 21 4 23 21 25 18 27
REMARK Flexibility Score: inf
ROOT
ATOM      1  C   UNL     1       9.935   2.345   7.945  1.00  0.00     0.180 A 
ATOM      2  C   UNL     1      10.383   3.349   8.825  1.00  0.00     0.208 A 
ATOM      3  C   UNL     1      11.750   3.665   8.854  1.00  0.00     0.238 A 
ATOM      4  O   UNL     1      12.165   4.555   9.647  1.00  0.00    -0.285 OA
ATOM      5  C   UNL     1      12.640   2.990   7.994  1.00  0.00     0.111 A 
ATOM      6  C   UNL     1      14.031   3.251   7.958  1.00  0.00     0.134 A 
ATOM      7  C   UNL     1      14.849   2.542   7.066  1.00  0.00     0.093 A 
ATOM      8  C   UNL     1      14.303   1.579   6.210  1.00  0.00     0.123 A 
ATOM      9  C   UNL     1      12.932   1.317   6.243  1.00  0.00     0.094 A 
ATOM     10  C   UNL     1      12.101   2.012   7.125  1.00  0.00     0.146 A 
ATOM     11  O   UNL     1      10.801   1.740   7.139  1.00  0.00    -0.452 OA
ENDROOT
BRANCH   1  12
ATOM     12  C   UNL     1       8.511   1.943   7.871  1.00  0.00     0.025 A 
ATOM     13  C   UNL     1       7.949   1.461   6.678  1.00  0.00     0.016 A 
ATOM     14  C   UNL     1       6.599   1.112   6.626  1.00  0.00     0.051 A 
ATOM     15  C   UNL     1       5.781   1.247   7.754  1.00  0.00     0.157 A 
ATOM     16  C   UNL     1       7.689   2.100   8.997  1.00  0.00     0.062 A 
ATOM     17  C   UNL     1       6.333   1.752   8.954  1.00  0.00     0.158 A 
BRANCH  15  18
ATOM     18  O   UNL     1       4.441   0.875   7.637  1.00  0.00    -0.504 OA
ATOM     19  H   UNL     1       3.707   1.208   8.245  1.00  0.00     0.293 HD
ENDBRANCH  15  18
BRANCH  17  20
ATOM     20  O   UNL     1       5.580   1.924  10.117  1.00  0.00    -0.504 OA
ATOM     21  H   UNL     1       5.452   2.811  10.581  1.00  0.00     0.293 HD
ENDBRANCH  17  20
ENDBRANCH   1  12
BRANCH   2  22
ATOM     22  O   UNL     1       9.473   4.038   9.632  1.00  0.00    -0.502 OA
ATOM     23  H   UNL     1       8.799   4.691   9.253  1.00  0.00     0.293 HD
ENDBRANCH   2  22
BRANCH   6  24
ATOM     24  O   UNL     1      14.604   4.206   8.799  1.00  0.00    -0.507 OA
ATOM     25  H   UNL     1      14.297   4.327   9.757  1.00  0.00     0.293 HD
ENDBRANCH   6  24
BRANCH   8  26
ATOM     26  O   UNL     1      15.115   0.875   5.324  1.00  0.00    -0.508 OA
ATOM     27  H   UNL     1      15.456  -0.055   5.542  1.00  0.00     0.293 HD
ENDBRANCH   8  26
TORSDOF 6
ENDMDL
