MODEL 1
REMARK VINA RESULT:    -4.148      0.000      0.000
REMARK INTER + INTRA:          -5.170
REMARK INTER:                  -4.876
REMARK INTRA:                  -0.294
REMARK UNBOUND:                -0.294
REMARK SMILES O=c1cc(-c2ccc(O)c(O)c2)oc2cc(O)cc(O)c12
REMARK SMILES IDX 4 1 3 2 2 3 1 4 21 5 19 6 18 7 16 8 15 9 14 10 13 11 5 12
REMARK SMILES IDX 6 13 7 14 8 15 12 16 10 17 9 18 11 20 20 22 17 24
REMARK H PARENT 9 19 11 21 20 23 17 25
REMARK Flexibility Score: inf
ROOT
ATOM      1  C   UNL     1      -5.407  -3.570  -9.569  1.00  0.00     0.138 A 
ATOM      2  C   UNL     1      -4.032  -3.406  -9.348  1.00  0.00     0.100 A 
ATOM      3  C   UNL     1      -3.492  -2.121  -9.289  1.00  0.00     0.197 A 
ATOM      4  O   UNL     1      -2.246  -2.008  -9.152  1.00  0.00    -0.289 OA
ATOM      5  C   UNL     1      -4.337  -0.995  -9.422  1.00  0.00     0.107 A 
ATOM      6  C   UNL     1      -3.903   0.362  -9.338  1.00  0.00     0.134 A 
ATOM      7  C   UNL     1      -4.812   1.394  -9.601  1.00  0.00     0.093 A 
ATOM      8  C   UNL     1      -6.150   1.122  -9.884  1.00  0.00     0.123 A 
ATOM      9  C   UNL     1      -6.598  -0.199  -9.916  1.00  0.00     0.094 A 
ATOM     10  C   UNL     1      -5.708  -1.252  -9.691  1.00  0.00     0.146 A 
ATOM     11  O   UNL     1      -6.171  -2.497  -9.744  1.00  0.00    -0.456 OA
ENDROOT
BRANCH   1  12
ATOM     12  C   UNL     1      -6.035  -4.914  -9.639  1.00  0.00     0.021 A 
ATOM     13  C   UNL     1      -7.367  -5.088 -10.059  1.00  0.00     0.016 A 
ATOM     14  C   UNL     1      -7.928  -6.367 -10.125  1.00  0.00     0.051 A 
ATOM     15  C   UNL     1      -7.169  -7.491  -9.780  1.00  0.00     0.157 A 
ATOM     16  C   UNL     1      -5.275  -6.051  -9.308  1.00  0.00     0.062 A 
ATOM     17  C   UNL     1      -5.834  -7.331  -9.372  1.00  0.00     0.158 A 
BRANCH  15  18
ATOM     18  O   UNL     1      -7.733  -8.765  -9.846  1.00  0.00    -0.504 OA
ATOM     19  H   UNL     1      -7.243  -9.541 -10.276  1.00  0.00     0.293 HD
ENDBRANCH  15  18
BRANCH  17  20
ATOM     20  O   UNL     1      -5.050  -8.431  -9.026  1.00  0.00    -0.504 OA
ATOM     21  H   UNL     1      -4.777  -8.618  -8.068  1.00  0.00     0.293 HD
ENDBRANCH  17  20
ENDBRANCH   1  12
BRANCH   6  22
ATOM     22  O   UNL     1      -2.609   0.747  -8.979  1.00  0.00    -0.507 OA
ATOM     23  H   UNL     1      -2.357   1.177  -8.101  1.00  0.00     0.293 HD
ENDBRANCH   6  22
BRANCH   8  24
ATOM     24  O   UNL     1      -7.029   2.176 -10.125  1.00  0.00    -0.508 OA
ATOM     25  H   UNL     1      -6.846   2.865 -10.846  1.00  0.00     0.293 HD
ENDBRANCH   8  24
TORSDOF 5
ENDMDL
