MODEL 1
REMARK VINA RESULT:    -6.427      0.000      0.000
REMARK INTER + INTRA:          -6.614
REMARK INTER:                  -6.614
REMARK INTRA:                   0.000
REMARK UNBOUND:                 0.000
REMARK SMILES CC1(C)CC[C@]2(C)CC[C@]3(C)C(=CC[C@H]4[C@@]5(C)CC[C@H](O)C(C)(C)[C@@H]5CC[C@]43C)[C@@H]2C1
REMARK SMILES IDX 1 1 2 2 4 3 5 4 6 5 8 6 9 7 10 8 12 9 13 10 14 11 15 12
REMARK SMILES IDX 28 13 27 14 26 15 25 16 16 17 18 18 19 19 20 20 22 21 23 22
REMARK SMILES IDX 24 23 17 24 29 25 30 26 31 27 11 28 7 29 3 30 21 31
REMARK H PARENT 21 32
REMARK Flexibility Score: inf
ROOT
ATOM      1  C   UNL     1       3.474 -52.071 -23.970  1.00  0.00     0.011 C 
ATOM      2  C   UNL     1       2.392 -53.160 -23.789  1.00  0.00    -0.035 C 
ATOM      3  C   UNL     1       2.620 -53.848 -22.424  1.00  0.00     0.007 C 
ATOM      4  C   UNL     1       1.473 -54.791 -22.035  1.00  0.00     0.008 C 
ATOM      5  C   UNL     1       0.075 -54.108 -22.009  1.00  0.00    -0.026 C 
ATOM      6  C   UNL     1      -0.988 -55.213 -21.679  1.00  0.00     0.008 C 
ATOM      7  C   UNL     1      -2.242 -55.123 -22.550  1.00  0.00     0.012 C 
ATOM      8  C   UNL     1      -1.916 -55.303 -24.069  1.00  0.00    -0.006 C 
ATOM      9  C   UNL     1      -0.820 -54.298 -24.458  1.00  0.00    -0.064 C 
ATOM     10  C   UNL     1      -0.566 -54.143 -25.776  1.00  0.00    -0.027 C 
ATOM     11  C   UNL     1      -1.302 -54.944 -26.808  1.00  0.00     0.032 C 
ATOM     12  C   UNL     1      -2.833 -54.865 -26.555  1.00  0.00     0.006 C 
ATOM     13  C   UNL     1      -3.229 -55.078 -24.993  1.00  0.00    -0.020 C 
ATOM     14  C   UNL     1      -4.242 -56.254 -24.719  1.00  0.00     0.008 C 
ATOM     15  C   UNL     1      -5.198 -56.569 -25.854  1.00  0.00     0.005 C 
ATOM     16  C   UNL     1      -4.393 -56.870 -27.134  1.00  0.00     0.003 C 
ATOM     17  C   UNL     1      -3.757 -55.547 -27.687  1.00  0.00    -0.025 C 
ATOM     18  C   UNL     1      -2.938 -55.903 -28.972  1.00  0.00     0.010 C 
ATOM     19  C   UNL     1      -3.737 -56.684 -30.021  1.00  0.00     0.033 C 
ATOM     20  C   UNL     1      -4.246 -58.011 -29.437  1.00  0.00     0.120 C 
ATOM     21  C   UNL     1      -5.137 -57.827 -28.165  1.00  0.00    -0.006 C 
ATOM     22  C   UNL     1      -6.566 -57.344 -28.544  1.00  0.00     0.014 C 
ATOM     23  C   UNL     1      -5.291 -59.239 -27.525  1.00  0.00     0.014 C 
ATOM     24  C   UNL     1      -4.827 -54.487 -28.114  1.00  0.00     0.012 C 
ATOM     25  C   UNL     1      -3.963 -53.768 -24.551  1.00  0.00     0.012 C 
ATOM     26  C   UNL     1      -0.210 -53.372 -23.379  1.00  0.00     0.022 C 
ATOM     27  C   UNL     1       0.995 -52.476 -23.814  1.00  0.00     0.015 C 
ATOM     28  C   UNL     1      -1.316 -56.743 -24.250  1.00  0.00     0.017 C 
ATOM     29  C   UNL     1       0.029 -53.071 -20.850  1.00  0.00     0.012 C 
ATOM     30  C   UNL     1       2.561 -54.176 -24.942  1.00  0.00     0.011 C 
ENDROOT
BRANCH  20  31
ATOM     31  O   UNL     1      -4.890 -58.781 -30.427  1.00  0.00    -0.393 OA
ATOM     32  H   UNL     1      -4.403 -59.641 -30.520  1.00  0.00     0.210 HD
ENDBRANCH  20  31
TORSDOF 1
ENDMDL
MODEL 2
REMARK VINA RESULT:    -5.262      5.900      9.365
REMARK INTER + INTRA:          -5.416
REMARK INTER:                  -5.416
REMARK INTRA:                   0.000
REMARK UNBOUND:                 0.000
REMARK SMILES CC1(C)CC[C@]2(C)CC[C@]3(C)C(=CC[C@H]4[C@@]5(C)CC[C@H](O)C(C)(C)[C@@H]5CC[C@]43C)[C@@H]2C1
REMARK SMILES IDX 1 1 2 2 4 3 5 4 6 5 8 6 9 7 10 8 12 9 13 10 14 11 15 12
REMARK SMILES IDX 28 13 27 14 26 15 25 16 16 17 18 18 19 19 20 20 22 21 23 22
REMARK SMILES IDX 24 23 17 24 29 25 30 26 31 27 11 28 7 29 3 30 21 31
REMARK H PARENT 21 32
REMARK Flexibility Score: inf
ROOT
ATOM      1  C   UNL     1      -2.081 -57.587 -34.027  1.00  0.00     0.011 C 
ATOM      2  C   UNL     1      -3.246 -57.874 -33.053  1.00  0.00    -0.035 C 
ATOM      3  C   UNL     1      -4.569 -57.481 -33.750  1.00  0.00     0.007 C 
ATOM      4  C   UNL     1      -5.810 -57.932 -32.968  1.00  0.00     0.008 C 
ATOM      5  C   UNL     1      -5.850 -59.460 -32.673  1.00  0.00    -0.026 C 
ATOM      6  C   UNL     1      -7.125 -59.742 -31.803  1.00  0.00     0.008 C 
ATOM      7  C   UNL     1      -6.861 -60.698 -30.638  1.00  0.00     0.012 C 
ATOM      8  C   UNL     1      -5.798 -60.128 -29.642  1.00  0.00    -0.006 C 
ATOM      9  C   UNL     1      -4.534 -59.753 -30.433  1.00  0.00    -0.064 C 
ATOM     10  C   UNL     1      -3.426 -59.459 -29.718  1.00  0.00    -0.027 C 
ATOM     11  C   UNL     1      -3.444 -59.467 -28.219  1.00  0.00     0.032 C 
ATOM     12  C   UNL     1      -4.068 -60.790 -27.698  1.00  0.00     0.006 C 
ATOM     13  C   UNL     1      -5.431 -61.200 -28.482  1.00  0.00    -0.020 C 
ATOM     14  C   UNL     1      -6.695 -61.395 -27.561  1.00  0.00     0.008 C 
ATOM     15  C   UNL     1      -6.404 -61.843 -26.141  1.00  0.00     0.005 C 
ATOM     16  C   UNL     1      -5.431 -60.846 -25.478  1.00  0.00     0.003 C 
ATOM     17  C   UNL     1      -4.000 -61.006 -26.101  1.00  0.00    -0.025 C 
ATOM     18  C   UNL     1      -3.054 -59.966 -25.412  1.00  0.00     0.010 C 
ATOM     19  C   UNL     1      -3.067 -60.035 -23.882  1.00  0.00     0.033 C 
ATOM     20  C   UNL     1      -4.481 -59.775 -23.339  1.00  0.00     0.120 C 
ATOM     21  C   UNL     1      -5.549 -60.773 -23.893  1.00  0.00    -0.006 C 
ATOM     22  C   UNL     1      -5.441 -62.158 -23.195  1.00  0.00     0.014 C 
ATOM     23  C   UNL     1      -6.942 -60.184 -23.516  1.00  0.00     0.014 C 
ATOM     24  C   UNL     1      -3.377 -62.419 -25.848  1.00  0.00     0.012 C 
ATOM     25  C   UNL     1      -5.153 -62.598 -29.131  1.00  0.00     0.012 C 
ATOM     26  C   UNL     1      -4.513 -59.925 -31.970  1.00  0.00     0.022 C 
ATOM     27  C   UNL     1      -3.250 -59.394 -32.724  1.00  0.00     0.015 C 
ATOM     28  C   UNL     1      -6.386 -58.800 -29.042  1.00  0.00     0.017 C 
ATOM     29  C   UNL     1      -6.027 -60.238 -34.007  1.00  0.00     0.012 C 
ATOM     30  C   UNL     1      -3.021 -57.008 -31.793  1.00  0.00     0.011 C 
ENDROOT
BRANCH  20  31
ATOM     31  O   UNL     1      -4.478 -59.731 -21.930  1.00  0.00    -0.393 OA
ATOM     32  H   UNL     1      -3.666 -60.199 -21.604  1.00  0.00     0.210 HD
ENDBRANCH  20  31
TORSDOF 1
ENDMDL
MODEL 3
REMARK VINA RESULT:    -5.094      3.099      5.775
REMARK INTER + INTRA:          -5.242
REMARK INTER:                  -5.242
REMARK INTRA:                   0.000
REMARK UNBOUND:                 0.000
REMARK SMILES CC1(C)CC[C@]2(C)CC[C@]3(C)C(=CC[C@H]4[C@@]5(C)CC[C@H](O)C(C)(C)[C@@H]5CC[C@]43C)[C@@H]2C1
REMARK SMILES IDX 1 1 2 2 4 3 5 4 6 5 8 6 9 7 10 8 12 9 13 10 14 11 15 12
REMARK SMILES IDX 28 13 27 14 26 15 25 16 16 17 18 18 19 19 20 20 22 21 23 22
REMARK SMILES IDX 24 23 17 24 29 25 30 26 31 27 11 28 7 29 3 30 21 31
REMARK H PARENT 21 32
REMARK Flexibility Score: inf
ROOT
ATOM      1  C   UNL     1      -2.997 -53.541 -24.441  1.00  0.00     0.011 C 
ATOM      2  C   UNL     1      -3.225 -55.028 -24.796  1.00  0.00    -0.035 C 
ATOM      3  C   UNL     1      -3.223 -55.847 -23.485  1.00  0.00     0.007 C 
ATOM      4  C   UNL     1      -3.665 -57.301 -23.691  1.00  0.00     0.008 C 
ATOM      5  C   UNL     1      -5.066 -57.448 -24.353  1.00  0.00    -0.026 C 
ATOM      6  C   UNL     1      -5.331 -58.979 -24.570  1.00  0.00     0.008 C 
ATOM      7  C   UNL     1      -5.930 -59.299 -25.940  1.00  0.00     0.012 C 
ATOM      8  C   UNL     1      -4.980 -58.875 -27.108  1.00  0.00    -0.006 C 
ATOM      9  C   UNL     1      -4.609 -57.395 -26.927  1.00  0.00    -0.064 C 
ATOM     10  C   UNL     1      -3.983 -56.786 -27.959  1.00  0.00    -0.027 C 
ATOM     11  C   UNL     1      -3.638 -57.538 -29.209  1.00  0.00     0.032 C 
ATOM     12  C   UNL     1      -4.881 -58.308 -29.732  1.00  0.00     0.006 C 
ATOM     13  C   UNL     1      -5.675 -59.101 -28.556  1.00  0.00    -0.020 C 
ATOM     14  C   UNL     1      -5.842 -60.650 -28.795  1.00  0.00     0.008 C 
ATOM     15  C   UNL     1      -5.889 -61.084 -30.248  1.00  0.00     0.005 C 
ATOM     16  C   UNL     1      -4.624 -60.584 -30.974  1.00  0.00     0.003 C 
ATOM     17  C   UNL     1      -4.699 -59.028 -31.163  1.00  0.00    -0.025 C 
ATOM     18  C   UNL     1      -3.390 -58.565 -31.886  1.00  0.00     0.010 C 
ATOM     19  C   UNL     1      -3.095 -59.326 -33.183  1.00  0.00     0.033 C 
ATOM     20  C   UNL     1      -2.940 -60.829 -32.906  1.00  0.00     0.120 C 
ATOM     21  C   UNL     1      -4.197 -61.466 -32.227  1.00  0.00    -0.006 C 
ATOM     22  C   UNL     1      -5.342 -61.684 -33.256  1.00  0.00     0.014 C 
ATOM     23  C   UNL     1      -3.762 -62.877 -31.728  1.00  0.00     0.014 C 
ATOM     24  C   UNL     1      -5.896 -58.579 -32.066  1.00  0.00     0.012 C 
ATOM     25  C   UNL     1      -7.125 -58.511 -28.538  1.00  0.00     0.012 C 
ATOM     26  C   UNL     1      -5.135 -56.618 -25.697  1.00  0.00     0.022 C 
ATOM     27  C   UNL     1      -4.605 -55.159 -25.502  1.00  0.00     0.015 C 
ATOM     28  C   UNL     1      -3.657 -59.711 -26.961  1.00  0.00     0.017 C 
ATOM     29  C   UNL     1      -6.156 -56.930 -23.373  1.00  0.00     0.012 C 
ATOM     30  C   UNL     1      -2.061 -55.469 -25.712  1.00  0.00     0.011 C 
ENDROOT
BRANCH  20  31
ATOM     31  O   UNL     1      -2.564 -61.519 -34.076  1.00  0.00    -0.393 OA
ATOM     32  H   UNL     1      -3.292 -61.424 -34.743  1.00  0.00     0.210 HD
ENDBRANCH  20  31
TORSDOF 1
ENDMDL
MODEL 4
REMARK VINA RESULT:    -5.083      2.652      7.602
REMARK INTER + INTRA:          -5.232
REMARK INTER:                  -5.232
REMARK INTRA:                   0.000
REMARK UNBOUND:                 0.000
REMARK SMILES CC1(C)CC[C@]2(C)CC[C@]3(C)C(=CC[C@H]4[C@@]5(C)CC[C@H](O)C(C)(C)[C@@H]5CC[C@]43C)[C@@H]2C1
REMARK SMILES IDX 1 1 2 2 4 3 5 4 6 5 8 6 9 7 10 8 12 9 13 10 14 11 15 12
REMARK SMILES IDX 28 13 27 14 26 15 25 16 16 17 18 18 19 19 20 20 22 21 23 22
REMARK SMILES IDX 24 23 17 24 29 25 30 26 31 27 11 28 7 29 3 30 21 31
REMARK H PARENT 21 32
REMARK Flexibility Score: inf
ROOT
ATOM      1  C   UNL     1      -6.475 -57.249 -28.894  1.00  0.00     0.011 C 
ATOM      2  C   UNL     1      -5.929 -56.312 -27.792  1.00  0.00    -0.035 C 
ATOM      3  C   UNL     1      -7.125 -55.588 -27.133  1.00  0.00     0.007 C 
ATOM      4  C   UNL     1      -6.726 -54.804 -25.876  1.00  0.00     0.008 C 
ATOM      5  C   UNL     1      -6.021 -55.667 -24.790  1.00  0.00    -0.026 C 
ATOM      6  C   UNL     1      -5.606 -54.711 -23.618  1.00  0.00     0.008 C 
ATOM      7  C   UNL     1      -4.193 -54.975 -23.095  1.00  0.00     0.012 C 
ATOM      8  C   UNL     1      -3.109 -54.767 -24.203  1.00  0.00    -0.006 C 
ATOM      9  C   UNL     1      -3.485 -55.619 -25.425  1.00  0.00    -0.064 C 
ATOM     10  C   UNL     1      -2.553 -55.751 -26.394  1.00  0.00    -0.027 C 
ATOM     11  C   UNL     1      -1.224 -55.063 -26.291  1.00  0.00     0.032 C 
ATOM     12  C   UNL     1      -0.582 -55.344 -24.905  1.00  0.00     0.006 C 
ATOM     13  C   UNL     1      -1.630 -55.173 -23.675  1.00  0.00    -0.020 C 
ATOM     14  C   UNL     1      -1.192 -54.140 -22.568  1.00  0.00     0.008 C 
ATOM     15  C   UNL     1       0.305 -53.965 -22.395  1.00  0.00     0.005 C 
ATOM     16  C   UNL     1       0.934 -53.570 -23.747  1.00  0.00     0.003 C 
ATOM     17  C   UNL     1       0.925 -54.802 -24.718  1.00  0.00    -0.025 C 
ATOM     18  C   UNL     1       1.555 -54.350 -26.078  1.00  0.00     0.010 C 
ATOM     19  C   UNL     1       2.932 -53.693 -25.936  1.00  0.00     0.033 C 
ATOM     20  C   UNL     1       2.845 -52.441 -25.050  1.00  0.00     0.120 C 
ATOM     21  C   UNL     1       2.280 -52.731 -23.621  1.00  0.00    -0.006 C 
ATOM     22  C   UNL     1       3.353 -53.403 -22.717  1.00  0.00     0.014 C 
ATOM     23  C   UNL     1       1.956 -51.346 -22.983  1.00  0.00     0.014 C 
ATOM     24  C   UNL     1       1.788 -55.998 -24.196  1.00  0.00     0.012 C 
ATOM     25  C   UNL     1      -1.693 -56.565 -22.963  1.00  0.00     0.012 C 
ATOM     26  C   UNL     1      -4.793 -56.446 -25.410  1.00  0.00     0.022 C 
ATOM     27  C   UNL     1      -5.183 -57.176 -26.736  1.00  0.00     0.015 C 
ATOM     28  C   UNL     1      -3.177 -53.260 -24.644  1.00  0.00     0.017 C 
ATOM     29  C   UNL     1      -7.036 -56.691 -24.206  1.00  0.00     0.012 C 
ATOM     30  C   UNL     1      -4.989 -55.293 -28.476  1.00  0.00     0.011 C 
ENDROOT
BRANCH  20  31
ATOM     31  O   UNL     1       4.085 -51.772 -25.002  1.00  0.00    -0.393 OA
ATOM     32  H   UNL     1       4.492 -51.803 -25.907  1.00  0.00     0.210 HD
ENDBRANCH  20  31
TORSDOF 1
ENDMDL
MODEL 5
REMARK VINA RESULT:    -5.011      3.557      8.416
REMARK INTER + INTRA:          -5.158
REMARK INTER:                  -5.158
REMARK INTRA:                   0.000
REMARK UNBOUND:                 0.000
REMARK SMILES CC1(C)CC[C@]2(C)CC[C@]3(C)C(=CC[C@H]4[C@@]5(C)CC[C@H](O)C(C)(C)[C@@H]5CC[C@]43C)[C@@H]2C1
REMARK SMILES IDX 1 1 2 2 4 3 5 4 6 5 8 6 9 7 10 8 12 9 13 10 14 11 15 12
REMARK SMILES IDX 28 13 27 14 26 15 25 16 16 17 18 18 19 19 20 20 22 21 23 22
REMARK SMILES IDX 24 23 17 24 29 25 30 26 31 27 11 28 7 29 3 30 21 31
REMARK H PARENT 21 32
REMARK Flexibility Score: inf
ROOT
ATOM      1  C   UNL     1      -2.121 -56.814 -34.890  1.00  0.00     0.011 C 
ATOM      2  C   UNL     1      -3.172 -56.988 -33.769  1.00  0.00    -0.035 C 
ATOM      3  C   UNL     1      -4.465 -57.555 -34.400  1.00  0.00     0.007 C 
ATOM      4  C   UNL     1      -5.500 -57.982 -33.351  1.00  0.00     0.008 C 
ATOM      5  C   UNL     1      -4.966 -59.019 -32.322  1.00  0.00    -0.026 C 
ATOM      6  C   UNL     1      -6.107 -59.285 -31.278  1.00  0.00     0.008 C 
ATOM      7  C   UNL     1      -5.608 -59.322 -29.834  1.00  0.00     0.012 C 
ATOM      8  C   UNL     1      -4.961 -57.964 -29.402  1.00  0.00    -0.006 C 
ATOM      9  C   UNL     1      -3.874 -57.591 -30.422  1.00  0.00    -0.064 C 
ATOM     10  C   UNL     1      -3.049 -56.572 -30.098  1.00  0.00    -0.027 C 
ATOM     11  C   UNL     1      -3.214 -55.819 -28.812  1.00  0.00     0.032 C 
ATOM     12  C   UNL     1      -3.316 -56.810 -27.620  1.00  0.00     0.006 C 
ATOM     13  C   UNL     1      -4.321 -58.053 -27.915  1.00  0.00    -0.020 C 
ATOM     14  C   UNL     1      -5.493 -58.221 -26.874  1.00  0.00     0.008 C 
ATOM     15  C   UNL     1      -5.194 -57.728 -25.471  1.00  0.00     0.005 C 
ATOM     16  C   UNL     1      -4.764 -56.248 -25.529  1.00  0.00     0.003 C 
ATOM     17  C   UNL     1      -3.330 -56.134 -26.157  1.00  0.00    -0.025 C 
ATOM     18  C   UNL     1      -2.945 -54.618 -26.211  1.00  0.00     0.010 C 
ATOM     19  C   UNL     1      -3.084 -53.894 -24.868  1.00  0.00     0.033 C 
ATOM     20  C   UNL     1      -4.533 -53.965 -24.361  1.00  0.00     0.120 C 
ATOM     21  C   UNL     1      -5.061 -55.428 -24.198  1.00  0.00    -0.006 C 
ATOM     22  C   UNL     1      -4.488 -56.093 -22.914  1.00  0.00     0.014 C 
ATOM     23  C   UNL     1      -6.604 -55.322 -24.002  1.00  0.00     0.014 C 
ATOM     24  C   UNL     1      -2.231 -56.849 -25.303  1.00  0.00     0.012 C 
ATOM     25  C   UNL     1      -3.452 -59.350 -27.796  1.00  0.00     0.012 C 
ATOM     26  C   UNL     1      -3.632 -58.500 -31.651  1.00  0.00     0.022 C 
ATOM     27  C   UNL     1      -2.610 -57.988 -32.719  1.00  0.00     0.015 C 
ATOM     28  C   UNL     1      -6.082 -56.866 -29.489  1.00  0.00     0.017 C 
ATOM     29  C   UNL     1      -4.686 -60.367 -33.045  1.00  0.00     0.012 C 
ATOM     30  C   UNL     1      -3.434 -55.593 -33.159  1.00  0.00     0.011 C 
ENDROOT
BRANCH  20  31
ATOM     31  O   UNL     1      -4.690 -53.211 -23.181  1.00  0.00    -0.393 OA
ATOM     32  H   UNL     1      -3.894 -52.627 -23.074  1.00  0.00     0.210 HD
ENDBRANCH  20  31
TORSDOF 1
ENDMDL
MODEL 6
REMARK VINA RESULT:    -5.005      3.800      5.988
REMARK INTER + INTRA:          -5.151
REMARK INTER:                  -5.151
REMARK INTRA:                   0.000
REMARK UNBOUND:                 0.000
REMARK SMILES CC1(C)CC[C@]2(C)CC[C@]3(C)C(=CC[C@H]4[C@@]5(C)CC[C@H](O)C(C)(C)[C@@H]5CC[C@]43C)[C@@H]2C1
REMARK SMILES IDX 1 1 2 2 4 3 5 4 6 5 8 6 9 7 10 8 12 9 13 10 14 11 15 12
REMARK SMILES IDX 28 13 27 14 26 15 25 16 16 17 18 18 19 19 20 20 22 21 23 22
REMARK SMILES IDX 24 23 17 24 29 25 30 26 31 27 11 28 7 29 3 30 21 31
REMARK H PARENT 21 32
REMARK Flexibility Score: inf
ROOT
ATOM      1  C   UNL     1       4.121 -55.106 -21.648  1.00  0.00     0.011 C 
ATOM      2  C   UNL     1       2.949 -54.891 -22.632  1.00  0.00    -0.035 C 
ATOM      3  C   UNL     1       3.264 -55.658 -23.937  1.00  0.00     0.007 C 
ATOM      4  C   UNL     1       2.072 -55.704 -24.902  1.00  0.00     0.008 C 
ATOM      5  C   UNL     1       0.780 -56.310 -24.282  1.00  0.00    -0.026 C 
ATOM      6  C   UNL     1      -0.357 -56.209 -25.358  1.00  0.00     0.008 C 
ATOM      7  C   UNL     1      -1.692 -55.733 -24.783  1.00  0.00     0.012 C 
ATOM      8  C   UNL     1      -1.584 -54.302 -24.160  1.00  0.00    -0.006 C 
ATOM      9  C   UNL     1      -0.435 -54.296 -23.139  1.00  0.00    -0.064 C 
ATOM     10  C   UNL     1      -0.334 -53.218 -22.331  1.00  0.00    -0.027 C 
ATOM     11  C   UNL     1      -1.285 -52.065 -22.454  1.00  0.00     0.032 C 
ATOM     12  C   UNL     1      -2.751 -52.579 -22.461  1.00  0.00     0.006 C 
ATOM     13  C   UNL     1      -2.968 -53.859 -23.440  1.00  0.00    -0.020 C 
ATOM     14  C   UNL     1      -4.071 -53.667 -24.550  1.00  0.00     0.008 C 
ATOM     15  C   UNL     1      -5.194 -52.711 -24.195  1.00  0.00     0.005 C 
ATOM     16  C   UNL     1      -4.599 -51.339 -23.816  1.00  0.00     0.003 C 
ATOM     17  C   UNL     1      -3.886 -51.435 -22.422  1.00  0.00    -0.025 C 
ATOM     18  C   UNL     1      -3.285 -50.029 -22.088  1.00  0.00     0.010 C 
ATOM     19  C   UNL     1      -4.298 -48.883 -22.181  1.00  0.00     0.033 C 
ATOM     20  C   UNL     1      -4.883 -48.790 -23.598  1.00  0.00     0.120 C 
ATOM     21  C   UNL     1      -5.577 -50.110 -24.069  1.00  0.00    -0.006 C 
ATOM     22  C   UNL     1      -6.974 -50.277 -23.409  1.00  0.00     0.014 C 
ATOM     23  C   UNL     1      -5.816 -49.961 -25.603  1.00  0.00     0.014 C 
ATOM     24  C   UNL     1      -4.867 -51.793 -21.257  1.00  0.00     0.012 C 
ATOM     25  C   UNL     1      -3.478 -55.022 -22.524  1.00  0.00     0.012 C 
ATOM     26  C   UNL     1       0.413 -55.574 -22.932  1.00  0.00     0.022 C 
ATOM     27  C   UNL     1       1.652 -55.455 -21.985  1.00  0.00     0.015 C 
ATOM     28  C   UNL     1      -1.188 -53.317 -25.317  1.00  0.00     0.017 C 
ATOM     29  C   UNL     1       1.005 -57.823 -23.997  1.00  0.00     0.012 C 
ATOM     30  C   UNL     1       2.848 -53.374 -22.907  1.00  0.00     0.011 C 
ENDROOT
BRANCH  20  31
ATOM     31  O   UNL     1      -5.734 -47.673 -23.718  1.00  0.00    -0.393 OA
ATOM     32  H   UNL     1      -6.661 -48.000 -23.858  1.00  0.00     0.210 HD
ENDBRANCH  20  31
TORSDOF 1
ENDMDL
MODEL 7
REMARK VINA RESULT:    -4.998      3.043      4.654
REMARK INTER + INTRA:          -5.144
REMARK INTER:                  -5.144
REMARK INTRA:                   0.000
REMARK UNBOUND:                 0.000
REMARK SMILES CC1(C)CC[C@]2(C)CC[C@]3(C)C(=CC[C@H]4[C@@]5(C)CC[C@H](O)C(C)(C)[C@@H]5CC[C@]43C)[C@@H]2C1
REMARK SMILES IDX 1 1 2 2 4 3 5 4 6 5 8 6 9 7 10 8 12 9 13 10 14 11 15 12
REMARK SMILES IDX 28 13 27 14 26 15 25 16 16 17 18 18 19 19 20 20 22 21 23 22
REMARK SMILES IDX 24 23 17 24 29 25 30 26 31 27 11 28 7 29 3 30 21 31
REMARK H PARENT 21 32
REMARK Flexibility Score: inf
ROOT
ATOM      1  C   UNL     1       3.873 -56.119 -27.147  1.00  0.00     0.011 C 
ATOM      2  C   UNL     1       2.977 -55.695 -25.962  1.00  0.00    -0.035 C 
ATOM      3  C   UNL     1       3.759 -54.676 -25.101  1.00  0.00     0.007 C 
ATOM      4  C   UNL     1       2.888 -54.015 -24.025  1.00  0.00     0.008 C 
ATOM      5  C   UNL     1       1.621 -53.306 -24.585  1.00  0.00    -0.026 C 
ATOM      6  C   UNL     1       0.803 -52.759 -23.363  1.00  0.00     0.008 C 
ATOM      7  C   UNL     1      -0.700 -53.012 -23.481  1.00  0.00     0.012 C 
ATOM      8  C   UNL     1      -1.034 -54.539 -23.552  1.00  0.00    -0.006 C 
ATOM      9  C   UNL     1      -0.210 -55.170 -24.686  1.00  0.00    -0.064 C 
ATOM     10  C   UNL     1      -0.530 -56.430 -25.052  1.00  0.00    -0.027 C 
ATOM     11  C   UNL     1      -1.620 -57.188 -24.355  1.00  0.00     0.032 C 
ATOM     12  C   UNL     1      -2.908 -56.322 -24.276  1.00  0.00     0.006 C 
ATOM     13  C   UNL     1      -2.615 -54.794 -23.806  1.00  0.00    -0.020 C 
ATOM     14  C   UNL     1      -3.409 -54.328 -22.526  1.00  0.00     0.008 C 
ATOM     15  C   UNL     1      -4.748 -55.008 -22.307  1.00  0.00     0.005 C 
ATOM     16  C   UNL     1      -4.545 -56.536 -22.261  1.00  0.00     0.003 C 
ATOM     17  C   UNL     1      -4.212 -57.073 -23.697  1.00  0.00    -0.025 C 
ATOM     18  C   UNL     1      -3.999 -58.620 -23.598  1.00  0.00     0.010 C 
ATOM     19  C   UNL     1      -5.154 -59.363 -22.919  1.00  0.00     0.033 C 
ATOM     20  C   UNL     1      -5.359 -58.852 -21.485  1.00  0.00     0.120 C 
ATOM     21  C   UNL     1      -5.642 -57.316 -21.411  1.00  0.00    -0.006 C 
ATOM     22  C   UNL     1      -7.103 -56.991 -21.830  1.00  0.00     0.014 C 
ATOM     23  C   UNL     1      -5.501 -56.912 -19.912  1.00  0.00     0.014 C 
ATOM     24  C   UNL     1      -5.373 -56.842 -24.720  1.00  0.00     0.012 C 
ATOM     25  C   UNL     1      -3.112 -53.879 -24.976  1.00  0.00     0.012 C 
ATOM     26  C   UNL     1       0.784 -54.297 -25.488  1.00  0.00     0.022 C 
ATOM     27  C   UNL     1       1.689 -55.032 -26.530  1.00  0.00     0.015 C 
ATOM     28  C   UNL     1      -0.549 -55.186 -22.205  1.00  0.00     0.017 C 
ATOM     29  C   UNL     1       2.051 -52.076 -25.434  1.00  0.00     0.012 C 
ATOM     30  C   UNL     1       2.661 -56.966 -25.143  1.00  0.00     0.011 C 
ENDROOT
BRANCH  20  31
ATOM     31  O   UNL     1      -6.349 -59.604 -20.821  1.00  0.00    -0.393 OA
ATOM     32  H   UNL     1      -6.330 -59.364 -19.857  1.00  0.00     0.210 HD
ENDBRANCH  20  31
TORSDOF 1
ENDMDL
MODEL 8
REMARK VINA RESULT:    -4.952      1.909      2.933
REMARK INTER + INTRA:          -5.097
REMARK INTER:                  -5.097
REMARK INTRA:                   0.000
REMARK UNBOUND:                 0.000
REMARK SMILES CC1(C)CC[C@]2(C)CC[C@]3(C)C(=CC[C@H]4[C@@]5(C)CC[C@H](O)C(C)(C)[C@@H]5CC[C@]43C)[C@@H]2C1
REMARK SMILES IDX 1 1 2 2 4 3 5 4 6 5 8 6 9 7 10 8 12 9 13 10 14 11 15 12
REMARK SMILES IDX 28 13 27 14 26 15 25 16 16 17 18 18 19 19 20 20 22 21 23 22
REMARK SMILES IDX 24 23 17 24 29 25 30 26 31 27 11 28 7 29 3 30 21 31
REMARK H PARENT 21 32
REMARK Flexibility Score: inf
ROOT
ATOM      1  C   UNL     1       2.817 -53.877 -22.500  1.00  0.00     0.011 C 
ATOM      2  C   UNL     1       1.316 -54.220 -22.361  1.00  0.00    -0.035 C 
ATOM      3  C   UNL     1       0.750 -53.443 -21.151  1.00  0.00     0.007 C 
ATOM      4  C   UNL     1      -0.779 -53.527 -21.052  1.00  0.00     0.008 C 
ATOM      5  C   UNL     1      -1.522 -53.043 -22.331  1.00  0.00    -0.026 C 
ATOM      6  C   UNL     1      -3.058 -53.270 -22.103  1.00  0.00     0.008 C 
ATOM      7  C   UNL     1      -3.766 -53.868 -23.319  1.00  0.00     0.012 C 
ATOM      8  C   UNL     1      -3.193 -55.273 -23.699  1.00  0.00    -0.006 C 
ATOM      9  C   UNL     1      -1.670 -55.152 -23.869  1.00  0.00    -0.064 C 
ATOM     10  C   UNL     1      -1.026 -56.205 -24.420  1.00  0.00    -0.027 C 
ATOM     11  C   UNL     1      -1.768 -57.447 -24.815  1.00  0.00     0.032 C 
ATOM     12  C   UNL     1      -3.007 -57.081 -25.677  1.00  0.00     0.006 C 
ATOM     13  C   UNL     1      -3.861 -55.842 -25.063  1.00  0.00    -0.020 C 
ATOM     14  C   UNL     1      -5.380 -56.156 -24.784  1.00  0.00     0.008 C 
ATOM     15  C   UNL     1      -6.002 -57.213 -25.676  1.00  0.00     0.005 C 
ATOM     16  C   UNL     1      -5.180 -58.515 -25.579  1.00  0.00     0.003 C 
ATOM     17  C   UNL     1      -3.804 -58.331 -26.310  1.00  0.00    -0.025 C 
ATOM     18  C   UNL     1      -3.000 -59.666 -26.170  1.00  0.00     0.010 C 
ATOM     19  C   UNL     1      -3.774 -60.908 -26.625  1.00  0.00     0.033 C 
ATOM     20  C   UNL     1      -5.060 -61.076 -25.801  1.00  0.00     0.120 C 
ATOM     21  C   UNL     1      -6.012 -59.838 -25.878  1.00  0.00    -0.006 C 
ATOM     22  C   UNL     1      -6.779 -59.800 -27.230  1.00  0.00     0.014 C 
ATOM     23  C   UNL     1      -7.078 -60.029 -24.757  1.00  0.00     0.014 C 
ATOM     24  C   UNL     1      -3.959 -58.056 -27.843  1.00  0.00     0.012 C 
ATOM     25  C   UNL     1      -3.848 -54.723 -26.159  1.00  0.00     0.012 C 
ATOM     26  C   UNL     1      -0.975 -53.795 -23.610  1.00  0.00     0.022 C 
ATOM     27  C   UNL     1       0.588 -53.779 -23.663  1.00  0.00     0.015 C 
ATOM     28  C   UNL     1      -3.454 -56.229 -22.480  1.00  0.00     0.017 C 
ATOM     29  C   UNL     1      -1.308 -51.512 -22.504  1.00  0.00     0.012 C 
ATOM     30  C   UNL     1       1.209 -55.743 -22.125  1.00  0.00     0.011 C 
ENDROOT
BRANCH  20  31
ATOM     31  O   UNL     1      -5.722 -62.273 -26.141  1.00  0.00    -0.393 OA
ATOM     32  H   UNL     1      -5.733 -62.354 -27.131  1.00  0.00     0.210 HD
ENDBRANCH  20  31
TORSDOF 1
ENDMDL
MODEL 9
REMARK VINA RESULT:    -4.923      3.393      8.377
REMARK INTER + INTRA:          -5.067
REMARK INTER:                  -5.067
REMARK INTRA:                   0.000
REMARK UNBOUND:                 0.000
REMARK SMILES CC1(C)CC[C@]2(C)CC[C@]3(C)C(=CC[C@H]4[C@@]5(C)CC[C@H](O)C(C)(C)[C@@H]5CC[C@]43C)[C@@H]2C1
REMARK SMILES IDX 1 1 2 2 4 3 5 4 6 5 8 6 9 7 10 8 12 9 13 10 14 11 15 12
REMARK SMILES IDX 28 13 27 14 26 15 25 16 16 17 18 18 19 19 20 20 22 21 23 22
REMARK SMILES IDX 24 23 17 24 29 25 30 26 31 27 11 28 7 29 3 30 21 31
REMARK H PARENT 21 32
REMARK Flexibility Score: inf
ROOT
ATOM      1  C   UNL     1      -7.125 -62.834 -23.645  1.00  0.00     0.011 C 
ATOM      2  C   UNL     1      -5.916 -61.981 -24.094  1.00  0.00    -0.035 C 
ATOM      3  C   UNL     1      -5.156 -62.756 -25.194  1.00  0.00     0.007 C 
ATOM      4  C   UNL     1      -4.071 -61.912 -25.875  1.00  0.00     0.008 C 
ATOM      5  C   UNL     1      -4.598 -60.584 -26.491  1.00  0.00    -0.026 C 
ATOM      6  C   UNL     1      -3.364 -59.805 -27.068  1.00  0.00     0.008 C 
ATOM      7  C   UNL     1      -3.385 -58.312 -26.739  1.00  0.00     0.012 C 
ATOM      8  C   UNL     1      -3.355 -58.051 -25.198  1.00  0.00    -0.006 C 
ATOM      9  C   UNL     1      -4.497 -58.844 -24.542  1.00  0.00    -0.064 C 
ATOM     10  C   UNL     1      -4.776 -58.567 -23.249  1.00  0.00    -0.027 C 
ATOM     11  C   UNL     1      -3.979 -57.554 -22.483  1.00  0.00     0.032 C 
ATOM     12  C   UNL     1      -3.877 -56.231 -23.292  1.00  0.00     0.006 C 
ATOM     13  C   UNL     1      -3.507 -56.472 -24.856  1.00  0.00    -0.020 C 
ATOM     14  C   UNL     1      -2.213 -55.725 -25.356  1.00  0.00     0.008 C 
ATOM     15  C   UNL     1      -1.883 -54.435 -24.629  1.00  0.00     0.005 C 
ATOM     16  C   UNL     1      -1.766 -54.714 -23.117  1.00  0.00     0.003 C 
ATOM     17  C   UNL     1      -3.187 -54.997 -22.515  1.00  0.00    -0.025 C 
ATOM     18  C   UNL     1      -3.016 -55.292 -20.988  1.00  0.00     0.010 C 
ATOM     19  C   UNL     1      -2.236 -54.212 -20.231  1.00  0.00     0.033 C 
ATOM     20  C   UNL     1      -0.823 -54.057 -20.813  1.00  0.00     0.120 C 
ATOM     21  C   UNL     1      -0.815 -53.704 -22.337  1.00  0.00    -0.006 C 
ATOM     22  C   UNL     1      -1.170 -52.208 -22.569  1.00  0.00     0.014 C 
ATOM     23  C   UNL     1       0.650 -53.903 -22.830  1.00  0.00     0.014 C 
ATOM     24  C   UNL     1      -4.155 -53.774 -22.634  1.00  0.00     0.012 C 
ATOM     25  C   UNL     1      -4.695 -55.871 -25.679  1.00  0.00     0.012 C 
ATOM     26  C   UNL     1      -5.399 -59.750 -25.413  1.00  0.00     0.022 C 
ATOM     27  C   UNL     1      -6.448 -60.634 -24.663  1.00  0.00     0.015 C 
ATOM     28  C   UNL     1      -2.004 -58.637 -24.651  1.00  0.00     0.017 C 
ATOM     29  C   UNL     1      -5.534 -60.907 -27.690  1.00  0.00     0.012 C 
ATOM     30  C   UNL     1      -5.013 -61.772 -22.857  1.00  0.00     0.011 C 
ENDROOT
BRANCH  20  31
ATOM     31  O   UNL     1      -0.064 -53.142 -20.055  1.00  0.00    -0.393 OA
ATOM     32  H   UNL     1      -0.689 -52.593 -19.512  1.00  0.00     0.210 HD
ENDBRANCH  20  31
TORSDOF 1
ENDMDL
