MODEL 1
REMARK VINA RESULT:    -5.379      0.000      0.000
REMARK INTER + INTRA:          -5.693
REMARK INTER:                  -5.693
REMARK INTRA:                   0.000
REMARK UNBOUND:                 0.000
REMARK SMILES O=c1ccc2cc(O)c(O)cc2o1
REMARK SMILES IDX 4 1 3 2 2 3 1 4 13 5 12 6 11 7 9 8 7 9 6 10 5 11 8 12 10 14
REMARK H PARENT 8 13 10 15
REMARK Flexibility Score: inf
ROOT
ATOM      1  C   UNL     1      79.595  66.254   2.442  1.00  0.00     0.019 A 
ATOM      2  C   UNL     1      80.858  66.091   1.875  1.00  0.00     0.094 A 
ATOM      3  C   UNL     1      81.704  65.098   2.379  1.00  0.00     0.336 A 
ATOM      4  O   UNL     1      82.848  64.934   1.880  1.00  0.00    -0.246 OA
ATOM      5  O   UNL     1      81.308  64.321   3.384  1.00  0.00    -0.423 OA
ATOM      6  C   UNL     1      80.111  64.443   3.954  1.00  0.00     0.142 A 
ATOM      7  C   UNL     1      79.749  63.598   5.007  1.00  0.00     0.098 A 
ATOM      8  C   UNL     1      78.489  63.723   5.612  1.00  0.00     0.161 A 
ATOM      9  C   UNL     1      77.585  64.701   5.156  1.00  0.00     0.158 A 
ATOM     10  C   UNL     1      77.946  65.547   4.102  1.00  0.00     0.062 A 
ATOM     11  C   UNL     1      79.204  65.424   3.497  1.00  0.00     0.022 A 
ENDROOT
BRANCH   9  12
ATOM     12  O   UNL     1      76.327  64.844   5.740  1.00  0.00    -0.504 OA
ATOM     13  H   UNL     1      75.725  65.632   5.533  1.00  0.00     0.293 HD
ENDBRANCH   9  12
BRANCH   8  14
ATOM     14  O   UNL     1      78.131  62.878   6.661  1.00  0.00    -0.504 OA
ATOM     15  H   UNL     1      78.795  62.613   7.379  1.00  0.00     0.293 HD
ENDBRANCH   8  14
TORSDOF 2
ENDMDL
MODEL 2
REMARK VINA RESULT:    -4.814      1.771      2.379
REMARK INTER + INTRA:          -5.095
REMARK INTER:                  -5.095
REMARK INTRA:                   0.000
REMARK UNBOUND:                 0.000
REMARK SMILES O=c1ccc2cc(O)c(O)cc2o1
REMARK SMILES IDX 4 1 3 2 2 3 1 4 13 5 12 6 11 7 9 8 7 9 6 10 5 11 8 12 10 14
REMARK H PARENT 8 13 10 15
REMARK Flexibility Score: inf
ROOT
ATOM      1  C   UNL     1      80.026  62.577   2.627  1.00  0.00     0.019 A 
ATOM      2  C   UNL     1      80.757  63.516   1.901  1.00  0.00     0.094 A 
ATOM      3  C   UNL     1      81.108  64.723   2.513  1.00  0.00     0.336 A 
ATOM      4  O   UNL     1      81.768  65.584   1.875  1.00  0.00    -0.246 OA
ATOM      5  O   UNL     1      80.749  64.970   3.771  1.00  0.00    -0.423 OA
ATOM      6  C   UNL     1      80.051  64.102   4.499  1.00  0.00     0.142 A 
ATOM      7  C   UNL     1      79.701  64.416   5.816  1.00  0.00     0.098 A 
ATOM      8  C   UNL     1      78.965  63.504   6.588  1.00  0.00     0.161 A 
ATOM      9  C   UNL     1      78.578  62.269   6.037  1.00  0.00     0.158 A 
ATOM     10  C   UNL     1      78.927  61.952   4.719  1.00  0.00     0.062 A 
ATOM     11  C   UNL     1      79.662  62.863   3.946  1.00  0.00     0.022 A 
ENDROOT
BRANCH   9  12
ATOM     12  O   UNL     1      77.847  61.345   6.783  1.00  0.00    -0.504 OA
ATOM     13  H   UNL     1      77.209  61.630   7.516  1.00  0.00     0.293 HD
ENDBRANCH   9  12
BRANCH   8  14
ATOM     14  O   UNL     1      78.620  63.821   7.901  1.00  0.00    -0.504 OA
ATOM     15  H   UNL     1      78.672  64.771   8.249  1.00  0.00     0.293 HD
ENDBRANCH   8  14
TORSDOF 2
ENDMDL
MODEL 3
REMARK VINA RESULT:    -4.183      5.976      8.975
REMARK INTER + INTRA:          -4.427
REMARK INTER:                  -4.427
REMARK INTRA:                   0.000
REMARK UNBOUND:                 0.000
REMARK SMILES O=c1ccc2cc(O)c(O)cc2o1
REMARK SMILES IDX 4 1 3 2 2 3 1 4 13 5 12 6 11 7 9 8 7 9 6 10 5 11 8 12 10 14
REMARK H PARENT 8 13 10 15
REMARK Flexibility Score: inf
ROOT
ATOM      1  C   UNL     1      77.402  57.370   9.205  1.00  0.00     0.019 A 
ATOM      2  C   UNL     1      77.389  56.877  10.510  1.00  0.00     0.094 A 
ATOM      3  C   UNL     1      77.713  57.738  11.563  1.00  0.00     0.336 A 
ATOM      4  O   UNL     1      77.706  57.313  12.748  1.00  0.00    -0.246 OA
ATOM      5  O   UNL     1      78.028  59.009  11.322  1.00  0.00    -0.423 OA
ATOM      6  C   UNL     1      78.053  59.519  10.093  1.00  0.00     0.142 A 
ATOM      7  C   UNL     1      78.392  60.861   9.900  1.00  0.00     0.098 A 
ATOM      8  C   UNL     1      78.420  61.405   8.607  1.00  0.00     0.161 A 
ATOM      9  C   UNL     1      78.105  60.596   7.499  1.00  0.00     0.158 A 
ATOM     10  C   UNL     1      77.766  59.252   7.689  1.00  0.00     0.062 A 
ATOM     11  C   UNL     1      77.737  58.708   8.981  1.00  0.00     0.022 A 
ENDROOT
BRANCH   9  12
ATOM     12  O   UNL     1      78.126  61.112   6.203  1.00  0.00    -0.504 OA
ATOM     13  H   UNL     1      77.963  60.530   5.390  1.00  0.00     0.293 HD
ENDBRANCH   9  12
BRANCH   8  14
ATOM     14  O   UNL     1      78.758  62.744   8.419  1.00  0.00    -0.504 OA
ATOM     15  H   UNL     1      78.490  63.246   7.581  1.00  0.00     0.293 HD
ENDBRANCH   8  14
TORSDOF 2
ENDMDL
MODEL 4
REMARK VINA RESULT:    -4.166      6.626      9.768
REMARK INTER + INTRA:          -4.410
REMARK INTER:                  -4.410
REMARK INTRA:                   0.000
REMARK UNBOUND:                 0.000
REMARK SMILES O=c1ccc2cc(O)c(O)cc2o1
REMARK SMILES IDX 4 1 3 2 2 3 1 4 13 5 12 6 11 7 9 8 7 9 6 10 5 11 8 12 10 14
REMARK H PARENT 8 13 10 15
REMARK Flexibility Score: inf
ROOT
ATOM      1  C   UNL     1      78.115  59.478  11.857  1.00  0.00     0.019 A 
ATOM      2  C   UNL     1      77.380  58.733  12.777  1.00  0.00     0.094 A 
ATOM      3  C   UNL     1      76.286  57.986  12.326  1.00  0.00     0.336 A 
ATOM      4  O   UNL     1      75.610  57.306  13.141  1.00  0.00    -0.246 OA
ATOM      5  O   UNL     1      75.955  57.988  11.037  1.00  0.00    -0.423 OA
ATOM      6  C   UNL     1      76.629  58.686  10.126  1.00  0.00     0.142 A 
ATOM      7  C   UNL     1      76.235  58.650   8.786  1.00  0.00     0.098 A 
ATOM      8  C   UNL     1      76.942  59.383   7.821  1.00  0.00     0.161 A 
ATOM      9  C   UNL     1      78.054  60.157   8.203  1.00  0.00     0.158 A 
ATOM     10  C   UNL     1      78.451  60.194   9.544  1.00  0.00     0.062 A 
ATOM     11  C   UNL     1      77.744  59.462  10.509  1.00  0.00     0.022 A 
ENDROOT
BRANCH   9  12
ATOM     12  O   UNL     1      78.774  60.895   7.263  1.00  0.00    -0.504 OA
ATOM     13  H   UNL     1      78.785  61.907   7.268  1.00  0.00     0.293 HD
ENDBRANCH   9  12
BRANCH   8  14
ATOM     14  O   UNL     1      76.546  59.345   6.485  1.00  0.00    -0.504 OA
ATOM     15  H   UNL     1      76.681  60.136   5.868  1.00  0.00     0.293 HD
ENDBRANCH   8  14
TORSDOF 2
ENDMDL
MODEL 5
REMARK VINA RESULT:    -4.073      6.669      8.953
REMARK INTER + INTRA:          -4.312
REMARK INTER:                  -4.312
REMARK INTRA:                   0.000
REMARK UNBOUND:                 0.000
REMARK SMILES O=c1ccc2cc(O)c(O)cc2o1
REMARK SMILES IDX 4 1 3 2 2 3 1 4 13 5 12 6 11 7 9 8 7 9 6 10 5 11 8 12 10 14
REMARK H PARENT 8 13 10 15
REMARK Flexibility Score: inf
ROOT
ATOM      1  C   UNL     1      77.734  58.009   8.923  1.00  0.00     0.019 A 
ATOM      2  C   UNL     1      78.075  58.757   7.797  1.00  0.00     0.094 A 
ATOM      3  C   UNL     1      78.380  60.113   7.951  1.00  0.00     0.336 A 
ATOM      4  O   UNL     1      78.691  60.806   6.947  1.00  0.00    -0.246 OA
ATOM      5  O   UNL     1      78.345  60.679   9.155  1.00  0.00    -0.423 OA
ATOM      6  C   UNL     1      78.025  60.002  10.255  1.00  0.00     0.142 A 
ATOM      7  C   UNL     1      78.004  60.649  11.494  1.00  0.00     0.098 A 
ATOM      8  C   UNL     1      77.667  59.940  12.657  1.00  0.00     0.161 A 
ATOM      9  C   UNL     1      77.348  58.571  12.577  1.00  0.00     0.158 A 
ATOM     10  C   UNL     1      77.368  57.921  11.338  1.00  0.00     0.062 A 
ATOM     11  C   UNL     1      77.705  58.629  10.176  1.00  0.00     0.022 A 
ENDROOT
BRANCH   9  12
ATOM     12  O   UNL     1      77.010  57.844  13.718  1.00  0.00    -0.504 OA
ATOM     13  H   UNL     1      77.599  57.104  14.078  1.00  0.00     0.293 HD
ENDBRANCH   9  12
BRANCH   8  14
ATOM     14  O   UNL     1      77.648  60.590  13.890  1.00  0.00    -0.504 OA
ATOM     15  H   UNL     1      77.184  60.187  14.695  1.00  0.00     0.293 HD
ENDBRANCH   8  14
TORSDOF 2
ENDMDL
MODEL 6
REMARK VINA RESULT:    -4.043     11.269     12.529
REMARK INTER + INTRA:          -4.280
REMARK INTER:                  -4.280
REMARK INTRA:                   0.000
REMARK UNBOUND:                 0.000
REMARK SMILES O=c1ccc2cc(O)c(O)cc2o1
REMARK SMILES IDX 4 1 3 2 2 3 1 4 13 5 12 6 11 7 9 8 7 9 6 10 5 11 8 12 10 14
REMARK H PARENT 8 13 10 15
REMARK Flexibility Score: inf
ROOT
ATOM      1  C   UNL     1      74.705  57.705  10.355  1.00  0.00     0.019 A 
ATOM      2  C   UNL     1      75.149  57.572  11.670  1.00  0.00     0.094 A 
ATOM      3  C   UNL     1      74.217  57.300  12.677  1.00  0.00     0.336 A 
ATOM      4  O   UNL     1      74.598  57.176  13.870  1.00  0.00    -0.246 OA
ATOM      5  O   UNL     1      72.926  57.171  12.382  1.00  0.00    -0.423 OA
ATOM      6  C   UNL     1      72.460  57.290  11.141  1.00  0.00     0.142 A 
ATOM      7  C   UNL     1      71.092  57.144  10.891  1.00  0.00     0.098 A 
ATOM      8  C   UNL     1      70.595  57.268   9.585  1.00  0.00     0.161 A 
ATOM      9  C   UNL     1      71.476  57.541   8.521  1.00  0.00     0.158 A 
ATOM     10  C   UNL     1      72.846  57.688   8.769  1.00  0.00     0.062 A 
ATOM     11  C   UNL     1      73.343  57.563  10.074  1.00  0.00     0.022 A 
ENDROOT
BRANCH   9  12
ATOM     12  O   UNL     1      71.007  57.670   7.214  1.00  0.00    -0.504 OA
ATOM     13  H   UNL     1      70.883  56.870   6.606  1.00  0.00     0.293 HD
ENDBRANCH   9  12
BRANCH   8  14
ATOM     14  O   UNL     1      69.231  57.121   9.339  1.00  0.00    -0.504 OA
ATOM     15  H   UNL     1      68.540  57.677   9.830  1.00  0.00     0.293 HD
ENDBRANCH   8  14
TORSDOF 2
ENDMDL
MODEL 7
REMARK VINA RESULT:    -4.027      6.952      9.891
REMARK INTER + INTRA:          -4.263
REMARK INTER:                  -4.263
REMARK INTRA:                   0.000
REMARK UNBOUND:                 0.000
REMARK SMILES O=c1ccc2cc(O)c(O)cc2o1
REMARK SMILES IDX 4 1 3 2 2 3 1 4 13 5 12 6 11 7 9 8 7 9 6 10 5 11 8 12 10 14
REMARK H PARENT 8 13 10 15
REMARK Flexibility Score: inf
ROOT
ATOM      1  C   UNL     1      74.216  58.366   9.164  1.00  0.00     0.019 A 
ATOM      2  C   UNL     1      73.714  57.987  10.408  1.00  0.00     0.094 A 
ATOM      3  C   UNL     1      74.565  58.013  11.519  1.00  0.00     0.336 A 
ATOM      4  O   UNL     1      74.131  57.676  12.651  1.00  0.00    -0.246 OA
ATOM      5  O   UNL     1      75.833  58.395  11.387  1.00  0.00    -0.423 OA
ATOM      6  C   UNL     1      76.351  58.764  10.219  1.00  0.00     0.142 A 
ATOM      7  C   UNL     1      77.691  59.155  10.140  1.00  0.00     0.098 A 
ATOM      8  C   UNL     1      78.244  59.544   8.911  1.00  0.00     0.161 A 
ATOM      9  C   UNL     1      77.446  59.542   7.751  1.00  0.00     0.158 A 
ATOM     10  C   UNL     1      76.105  59.151   7.827  1.00  0.00     0.062 A 
ATOM     11  C   UNL     1      75.552  58.762   9.055  1.00  0.00     0.022 A 
ENDROOT
BRANCH   9  12
ATOM     12  O   UNL     1      77.971  59.925   6.517  1.00  0.00    -0.504 OA
ATOM     13  H   UNL     1      78.248  60.880   6.323  1.00  0.00     0.293 HD
ENDBRANCH   9  12
BRANCH   8  14
ATOM     14  O   UNL     1      79.580  59.935   8.837  1.00  0.00    -0.504 OA
ATOM     15  H   UNL     1      80.142  59.751   8.015  1.00  0.00     0.293 HD
ENDBRANCH   8  14
TORSDOF 2
ENDMDL
MODEL 8
REMARK VINA RESULT:    -4.026      6.341      8.533
REMARK INTER + INTRA:          -4.262
REMARK INTER:                  -4.262
REMARK INTRA:                   0.000
REMARK UNBOUND:                 0.000
REMARK SMILES O=c1ccc2cc(O)c(O)cc2o1
REMARK SMILES IDX 4 1 3 2 2 3 1 4 13 5 12 6 11 7 9 8 7 9 6 10 5 11 8 12 10 14
REMARK H PARENT 8 13 10 15
REMARK Flexibility Score: inf
ROOT
ATOM      1  C   UNL     1      78.562  58.761   8.676  1.00  0.00     0.019 A 
ATOM      2  C   UNL     1      78.879  59.511   7.544  1.00  0.00     0.094 A 
ATOM      3  C   UNL     1      77.843  60.047   6.773  1.00  0.00     0.336 A 
ATOM      4  O   UNL     1      78.108  60.728   5.748  1.00  0.00    -0.246 OA
ATOM      5  O   UNL     1      76.573  59.845   7.117  1.00  0.00    -0.423 OA
ATOM      6  C   UNL     1      76.227  59.136   8.189  1.00  0.00     0.142 A 
ATOM      7  C   UNL     1      74.876  58.955   8.501  1.00  0.00     0.098 A 
ATOM      8  C   UNL     1      74.505  58.208   9.630  1.00  0.00     0.161 A 
ATOM      9  C   UNL     1      75.496  57.639  10.452  1.00  0.00     0.158 A 
ATOM     10  C   UNL     1      76.849  57.818  10.141  1.00  0.00     0.062 A 
ATOM     11  C   UNL     1      77.220  58.564   9.013  1.00  0.00     0.022 A 
ENDROOT
BRANCH   9  12
ATOM     12  O   UNL     1      75.154  56.892  11.579  1.00  0.00    -0.504 OA
ATOM     13  H   UNL     1      74.802  57.325  12.424  1.00  0.00     0.293 HD
ENDBRANCH   9  12
BRANCH   8  14
ATOM     14  O   UNL     1      73.157  58.032   9.938  1.00  0.00    -0.504 OA
ATOM     15  H   UNL     1      72.812  58.131  10.885  1.00  0.00     0.293 HD
ENDBRANCH   8  14
TORSDOF 2
ENDMDL
MODEL 9
REMARK VINA RESULT:    -4.018      6.680      9.825
REMARK INTER + INTRA:          -4.253
REMARK INTER:                  -4.253
REMARK INTRA:                   0.000
REMARK UNBOUND:                 0.000
REMARK SMILES O=c1ccc2cc(O)c(O)cc2o1
REMARK SMILES IDX 4 1 3 2 2 3 1 4 13 5 12 6 11 7 9 8 7 9 6 10 5 11 8 12 10 14
REMARK H PARENT 8 13 10 15
REMARK Flexibility Score: inf
ROOT
ATOM      1  C   UNL     1      75.423  58.149  10.937  1.00  0.00     0.019 A 
ATOM      2  C   UNL     1      74.080  57.782  10.858  1.00  0.00     0.094 A 
ATOM      3  C   UNL     1      73.393  57.981   9.656  1.00  0.00     0.336 A 
ATOM      4  O   UNL     1      72.181  57.655   9.563  1.00  0.00    -0.246 OA
ATOM      5  O   UNL     1      74.013  58.513   8.605  1.00  0.00    -0.423 OA
ATOM      6  C   UNL     1      75.292  58.878   8.639  1.00  0.00     0.142 A 
ATOM      7  C   UNL     1      75.891  59.433   7.504  1.00  0.00     0.098 A 
ATOM      8  C   UNL     1      77.239  59.820   7.534  1.00  0.00     0.161 A 
ATOM      9  C   UNL     1      77.993  59.648   8.710  1.00  0.00     0.158 A 
ATOM     10  C   UNL     1      77.396  59.093   9.847  1.00  0.00     0.062 A 
ATOM     11  C   UNL     1      76.049  58.707   9.818  1.00  0.00     0.022 A 
ENDROOT
BRANCH   9  12
ATOM     12  O   UNL     1      79.335  60.024   8.765  1.00  0.00    -0.504 OA
ATOM     13  H   UNL     1      79.860  60.018   9.631  1.00  0.00     0.293 HD
ENDBRANCH   9  12
BRANCH   8  14
ATOM     14  O   UNL     1      77.833  60.371   6.399  1.00  0.00    -0.504 OA
ATOM     15  H   UNL     1      78.696  60.899   6.455  1.00  0.00     0.293 HD
ENDBRANCH   8  14
TORSDOF 2
ENDMDL
