MODEL 1
REMARK VINA RESULT:    -4.141      0.000      0.000
REMARK INTER + INTRA:         -13.944
REMARK INTER:                  -9.466
REMARK INTRA:                  -4.479
REMARK UNBOUND:                -4.479
REMARK SMILES CCCCCCCCCCCCCCCCCCCCCCCC(=O)[O-]
REMARK SMILES IDX 13 1 14 2 15 3 16 4 17 5 18 6 19 7 20 8 21 9 22 10 23 11
REMARK SMILES IDX 24 12 25 13 26 14 12 15 11 16 10 17 9 18 8 19 7 20 6 21 5 22
REMARK SMILES IDX 4 23 3 24 2 25 1 26
REMARK H PARENT
REMARK Flexibility Score: inf
ROOT
ATOM      1  C   UNL     1     -22.667 -12.760 -17.069  1.00  0.00     0.000 C 
ENDROOT
BRANCH   1   2
ATOM      2  C   UNL     1     -23.413 -12.137 -15.876  1.00  0.00     0.000 C 
BRANCH   2   3
ATOM      3  C   UNL     1     -23.297 -12.976 -14.595  1.00  0.00     0.000 C 
BRANCH   3   4
ATOM      4  C   UNL     1     -24.685 -13.277 -14.011  1.00  0.00     0.000 C 
BRANCH   4   5
ATOM      5  C   UNL     1     -25.102 -14.745 -14.189  1.00  0.00     0.000 C 
BRANCH   5   6
ATOM      6  C   UNL     1     -23.937 -15.642 -14.636  1.00  0.00     0.000 C 
BRANCH   6   7
ATOM      7  C   UNL     1     -24.451 -16.873 -15.397  1.00  0.00     0.000 C 
BRANCH   7   8
ATOM      8  C   UNL     1     -23.836 -17.009 -16.800  1.00  0.00     0.000 C 
BRANCH   8   9
ATOM      9  C   UNL     1     -23.413 -18.438 -17.189  1.00  0.00     0.000 C 
BRANCH   9  10
ATOM     10  C   UNL     1     -21.885 -18.625 -17.197  1.00  0.00     0.006 C 
BRANCH  10  11
ATOM     11  C   UNL     1     -21.244 -18.240 -15.857  1.00  0.00     0.053 C 
BRANCH  11  12
ATOM     12  C   UNL     1     -21.534 -19.247 -14.787  1.00  0.00     0.041 C 
ATOM     13  O   UNL     1     -21.945 -18.871 -13.657  1.00  0.00    -0.550 OA
ATOM     14  O   UNL     1     -21.310 -20.597 -15.022  1.00  0.00    -0.550 OA
ENDBRANCH  11  12
ENDBRANCH  10  11
ENDBRANCH   9  10
ENDBRANCH   8   9
ENDBRANCH   7   8
ENDBRANCH   6   7
ENDBRANCH   5   6
ENDBRANCH   4   5
ENDBRANCH   3   4
ENDBRANCH   2   3
ENDBRANCH   1   2
BRANCH   1  15
ATOM     15  C   UNL     1     -21.299 -13.385 -16.730  1.00  0.00     0.000 C 
BRANCH  15  16
ATOM     16  C   UNL     1     -21.122 -14.845 -17.185  1.00  0.00     0.000 C 
BRANCH  16  17
ATOM     17  C   UNL     1     -19.661 -15.190 -17.522  1.00  0.00     0.000 C 
BRANCH  17  18
ATOM     18  C   UNL     1     -18.853 -13.965 -17.978  1.00  0.00    -0.000 C 
BRANCH  18  19
ATOM     19  C   UNL     1     -18.281 -14.130 -19.397  1.00  0.00    -0.000 C 
BRANCH  19  20
ATOM     20  C   UNL     1     -18.958 -13.198 -20.416  1.00  0.00    -0.000 C 
BRANCH  20  21
ATOM     21  C   UNL     1     -19.884 -12.166 -19.756  1.00  0.00    -0.000 C 
BRANCH  21  22
ATOM     22  C   UNL     1     -21.269 -12.171 -20.420  1.00  0.00    -0.000 C 
BRANCH  22  23
ATOM     23  C   UNL     1     -21.657 -13.549 -20.986  1.00  0.00    -0.000 C 
BRANCH  23  24
ATOM     24  C   UNL     1     -22.939 -14.163 -20.386  1.00  0.00    -0.000 C 
BRANCH  24  25
ATOM     25  C   UNL     1     -22.969 -15.701 -20.356  1.00  0.00    -0.003 C 
ATOM     26  C   UNL     1     -21.596 -16.328 -20.593  1.00  0.00     0.004 C 
ENDBRANCH  24  25
ENDBRANCH  23  24
ENDBRANCH  22  23
ENDBRANCH  21  22
ENDBRANCH  20  21
ENDBRANCH  19  20
ENDBRANCH  18  19
ENDBRANCH  17  18
ENDBRANCH  16  17
ENDBRANCH  15  16
ENDBRANCH   1  15
TORSDOF 22
ENDMDL
MODEL 2
REMARK VINA RESULT:    -3.994      2.256      3.942
REMARK INTER + INTRA:         -13.610
REMARK INTER:                  -9.597
REMARK INTRA:                  -4.013
REMARK UNBOUND:                -4.479
REMARK SMILES CCCCCCCCCCCCCCCCCCCCCCCC(=O)[O-]
REMARK SMILES IDX 13 1 14 2 15 3 16 4 17 5 18 6 19 7 20 8 21 9 22 10 23 11
REMARK SMILES IDX 24 12 25 13 26 14 12 15 11 16 10 17 9 18 8 19 7 20 6 21 5 22
REMARK SMILES IDX 4 23 3 24 2 25 1 26
REMARK H PARENT
REMARK Flexibility Score: inf
ROOT
ATOM      1  C   UNL     1     -22.997 -13.041 -18.025  1.00  0.00     0.000 C 
ENDROOT
BRANCH   1   2
ATOM      2  C   UNL     1     -22.571 -12.039 -16.939  1.00  0.00     0.000 C 
BRANCH   2   3
ATOM      3  C   UNL     1     -23.381 -12.183 -15.642  1.00  0.00     0.000 C 
BRANCH   3   4
ATOM      4  C   UNL     1     -22.847 -13.346 -14.791  1.00  0.00     0.000 C 
BRANCH   4   5
ATOM      5  C   UNL     1     -23.962 -14.272 -14.281  1.00  0.00     0.000 C 
BRANCH   5   6
ATOM      6  C   UNL     1     -23.728 -15.744 -14.659  1.00  0.00     0.000 C 
BRANCH   6   7
ATOM      7  C   UNL     1     -23.056 -15.858 -16.035  1.00  0.00     0.000 C 
BRANCH   7   8
ATOM      8  C   UNL     1     -23.655 -16.979 -16.903  1.00  0.00     0.000 C 
BRANCH   8   9
ATOM      9  C   UNL     1     -23.482 -16.789 -18.421  1.00  0.00     0.000 C 
BRANCH   9  10
ATOM     10  C   UNL     1     -22.590 -17.870 -19.058  1.00  0.00     0.006 C 
BRANCH  10  11
ATOM     11  C   UNL     1     -23.224 -19.265 -18.986  1.00  0.00     0.053 C 
BRANCH  11  12
ATOM     12  C   UNL     1     -24.453 -19.367 -19.836  1.00  0.00     0.041 C 
ATOM     13  O   UNL     1     -24.380 -19.192 -21.081  1.00  0.00    -0.550 OA
ATOM     14  O   UNL     1     -25.687 -19.614 -19.249  1.00  0.00    -0.550 OA
ENDBRANCH  11  12
ENDBRANCH  10  11
ENDBRANCH   9  10
ENDBRANCH   8   9
ENDBRANCH   7   8
ENDBRANCH   6   7
ENDBRANCH   5   6
ENDBRANCH   4   5
ENDBRANCH   3   4
ENDBRANCH   2   3
ENDBRANCH   1   2
BRANCH   1  15
ATOM     15  C   UNL     1     -22.625 -12.640 -19.466  1.00  0.00     0.000 C 
BRANCH  15  16
ATOM     16  C   UNL     1     -22.329 -13.817 -20.412  1.00  0.00     0.000 C 
BRANCH  16  17
ATOM     17  C   UNL     1     -20.951 -13.707 -21.088  1.00  0.00     0.000 C 
BRANCH  17  18
ATOM     18  C   UNL     1     -19.973 -12.822 -20.298  1.00  0.00    -0.000 C 
BRANCH  18  19
ATOM     19  C   UNL     1     -18.914 -13.641 -19.542  1.00  0.00    -0.000 C 
BRANCH  19  20
ATOM     20  C   UNL     1     -19.071 -13.541 -18.015  1.00  0.00    -0.000 C 
BRANCH  20  21
ATOM     21  C   UNL     1     -19.958 -14.652 -17.434  1.00  0.00    -0.000 C 
BRANCH  21  22
ATOM     22  C   UNL     1     -19.681 -15.992 -18.131  1.00  0.00    -0.000 C 
BRANCH  22  23
ATOM     23  C   UNL     1     -18.463 -16.731 -17.547  1.00  0.00    -0.000 C 
BRANCH  23  24
ATOM     24  C   UNL     1     -18.784 -17.726 -16.413  1.00  0.00    -0.000 C 
BRANCH  24  25
ATOM     25  C   UNL     1     -20.270 -18.105 -16.283  1.00  0.00    -0.003 C 
ATOM     26  C   UNL     1     -20.526 -19.143 -15.191  1.00  0.00     0.004 C 
ENDBRANCH  24  25
ENDBRANCH  23  24
ENDBRANCH  22  23
ENDBRANCH  21  22
ENDBRANCH  20  21
ENDBRANCH  19  20
ENDBRANCH  18  19
ENDBRANCH  17  18
ENDBRANCH  16  17
ENDBRANCH  15  16
ENDBRANCH   1  15
TORSDOF 22
ENDMDL
MODEL 3
REMARK VINA RESULT:    -3.946      1.793      4.944
REMARK INTER + INTRA:         -13.499
REMARK INTER:                  -9.566
REMARK INTRA:                  -3.933
REMARK UNBOUND:                -4.479
REMARK SMILES CCCCCCCCCCCCCCCCCCCCCCCC(=O)[O-]
REMARK SMILES IDX 13 1 14 2 15 3 16 4 17 5 18 6 19 7 20 8 21 9 22 10 23 11
REMARK SMILES IDX 24 12 25 13 26 14 12 15 11 16 10 17 9 18 8 19 7 20 6 21 5 22
REMARK SMILES IDX 4 23 3 24 2 25 1 26
REMARK H PARENT
REMARK Flexibility Score: inf
ROOT
ATOM      1  C   UNL     1     -19.772 -13.904 -20.148  1.00  0.00     0.000 C 
ENDROOT
BRANCH   1   2
ATOM      2  C   UNL     1     -19.334 -13.013 -18.973  1.00  0.00     0.000 C 
BRANCH   2   3
ATOM      3  C   UNL     1     -19.336 -13.755 -17.628  1.00  0.00     0.000 C 
BRANCH   3   4
ATOM      4  C   UNL     1     -18.979 -15.237 -17.821  1.00  0.00     0.000 C 
BRANCH   4   5
ATOM      5  C   UNL     1     -20.000 -16.185 -17.173  1.00  0.00     0.000 C 
BRANCH   5   6
ATOM      6  C   UNL     1     -20.379 -17.362 -18.087  1.00  0.00     0.000 C 
BRANCH   6   7
ATOM      7  C   UNL     1     -20.680 -18.623 -17.264  1.00  0.00     0.000 C 
BRANCH   7   8
ATOM      8  C   UNL     1     -20.228 -18.503 -15.797  1.00  0.00     0.000 C 
BRANCH   8   9
ATOM      9  C   UNL     1     -21.037 -19.350 -14.797  1.00  0.00     0.000 C 
BRANCH   9  10
ATOM     10  C   UNL     1     -20.294 -20.625 -14.361  1.00  0.00     0.006 C 
BRANCH  10  11
ATOM     11  C   UNL     1     -20.633 -21.033 -12.920  1.00  0.00     0.053 C 
BRANCH  11  12
ATOM     12  C   UNL     1     -20.347 -22.481 -12.666  1.00  0.00     0.041 C 
ATOM     13  O   UNL     1     -21.267 -23.252 -12.286  1.00  0.00    -0.550 OA
ATOM     14  O   UNL     1     -19.055 -22.972 -12.808  1.00  0.00    -0.550 OA
ENDBRANCH  11  12
ENDBRANCH  10  11
ENDBRANCH   9  10
ENDBRANCH   8   9
ENDBRANCH   7   8
ENDBRANCH   6   7
ENDBRANCH   5   6
ENDBRANCH   4   5
ENDBRANCH   3   4
ENDBRANCH   2   3
ENDBRANCH   1   2
BRANCH   1  15
ATOM     15  C   UNL     1     -20.836 -13.285 -21.076  1.00  0.00     0.000 C 
BRANCH  15  16
ATOM     16  C   UNL     1     -22.246 -13.180 -20.468  1.00  0.00     0.000 C 
BRANCH  16  17
ATOM     17  C   UNL     1     -22.664 -14.453 -19.710  1.00  0.00     0.000 C 
BRANCH  17  18
ATOM     18  C   UNL     1     -22.993 -14.182 -18.233  1.00  0.00    -0.000 C 
BRANCH  18  19
ATOM     19  C   UNL     1     -22.880 -12.693 -17.866  1.00  0.00    -0.000 C 
BRANCH  19  20
ATOM     20  C   UNL     1     -22.997 -12.449 -16.352  1.00  0.00    -0.000 C 
BRANCH  20  21
ATOM     21  C   UNL     1     -22.365 -13.573 -15.518  1.00  0.00    -0.000 C 
BRANCH  21  22
ATOM     22  C   UNL     1     -23.298 -13.996 -14.374  1.00  0.00    -0.000 C 
BRANCH  22  23
ATOM     23  C   UNL     1     -24.111 -15.262 -14.701  1.00  0.00    -0.000 C 
BRANCH  23  24
ATOM     24  C   UNL     1     -23.331 -16.366 -15.444  1.00  0.00    -0.000 C 
BRANCH  24  25
ATOM     25  C   UNL     1     -24.190 -17.531 -15.965  1.00  0.00    -0.003 C 
ATOM     26  C   UNL     1     -24.041 -17.755 -17.470  1.00  0.00     0.004 C 
ENDBRANCH  24  25
ENDBRANCH  23  24
ENDBRANCH  22  23
ENDBRANCH  21  22
ENDBRANCH  20  21
ENDBRANCH  19  20
ENDBRANCH  18  19
ENDBRANCH  17  18
ENDBRANCH  16  17
ENDBRANCH  15  16
ENDBRANCH   1  15
TORSDOF 22
ENDMDL
MODEL 4
REMARK VINA RESULT:    -3.921      1.352      2.706
REMARK INTER + INTRA:         -13.443
REMARK INTER:                  -9.761
REMARK INTRA:                  -3.682
REMARK UNBOUND:                -4.479
REMARK SMILES CCCCCCCCCCCCCCCCCCCCCCCC(=O)[O-]
REMARK SMILES IDX 13 1 14 2 15 3 16 4 17 5 18 6 19 7 20 8 21 9 22 10 23 11
REMARK SMILES IDX 24 12 25 13 26 14 12 15 11 16 10 17 9 18 8 19 7 20 6 21 5 22
REMARK SMILES IDX 4 23 3 24 2 25 1 26
REMARK H PARENT
REMARK Flexibility Score: inf
ROOT
ATOM      1  C   UNL     1     -23.028 -12.139 -16.115  1.00  0.00     0.000 C 
ENDROOT
BRANCH   1   2
ATOM      2  C   UNL     1     -23.031 -12.991 -14.834  1.00  0.00     0.000 C 
BRANCH   2   3
ATOM      3  C   UNL     1     -24.378 -12.959 -14.098  1.00  0.00     0.000 C 
BRANCH   3   4
ATOM      4  C   UNL     1     -24.984 -14.368 -14.007  1.00  0.00     0.000 C 
BRANCH   4   5
ATOM      5  C   UNL     1     -24.032 -15.461 -14.518  1.00  0.00     0.000 C 
BRANCH   5   6
ATOM      6  C   UNL     1     -24.763 -16.768 -14.866  1.00  0.00     0.000 C 
BRANCH   6   7
ATOM      7  C   UNL     1     -23.922 -17.633 -15.816  1.00  0.00     0.000 C 
BRANCH   7   8
ATOM      8  C   UNL     1     -23.050 -18.661 -15.074  1.00  0.00     0.000 C 
BRANCH   8   9
ATOM      9  C   UNL     1     -21.753 -19.060 -15.803  1.00  0.00     0.000 C 
BRANCH   9  10
ATOM     10  C   UNL     1     -20.562 -19.236 -14.844  1.00  0.00     0.006 C 
BRANCH  10  11
ATOM     11  C   UNL     1     -20.556 -20.614 -14.168  1.00  0.00     0.053 C 
BRANCH  11  12
ATOM     12  C   UNL     1     -20.720 -20.511 -12.683  1.00  0.00     0.041 C 
ATOM     13  O   UNL     1     -20.293 -21.428 -11.932  1.00  0.00    -0.550 OA
ATOM     14  O   UNL     1     -21.380 -19.421 -12.129  1.00  0.00    -0.550 OA
ENDBRANCH  11  12
ENDBRANCH  10  11
ENDBRANCH   9  10
ENDBRANCH   8   9
ENDBRANCH   7   8
ENDBRANCH   6   7
ENDBRANCH   5   6
ENDBRANCH   4   5
ENDBRANCH   3   4
ENDBRANCH   2   3
ENDBRANCH   1   2
BRANCH   1  15
ATOM     15  C   UNL     1     -22.995 -12.939 -17.432  1.00  0.00     0.000 C 
BRANCH  15  16
ATOM     16  C   UNL     1     -22.604 -12.123 -18.678  1.00  0.00     0.000 C 
BRANCH  16  17
ATOM     17  C   UNL     1     -22.579 -12.972 -19.961  1.00  0.00     0.000 C 
BRANCH  17  18
ATOM     18  C   UNL     1     -21.153 -13.233 -20.472  1.00  0.00    -0.000 C 
BRANCH  18  19
ATOM     19  C   UNL     1     -20.092 -12.434 -19.695  1.00  0.00    -0.000 C 
BRANCH  19  20
ATOM     20  C   UNL     1     -19.015 -13.336 -19.071  1.00  0.00    -0.000 C 
BRANCH  20  21
ATOM     21  C   UNL     1     -19.350 -13.753 -17.631  1.00  0.00    -0.000 C 
BRANCH  21  22
ATOM     22  C   UNL     1     -19.459 -15.281 -17.516  1.00  0.00    -0.000 C 
BRANCH  22  23
ATOM     23  C   UNL     1     -20.881 -15.756 -17.165  1.00  0.00    -0.000 C 
BRANCH  23  24
ATOM     24  C   UNL     1     -21.708 -16.279 -18.357  1.00  0.00    -0.000 C 
BRANCH  24  25
ATOM     25  C   UNL     1     -21.008 -17.350 -19.212  1.00  0.00    -0.003 C 
ATOM     26  C   UNL     1     -20.645 -16.851 -20.611  1.00  0.00     0.004 C 
ENDBRANCH  24  25
ENDBRANCH  23  24
ENDBRANCH  22  23
ENDBRANCH  21  22
ENDBRANCH  20  21
ENDBRANCH  19  20
ENDBRANCH  18  19
ENDBRANCH  17  18
ENDBRANCH  16  17
ENDBRANCH  15  16
ENDBRANCH   1  15
TORSDOF 22
ENDMDL
MODEL 5
REMARK VINA RESULT:    -3.880      1.356      2.610
REMARK INTER + INTRA:         -13.350
REMARK INTER:                  -9.023
REMARK INTRA:                  -4.327
REMARK UNBOUND:                -4.479
REMARK SMILES CCCCCCCCCCCCCCCCCCCCCCCC(=O)[O-]
REMARK SMILES IDX 13 1 14 2 15 3 16 4 17 5 18 6 19 7 20 8 21 9 22 10 23 11
REMARK SMILES IDX 24 12 25 13 26 14 12 15 11 16 10 17 9 18 8 19 7 20 6 21 5 22
REMARK SMILES IDX 4 23 3 24 2 25 1 26
REMARK H PARENT
REMARK Flexibility Score: inf
ROOT
ATOM      1  C   UNL     1     -22.659 -14.725 -16.677  1.00  0.00     0.000 C 
ENDROOT
BRANCH   1   2
ATOM      2  C   UNL     1     -22.612 -13.200 -16.481  1.00  0.00     0.000 C 
BRANCH   2   3
ATOM      3  C   UNL     1     -23.217 -12.751 -15.143  1.00  0.00     0.000 C 
BRANCH   3   4
ATOM      4  C   UNL     1     -23.707 -13.960 -14.331  1.00  0.00     0.000 C 
BRANCH   4   5
ATOM      5  C   UNL     1     -25.185 -13.849 -13.928  1.00  0.00     0.000 C 
BRANCH   5   6
ATOM      6  C   UNL     1     -25.919 -15.198 -13.986  1.00  0.00     0.000 C 
BRANCH   6   7
ATOM      7  C   UNL     1     -24.927 -16.367 -13.905  1.00  0.00     0.000 C 
BRANCH   7   8
ATOM      8  C   UNL     1     -25.089 -17.371 -15.061  1.00  0.00     0.000 C 
BRANCH   8   9
ATOM      9  C   UNL     1     -23.976 -18.430 -15.164  1.00  0.00     0.000 C 
BRANCH   9  10
ATOM     10  C   UNL     1     -22.598 -17.888 -14.743  1.00  0.00     0.006 C 
BRANCH  10  11
ATOM     11  C   UNL     1     -21.466 -18.882 -15.038  1.00  0.00     0.053 C 
BRANCH  11  12
ATOM     12  C   UNL     1     -21.152 -19.742 -13.853  1.00  0.00     0.041 C 
ATOM     13  O   UNL     1     -20.575 -20.851 -14.009  1.00  0.00    -0.550 OA
ATOM     14  O   UNL     1     -21.534 -19.340 -12.580  1.00  0.00    -0.550 OA
ENDBRANCH  11  12
ENDBRANCH  10  11
ENDBRANCH   9  10
ENDBRANCH   8   9
ENDBRANCH   7   8
ENDBRANCH   6   7
ENDBRANCH   5   6
ENDBRANCH   4   5
ENDBRANCH   3   4
ENDBRANCH   2   3
ENDBRANCH   1   2
BRANCH   1  15
ATOM     15  C   UNL     1     -22.831 -15.191 -18.136  1.00  0.00     0.000 C 
BRANCH  15  16
ATOM     16  C   UNL     1     -23.125 -16.692 -18.309  1.00  0.00     0.000 C 
BRANCH  16  17
ATOM     17  C   UNL     1     -22.032 -17.425 -19.106  1.00  0.00     0.000 C 
BRANCH  17  18
ATOM     18  C   UNL     1     -20.671 -17.417 -18.392  1.00  0.00    -0.000 C 
BRANCH  18  19
ATOM     19  C   UNL     1     -19.501 -17.146 -19.354  1.00  0.00    -0.000 C 
BRANCH  19  20
ATOM     20  C   UNL     1     -18.801 -15.808 -19.066  1.00  0.00    -0.000 C 
BRANCH  20  21
ATOM     21  C   UNL     1     -19.157 -15.234 -17.687  1.00  0.00    -0.000 C 
BRANCH  21  22
ATOM     22  C   UNL     1     -19.106 -13.699 -17.703  1.00  0.00    -0.000 C 
BRANCH  22  23
ATOM     23  C   UNL     1     -19.308 -13.109 -19.111  1.00  0.00    -0.000 C 
BRANCH  23  24
ATOM     24  C   UNL     1     -20.681 -12.447 -19.350  1.00  0.00    -0.000 C 
BRANCH  24  25
ATOM     25  C   UNL     1     -21.259 -12.645 -20.762  1.00  0.00    -0.003 C 
ATOM     26  C   UNL     1     -21.270 -14.108 -21.201  1.00  0.00     0.004 C 
ENDBRANCH  24  25
ENDBRANCH  23  24
ENDBRANCH  22  23
ENDBRANCH  21  22
ENDBRANCH  20  21
ENDBRANCH  19  20
ENDBRANCH  18  19
ENDBRANCH  17  18
ENDBRANCH  16  17
ENDBRANCH  15  16
ENDBRANCH   1  15
TORSDOF 22
ENDMDL
MODEL 6
REMARK VINA RESULT:    -3.870      2.113      4.716
REMARK INTER + INTRA:         -13.325
REMARK INTER:                  -9.637
REMARK INTRA:                  -3.688
REMARK UNBOUND:                -4.479
REMARK SMILES CCCCCCCCCCCCCCCCCCCCCCCC(=O)[O-]
REMARK SMILES IDX 13 1 14 2 15 3 16 4 17 5 18 6 19 7 20 8 21 9 22 10 23 11
REMARK SMILES IDX 24 12 25 13 26 14 12 15 11 16 10 17 9 18 8 19 7 20 6 21 5 22
REMARK SMILES IDX 4 23 3 24 2 25 1 26
REMARK H PARENT
REMARK Flexibility Score: inf
ROOT
ATOM      1  C   UNL     1     -19.350 -13.526 -19.679  1.00  0.00     0.000 C 
ENDROOT
BRANCH   1   2
ATOM      2  C   UNL     1     -19.665 -12.166 -20.326  1.00  0.00     0.000 C 
BRANCH   2   3
ATOM      3  C   UNL     1     -20.964 -12.179 -21.144  1.00  0.00     0.000 C 
BRANCH   3   4
ATOM      4  C   UNL     1     -22.085 -12.897 -20.377  1.00  0.00     0.000 C 
BRANCH   4   5
ATOM      5  C   UNL     1     -22.660 -12.051 -19.230  1.00  0.00     0.000 C 
BRANCH   5   6
ATOM      6  C   UNL     1     -22.929 -12.876 -17.962  1.00  0.00     0.000 C 
BRANCH   6   7
ATOM      7  C   UNL     1     -22.764 -12.016 -16.700  1.00  0.00     0.000 C 
BRANCH   7   8
ATOM      8  C   UNL     1     -23.297 -12.705 -15.432  1.00  0.00     0.000 C 
BRANCH   8   9
ATOM      9  C   UNL     1     -22.713 -14.103 -15.158  1.00  0.00     0.000 C 
BRANCH   9  10
ATOM     10  C   UNL     1     -23.782 -15.210 -15.185  1.00  0.00     0.006 C 
BRANCH  10  11
ATOM     11  C   UNL     1     -24.787 -15.079 -14.033  1.00  0.00     0.053 C 
BRANCH  11  12
ATOM     12  C   UNL     1     -25.116 -16.406 -13.422  1.00  0.00     0.041 C 
ATOM     13  O   UNL     1     -25.864 -16.472 -12.411  1.00  0.00    -0.550 OA
ATOM     14  O   UNL     1     -24.563 -17.569 -13.943  1.00  0.00    -0.550 OA
ENDBRANCH  11  12
ENDBRANCH  10  11
ENDBRANCH   9  10
ENDBRANCH   8   9
ENDBRANCH   7   8
ENDBRANCH   6   7
ENDBRANCH   5   6
ENDBRANCH   4   5
ENDBRANCH   3   4
ENDBRANCH   2   3
ENDBRANCH   1   2
BRANCH   1  15
ATOM     15  C   UNL     1     -19.063 -13.478 -18.165  1.00  0.00     0.000 C 
BRANCH  15  16
ATOM     16  C   UNL     1     -19.793 -14.546 -17.331  1.00  0.00     0.000 C 
BRANCH  16  17
ATOM     17  C   UNL     1     -19.206 -15.956 -17.524  1.00  0.00     0.000 C 
BRANCH  17  18
ATOM     18  C   UNL     1     -20.192 -16.921 -18.200  1.00  0.00    -0.000 C 
BRANCH  18  19
ATOM     19  C   UNL     1     -21.651 -16.441 -18.102  1.00  0.00    -0.000 C 
BRANCH  19  20
ATOM     20  C   UNL     1     -22.309 -16.273 -19.481  1.00  0.00    -0.000 C 
BRANCH  20  21
ATOM     21  C   UNL     1     -21.334 -16.523 -20.641  1.00  0.00    -0.000 C 
BRANCH  21  22
ATOM     22  C   UNL     1     -21.990 -16.188 -21.989  1.00  0.00    -0.000 C 
BRANCH  22  23
ATOM     23  C   UNL     1     -20.964 -15.842 -23.084  1.00  0.00    -0.000 C 
BRANCH  23  24
ATOM     24  C   UNL     1     -21.556 -15.649 -24.495  1.00  0.00    -0.000 C 
BRANCH  24  25
ATOM     25  C   UNL     1     -20.957 -14.480 -25.296  1.00  0.00    -0.003 C 
ATOM     26  C   UNL     1     -19.936 -13.672 -24.497  1.00  0.00     0.004 C 
ENDBRANCH  24  25
ENDBRANCH  23  24
ENDBRANCH  22  23
ENDBRANCH  21  22
ENDBRANCH  20  21
ENDBRANCH  19  20
ENDBRANCH  18  19
ENDBRANCH  17  18
ENDBRANCH  16  17
ENDBRANCH  15  16
ENDBRANCH   1  15
TORSDOF 22
ENDMDL
MODEL 7
REMARK VINA RESULT:    -3.842      3.188      6.246
REMARK INTER + INTRA:         -13.261
REMARK INTER:                  -9.508
REMARK INTRA:                  -3.753
REMARK UNBOUND:                -4.479
REMARK SMILES CCCCCCCCCCCCCCCCCCCCCCCC(=O)[O-]
REMARK SMILES IDX 13 1 14 2 15 3 16 4 17 5 18 6 19 7 20 8 21 9 22 10 23 11
REMARK SMILES IDX 24 12 25 13 26 14 12 15 11 16 10 17 9 18 8 19 7 20 6 21 5 22
REMARK SMILES IDX 4 23 3 24 2 25 1 26
REMARK H PARENT
REMARK Flexibility Score: inf
ROOT
ATOM      1  C   UNL     1     -23.590 -14.302 -14.399  1.00  0.00     0.000 C 
ENDROOT
BRANCH   1   2
ATOM      2  C   UNL     1     -24.003 -12.821 -14.443  1.00  0.00     0.000 C 
BRANCH   2   3
ATOM      3  C   UNL     1     -23.380 -12.061 -15.622  1.00  0.00     0.000 C 
BRANCH   3   4
ATOM      4  C   UNL     1     -22.537 -13.003 -16.495  1.00  0.00     0.000 C 
BRANCH   4   5
ATOM      5  C   UNL     1     -22.803 -12.822 -17.998  1.00  0.00     0.000 C 
BRANCH   5   6
ATOM      6  C   UNL     1     -23.001 -14.159 -18.729  1.00  0.00     0.000 C 
BRANCH   6   7
ATOM      7  C   UNL     1     -22.909 -13.972 -20.251  1.00  0.00     0.000 C 
BRANCH   7   8
ATOM      8  C   UNL     1     -21.893 -12.893 -20.661  1.00  0.00     0.000 C 
BRANCH   8   9
ATOM      9  C   UNL     1     -20.471 -13.412 -20.945  1.00  0.00     0.000 C 
BRANCH   9  10
ATOM     10  C   UNL     1     -20.466 -14.786 -21.638  1.00  0.00     0.006 C 
BRANCH  10  11
ATOM     11  C   UNL     1     -20.447 -14.667 -23.168  1.00  0.00     0.053 C 
BRANCH  11  12
ATOM     12  C   UNL     1     -21.467 -15.554 -23.813  1.00  0.00     0.041 C 
ATOM     13  O   UNL     1     -21.352 -15.877 -25.025  1.00  0.00    -0.550 OA
ATOM     14  O   UNL     1     -22.567 -15.992 -23.087  1.00  0.00    -0.550 OA
ENDBRANCH  11  12
ENDBRANCH  10  11
ENDBRANCH   9  10
ENDBRANCH   8   9
ENDBRANCH   7   8
ENDBRANCH   6   7
ENDBRANCH   5   6
ENDBRANCH   4   5
ENDBRANCH   3   4
ENDBRANCH   2   3
ENDBRANCH   1   2
BRANCH   1  15
ATOM     15  C   UNL     1     -24.759 -15.305 -14.337  1.00  0.00     0.000 C 
BRANCH  15  16
ATOM     16  C   UNL     1     -24.525 -16.623 -15.096  1.00  0.00     0.000 C 
BRANCH  16  17
ATOM     17  C   UNL     1     -23.294 -16.569 -16.018  1.00  0.00     0.000 C 
BRANCH  17  18
ATOM     18  C   UNL     1     -22.984 -17.924 -16.675  1.00  0.00    -0.000 C 
BRANCH  18  19
ATOM     19  C   UNL     1     -22.183 -18.857 -15.752  1.00  0.00    -0.000 C 
BRANCH  19  20
ATOM     20  C   UNL     1     -20.860 -19.319 -16.386  1.00  0.00    -0.000 C 
BRANCH  20  21
ATOM     21  C   UNL     1     -19.626 -18.794 -15.638  1.00  0.00    -0.000 C 
BRANCH  21  22
ATOM     22  C   UNL     1     -18.860 -17.774 -16.494  1.00  0.00    -0.000 C 
BRANCH  22  23
ATOM     23  C   UNL     1     -19.355 -17.725 -17.951  1.00  0.00    -0.000 C 
BRANCH  23  24
ATOM     24  C   UNL     1     -19.988 -16.385 -18.381  1.00  0.00    -0.000 C 
BRANCH  24  25
ATOM     25  C   UNL     1     -19.867 -15.250 -17.350  1.00  0.00    -0.003 C 
ATOM     26  C   UNL     1     -18.903 -14.148 -17.789  1.00  0.00     0.004 C 
ENDBRANCH  24  25
ENDBRANCH  23  24
ENDBRANCH  22  23
ENDBRANCH  21  22
ENDBRANCH  20  21
ENDBRANCH  19  20
ENDBRANCH  18  19
ENDBRANCH  17  18
ENDBRANCH  16  17
ENDBRANCH  15  16
ENDBRANCH   1  15
TORSDOF 22
ENDMDL
MODEL 8
REMARK VINA RESULT:    -3.815      1.977      4.335
REMARK INTER + INTRA:         -13.200
REMARK INTER:                 -10.169
REMARK INTRA:                  -3.032
REMARK UNBOUND:                -4.479
REMARK SMILES CCCCCCCCCCCCCCCCCCCCCCCC(=O)[O-]
REMARK SMILES IDX 13 1 14 2 15 3 16 4 17 5 18 6 19 7 20 8 21 9 22 10 23 11
REMARK SMILES IDX 24 12 25 13 26 14 12 15 11 16 10 17 9 18 8 19 7 20 6 21 5 22
REMARK SMILES IDX 4 23 3 24 2 25 1 26
REMARK H PARENT
REMARK Flexibility Score: inf
ROOT
ATOM      1  C   UNL     1     -24.201 -15.009 -13.993  1.00  0.00     0.000 C 
ENDROOT
BRANCH   1   2
ATOM      2  C   UNL     1     -24.436 -16.033 -15.117  1.00  0.00     0.000 C 
BRANCH   2   3
ATOM      3  C   UNL     1     -23.186 -16.867 -15.436  1.00  0.00     0.000 C 
BRANCH   3   4
ATOM      4  C   UNL     1     -23.108 -17.182 -16.937  1.00  0.00     0.000 C 
BRANCH   4   5
ATOM      5  C   UNL     1     -21.810 -17.906 -17.328  1.00  0.00     0.000 C 
BRANCH   5   6
ATOM      6  C   UNL     1     -20.677 -17.677 -16.316  1.00  0.00     0.000 C 
BRANCH   6   7
ATOM      7  C   UNL     1     -20.082 -19.012 -15.845  1.00  0.00     0.000 C 
BRANCH   7   8
ATOM      8  C   UNL     1     -21.105 -19.900 -15.115  1.00  0.00     0.000 C 
BRANCH   8   9
ATOM      9  C   UNL     1     -21.475 -19.433 -13.695  1.00  0.00     0.000 C 
BRANCH   9  10
ATOM     10  C   UNL     1     -20.723 -20.209 -12.599  1.00  0.00     0.006 C 
BRANCH  10  11
ATOM     11  C   UNL     1     -20.785 -21.727 -12.813  1.00  0.00     0.053 C 
BRANCH  11  12
ATOM     12  C   UNL     1     -19.923 -22.467 -11.837  1.00  0.00     0.041 C 
ATOM     13  O   UNL     1     -19.259 -23.470 -12.209  1.00  0.00    -0.550 OA
ATOM     14  O   UNL     1     -19.884 -22.074 -10.505  1.00  0.00    -0.550 OA
ENDBRANCH  11  12
ENDBRANCH  10  11
ENDBRANCH   9  10
ENDBRANCH   8   9
ENDBRANCH   7   8
ENDBRANCH   6   7
ENDBRANCH   5   6
ENDBRANCH   4   5
ENDBRANCH   3   4
ENDBRANCH   2   3
ENDBRANCH   1   2
BRANCH   1  15
ATOM     15  C   UNL     1     -25.171 -13.810 -13.989  1.00  0.00     0.000 C 
BRANCH  15  16
ATOM     16  C   UNL     1     -24.530 -12.456 -14.342  1.00  0.00     0.000 C 
BRANCH  16  17
ATOM     17  C   UNL     1     -23.109 -12.601 -14.915  1.00  0.00     0.000 C 
BRANCH  17  18
ATOM     18  C   UNL     1     -23.033 -12.248 -16.409  1.00  0.00    -0.000 C 
BRANCH  18  19
ATOM     19  C   UNL     1     -22.477 -13.402 -17.261  1.00  0.00    -0.000 C 
BRANCH  19  20
ATOM     20  C   UNL     1     -21.187 -13.998 -16.673  1.00  0.00    -0.000 C 
BRANCH  20  21
ATOM     21  C   UNL     1     -20.064 -14.128 -17.713  1.00  0.00    -0.000 C 
BRANCH  21  22
ATOM     22  C   UNL     1     -19.976 -12.865 -18.583  1.00  0.00    -0.000 C 
BRANCH  22  23
ATOM     23  C   UNL     1     -19.444 -13.150 -20.000  1.00  0.00    -0.000 C 
BRANCH  23  24
ATOM     24  C   UNL     1     -20.457 -12.911 -21.138  1.00  0.00    -0.000 C 
BRANCH  24  25
ATOM     25  C   UNL     1     -21.929 -12.842 -20.694  1.00  0.00    -0.003 C 
ATOM     26  C   UNL     1     -22.642 -14.191 -20.783  1.00  0.00     0.004 C 
ENDBRANCH  24  25
ENDBRANCH  23  24
ENDBRANCH  22  23
ENDBRANCH  21  22
ENDBRANCH  20  21
ENDBRANCH  19  20
ENDBRANCH  18  19
ENDBRANCH  17  18
ENDBRANCH  16  17
ENDBRANCH  15  16
ENDBRANCH   1  15
TORSDOF 22
ENDMDL
MODEL 9
REMARK VINA RESULT:    -3.804      1.190      3.116
REMARK INTER + INTRA:         -13.176
REMARK INTER:                  -9.067
REMARK INTRA:                  -4.109
REMARK UNBOUND:                -4.479
REMARK SMILES CCCCCCCCCCCCCCCCCCCCCCCC(=O)[O-]
REMARK SMILES IDX 13 1 14 2 15 3 16 4 17 5 18 6 19 7 20 8 21 9 22 10 23 11
REMARK SMILES IDX 24 12 25 13 26 14 12 15 11 16 10 17 9 18 8 19 7 20 6 21 5 22
REMARK SMILES IDX 4 23 3 24 2 25 1 26
REMARK H PARENT
REMARK Flexibility Score: inf
ROOT
ATOM      1  C   UNL     1     -22.617 -13.379 -15.495  1.00  0.00     0.000 C 
ENDROOT
BRANCH   1   2
ATOM      2  C   UNL     1     -23.616 -13.820 -14.411  1.00  0.00     0.000 C 
BRANCH   2   3
ATOM      3  C   UNL     1     -24.129 -15.252 -14.620  1.00  0.00     0.000 C 
BRANCH   3   4
ATOM      4  C   UNL     1     -23.169 -16.053 -15.512  1.00  0.00     0.000 C 
BRANCH   4   5
ATOM      5  C   UNL     1     -23.894 -17.074 -16.402  1.00  0.00     0.000 C 
BRANCH   5   6
ATOM      6  C   UNL     1     -23.386 -17.061 -17.853  1.00  0.00     0.000 C 
BRANCH   6   7
ATOM      7  C   UNL     1     -23.186 -18.491 -18.379  1.00  0.00     0.000 C 
BRANCH   7   8
ATOM      8  C   UNL     1     -22.271 -19.337 -17.477  1.00  0.00     0.000 C 
BRANCH   8   9
ATOM      9  C   UNL     1     -20.821 -18.830 -17.361  1.00  0.00     0.000 C 
BRANCH   9  10
ATOM     10  C   UNL     1     -20.392 -18.580 -15.904  1.00  0.00     0.006 C 
BRANCH  10  11
ATOM     11  C   UNL     1     -20.400 -19.866 -15.066  1.00  0.00     0.053 C 
BRANCH  11  12
ATOM     12  C   UNL     1     -21.064 -19.666 -13.739  1.00  0.00     0.041 C 
ATOM     13  O   UNL     1     -21.990 -18.822 -13.613  1.00  0.00    -0.550 OA
ATOM     14  O   UNL     1     -20.632 -20.381 -12.629  1.00  0.00    -0.550 OA
ENDBRANCH  11  12
ENDBRANCH  10  11
ENDBRANCH   9  10
ENDBRANCH   8   9
ENDBRANCH   7   8
ENDBRANCH   6   7
ENDBRANCH   5   6
ENDBRANCH   4   5
ENDBRANCH   3   4
ENDBRANCH   2   3
ENDBRANCH   1   2
BRANCH   1  15
ATOM     15  C   UNL     1     -23.011 -12.104 -16.267  1.00  0.00     0.000 C 
BRANCH  15  16
ATOM     16  C   UNL     1     -22.609 -12.094 -17.752  1.00  0.00     0.000 C 
BRANCH  16  17
ATOM     17  C   UNL     1     -23.004 -13.389 -18.485  1.00  0.00     0.000 C 
BRANCH  17  18
ATOM     18  C   UNL     1     -22.739 -13.319 -19.997  1.00  0.00    -0.000 C 
BRANCH  18  19
ATOM     19  C   UNL     1     -22.455 -14.700 -20.612  1.00  0.00    -0.000 C 
BRANCH  19  20
ATOM     20  C   UNL     1     -21.232 -14.690 -21.543  1.00  0.00    -0.000 C 
BRANCH  20  21
ATOM     21  C   UNL     1     -20.351 -13.447 -21.354  1.00  0.00    -0.000 C 
BRANCH  21  22
ATOM     22  C   UNL     1     -18.869 -13.839 -21.253  1.00  0.00    -0.000 C 
BRANCH  22  23
ATOM     23  C   UNL     1     -18.386 -13.986 -19.798  1.00  0.00    -0.000 C 
BRANCH  23  24
ATOM     24  C   UNL     1     -19.169 -13.153 -18.763  1.00  0.00    -0.000 C 
BRANCH  24  25
ATOM     25  C   UNL     1     -19.463 -13.876 -17.437  1.00  0.00    -0.003 C 
ATOM     26  C   UNL     1     -20.022 -15.285 -17.637  1.00  0.00     0.004 C 
ENDBRANCH  24  25
ENDBRANCH  23  24
ENDBRANCH  22  23
ENDBRANCH  21  22
ENDBRANCH  20  21
ENDBRANCH  19  20
ENDBRANCH  18  19
ENDBRANCH  17  18
ENDBRANCH  16  17
ENDBRANCH  15  16
ENDBRANCH   1  15
TORSDOF 22
ENDMDL
