MODEL 1
REMARK VINA RESULT:    -3.133      0.000      0.000
REMARK INTER + INTRA:          -5.716
REMARK INTER:                  -4.965
REMARK INTRA:                  -0.751
REMARK UNBOUND:                -0.751
REMARK SMILES CCCCCCCCCCCC(=O)[O-]
REMARK SMILES IDX 7 1 8 2 9 3 10 4 11 5 12 6 13 7 14 8 6 9 5 10 4 11 3 12 2 13
REMARK SMILES IDX 1 14
REMARK H PARENT
REMARK Flexibility Score: inf
ROOT
ATOM      1  C   UNL     1       7.827  -0.387  -3.392  1.00  0.00     0.000 C 
ENDROOT
BRANCH   1   2
ATOM      2  C   UNL     1       7.214   0.714  -2.505  1.00  0.00     0.000 C 
BRANCH   2   3
ATOM      3  C   UNL     1       8.123   1.212  -1.364  1.00  0.00     0.000 C 
BRANCH   3   4
ATOM      4  C   UNL     1       8.072   2.732  -1.105  1.00  0.00     0.006 C 
BRANCH   4   5
ATOM      5  C   UNL     1       8.295   3.135   0.360  1.00  0.00     0.053 C 
BRANCH   5   6
ATOM      6  C   UNL     1       7.090   3.804   0.946  1.00  0.00     0.041 C 
ATOM      7  O   UNL     1       6.299   4.445   0.206  1.00  0.00    -0.550 OA
ATOM      8  O   UNL     1       6.824   3.692   2.305  1.00  0.00    -0.550 OA
ENDBRANCH   5   6
ENDBRANCH   4   5
ENDBRANCH   3   4
ENDBRANCH   2   3
ENDBRANCH   1   2
BRANCH   1   9
ATOM      9  C   UNL     1       7.063  -1.727  -3.391  1.00  0.00     0.000 C 
BRANCH   9  10
ATOM     10  C   UNL     1       7.749  -2.867  -2.617  1.00  0.00    -0.000 C 
BRANCH  10  11
ATOM     11  C   UNL     1       9.022  -2.412  -1.888  1.00  0.00    -0.000 C 
BRANCH  11  12
ATOM     12  C   UNL     1       9.003  -2.865  -0.419  1.00  0.00    -0.000 C 
BRANCH  12  13
ATOM     13  C   UNL     1       9.068  -1.685   0.563  1.00  0.00    -0.003 C 
ATOM     14  C   UNL     1       8.725  -2.088   1.996  1.00  0.00     0.004 C 
ENDBRANCH  12  13
ENDBRANCH  11  12
ENDBRANCH  10  11
ENDBRANCH   9  10
ENDBRANCH   1   9
TORSDOF 10
ENDMDL
MODEL 2
REMARK VINA RESULT:    -3.098      1.544      3.178
REMARK INTER + INTRA:          -5.660
REMARK INTER:                  -5.134
REMARK INTRA:                  -0.526
REMARK UNBOUND:                -0.751
REMARK SMILES CCCCCCCCCCCC(=O)[O-]
REMARK SMILES IDX 7 1 8 2 9 3 10 4 11 5 12 6 13 7 14 8 6 9 5 10 4 11 3 12 2 13
REMARK SMILES IDX 1 14
REMARK H PARENT
REMARK Flexibility Score: inf
ROOT
ATOM      1  C   UNL     1       7.626  -0.030  -2.297  1.00  0.00     0.000 C 
ENDROOT
BRANCH   1   2
ATOM      2  C   UNL     1       8.100   1.199  -1.498  1.00  0.00     0.000 C 
BRANCH   2   3
ATOM      3  C   UNL     1       8.904   0.876  -0.222  1.00  0.00     0.000 C 
BRANCH   3   4
ATOM      4  C   UNL     1       8.651   1.827   0.966  1.00  0.00     0.006 C 
BRANCH   4   5
ATOM      5  C   UNL     1       8.425   3.294   0.568  1.00  0.00     0.053 C 
BRANCH   5   6
ATOM      6  C   UNL     1       7.125   3.822   1.095  1.00  0.00     0.041 C 
ATOM      7  O   UNL     1       6.277   4.317   0.308  1.00  0.00    -0.550 OA
ATOM      8  O   UNL     1       6.838   3.736   2.451  1.00  0.00    -0.550 OA
ENDBRANCH   5   6
ENDBRANCH   4   5
ENDBRANCH   3   4
ENDBRANCH   2   3
ENDBRANCH   1   2
BRANCH   1   9
ATOM      9  C   UNL     1       8.164  -1.384  -1.792  1.00  0.00     0.000 C 
BRANCH   9  10
ATOM     10  C   UNL     1       7.801  -2.596  -2.669  1.00  0.00    -0.000 C 
BRANCH  10  11
ATOM     11  C   UNL     1       6.959  -2.216  -3.896  1.00  0.00    -0.000 C 
BRANCH  11  12
ATOM     12  C   UNL     1       6.360  -3.466  -4.558  1.00  0.00    -0.000 C 
BRANCH  12  13
ATOM     13  C   UNL     1       6.876  -4.771  -3.932  1.00  0.00    -0.003 C 
ATOM     14  C   UNL     1       5.866  -5.913  -4.027  1.00  0.00     0.004 C 
ENDBRANCH  12  13
ENDBRANCH  11  12
ENDBRANCH  10  11
ENDBRANCH   9  10
ENDBRANCH   1   9
TORSDOF 10
ENDMDL
MODEL 3
REMARK VINA RESULT:    -3.066      3.879      6.496
REMARK INTER + INTRA:          -5.609
REMARK INTER:                  -5.230
REMARK INTRA:                  -0.379
REMARK UNBOUND:                -0.751
REMARK SMILES CCCCCCCCCCCC(=O)[O-]
REMARK SMILES IDX 7 1 8 2 9 3 10 4 11 5 12 6 13 7 14 8 6 9 5 10 4 11 3 12 2 13
REMARK SMILES IDX 1 14
REMARK H PARENT
REMARK Flexibility Score: inf
ROOT
ATOM      1  C   UNL     1       7.686  -1.164  -2.361  1.00  0.00     0.000 C 
ENDROOT
BRANCH   1   2
ATOM      2  C   UNL     1       7.605  -2.617  -2.870  1.00  0.00     0.000 C 
BRANCH   2   3
ATOM      3  C   UNL     1       8.386  -3.646  -2.029  1.00  0.00     0.000 C 
BRANCH   3   4
ATOM      4  C   UNL     1       8.985  -3.096  -0.718  1.00  0.00     0.006 C 
BRANCH   4   5
ATOM      5  C   UNL     1       9.193  -4.153   0.378  1.00  0.00     0.053 C 
BRANCH   5   6
ATOM      6  C   UNL     1       8.497  -3.782   1.651  1.00  0.00     0.041 C 
ATOM      7  O   UNL     1       8.493  -2.586   2.046  1.00  0.00    -0.550 OA
ATOM      8  O   UNL     1       7.825  -4.751   2.384  1.00  0.00    -0.550 OA
ENDBRANCH   5   6
ENDBRANCH   4   5
ENDBRANCH   3   4
ENDBRANCH   2   3
ENDBRANCH   1   2
BRANCH   1   9
ATOM      9  C   UNL     1       6.918  -0.131  -3.211  1.00  0.00     0.000 C 
BRANCH   9  10
ATOM     10  C   UNL     1       6.180  -0.711  -4.431  1.00  0.00    -0.000 C 
BRANCH  10  11
ATOM     11  C   UNL     1       4.940   0.106  -4.823  1.00  0.00    -0.000 C 
BRANCH  11  12
ATOM     12  C   UNL     1       3.837  -0.806  -5.382  1.00  0.00    -0.000 C 
BRANCH  12  13
ATOM     13  C   UNL     1       2.450  -0.475  -4.807  1.00  0.00    -0.003 C 
ATOM     14  C   UNL     1       1.472  -1.645  -4.910  1.00  0.00     0.004 C 
ENDBRANCH  12  13
ENDBRANCH  11  12
ENDBRANCH  10  11
ENDBRANCH   9  10
ENDBRANCH   1   9
TORSDOF 10
ENDMDL
MODEL 4
REMARK VINA RESULT:    -3.057      4.398      6.345
REMARK INTER + INTRA:          -5.596
REMARK INTER:                  -5.002
REMARK INTRA:                  -0.594
REMARK UNBOUND:                -0.751
REMARK SMILES CCCCCCCCCCCC(=O)[O-]
REMARK SMILES IDX 7 1 8 2 9 3 10 4 11 5 12 6 13 7 14 8 6 9 5 10 4 11 3 12 2 13
REMARK SMILES IDX 1 14
REMARK H PARENT
REMARK Flexibility Score: inf
ROOT
ATOM      1  C   UNL     1       8.854  -1.052  -0.619  1.00  0.00     0.000 C 
ENDROOT
BRANCH   1   2
ATOM      2  C   UNL     1       8.951  -0.596   0.850  1.00  0.00     0.000 C 
BRANCH   2   3
ATOM      3  C   UNL     1       8.760  -1.716   1.894  1.00  0.00     0.000 C 
BRANCH   3   4
ATOM      4  C   UNL     1       8.941  -3.149   1.352  1.00  0.00     0.006 C 
BRANCH   4   5
ATOM      5  C   UNL     1       8.156  -4.222   2.121  1.00  0.00     0.053 C 
BRANCH   5   6
ATOM      6  C   UNL     1       8.524  -5.606   1.682  1.00  0.00     0.041 C 
ATOM      7  O   UNL     1       8.228  -6.598   2.400  1.00  0.00    -0.550 OA
ATOM      8  O   UNL     1       9.164  -5.803   0.466  1.00  0.00    -0.550 OA
ENDBRANCH   5   6
ENDBRANCH   4   5
ENDBRANCH   3   4
ENDBRANCH   2   3
ENDBRANCH   1   2
BRANCH   1   9
ATOM      9  C   UNL     1       8.063  -0.106  -1.545  1.00  0.00     0.000 C 
BRANCH   9  10
ATOM     10  C   UNL     1       7.546  -0.750  -2.844  1.00  0.00    -0.000 C 
BRANCH  10  11
ATOM     11  C   UNL     1       7.565  -2.285  -2.800  1.00  0.00    -0.000 C 
BRANCH  11  12
ATOM     12  C   UNL     1       6.845  -2.877  -4.021  1.00  0.00    -0.000 C 
BRANCH  12  13
ATOM     13  C   UNL     1       6.911  -4.413  -4.057  1.00  0.00    -0.003 C 
ATOM     14  C   UNL     1       7.831  -4.991  -2.982  1.00  0.00     0.004 C 
ENDBRANCH  12  13
ENDBRANCH  11  12
ENDBRANCH  10  11
ENDBRANCH   9  10
ENDBRANCH   1   9
TORSDOF 10
ENDMDL
MODEL 5
REMARK VINA RESULT:    -3.041      2.498      5.013
REMARK INTER + INTRA:          -5.570
REMARK INTER:                  -4.719
REMARK INTRA:                  -0.850
REMARK UNBOUND:                -0.751
REMARK SMILES CCCCCCCCCCCC(=O)[O-]
REMARK SMILES IDX 7 1 8 2 9 3 10 4 11 5 12 6 13 7 14 8 6 9 5 10 4 11 3 12 2 13
REMARK SMILES IDX 1 14
REMARK H PARENT
REMARK Flexibility Score: inf
ROOT
ATOM      1  C   UNL     1       8.068  -4.367  -2.521  1.00  0.00     0.000 C 
ENDROOT
BRANCH   1   2
ATOM      2  C   UNL     1       9.172  -4.095  -1.481  1.00  0.00     0.000 C 
BRANCH   2   3
ATOM      3  C   UNL     1       9.073  -4.935  -0.192  1.00  0.00     0.000 C 
BRANCH   3   4
ATOM      4  C   UNL     1       8.991  -4.116   1.113  1.00  0.00     0.006 C 
BRANCH   4   5
ATOM      5  C   UNL     1       8.837  -2.602   0.905  1.00  0.00     0.053 C 
BRANCH   5   6
ATOM      6  C   UNL     1       9.020  -1.840   2.182  1.00  0.00     0.041 C 
ATOM      7  O   UNL     1       8.702  -0.624   2.245  1.00  0.00    -0.550 OA
ATOM      8  O   UNL     1       9.511  -2.483   3.311  1.00  0.00    -0.550 OA
ENDBRANCH   5   6
ENDBRANCH   4   5
ENDBRANCH   3   4
ENDBRANCH   2   3
ENDBRANCH   1   2
BRANCH   1   9
ATOM      9  C   UNL     1       7.551  -3.119  -3.266  1.00  0.00     0.000 C 
BRANCH   9  10
ATOM     10  C   UNL     1       7.760  -1.786  -2.525  1.00  0.00    -0.000 C 
BRANCH  10  11
ATOM     11  C   UNL     1       6.962  -0.628  -3.142  1.00  0.00    -0.000 C 
BRANCH  11  12
ATOM     12  C   UNL     1       7.311   0.703  -2.458  1.00  0.00    -0.000 C 
BRANCH  12  13
ATOM     13  C   UNL     1       8.350   0.537  -1.338  1.00  0.00    -0.003 C 
ATOM     14  C   UNL     1       8.421   1.750  -0.411  1.00  0.00     0.004 C 
ENDBRANCH  12  13
ENDBRANCH  11  12
ENDBRANCH  10  11
ENDBRANCH   9  10
ENDBRANCH   1   9
TORSDOF 10
ENDMDL
MODEL 6
REMARK VINA RESULT:    -3.028      1.563      3.591
REMARK INTER + INTRA:          -5.549
REMARK INTER:                  -4.727
REMARK INTRA:                  -0.822
REMARK UNBOUND:                -0.751
REMARK SMILES CCCCCCCCCCCC(=O)[O-]
REMARK SMILES IDX 7 1 8 2 9 3 10 4 11 5 12 6 13 7 14 8 6 9 5 10 4 11 3 12 2 13
REMARK SMILES IDX 1 14
REMARK H PARENT
REMARK Flexibility Score: inf
ROOT
ATOM      1  C   UNL     1       9.361  -1.156   0.544  1.00  0.00     0.000 C 
ENDROOT
BRANCH   1   2
ATOM      2  C   UNL     1       8.805  -1.192   1.981  1.00  0.00     0.000 C 
BRANCH   2   3
ATOM      3  C   UNL     1       9.005   0.105   2.790  1.00  0.00     0.000 C 
BRANCH   3   4
ATOM      4  C   UNL     1       8.109   1.285   2.360  1.00  0.00     0.006 C 
BRANCH   4   5
ATOM      5  C   UNL     1       8.419   2.610   3.073  1.00  0.00     0.053 C 
BRANCH   5   6
ATOM      6  C   UNL     1       7.320   3.612   2.894  1.00  0.00     0.041 C 
ATOM      7  O   UNL     1       6.825   3.812   1.754  1.00  0.00    -0.550 OA
ATOM      8  O   UNL     1       6.821   4.301   3.992  1.00  0.00    -0.550 OA
ENDBRANCH   5   6
ENDBRANCH   4   5
ENDBRANCH   3   4
ENDBRANCH   2   3
ENDBRANCH   1   2
BRANCH   1   9
ATOM      9  C   UNL     1       8.999  -2.376  -0.327  1.00  0.00     0.000 C 
BRANCH   9  10
ATOM     10  C   UNL     1       8.270  -2.044  -1.642  1.00  0.00    -0.000 C 
BRANCH  10  11
ATOM     11  C   UNL     1       8.554  -0.619  -2.139  1.00  0.00    -0.000 C 
BRANCH  11  12
ATOM     12  C   UNL     1       7.263   0.063  -2.616  1.00  0.00    -0.000 C 
BRANCH  12  13
ATOM     13  C   UNL     1       7.213   1.555  -2.248  1.00  0.00    -0.003 C 
ATOM     14  C   UNL     1       8.335   1.967  -1.296  1.00  0.00     0.004 C 
ENDBRANCH  12  13
ENDBRANCH  11  12
ENDBRANCH  10  11
ENDBRANCH   9  10
ENDBRANCH   1   9
TORSDOF 10
ENDMDL
MODEL 7
REMARK VINA RESULT:    -2.989      1.654      4.053
REMARK INTER + INTRA:          -5.487
REMARK INTER:                  -4.878
REMARK INTRA:                  -0.609
REMARK UNBOUND:                -0.751
REMARK SMILES CCCCCCCCCCCC(=O)[O-]
REMARK SMILES IDX 7 1 8 2 9 3 10 4 11 5 12 6 13 7 14 8 6 9 5 10 4 11 3 12 2 13
REMARK SMILES IDX 1 14
REMARK H PARENT
REMARK Flexibility Score: inf
ROOT
ATOM      1  C   UNL     1       8.928  -1.315   0.095  1.00  0.00     0.000 C 
ENDROOT
BRANCH   1   2
ATOM      2  C   UNL     1       9.392  -0.070   0.875  1.00  0.00     0.000 C 
BRANCH   2   3
ATOM      3  C   UNL     1       8.686   0.152   2.227  1.00  0.00     0.000 C 
BRANCH   3   4
ATOM      4  C   UNL     1       8.668   1.614   2.721  1.00  0.00     0.006 C 
BRANCH   4   5
ATOM      5  C   UNL     1       8.406   2.653   1.620  1.00  0.00     0.053 C 
BRANCH   5   6
ATOM      6  C   UNL     1       7.211   3.502   1.926  1.00  0.00     0.041 C 
ATOM      7  O   UNL     1       6.921   3.783   3.118  1.00  0.00    -0.550 OA
ATOM      8  O   UNL     1       6.436   4.011   0.891  1.00  0.00    -0.550 OA
ENDBRANCH   5   6
ENDBRANCH   4   5
ENDBRANCH   3   4
ENDBRANCH   2   3
ENDBRANCH   1   2
BRANCH   1   9
ATOM      9  C   UNL     1       8.481  -1.048  -1.357  1.00  0.00     0.000 C 
BRANCH   9  10
ATOM     10  C   UNL     1       7.897   0.354  -1.610  1.00  0.00    -0.000 C 
BRANCH  10  11
ATOM     11  C   UNL     1       7.149   0.457  -2.948  1.00  0.00    -0.000 C 
BRANCH  11  12
ATOM     12  C   UNL     1       6.808  -0.939  -3.494  1.00  0.00    -0.000 C 
BRANCH  12  13
ATOM     13  C   UNL     1       6.150  -0.884  -4.882  1.00  0.00    -0.003 C 
ATOM     14  C   UNL     1       4.808  -0.153  -4.872  1.00  0.00     0.004 C 
ENDBRANCH  12  13
ENDBRANCH  11  12
ENDBRANCH  10  11
ENDBRANCH   9  10
ENDBRANCH   1   9
TORSDOF 10
ENDMDL
MODEL 8
REMARK VINA RESULT:    -2.980      1.583      2.271
REMARK INTER + INTRA:          -5.473
REMARK INTER:                  -4.626
REMARK INTRA:                  -0.847
REMARK UNBOUND:                -0.751
REMARK SMILES CCCCCCCCCCCC(=O)[O-]
REMARK SMILES IDX 7 1 8 2 9 3 10 4 11 5 12 6 13 7 14 8 6 9 5 10 4 11 3 12 2 13
REMARK SMILES IDX 1 14
REMARK H PARENT
REMARK Flexibility Score: inf
ROOT
ATOM      1  C   UNL     1       8.233  -2.173  -2.239  1.00  0.00     0.000 C 
ENDROOT
BRANCH   1   2
ATOM      2  C   UNL     1       7.224  -1.309  -3.021  1.00  0.00     0.000 C 
BRANCH   2   3
ATOM      3  C   UNL     1       7.257   0.196  -2.685  1.00  0.00     0.000 C 
BRANCH   3   4
ATOM      4  C   UNL     1       8.146   0.576  -1.483  1.00  0.00     0.006 C 
BRANCH   4   5
ATOM      5  C   UNL     1       8.111   2.067  -1.114  1.00  0.00     0.053 C 
BRANCH   5   6
ATOM      6  C   UNL     1       8.810   2.338   0.183  1.00  0.00     0.041 C 
ATOM      7  O   UNL     1       9.875   3.011   0.201  1.00  0.00    -0.550 OA
ATOM      8  O   UNL     1       8.268   1.876   1.375  1.00  0.00    -0.550 OA
ENDBRANCH   5   6
ENDBRANCH   4   5
ENDBRANCH   3   4
ENDBRANCH   2   3
ENDBRANCH   1   2
BRANCH   1   9
ATOM      9  C   UNL     1       8.064  -3.695  -2.418  1.00  0.00     0.000 C 
BRANCH   9  10
ATOM     10  C   UNL     1       8.927  -4.560  -1.480  1.00  0.00    -0.000 C 
BRANCH  10  11
ATOM     11  C   UNL     1       9.487  -3.771  -0.287  1.00  0.00    -0.000 C 
BRANCH  11  12
ATOM     12  C   UNL     1       8.833  -4.227   1.027  1.00  0.00    -0.000 C 
BRANCH  12  13
ATOM     13  C   UNL     1       8.591  -3.062   2.000  1.00  0.00    -0.003 C 
ATOM     14  C   UNL     1       8.875  -1.698   1.372  1.00  0.00     0.004 C 
ENDBRANCH  12  13
ENDBRANCH  11  12
ENDBRANCH  10  11
ENDBRANCH   9  10
ENDBRANCH   1   9
TORSDOF 10
ENDMDL
MODEL 9
REMARK VINA RESULT:    -2.969      2.682      5.168
REMARK INTER + INTRA:          -5.456
REMARK INTER:                  -4.759
REMARK INTRA:                  -0.697
REMARK UNBOUND:                -0.751
REMARK SMILES CCCCCCCCCCCC(=O)[O-]
REMARK SMILES IDX 7 1 8 2 9 3 10 4 11 5 12 6 13 7 14 8 6 9 5 10 4 11 3 12 2 13
REMARK SMILES IDX 1 14
REMARK H PARENT
REMARK Flexibility Score: inf
ROOT
ATOM      1  C   UNL     1       8.412  -3.317  -1.966  1.00  0.00     0.000 C 
ENDROOT
BRANCH   1   2
ATOM      2  C   UNL     1       9.282  -3.033  -0.726  1.00  0.00     0.000 C 
BRANCH   2   3
ATOM      3  C   UNL     1       8.890  -3.821   0.540  1.00  0.00     0.000 C 
BRANCH   3   4
ATOM      4  C   UNL     1       8.820  -2.984   1.833  1.00  0.00     0.006 C 
BRANCH   4   5
ATOM      5  C   UNL     1       8.792  -1.464   1.605  1.00  0.00     0.053 C 
BRANCH   5   6
ATOM      6  C   UNL     1       9.165  -0.707   2.842  1.00  0.00     0.041 C 
ATOM      7  O   UNL     1       9.566  -1.321   3.866  1.00  0.00    -0.550 OA
ATOM      8  O   UNL     1       9.101   0.681   2.854  1.00  0.00    -0.550 OA
ENDBRANCH   5   6
ENDBRANCH   4   5
ENDBRANCH   3   4
ENDBRANCH   2   3
ENDBRANCH   1   2
BRANCH   1   9
ATOM      9  C   UNL     1       7.692  -2.086  -2.554  1.00  0.00     0.000 C 
BRANCH   9  10
ATOM     10  C   UNL     1       8.065  -0.742  -1.904  1.00  0.00    -0.000 C 
BRANCH  10  11
ATOM     11  C   UNL     1       7.337   0.452  -2.539  1.00  0.00    -0.000 C 
BRANCH  11  12
ATOM     12  C   UNL     1       6.474  -0.001  -3.727  1.00  0.00    -0.000 C 
BRANCH  12  13
ATOM     13  C   UNL     1       5.663   1.151  -4.341  1.00  0.00    -0.003 C 
ATOM     14  C   UNL     1       5.783   2.449  -3.544  1.00  0.00     0.004 C 
ENDBRANCH  12  13
ENDBRANCH  11  12
ENDBRANCH  10  11
ENDBRANCH   9  10
ENDBRANCH   1   9
TORSDOF 10
ENDMDL
