MODEL 1
REMARK VINA RESULT:    -8.811      0.000      0.000
REMARK INTER + INTRA:         -11.015
REMARK INTER:                 -10.614
REMARK INTRA:                  -0.401
REMARK UNBOUND:                -0.401
REMARK SMILES O=c1c(O)c(-c2ccc(O)cc2O)oc2cc(O)cc(O)c12
REMARK SMILES IDX 5 1 3 2 2 3 1 4 22 5 20 6 19 7 17 8 16 9 15 10 14 11 6 12
REMARK SMILES IDX 8 13 7 14 9 15 11 16 12 17 10 18 13 20 4 22 21 24 18 26
REMARK H PARENT 10 19 13 21 4 23 21 25 18 27
REMARK Flexibility Score: inf
ROOT
ATOM      1  C   UNL     1     -22.322  70.469   3.054  1.00  0.00     0.184 A 
ATOM      2  C   UNL     1     -22.578  70.345   4.427  1.00  0.00     0.208 A 
ATOM      3  C   UNL     1     -21.817  69.440   5.184  1.00  0.00     0.238 A 
ATOM      4  O   UNL     1     -22.001  69.387   6.427  1.00  0.00    -0.285 OA
ATOM      5  C   UNL     1     -20.847  68.629   4.544  1.00  0.00     0.111 A 
ATOM      6  C   UNL     1     -20.047  67.647   5.202  1.00  0.00     0.134 A 
ATOM      7  C   UNL     1     -19.045  66.979   4.487  1.00  0.00     0.093 A 
ATOM      8  C   UNL     1     -18.855  67.212   3.126  1.00  0.00     0.123 A 
ATOM      9  C   UNL     1     -19.666  68.130   2.460  1.00  0.00     0.094 A 
ATOM     10  C   UNL     1     -20.649  68.840   3.153  1.00  0.00     0.146 A 
ATOM     11  O   UNL     1     -21.385  69.721   2.485  1.00  0.00    -0.451 OA
ENDROOT
BRANCH   1  12
ATOM     12  C   UNL     1     -23.081  71.408   2.203  1.00  0.00     0.063 A 
ATOM     13  C   UNL     1     -23.439  73.684   1.426  1.00  0.00     0.047 A 
ATOM     14  C   UNL     1     -22.738  72.769   2.216  1.00  0.00     0.020 A 
ATOM     15  C   UNL     1     -24.502  73.251   0.625  1.00  0.00     0.119 A 
ATOM     16  C   UNL     1     -24.865  71.901   0.623  1.00  0.00     0.093 A 
ATOM     17  C   UNL     1     -24.170  70.977   1.416  1.00  0.00     0.130 A 
BRANCH  15  18
ATOM     18  O   UNL     1     -25.206  74.153  -0.170  1.00  0.00    -0.508 OA
ATOM     19  H   UNL     1     -25.811  73.839  -0.921  1.00  0.00     0.293 HD
ENDBRANCH  15  18
BRANCH  17  20
ATOM     20  O   UNL     1     -24.575  69.642   1.443  1.00  0.00    -0.507 OA
ATOM     21  H   UNL     1     -25.098  69.261   2.222  1.00  0.00     0.293 HD
ENDBRANCH  17  20
ENDBRANCH   1  12
BRANCH   2  22
ATOM     22  O   UNL     1     -23.590  71.105   5.021  1.00  0.00    -0.502 OA
ATOM     23  H   UNL     1     -24.504  71.219   4.598  1.00  0.00     0.293 HD
ENDBRANCH   2  22
BRANCH   6  24
ATOM     24  O   UNL     1     -20.211  67.272   6.539  1.00  0.00    -0.507 OA
ATOM     25  H   UNL     1     -20.606  67.856   7.260  1.00  0.00     0.293 HD
ENDBRANCH   6  24
BRANCH   8  26
ATOM     26  O   UNL     1     -17.860  66.517   2.443  1.00  0.00    -0.508 OA
ATOM     27  H   UNL     1     -16.880  66.618   2.684  1.00  0.00     0.293 HD
ENDBRANCH   8  26
TORSDOF 6
ENDMDL
MODEL 2
REMARK VINA RESULT:    -8.178      1.831      6.910
REMARK INTER + INTRA:         -10.252
REMARK INTER:                  -9.838
REMARK INTRA:                  -0.414
REMARK UNBOUND:                -0.401
REMARK SMILES O=c1c(O)c(-c2ccc(O)cc2O)oc2cc(O)cc(O)c12
REMARK SMILES IDX 5 1 3 2 2 3 1 4 22 5 20 6 19 7 17 8 16 9 15 10 14 11 6 12
REMARK SMILES IDX 8 13 7 14 9 15 11 16 12 17 10 18 13 20 4 22 21 24 18 26
REMARK H PARENT 10 19 13 21 4 23 21 25 18 27
REMARK Flexibility Score: inf
ROOT
ATOM      1  C   UNL     1     -21.067  68.505   4.193  1.00  0.00     0.184 A 
ATOM      2  C   UNL     1     -21.995  67.645   3.587  1.00  0.00     0.208 A 
ATOM      3  C   UNL     1     -22.975  68.187   2.740  1.00  0.00     0.238 A 
ATOM      4  O   UNL     1     -23.756  67.403   2.142  1.00  0.00    -0.285 OA
ATOM      5  C   UNL     1     -23.047  69.590   2.554  1.00  0.00     0.111 A 
ATOM      6  C   UNL     1     -24.024  70.254   1.753  1.00  0.00     0.134 A 
ATOM      7  C   UNL     1     -23.933  71.637   1.559  1.00  0.00     0.093 A 
ATOM      8  C   UNL     1     -22.940  72.390   2.184  1.00  0.00     0.123 A 
ATOM      9  C   UNL     1     -22.013  71.759   3.013  1.00  0.00     0.094 A 
ATOM     10  C   UNL     1     -22.053  70.375   3.197  1.00  0.00     0.146 A 
ATOM     11  O   UNL     1     -21.138  69.812   3.977  1.00  0.00    -0.451 OA
ENDROOT
BRANCH   1  12
ATOM     12  C   UNL     1     -20.007  67.999   5.089  1.00  0.00     0.063 A 
ATOM     13  C   UNL     1     -17.894  66.826   5.352  1.00  0.00     0.047 A 
ATOM     14  C   UNL     1     -18.910  67.322   4.532  1.00  0.00     0.020 A 
ATOM     15  C   UNL     1     -17.968  66.988   6.741  1.00  0.00     0.119 A 
ATOM     16  C   UNL     1     -19.068  67.640   7.305  1.00  0.00     0.093 A 
ATOM     17  C   UNL     1     -20.096  68.136   6.490  1.00  0.00     0.130 A 
BRANCH  15  18
ATOM     18  O   UNL     1     -16.958  66.502   7.568  1.00  0.00    -0.508 OA
ATOM     19  H   UNL     1     -17.076  66.450   8.574  1.00  0.00     0.293 HD
ENDBRANCH  15  18
BRANCH  17  20
ATOM     20  O   UNL     1     -21.211  68.741   7.070  1.00  0.00    -0.507 OA
ATOM     21  H   UNL     1     -21.148  69.639   7.535  1.00  0.00     0.293 HD
ENDBRANCH  17  20
ENDBRANCH   1  12
BRANCH   2  22
ATOM     22  O   UNL     1     -21.947  66.271   3.843  1.00  0.00    -0.502 OA
ATOM     23  H   UNL     1     -22.576  65.613   3.399  1.00  0.00     0.293 HD
ENDBRANCH   2  22
BRANCH   6  24
ATOM     24  O   UNL     1     -25.111  69.612   1.152  1.00  0.00    -0.507 OA
ATOM     25  H   UNL     1     -25.046  68.948   0.396  1.00  0.00     0.293 HD
ENDBRANCH   6  24
BRANCH   8  26
ATOM     26  O   UNL     1     -22.891  73.767   1.982  1.00  0.00    -0.508 OA
ATOM     27  H   UNL     1     -23.143  74.182   1.092  1.00  0.00     0.293 HD
ENDBRANCH   8  26
TORSDOF 6
ENDMDL
MODEL 3
REMARK VINA RESULT:    -7.591      1.555      3.331
REMARK INTER + INTRA:          -9.545
REMARK INTER:                  -9.322
REMARK INTRA:                  -0.223
REMARK UNBOUND:                -0.401
REMARK SMILES O=c1c(O)c(-c2ccc(O)cc2O)oc2cc(O)cc(O)c12
REMARK SMILES IDX 5 1 3 2 2 3 1 4 22 5 20 6 19 7 17 8 16 9 15 10 14 11 6 12
REMARK SMILES IDX 8 13 7 14 9 15 11 16 12 17 10 18 13 20 4 22 21 24 18 26
REMARK H PARENT 10 19 13 21 4 23 21 25 18 27
REMARK Flexibility Score: inf
ROOT
ATOM      1  C   UNL     1     -22.464  70.851   2.389  1.00  0.00     0.184 A 
ATOM      2  C   UNL     1     -21.628  69.898   1.790  1.00  0.00     0.208 A 
ATOM      3  C   UNL     1     -20.928  68.996   2.607  1.00  0.00     0.238 A 
ATOM      4  O   UNL     1     -20.238  68.097   2.062  1.00  0.00    -0.285 OA
ATOM      5  C   UNL     1     -21.031  69.098   4.017  1.00  0.00     0.111 A 
ATOM      6  C   UNL     1     -20.333  68.266   4.945  1.00  0.00     0.134 A 
ATOM      7  C   UNL     1     -20.595  68.390   6.314  1.00  0.00     0.093 A 
ATOM      8  C   UNL     1     -21.480  69.353   6.796  1.00  0.00     0.123 A 
ATOM      9  C   UNL     1     -22.126  70.208   5.903  1.00  0.00     0.094 A 
ATOM     10  C   UNL     1     -21.916  70.085   4.527  1.00  0.00     0.146 A 
ATOM     11  O   UNL     1     -22.568  70.905   3.711  1.00  0.00    -0.451 OA
ENDROOT
BRANCH   1  12
ATOM     12  C   UNL     1     -23.234  71.824   1.586  1.00  0.00     0.063 A 
ATOM     13  C   UNL     1     -24.772  72.250  -0.247  1.00  0.00     0.047 A 
ATOM     14  C   UNL     1     -24.036  71.356   0.534  1.00  0.00     0.020 A 
ATOM     15  C   UNL     1     -24.705  73.625   0.004  1.00  0.00     0.119 A 
ATOM     16  C   UNL     1     -23.891  74.102   1.035  1.00  0.00     0.093 A 
ATOM     17  C   UNL     1     -23.144  73.212   1.821  1.00  0.00     0.130 A 
BRANCH  15  18
ATOM     18  O   UNL     1     -25.438  74.525  -0.766  1.00  0.00    -0.508 OA
ATOM     19  H   UNL     1     -25.017  75.024  -1.542  1.00  0.00     0.293 HD
ENDBRANCH  15  18
BRANCH  17  20
ATOM     20  O   UNL     1     -22.298  73.706   2.815  1.00  0.00    -0.507 OA
ATOM     21  H   UNL     1     -22.559  73.686   3.794  1.00  0.00     0.293 HD
ENDBRANCH  17  20
ENDBRANCH   1  12
BRANCH   2  22
ATOM     22  O   UNL     1     -21.488  69.865   0.400  1.00  0.00    -0.502 OA
ATOM     23  H   UNL     1     -20.639  69.547  -0.054  1.00  0.00     0.293 HD
ENDBRANCH   2  22
BRANCH   6  24
ATOM     24  O   UNL     1     -19.362  67.330   4.579  1.00  0.00    -0.507 OA
ATOM     25  H   UNL     1     -18.612  67.012   5.174  1.00  0.00     0.293 HD
ENDBRANCH   6  24
BRANCH   8  26
ATOM     26  O   UNL     1     -21.702  69.458   8.167  1.00  0.00    -0.508 OA
ATOM     27  H   UNL     1     -20.952  69.683   8.811  1.00  0.00     0.293 HD
ENDBRANCH   8  26
TORSDOF 6
ENDMDL
MODEL 4
REMARK VINA RESULT:    -7.299      1.666      6.847
REMARK INTER + INTRA:          -9.193
REMARK INTER:                  -8.859
REMARK INTRA:                  -0.334
REMARK UNBOUND:                -0.401
REMARK SMILES O=c1c(O)c(-c2ccc(O)cc2O)oc2cc(O)cc(O)c12
REMARK SMILES IDX 5 1 3 2 2 3 1 4 22 5 20 6 19 7 17 8 16 9 15 10 14 11 6 12
REMARK SMILES IDX 8 13 7 14 9 15 11 16 12 17 10 18 13 20 4 22 21 24 18 26
REMARK H PARENT 10 19 13 21 4 23 21 25 18 27
REMARK Flexibility Score: inf
ROOT
ATOM      1  C   UNL     1     -21.705  69.555   3.643  1.00  0.00     0.184 A 
ATOM      2  C   UNL     1     -22.481  68.899   2.675  1.00  0.00     0.208 A 
ATOM      3  C   UNL     1     -23.243  69.665   1.779  1.00  0.00     0.238 A 
ATOM      4  O   UNL     1     -23.877  69.074   0.868  1.00  0.00    -0.285 OA
ATOM      5  C   UNL     1     -23.262  71.077   1.899  1.00  0.00     0.111 A 
ATOM      6  C   UNL     1     -24.032  71.952   1.075  1.00  0.00     0.134 A 
ATOM      7  C   UNL     1     -23.890  73.337   1.217  1.00  0.00     0.093 A 
ATOM      8  C   UNL     1     -23.056  73.880   2.193  1.00  0.00     0.123 A 
ATOM      9  C   UNL     1     -22.341  73.035   3.041  1.00  0.00     0.094 A 
ATOM     10  C   UNL     1     -22.431  71.648   2.900  1.00  0.00     0.146 A 
ATOM     11  O   UNL     1     -21.716  70.880   3.714  1.00  0.00    -0.451 OA
ENDROOT
BRANCH   1  12
ATOM     12  C   UNL     1     -20.875  68.809   4.611  1.00  0.00     0.063 A 
ATOM     13  C   UNL     1     -19.050  67.256   5.020  1.00  0.00     0.047 A 
ATOM     14  C   UNL     1     -19.849  67.979   4.132  1.00  0.00     0.020 A 
ATOM     15  C   UNL     1     -19.276  67.342   6.399  1.00  0.00     0.119 A 
ATOM     16  C   UNL     1     -20.310  68.147   6.884  1.00  0.00     0.093 A 
ATOM     17  C   UNL     1     -21.121  68.872   5.999  1.00  0.00     0.130 A 
BRANCH  15  18
ATOM     18  O   UNL     1     -18.482  66.628   7.295  1.00  0.00    -0.508 OA
ATOM     19  H   UNL     1     -18.050  65.749   7.035  1.00  0.00     0.293 HD
ENDBRANCH  15  18
BRANCH  17  20
ATOM     20  O   UNL     1     -22.181  69.633   6.493  1.00  0.00    -0.507 OA
ATOM     21  H   UNL     1     -22.207  69.946   7.456  1.00  0.00     0.293 HD
ENDBRANCH  17  20
ENDBRANCH   1  12
BRANCH   2  22
ATOM     22  O   UNL     1     -22.500  67.502   2.624  1.00  0.00    -0.502 OA
ATOM     23  H   UNL     1     -22.246  66.925   3.417  1.00  0.00     0.293 HD
ENDBRANCH   2  22
BRANCH   6  24
ATOM     24  O   UNL     1     -24.962  71.517   0.126  1.00  0.00    -0.507 OA
ATOM     25  H   UNL     1     -25.872  71.138   0.339  1.00  0.00     0.293 HD
ENDBRANCH   6  24
BRANCH   8  26
ATOM     26  O   UNL     1     -22.953  75.264   2.318  1.00  0.00    -0.508 OA
ATOM     27  H   UNL     1     -22.053  75.725   2.391  1.00  0.00     0.293 HD
ENDBRANCH   8  26
TORSDOF 6
ENDMDL
MODEL 5
REMARK VINA RESULT:    -6.916     12.936     13.835
REMARK INTER + INTRA:          -8.733
REMARK INTER:                  -8.798
REMARK INTRA:                   0.065
REMARK UNBOUND:                -0.401
REMARK SMILES O=c1c(O)c(-c2ccc(O)cc2O)oc2cc(O)cc(O)c12
REMARK SMILES IDX 5 1 3 2 2 3 1 4 22 5 20 6 19 7 17 8 16 9 15 10 14 11 6 12
REMARK SMILES IDX 8 13 7 14 9 15 11 16 12 17 10 18 13 20 4 22 21 24 18 26
REMARK H PARENT 10 19 13 21 4 23 21 25 18 27
REMARK Flexibility Score: inf
ROOT
ATOM      1  C   UNL     1     -30.595  80.165   6.181  1.00  0.00     0.184 A 
ATOM      2  C   UNL     1     -30.636  80.184   7.583  1.00  0.00     0.208 A 
ATOM      3  C   UNL     1     -29.499  80.604   8.293  1.00  0.00     0.238 A 
ATOM      4  O   UNL     1     -29.568  80.689   9.546  1.00  0.00    -0.285 OA
ATOM      5  C   UNL     1     -28.317  80.945   7.590  1.00  0.00     0.111 A 
ATOM      6  C   UNL     1     -27.092  81.342   8.206  1.00  0.00     0.134 A 
ATOM      7  C   UNL     1     -26.021  81.759   7.407  1.00  0.00     0.093 A 
ATOM      8  C   UNL     1     -26.106  81.734   6.016  1.00  0.00     0.123 A 
ATOM      9  C   UNL     1     -27.279  81.296   5.403  1.00  0.00     0.094 A 
ATOM     10  C   UNL     1     -28.380  80.910   6.171  1.00  0.00     0.146 A 
ATOM     11  O   UNL     1     -29.485  80.521   5.547  1.00  0.00    -0.451 OA
ENDROOT
BRANCH   1  12
ATOM     12  C   UNL     1     -31.758  79.742   5.375  1.00  0.00     0.063 A 
ATOM     13  C   UNL     1     -34.171  79.650   5.097  1.00  0.00     0.047 A 
ATOM     14  C   UNL     1     -33.050  80.041   5.833  1.00  0.00     0.020 A 
ATOM     15  C   UNL     1     -34.014  78.942   3.900  1.00  0.00     0.119 A 
ATOM     16  C   UNL     1     -32.732  78.619   3.448  1.00  0.00     0.093 A 
ATOM     17  C   UNL     1     -31.601  79.003   4.183  1.00  0.00     0.130 A 
BRANCH  15  18
ATOM     18  O   UNL     1     -35.125  78.550   3.155  1.00  0.00    -0.508 OA
ATOM     19  H   UNL     1     -35.237  77.595   2.833  1.00  0.00     0.293 HD
ENDBRANCH  15  18
BRANCH  17  20
ATOM     20  O   UNL     1     -30.330  78.631   3.746  1.00  0.00    -0.507 OA
ATOM     21  H   UNL     1     -29.555  78.527   4.391  1.00  0.00     0.293 HD
ENDBRANCH  17  20
ENDBRANCH   1  12
BRANCH   2  22
ATOM     22  O   UNL     1     -31.791  79.774   8.255  1.00  0.00    -0.502 OA
ATOM     23  H   UNL     1     -32.092  80.195   9.126  1.00  0.00     0.293 HD
ENDBRANCH   2  22
BRANCH   6  24
ATOM     24  O   UNL     1     -26.867  81.321   9.586  1.00  0.00    -0.507 OA
ATOM     25  H   UNL     1     -27.441  81.787  10.273  1.00  0.00     0.293 HD
ENDBRANCH   6  24
BRANCH   8  26
ATOM     26  O   UNL     1     -25.014  82.139   5.253  1.00  0.00    -0.508 OA
ATOM     27  H   UNL     1     -25.081  82.906   4.594  1.00  0.00     0.293 HD
ENDBRANCH   8  26
TORSDOF 6
ENDMDL
MODEL 6
REMARK VINA RESULT:    -6.541      1.804      6.955
REMARK INTER + INTRA:          -8.281
REMARK INTER:                  -8.130
REMARK INTRA:                  -0.151
REMARK UNBOUND:                -0.401
REMARK SMILES O=c1c(O)c(-c2ccc(O)cc2O)oc2cc(O)cc(O)c12
REMARK SMILES IDX 5 1 3 2 2 3 1 4 22 5 20 6 19 7 17 8 16 9 15 10 14 11 6 12
REMARK SMILES IDX 8 13 7 14 9 15 11 16 12 17 10 18 13 20 4 22 21 24 18 26
REMARK H PARENT 10 19 13 21 4 23 21 25 18 27
REMARK Flexibility Score: inf
ROOT
ATOM      1  C   UNL     1     -21.471  69.358   2.977  1.00  0.00     0.184 A 
ATOM      2  C   UNL     1     -21.059  70.077   1.845  1.00  0.00     0.208 A 
ATOM      3  C   UNL     1     -22.014  70.798   1.111  1.00  0.00     0.238 A 
ATOM      4  O   UNL     1     -21.627  71.501   0.142  1.00  0.00    -0.285 OA
ATOM      5  C   UNL     1     -23.379  70.744   1.488  1.00  0.00     0.111 A 
ATOM      6  C   UNL     1     -24.441  71.399   0.792  1.00  0.00     0.134 A 
ATOM      7  C   UNL     1     -25.737  71.360   1.318  1.00  0.00     0.093 A 
ATOM      8  C   UNL     1     -26.025  70.641   2.477  1.00  0.00     0.123 A 
ATOM      9  C   UNL     1     -25.006  69.952   3.135  1.00  0.00     0.094 A 
ATOM     10  C   UNL     1     -23.694  70.002   2.658  1.00  0.00     0.146 A 
ATOM     11  O   UNL     1     -22.751  69.350   3.326  1.00  0.00    -0.451 OA
ENDROOT
BRANCH   1  12
ATOM     12  C   UNL     1     -20.516  68.585   3.797  1.00  0.00     0.063 A 
ATOM     13  C   UNL     1     -18.705  66.967   3.905  1.00  0.00     0.047 A 
ATOM     14  C   UNL     1     -19.617  67.716   3.158  1.00  0.00     0.020 A 
ATOM     15  C   UNL     1     -18.689  67.065   5.301  1.00  0.00     0.119 A 
ATOM     16  C   UNL     1     -19.596  67.910   5.947  1.00  0.00     0.093 A 
ATOM     17  C   UNL     1     -20.519  68.662   5.206  1.00  0.00     0.130 A 
BRANCH  15  18
ATOM     18  O   UNL     1     -17.781  66.325   6.056  1.00  0.00    -0.508 OA
ATOM     19  H   UNL     1     -18.090  65.700   6.792  1.00  0.00     0.293 HD
ENDBRANCH  15  18
BRANCH  17  20
ATOM     20  O   UNL     1     -21.451  69.463   5.866  1.00  0.00    -0.507 OA
ATOM     21  H   UNL     1     -21.327  70.465   5.948  1.00  0.00     0.293 HD
ENDBRANCH  17  20
ENDBRANCH   1  12
BRANCH   2  22
ATOM     22  O   UNL     1     -19.718  70.057   1.453  1.00  0.00    -0.502 OA
ATOM     23  H   UNL     1     -19.396  70.484   0.592  1.00  0.00     0.293 HD
ENDBRANCH   2  22
BRANCH   6  24
ATOM     24  O   UNL     1     -24.282  72.073  -0.422  1.00  0.00    -0.507 OA
ATOM     25  H   UNL     1     -24.784  71.863  -1.271  1.00  0.00     0.293 HD
ENDBRANCH   6  24
BRANCH   8  26
ATOM     26  O   UNL     1     -27.330  70.611   2.961  1.00  0.00    -0.508 OA
ATOM     27  H   UNL     1     -27.801  69.737   3.166  1.00  0.00     0.293 HD
ENDBRANCH   8  26
TORSDOF 6
ENDMDL
MODEL 7
REMARK VINA RESULT:    -6.254      1.501      3.069
REMARK INTER + INTRA:          -7.934
REMARK INTER:                  -7.514
REMARK INTRA:                  -0.420
REMARK UNBOUND:                -0.401
REMARK SMILES O=c1c(O)c(-c2ccc(O)cc2O)oc2cc(O)cc(O)c12
REMARK SMILES IDX 5 1 3 2 2 3 1 4 22 5 20 6 19 7 17 8 16 9 15 10 14 11 6 12
REMARK SMILES IDX 8 13 7 14 9 15 11 16 12 17 10 18 13 20 4 22 21 24 18 26
REMARK H PARENT 10 19 13 21 4 23 21 25 18 27
REMARK Flexibility Score: inf
ROOT
ATOM      1  C   UNL     1     -21.614  69.396   2.863  1.00  0.00     0.184 A 
ATOM      2  C   UNL     1     -20.756  68.694   2.004  1.00  0.00     0.208 A 
ATOM      3  C   UNL     1     -19.757  67.877   2.556  1.00  0.00     0.238 A 
ATOM      4  O   UNL     1     -19.039  67.193   1.782  1.00  0.00    -0.285 OA
ATOM      5  C   UNL     1     -19.594  67.818   3.963  1.00  0.00     0.111 A 
ATOM      6  C   UNL     1     -18.588  67.058   4.633  1.00  0.00     0.134 A 
ATOM      7  C   UNL     1     -18.590  66.992   6.031  1.00  0.00     0.093 A 
ATOM      8  C   UNL     1     -19.519  67.705   6.786  1.00  0.00     0.123 A 
ATOM      9  C   UNL     1     -20.473  68.494   6.144  1.00  0.00     0.094 A 
ATOM     10  C   UNL     1     -20.522  68.552   4.749  1.00  0.00     0.146 A 
ATOM     11  O   UNL     1     -21.460  69.298   4.178  1.00  0.00    -0.451 OA
ENDROOT
BRANCH   1  12
ATOM     12  C   UNL     1     -22.690  70.267   2.347  1.00  0.00     0.063 A 
ATOM     13  C   UNL     1     -23.342  72.338   1.255  1.00  0.00     0.047 A 
ATOM     14  C   UNL     1     -22.348  71.489   1.748  1.00  0.00     0.020 A 
ATOM     15  C   UNL     1     -24.691  71.982   1.367  1.00  0.00     0.119 A 
ATOM     16  C   UNL     1     -25.041  70.778   1.983  1.00  0.00     0.093 A 
ATOM     17  C   UNL     1     -24.051  69.922   2.486  1.00  0.00     0.130 A 
BRANCH  15  18
ATOM     18  O   UNL     1     -25.690  72.819   0.875  1.00  0.00    -0.508 OA
ATOM     19  H   UNL     1     -25.529  73.424   0.077  1.00  0.00     0.293 HD
ENDBRANCH  15  18
BRANCH  17  20
ATOM     20  O   UNL     1     -24.417  68.746   3.142  1.00  0.00    -0.507 OA
ATOM     21  H   UNL     1     -25.308  68.297   2.970  1.00  0.00     0.293 HD
ENDBRANCH  17  20
ENDBRANCH   1  12
BRANCH   2  22
ATOM     22  O   UNL     1     -20.892  68.826   0.619  1.00  0.00    -0.502 OA
ATOM     23  H   UNL     1     -20.883  69.727   0.155  1.00  0.00     0.293 HD
ENDBRANCH   2  22
BRANCH   6  24
ATOM     24  O   UNL     1     -17.557  66.377   3.979  1.00  0.00    -0.507 OA
ATOM     25  H   UNL     1     -17.343  65.398   4.098  1.00  0.00     0.293 HD
ENDBRANCH   6  24
BRANCH   8  26
ATOM     26  O   UNL     1     -19.479  67.629   8.176  1.00  0.00    -0.508 OA
ATOM     27  H   UNL     1     -20.103  68.179   8.756  1.00  0.00     0.293 HD
ENDBRANCH   8  26
TORSDOF 6
ENDMDL
