MODEL 1
REMARK VINA RESULT:    -4.823      0.000      0.000
REMARK INTER + INTRA:          -8.755
REMARK INTER:                  -7.643
REMARK INTRA:                  -1.112
REMARK UNBOUND:                -1.112
REMARK SMILES CCCCCCCCCCCC(=O)[O-]
REMARK SMILES IDX 7 1 8 2 9 3 10 4 11 5 12 6 13 7 14 8 6 9 5 10 4 11 3 12 2 13
REMARK SMILES IDX 1 14
REMARK H PARENT
REMARK Flexibility Score: inf
ROOT
ATOM      1  C   UNL     1      20.249  54.204  14.437  1.00  0.00     0.000 C 
ENDROOT
BRANCH   1   2
ATOM      2  C   UNL     1      20.219  53.317  15.698  1.00  0.00     0.000 C 
BRANCH   2   3
ATOM      3  C   UNL     1      21.113  53.799  16.854  1.00  0.00     0.000 C 
BRANCH   3   4
ATOM      4  C   UNL     1      22.483  54.307  16.378  1.00  0.00     0.006 C 
BRANCH   4   5
ATOM      5  C   UNL     1      22.698  55.791  16.707  1.00  0.00     0.053 C 
BRANCH   5   6
ATOM      6  C   UNL     1      24.115  56.216  16.472  1.00  0.00     0.041 C 
ATOM      7  O   UNL     1      25.044  55.739  17.176  1.00  0.00    -0.550 OA
ATOM      8  O   UNL     1      24.412  57.114  15.455  1.00  0.00    -0.550 OA
ENDBRANCH   5   6
ENDBRANCH   4   5
ENDBRANCH   3   4
ENDBRANCH   2   3
ENDBRANCH   1   2
BRANCH   1   9
ATOM      9  C   UNL     1      18.912  54.309  13.676  1.00  0.00     0.000 C 
BRANCH   9  10
ATOM     10  C   UNL     1      18.072  55.555  14.014  1.00  0.00    -0.000 C 
BRANCH  10  11
ATOM     11  C   UNL     1      18.747  56.460  15.059  1.00  0.00    -0.000 C 
BRANCH  11  12
ATOM     12  C   UNL     1      17.846  56.740  16.276  1.00  0.00    -0.000 C 
BRANCH  12  13
ATOM     13  C   UNL     1      18.475  56.392  17.636  1.00  0.00    -0.003 C 
ATOM     14  C   UNL     1      19.599  57.345  18.038  1.00  0.00     0.004 C 
ENDBRANCH  12  13
ENDBRANCH  11  12
ENDBRANCH  10  11
ENDBRANCH   9  10
ENDBRANCH   1   9
TORSDOF 10
ENDMDL
MODEL 2
REMARK VINA RESULT:    -4.691      2.434      4.219
REMARK INTER + INTRA:          -8.545
REMARK INTER:                  -7.120
REMARK INTRA:                  -1.426
REMARK UNBOUND:                -1.112
REMARK SMILES CCCCCCCCCCCC(=O)[O-]
REMARK SMILES IDX 7 1 8 2 9 3 10 4 11 5 12 6 13 7 14 8 6 9 5 10 4 11 3 12 2 13
REMARK SMILES IDX 1 14
REMARK H PARENT
REMARK Flexibility Score: inf
ROOT
ATOM      1  C   UNL     1      18.054  55.192  13.489  1.00  0.00     0.000 C 
ENDROOT
BRANCH   1   2
ATOM      2  C   UNL     1      16.732  54.949  14.245  1.00  0.00     0.000 C 
BRANCH   2   3
ATOM      3  C   UNL     1      16.849  54.964  15.780  1.00  0.00     0.000 C 
BRANCH   3   4
ATOM      4  C   UNL     1      17.473  56.262  16.319  1.00  0.00     0.006 C 
BRANCH   4   5
ATOM      5  C   UNL     1      18.336  56.016  17.564  1.00  0.00     0.053 C 
BRANCH   5   6
ATOM      6  C   UNL     1      19.490  56.968  17.640  1.00  0.00     0.041 C 
ATOM      7  O   UNL     1      19.484  57.904  18.481  1.00  0.00    -0.550 OA
ATOM      8  O   UNL     1      20.586  56.801  16.802  1.00  0.00    -0.550 OA
ENDBRANCH   5   6
ENDBRANCH   4   5
ENDBRANCH   3   4
ENDBRANCH   2   3
ENDBRANCH   1   2
BRANCH   1   9
ATOM      9  C   UNL     1      19.097  54.062  13.610  1.00  0.00     0.000 C 
BRANCH   9  10
ATOM     10  C   UNL     1      20.328  54.408  14.466  1.00  0.00    -0.000 C 
BRANCH  10  11
ATOM     11  C   UNL     1      20.658  53.318  15.500  1.00  0.00    -0.000 C 
BRANCH  11  12
ATOM     12  C   UNL     1      19.437  52.458  15.871  1.00  0.00    -0.000 C 
BRANCH  12  13
ATOM     13  C   UNL     1      19.271  52.192  17.377  1.00  0.00    -0.003 C 
ATOM     14  C   UNL     1      20.228  53.013  18.240  1.00  0.00     0.004 C 
ENDBRANCH  12  13
ENDBRANCH  11  12
ENDBRANCH  10  11
ENDBRANCH   9  10
ENDBRANCH   1   9
TORSDOF 10
ENDMDL
MODEL 3
REMARK VINA RESULT:    -4.684      3.666      5.207
REMARK INTER + INTRA:          -8.535
REMARK INTER:                  -7.163
REMARK INTRA:                  -1.372
REMARK UNBOUND:                -1.112
REMARK SMILES CCCCCCCCCCCC(=O)[O-]
REMARK SMILES IDX 7 1 8 2 9 3 10 4 11 5 12 6 13 7 14 8 6 9 5 10 4 11 3 12 2 13
REMARK SMILES IDX 1 14
REMARK H PARENT
REMARK Flexibility Score: inf
ROOT
ATOM      1  C   UNL     1      19.593  53.764  13.699  1.00  0.00     0.000 C 
ENDROOT
BRANCH   1   2
ATOM      2  C   UNL     1      18.353  54.602  13.328  1.00  0.00     0.000 C 
BRANCH   2   3
ATOM      3  C   UNL     1      17.933  55.645  14.379  1.00  0.00     0.000 C 
BRANCH   3   4
ATOM      4  C   UNL     1      16.621  55.279  15.093  1.00  0.00     0.006 C 
BRANCH   4   5
ATOM      5  C   UNL     1      16.799  55.174  16.613  1.00  0.00     0.053 C 
BRANCH   5   6
ATOM      6  C   UNL     1      16.109  56.291  17.334  1.00  0.00     0.041 C 
ATOM      7  O   UNL     1      16.133  56.342  18.592  1.00  0.00    -0.550 OA
ATOM      8  O   UNL     1      15.466  57.291  16.616  1.00  0.00    -0.550 OA
ENDBRANCH   5   6
ENDBRANCH   4   5
ENDBRANCH   3   4
ENDBRANCH   2   3
ENDBRANCH   1   2
BRANCH   1   9
ATOM      9  C   UNL     1      19.514  53.041  15.059  1.00  0.00     0.000 C 
BRANCH   9  10
ATOM     10  C   UNL     1      20.826  53.034  15.864  1.00  0.00    -0.000 C 
BRANCH  10  11
ATOM     11  C   UNL     1      21.350  54.450  16.159  1.00  0.00    -0.000 C 
BRANCH  11  12
ATOM     12  C   UNL     1      20.508  55.190  17.213  1.00  0.00    -0.000 C 
BRANCH  12  13
ATOM     13  C   UNL     1      20.391  56.709  16.993  1.00  0.00    -0.003 C 
ATOM     14  C   UNL     1      19.589  57.413  18.086  1.00  0.00     0.004 C 
ENDBRANCH  12  13
ENDBRANCH  11  12
ENDBRANCH  10  11
ENDBRANCH   9  10
ENDBRANCH   1   9
TORSDOF 10
ENDMDL
MODEL 4
REMARK VINA RESULT:    -4.659      3.826      5.954
REMARK INTER + INTRA:          -8.495
REMARK INTER:                  -7.162
REMARK INTRA:                  -1.333
REMARK UNBOUND:                -1.112
REMARK SMILES CCCCCCCCCCCC(=O)[O-]
REMARK SMILES IDX 7 1 8 2 9 3 10 4 11 5 12 6 13 7 14 8 6 9 5 10 4 11 3 12 2 13
REMARK SMILES IDX 1 14
REMARK H PARENT
REMARK Flexibility Score: inf
ROOT
ATOM      1  C   UNL     1      20.890  56.494  16.263  1.00  0.00     0.000 C 
ENDROOT
BRANCH   1   2
ATOM      2  C   UNL     1      20.289  57.117  17.539  1.00  0.00     0.000 C 
BRANCH   2   3
ATOM      3  C   UNL     1      18.782  56.873  17.736  1.00  0.00     0.000 C 
BRANCH   3   4
ATOM      4  C   UNL     1      18.018  56.757  16.407  1.00  0.00     0.006 C 
BRANCH   4   5
ATOM      5  C   UNL     1      16.722  55.947  16.552  1.00  0.00     0.053 C 
BRANCH   5   6
ATOM      6  C   UNL     1      15.595  56.785  17.070  1.00  0.00     0.041 C 
ATOM      7  O   UNL     1      15.172  57.762  16.398  1.00  0.00    -0.550 OA
ATOM      8  O   UNL     1      14.991  56.468  18.280  1.00  0.00    -0.550 OA
ENDBRANCH   5   6
ENDBRANCH   4   5
ENDBRANCH   3   4
ENDBRANCH   2   3
ENDBRANCH   1   2
BRANCH   1   9
ATOM      9  C   UNL     1      21.733  55.223  16.487  1.00  0.00     0.000 C 
BRANCH   9  10
ATOM     10  C   UNL     1      20.939  53.998  16.977  1.00  0.00    -0.000 C 
BRANCH  10  11
ATOM     11  C   UNL     1      20.579  53.029  15.838  1.00  0.00    -0.000 C 
BRANCH  11  12
ATOM     12  C   UNL     1      19.262  53.398  15.134  1.00  0.00    -0.000 C 
BRANCH  12  13
ATOM     13  C   UNL     1      19.433  54.062  13.756  1.00  0.00    -0.003 C 
ATOM     14  C   UNL     1      18.155  54.730  13.250  1.00  0.00     0.004 C 
ENDBRANCH  12  13
ENDBRANCH  11  12
ENDBRANCH  10  11
ENDBRANCH   9  10
ENDBRANCH   1   9
TORSDOF 10
ENDMDL
MODEL 5
REMARK VINA RESULT:    -4.658      2.206      3.329
REMARK INTER + INTRA:          -8.494
REMARK INTER:                  -7.426
REMARK INTRA:                  -1.067
REMARK UNBOUND:                -1.112
REMARK SMILES CCCCCCCCCCCC(=O)[O-]
REMARK SMILES IDX 7 1 8 2 9 3 10 4 11 5 12 6 13 7 14 8 6 9 5 10 4 11 3 12 2 13
REMARK SMILES IDX 1 14
REMARK H PARENT
REMARK Flexibility Score: inf
ROOT
ATOM      1  C   UNL     1      17.601  55.386  13.940  1.00  0.00     0.000 C 
ENDROOT
BRANCH   1   2
ATOM      2  C   UNL     1      18.209  54.509  12.827  1.00  0.00     0.000 C 
BRANCH   2   3
ATOM      3  C   UNL     1      19.507  53.777  13.211  1.00  0.00     0.000 C 
BRANCH   3   4
ATOM      4  C   UNL     1      20.061  54.219  14.575  1.00  0.00     0.006 C 
BRANCH   4   5
ATOM      5  C   UNL     1      20.018  53.089  15.612  1.00  0.00     0.053 C 
BRANCH   5   6
ATOM      6  C   UNL     1      21.073  53.254  16.662  1.00  0.00     0.041 C 
ATOM      7  O   UNL     1      22.235  53.614  16.340  1.00  0.00    -0.550 OA
ATOM      8  O   UNL     1      20.764  53.040  18.000  1.00  0.00    -0.550 OA
ENDBRANCH   5   6
ENDBRANCH   4   5
ENDBRANCH   3   4
ENDBRANCH   2   3
ENDBRANCH   1   2
BRANCH   1   9
ATOM      9  C   UNL     1      16.270  54.873  14.527  1.00  0.00     0.000 C 
BRANCH   9  10
ATOM     10  C   UNL     1      15.829  55.566  15.829  1.00  0.00    -0.000 C 
BRANCH  10  11
ATOM     11  C   UNL     1      16.823  56.644  16.295  1.00  0.00    -0.000 C 
BRANCH  11  12
ATOM     12  C   UNL     1      17.386  56.369  17.701  1.00  0.00    -0.000 C 
BRANCH  12  13
ATOM     13  C   UNL     1      18.865  55.946  17.731  1.00  0.00    -0.003 C 
ATOM     14  C   UNL     1      19.827  57.133  17.730  1.00  0.00     0.004 C 
ENDBRANCH  12  13
ENDBRANCH  11  12
ENDBRANCH  10  11
ENDBRANCH   9  10
ENDBRANCH   1   9
TORSDOF 10
ENDMDL
MODEL 6
REMARK VINA RESULT:    -4.655      1.381      2.097
REMARK INTER + INTRA:          -8.488
REMARK INTER:                  -7.197
REMARK INTRA:                  -1.291
REMARK UNBOUND:                -1.112
REMARK SMILES CCCCCCCCCCCC(=O)[O-]
REMARK SMILES IDX 7 1 8 2 9 3 10 4 11 5 12 6 13 7 14 8 6 9 5 10 4 11 3 12 2 13
REMARK SMILES IDX 1 14
REMARK H PARENT
REMARK Flexibility Score: inf
ROOT
ATOM      1  C   UNL     1      18.749  54.108  12.975  1.00  0.00     0.000 C 
ENDROOT
BRANCH   1   2
ATOM      2  C   UNL     1      19.899  54.132  14.001  1.00  0.00     0.000 C 
BRANCH   2   3
ATOM      3  C   UNL     1      19.686  53.241  15.238  1.00  0.00     0.000 C 
BRANCH   3   4
ATOM      4  C   UNL     1      20.396  53.780  16.491  1.00  0.00     0.006 C 
BRANCH   4   5
ATOM      5  C   UNL     1      21.904  53.958  16.271  1.00  0.00     0.053 C 
BRANCH   5   6
ATOM      6  C   UNL     1      22.351  55.355  16.572  1.00  0.00     0.041 C 
ATOM      7  O   UNL     1      21.504  56.247  16.843  1.00  0.00    -0.550 OA
ATOM      8  O   UNL     1      23.705  55.666  16.584  1.00  0.00    -0.550 OA
ENDBRANCH   5   6
ENDBRANCH   4   5
ENDBRANCH   3   4
ENDBRANCH   2   3
ENDBRANCH   1   2
BRANCH   1   9
ATOM      9  C   UNL     1      17.709  55.237  13.127  1.00  0.00     0.000 C 
BRANCH   9  10
ATOM     10  C   UNL     1      16.492  54.881  14.000  1.00  0.00    -0.000 C 
BRANCH  10  11
ATOM     11  C   UNL     1      16.672  55.300  15.470  1.00  0.00    -0.000 C 
BRANCH  11  12
ATOM     12  C   UNL     1      17.539  56.561  15.629  1.00  0.00    -0.000 C 
BRANCH  12  13
ATOM     13  C   UNL     1      18.095  56.785  17.046  1.00  0.00    -0.003 C 
ATOM     14  C   UNL     1      17.611  55.742  18.052  1.00  0.00     0.004 C 
ENDBRANCH  12  13
ENDBRANCH  11  12
ENDBRANCH  10  11
ENDBRANCH   9  10
ENDBRANCH   1   9
TORSDOF 10
ENDMDL
MODEL 7
REMARK VINA RESULT:    -4.654      3.484      5.344
REMARK INTER + INTRA:          -8.487
REMARK INTER:                  -7.025
REMARK INTRA:                  -1.462
REMARK UNBOUND:                -1.112
REMARK SMILES CCCCCCCCCCCC(=O)[O-]
REMARK SMILES IDX 7 1 8 2 9 3 10 4 11 5 12 6 13 7 14 8 6 9 5 10 4 11 3 12 2 13
REMARK SMILES IDX 1 14
REMARK H PARENT
REMARK Flexibility Score: inf
ROOT
ATOM      1  C   UNL     1      21.787  55.200  16.634  1.00  0.00     0.000 C 
ENDROOT
BRANCH   1   2
ATOM      2  C   UNL     1      20.957  56.441  16.250  1.00  0.00     0.000 C 
BRANCH   2   3
ATOM      3  C   UNL     1      20.220  57.118  17.420  1.00  0.00     0.000 C 
BRANCH   3   4
ATOM      4  C   UNL     1      18.820  56.532  17.663  1.00  0.00     0.006 C 
BRANCH   4   5
ATOM      5  C   UNL     1      17.817  56.956  16.581  1.00  0.00     0.053 C 
BRANCH   5   6
ATOM      6  C   UNL     1      16.471  56.336  16.794  1.00  0.00     0.041 C 
ATOM      7  O   UNL     1      16.363  55.089  16.937  1.00  0.00    -0.550 OA
ATOM      8  O   UNL     1      15.339  57.137  16.866  1.00  0.00    -0.550 OA
ENDBRANCH   5   6
ENDBRANCH   4   5
ENDBRANCH   3   4
ENDBRANCH   2   3
ENDBRANCH   1   2
BRANCH   1   9
ATOM      9  C   UNL     1      21.388  53.895  15.914  1.00  0.00     0.000 C 
BRANCH   9  10
ATOM     10  C   UNL     1      20.108  53.228  16.448  1.00  0.00    -0.000 C 
BRANCH  10  11
ATOM     11  C   UNL     1      18.978  53.191  15.405  1.00  0.00    -0.000 C 
BRANCH  11  12
ATOM     12  C   UNL     1      19.392  53.803  14.055  1.00  0.00    -0.000 C 
BRANCH  12  13
ATOM     13  C   UNL     1      18.619  55.073  13.660  1.00  0.00    -0.003 C 
ATOM     14  C   UNL     1      17.130  54.821  13.426  1.00  0.00     0.004 C 
ENDBRANCH  12  13
ENDBRANCH  11  12
ENDBRANCH  10  11
ENDBRANCH   9  10
ENDBRANCH   1   9
TORSDOF 10
ENDMDL
MODEL 8
REMARK VINA RESULT:    -4.598      3.025      4.260
REMARK INTER + INTRA:          -8.399
REMARK INTER:                  -7.139
REMARK INTRA:                  -1.259
REMARK UNBOUND:                -1.112
REMARK SMILES CCCCCCCCCCCC(=O)[O-]
REMARK SMILES IDX 7 1 8 2 9 3 10 4 11 5 12 6 13 7 14 8 6 9 5 10 4 11 3 12 2 13
REMARK SMILES IDX 1 14
REMARK H PARENT
REMARK Flexibility Score: inf
ROOT
ATOM      1  C   UNL     1      20.678  53.615  15.818  1.00  0.00     0.000 C 
ENDROOT
BRANCH   1   2
ATOM      2  C   UNL     1      21.298  54.997  15.531  1.00  0.00     0.000 C 
BRANCH   2   3
ATOM      3  C   UNL     1      21.418  55.923  16.754  1.00  0.00     0.000 C 
BRANCH   3   4
ATOM      4  C   UNL     1      20.384  57.060  16.747  1.00  0.00     0.006 C 
BRANCH   4   5
ATOM      5  C   UNL     1      19.525  57.071  18.019  1.00  0.00     0.053 C 
BRANCH   5   6
ATOM      6  C   UNL     1      18.292  56.234  17.867  1.00  0.00     0.041 C 
ATOM      7  O   UNL     1      17.226  56.749  17.440  1.00  0.00    -0.550 OA
ATOM      8  O   UNL     1      18.330  54.878  18.168  1.00  0.00    -0.550 OA
ENDBRANCH   5   6
ENDBRANCH   4   5
ENDBRANCH   3   4
ENDBRANCH   2   3
ENDBRANCH   1   2
BRANCH   1   9
ATOM      9  C   UNL     1      19.480  53.234  14.924  1.00  0.00     0.000 C 
BRANCH   9  10
ATOM     10  C   UNL     1      19.526  53.817  13.500  1.00  0.00    -0.000 C 
BRANCH  10  11
ATOM     11  C   UNL     1      18.259  54.614  13.142  1.00  0.00    -0.000 C 
BRANCH  11  12
ATOM     12  C   UNL     1      17.571  55.226  14.376  1.00  0.00    -0.000 C 
BRANCH  12  13
ATOM     13  C   UNL     1      16.099  54.818  14.560  1.00  0.00    -0.003 C 
ATOM     14  C   UNL     1      15.875  53.919  15.776  1.00  0.00     0.004 C 
ENDBRANCH  12  13
ENDBRANCH  11  12
ENDBRANCH  10  11
ENDBRANCH   9  10
ENDBRANCH   1   9
TORSDOF 10
ENDMDL
MODEL 9
REMARK VINA RESULT:    -4.497      3.120      3.837
REMARK INTER + INTRA:          -8.238
REMARK INTER:                  -6.712
REMARK INTRA:                  -1.525
REMARK UNBOUND:                -1.112
REMARK SMILES CCCCCCCCCCCC(=O)[O-]
REMARK SMILES IDX 7 1 8 2 9 3 10 4 11 5 12 6 13 7 14 8 6 9 5 10 4 11 3 12 2 13
REMARK SMILES IDX 1 14
REMARK H PARENT
REMARK Flexibility Score: inf
ROOT
ATOM      1  C   UNL     1      19.433  53.981  13.871  1.00  0.00     0.000 C 
ENDROOT
BRANCH   1   2
ATOM      2  C   UNL     1      20.653  54.376  14.727  1.00  0.00     0.000 C 
BRANCH   2   3
ATOM      3  C   UNL     1      20.671  53.783  16.148  1.00  0.00     0.000 C 
BRANCH   3   4
ATOM      4  C   UNL     1      19.704  52.598  16.312  1.00  0.00     0.006 C 
BRANCH   4   5
ATOM      5  C   UNL     1      18.516  52.941  17.222  1.00  0.00     0.053 C 
BRANCH   5   6
ATOM      6  C   UNL     1      18.862  52.791  18.671  1.00  0.00     0.041 C 
ATOM      7  O   UNL     1      19.855  52.098  19.017  1.00  0.00    -0.550 OA
ATOM      8  O   UNL     1      18.105  53.441  19.638  1.00  0.00    -0.550 OA
ENDBRANCH   5   6
ENDBRANCH   4   5
ENDBRANCH   3   4
ENDBRANCH   2   3
ENDBRANCH   1   2
BRANCH   1   9
ATOM      9  C   UNL     1      18.379  55.091  13.680  1.00  0.00     0.000 C 
BRANCH   9  10
ATOM     10  C   UNL     1      17.075  54.887  14.471  1.00  0.00    -0.000 C 
BRANCH  10  11
ATOM     11  C   UNL     1      16.856  55.967  15.545  1.00  0.00    -0.000 C 
BRANCH  11  12
ATOM     12  C   UNL     1      18.156  56.693  15.934  1.00  0.00    -0.000 C 
BRANCH  12  13
ATOM     13  C   UNL     1      18.494  56.647  17.434  1.00  0.00    -0.003 C 
ATOM     14  C   UNL     1      19.907  57.137  17.746  1.00  0.00     0.004 C 
ENDBRANCH  12  13
ENDBRANCH  11  12
ENDBRANCH  10  11
ENDBRANCH   9  10
ENDBRANCH   1   9
TORSDOF 10
ENDMDL
