MODEL 1
REMARK VINA RESULT:    -1.608      0.000      0.000
REMARK INTER + INTRA:          -5.819
REMARK INTER:                  -4.052
REMARK INTRA:                  -1.766
REMARK UNBOUND:                -1.766
REMARK SMILES CCCCCCCCCCCCCCCCCCCCCCCCCCCC(=O)[O-]
REMARK SMILES IDX 15 1 16 2 17 3 18 4 19 5 20 6 21 7 22 8 23 9 24 10 25 11
REMARK SMILES IDX 26 12 27 13 28 14 29 15 30 16 14 17 13 18 12 19 11 20 10 21
REMARK SMILES IDX 9 22 8 23 7 24 6 25 5 26 4 27 3 28 2 29 1 30
REMARK H PARENT
REMARK Flexibility Score: inf
ROOT
ATOM      1  C   UNL     1      22.882  34.754  12.070  1.00  0.00     0.000 C 
ENDROOT
BRANCH   1   2
ATOM      2  C   UNL     1      23.152  35.050  13.556  1.00  0.00     0.000 C 
BRANCH   2   3
ATOM      3  C   UNL     1      22.713  33.939  14.533  1.00  0.00     0.000 C 
BRANCH   3   4
ATOM      4  C   UNL     1      22.962  32.499  14.039  1.00  0.00     0.000 C 
BRANCH   4   5
ATOM      5  C   UNL     1      21.859  31.487  14.407  1.00  0.00     0.000 C 
BRANCH   5   6
ATOM      6  C   UNL     1      21.383  31.552  15.872  1.00  0.00     0.000 C 
BRANCH   6   7
ATOM      7  C   UNL     1      19.980  30.966  16.125  1.00  0.00     0.000 C 
BRANCH   7   8
ATOM      8  C   UNL     1      18.816  31.746  15.478  1.00  0.00     0.000 C 
BRANCH   8   9
ATOM      9  C   UNL     1      18.001  30.957  14.436  1.00  0.00     0.000 C 
BRANCH   9  10
ATOM     10  C   UNL     1      16.506  30.876  14.788  1.00  0.00     0.000 C 
BRANCH  10  11
ATOM     11  C   UNL     1      15.975  32.166  15.430  1.00  0.00     0.000 C 
BRANCH  11  12
ATOM     12  C   UNL     1      14.595  31.986  16.081  1.00  0.00     0.006 C 
BRANCH  12  13
ATOM     13  C   UNL     1      13.480  32.076  15.033  1.00  0.00     0.053 C 
BRANCH  13  14
ATOM     14  C   UNL     1      12.622  33.284  15.263  1.00  0.00     0.041 C 
ATOM     15  O   UNL     1      11.448  33.155  15.705  1.00  0.00    -0.550 OA
ATOM     16  O   UNL     1      13.131  34.556  15.027  1.00  0.00    -0.550 OA
ENDBRANCH  13  14
ENDBRANCH  12  13
ENDBRANCH  11  12
ENDBRANCH  10  11
ENDBRANCH   9  10
ENDBRANCH   8   9
ENDBRANCH   7   8
ENDBRANCH   6   7
ENDBRANCH   5   6
ENDBRANCH   4   5
ENDBRANCH   3   4
ENDBRANCH   2   3
ENDBRANCH   1   2
BRANCH   1  17
ATOM     17  C   UNL     1      23.452  33.417  11.558  1.00  0.00     0.000 C 
BRANCH  17  18
ATOM     18  C   UNL     1      24.651  33.575  10.600  1.00  0.00     0.000 C 
BRANCH  18  19
ATOM     19  C   UNL     1      25.853  32.703  11.006  1.00  0.00     0.000 C 
BRANCH  19  20
ATOM     20  C   UNL     1      25.446  31.251  11.307  1.00  0.00     0.000 C 
BRANCH  20  21
ATOM     21  C   UNL     1      25.655  30.877  12.786  1.00  0.00     0.000 C 
BRANCH  21  22
ATOM     22  C   UNL     1      26.939  31.484  13.381  1.00  0.00    -0.000 C 
BRANCH  22  23
ATOM     23  C   UNL     1      26.946  31.607  14.916  1.00  0.00    -0.000 C 
BRANCH  23  24
ATOM     24  C   UNL     1      26.051  32.745  15.429  1.00  0.00    -0.000 C 
BRANCH  24  25
ATOM     25  C   UNL     1      26.872  34.003  15.736  1.00  0.00    -0.000 C 
BRANCH  25  26
ATOM     26  C   UNL     1      26.206  35.249  15.134  1.00  0.00    -0.000 C 
BRANCH  26  27
ATOM     27  C   UNL     1      25.203  35.908  16.095  1.00  0.00    -0.000 C 
BRANCH  27  28
ATOM     28  C   UNL     1      25.114  37.433  15.899  1.00  0.00    -0.000 C 
BRANCH  28  29
ATOM     29  C   UNL     1      23.662  37.936  15.848  1.00  0.00    -0.003 C 
ATOM     30  C   UNL     1      23.352  38.722  14.574  1.00  0.00     0.004 C 
ENDBRANCH  28  29
ENDBRANCH  27  28
ENDBRANCH  26  27
ENDBRANCH  25  26
ENDBRANCH  24  25
ENDBRANCH  23  24
ENDBRANCH  22  23
ENDBRANCH  21  22
ENDBRANCH  20  21
ENDBRANCH  19  20
ENDBRANCH  18  19
ENDBRANCH  17  18
ENDBRANCH   1  17
TORSDOF 26
ENDMDL
MODEL 2
REMARK VINA RESULT:    -1.128      1.449      3.970
REMARK INTER + INTRA:          -4.608
REMARK INTER:                  -4.089
REMARK INTRA:                  -0.519
REMARK UNBOUND:                -1.766
REMARK SMILES CCCCCCCCCCCCCCCCCCCCCCCCCCCC(=O)[O-]
REMARK SMILES IDX 15 1 16 2 17 3 18 4 19 5 20 6 21 7 22 8 23 9 24 10 25 11
REMARK SMILES IDX 26 12 27 13 28 14 29 15 30 16 14 17 13 18 12 19 11 20 10 21
REMARK SMILES IDX 9 22 8 23 7 24 6 25 5 26 4 27 3 28 2 29 1 30
REMARK H PARENT
REMARK Flexibility Score: inf
ROOT
ATOM      1  C   UNL     1      23.792  38.094  14.343  1.00  0.00     0.000 C 
ENDROOT
BRANCH   1   2
ATOM      2  C   UNL     1      23.542  36.946  13.347  1.00  0.00     0.000 C 
BRANCH   2   3
ATOM      3  C   UNL     1      22.472  35.925  13.786  1.00  0.00     0.000 C 
BRANCH   3   4
ATOM      4  C   UNL     1      21.974  36.084  15.237  1.00  0.00     0.000 C 
BRANCH   4   5
ATOM      5  C   UNL     1      20.705  35.279  15.579  1.00  0.00     0.000 C 
BRANCH   5   6
ATOM      6  C   UNL     1      20.450  34.056  14.674  1.00  0.00     0.000 C 
BRANCH   6   7
ATOM      7  C   UNL     1      20.943  32.712  15.246  1.00  0.00     0.000 C 
BRANCH   7   8
ATOM      8  C   UNL     1      19.882  31.899  16.018  1.00  0.00     0.000 C 
BRANCH   8   9
ATOM      9  C   UNL     1      18.870  31.145  15.136  1.00  0.00     0.000 C 
BRANCH   9  10
ATOM     10  C   UNL     1      17.536  30.880  15.854  1.00  0.00     0.000 C 
BRANCH  10  11
ATOM     11  C   UNL     1      16.327  31.442  15.091  1.00  0.00     0.000 C 
BRANCH  11  12
ATOM     12  C   UNL     1      15.003  31.257  15.849  1.00  0.00     0.006 C 
BRANCH  12  13
ATOM     13  C   UNL     1      14.174  32.546  15.823  1.00  0.00     0.053 C 
BRANCH  13  14
ATOM     14  C   UNL     1      12.890  32.343  15.075  1.00  0.00     0.041 C 
ATOM     15  O   UNL     1      12.586  31.202  14.632  1.00  0.00    -0.550 OA
ATOM     16  O   UNL     1      12.010  33.405  14.899  1.00  0.00    -0.550 OA
ENDBRANCH  13  14
ENDBRANCH  12  13
ENDBRANCH  11  12
ENDBRANCH  10  11
ENDBRANCH   9  10
ENDBRANCH   8   9
ENDBRANCH   7   8
ENDBRANCH   6   7
ENDBRANCH   5   6
ENDBRANCH   4   5
ENDBRANCH   3   4
ENDBRANCH   2   3
ENDBRANCH   1   2
BRANCH   1  17
ATOM     17  C   UNL     1      24.738  37.750  15.509  1.00  0.00     0.000 C 
BRANCH  17  18
ATOM     18  C   UNL     1      24.507  36.346  16.107  1.00  0.00     0.000 C 
BRANCH  18  19
ATOM     19  C   UNL     1      25.491  35.299  15.556  1.00  0.00     0.000 C 
BRANCH  19  20
ATOM     20  C   UNL     1      25.919  35.603  14.110  1.00  0.00     0.000 C 
BRANCH  20  21
ATOM     21  C   UNL     1      26.996  34.629  13.599  1.00  0.00     0.000 C 
BRANCH  21  22
ATOM     22  C   UNL     1      26.663  34.039  12.217  1.00  0.00    -0.000 C 
BRANCH  22  23
ATOM     23  C   UNL     1      26.854  32.515  12.100  1.00  0.00    -0.000 C 
BRANCH  23  24
ATOM     24  C   UNL     1      25.525  31.750  12.021  1.00  0.00    -0.000 C 
BRANCH  24  25
ATOM     25  C   UNL     1      24.333  32.675  12.291  1.00  0.00    -0.000 C 
BRANCH  25  26
ATOM     26  C   UNL     1      23.896  32.587  13.760  1.00  0.00    -0.000 C 
BRANCH  26  27
ATOM     27  C   UNL     1      23.955  31.154  14.312  1.00  0.00    -0.000 C 
BRANCH  27  28
ATOM     28  C   UNL     1      24.682  31.073  15.667  1.00  0.00    -0.000 C 
BRANCH  28  29
ATOM     29  C   UNL     1      25.806  32.115  15.795  1.00  0.00    -0.003 C 
ATOM     30  C   UNL     1      27.201  31.497  15.700  1.00  0.00     0.004 C 
ENDBRANCH  28  29
ENDBRANCH  27  28
ENDBRANCH  26  27
ENDBRANCH  25  26
ENDBRANCH  24  25
ENDBRANCH  23  24
ENDBRANCH  22  23
ENDBRANCH  21  22
ENDBRANCH  20  21
ENDBRANCH  19  20
ENDBRANCH  18  19
ENDBRANCH  17  18
ENDBRANCH   1  17
TORSDOF 26
ENDMDL
MODEL 3
REMARK VINA RESULT:    -0.983      3.091      8.266
REMARK INTER + INTRA:          -4.244
REMARK INTER:                  -3.735
REMARK INTRA:                  -0.509
REMARK UNBOUND:                -1.766
REMARK SMILES CCCCCCCCCCCCCCCCCCCCCCCCCCCC(=O)[O-]
REMARK SMILES IDX 15 1 16 2 17 3 18 4 19 5 20 6 21 7 22 8 23 9 24 10 25 11
REMARK SMILES IDX 26 12 27 13 28 14 29 15 30 16 14 17 13 18 12 19 11 20 10 21
REMARK SMILES IDX 9 22 8 23 7 24 6 25 5 26 4 27 3 28 2 29 1 30
REMARK H PARENT
REMARK Flexibility Score: inf
ROOT
ATOM      1  C   UNL     1      23.378  38.543  13.234  1.00  0.00     0.000 C 
ENDROOT
BRANCH   1   2
ATOM      2  C   UNL     1      24.733  37.828  13.384  1.00  0.00     0.000 C 
BRANCH   2   3
ATOM      3  C   UNL     1      24.799  36.788  14.521  1.00  0.00     0.000 C 
BRANCH   3   4
ATOM      4  C   UNL     1      25.905  35.724  14.370  1.00  0.00     0.000 C 
BRANCH   4   5
ATOM      5  C   UNL     1      26.276  34.984  15.670  1.00  0.00     0.000 C 
BRANCH   5   6
ATOM      6  C   UNL     1      27.344  33.883  15.507  1.00  0.00     0.000 C 
BRANCH   6   7
ATOM      7  C   UNL     1      26.851  32.453  15.801  1.00  0.00     0.000 C 
BRANCH   7   8
ATOM      8  C   UNL     1      25.973  31.821  14.701  1.00  0.00     0.000 C 
BRANCH   8   9
ATOM      9  C   UNL     1      26.714  30.875  13.738  1.00  0.00     0.000 C 
BRANCH   9  10
ATOM     10  C   UNL     1      26.197  30.974  12.293  1.00  0.00     0.000 C 
BRANCH  10  11
ATOM     11  C   UNL     1      26.473  32.344  11.655  1.00  0.00     0.000 C 
BRANCH  11  12
ATOM     12  C   UNL     1      25.257  32.910  10.905  1.00  0.00     0.006 C 
BRANCH  12  13
ATOM     13  C   UNL     1      24.175  33.372  11.887  1.00  0.00     0.053 C 
BRANCH  13  14
ATOM     14  C   UNL     1      23.302  34.423  11.270  1.00  0.00     0.041 C 
ATOM     15  O   UNL     1      22.890  35.393  11.962  1.00  0.00    -0.550 OA
ATOM     16  O   UNL     1      22.974  34.353   9.921  1.00  0.00    -0.550 OA
ENDBRANCH  13  14
ENDBRANCH  12  13
ENDBRANCH  11  12
ENDBRANCH  10  11
ENDBRANCH   9  10
ENDBRANCH   8   9
ENDBRANCH   7   8
ENDBRANCH   6   7
ENDBRANCH   5   6
ENDBRANCH   4   5
ENDBRANCH   3   4
ENDBRANCH   2   3
ENDBRANCH   1   2
BRANCH   1  17
ATOM     17  C   UNL     1      22.531  38.609  14.519  1.00  0.00     0.000 C 
BRANCH  17  18
ATOM     18  C   UNL     1      22.915  37.551  15.575  1.00  0.00     0.000 C 
BRANCH  18  19
ATOM     19  C   UNL     1      21.694  36.784  16.115  1.00  0.00     0.000 C 
BRANCH  19  20
ATOM     20  C   UNL     1      21.085  35.841  15.064  1.00  0.00     0.000 C 
BRANCH  20  21
ATOM     21  C   UNL     1      22.126  34.879  14.464  1.00  0.00     0.000 C 
BRANCH  21  22
ATOM     22  C   UNL     1      21.604  33.437  14.333  1.00  0.00    -0.000 C 
BRANCH  22  23
ATOM     23  C   UNL     1      22.410  32.382  15.115  1.00  0.00    -0.000 C 
BRANCH  23  24
ATOM     24  C   UNL     1      21.518  31.380  15.861  1.00  0.00    -0.000 C 
BRANCH  24  25
ATOM     25  C   UNL     1      20.125  31.963  16.125  1.00  0.00    -0.000 C 
BRANCH  25  26
ATOM     26  C   UNL     1      19.030  30.973  15.701  1.00  0.00    -0.000 C 
BRANCH  26  27
ATOM     27  C   UNL     1      18.102  31.543  14.617  1.00  0.00    -0.000 C 
BRANCH  27  28
ATOM     28  C   UNL     1      16.680  30.958  14.692  1.00  0.00    -0.000 C 
BRANCH  28  29
ATOM     29  C   UNL     1      15.888  31.489  15.899  1.00  0.00    -0.003 C 
ATOM     30  C   UNL     1      14.385  31.571  15.631  1.00  0.00     0.004 C 
ENDBRANCH  28  29
ENDBRANCH  27  28
ENDBRANCH  26  27
ENDBRANCH  25  26
ENDBRANCH  24  25
ENDBRANCH  23  24
ENDBRANCH  22  23
ENDBRANCH  21  22
ENDBRANCH  20  21
ENDBRANCH  19  20
ENDBRANCH  18  19
ENDBRANCH  17  18
ENDBRANCH   1  17
TORSDOF 26
ENDMDL
MODEL 4
REMARK VINA RESULT:    -0.935      1.459      4.016
REMARK INTER + INTRA:          -4.123
REMARK INTER:                  -2.344
REMARK INTRA:                  -1.779
REMARK UNBOUND:                -1.766
REMARK SMILES CCCCCCCCCCCCCCCCCCCCCCCCCCCC(=O)[O-]
REMARK SMILES IDX 15 1 16 2 17 3 18 4 19 5 20 6 21 7 22 8 23 9 24 10 25 11
REMARK SMILES IDX 26 12 27 13 28 14 29 15 30 16 14 17 13 18 12 19 11 20 10 21
REMARK SMILES IDX 9 22 8 23 7 24 6 25 5 26 4 27 3 28 2 29 1 30
REMARK H PARENT
REMARK Flexibility Score: inf
ROOT
ATOM      1  C   UNL     1      23.233  38.547  14.440  1.00  0.00     0.000 C 
ENDROOT
BRANCH   1   2
ATOM      2  C   UNL     1      24.201  38.213  15.589  1.00  0.00     0.000 C 
BRANCH   2   3
ATOM      3  C   UNL     1      24.522  36.713  15.756  1.00  0.00     0.000 C 
BRANCH   3   4
ATOM      4  C   UNL     1      23.315  35.825  16.123  1.00  0.00     0.000 C 
BRANCH   4   5
ATOM      5  C   UNL     1      21.945  36.378  15.686  1.00  0.00     0.000 C 
BRANCH   5   6
ATOM      6  C   UNL     1      20.905  35.306  15.304  1.00  0.00     0.000 C 
BRANCH   6   7
ATOM      7  C   UNL     1      21.442  33.861  15.281  1.00  0.00     0.000 C 
BRANCH   7   8
ATOM      8  C   UNL     1      20.402  32.780  14.920  1.00  0.00     0.000 C 
BRANCH   8   9
ATOM      9  C   UNL     1      20.443  31.516  15.799  1.00  0.00     0.000 C 
BRANCH   9  10
ATOM     10  C   UNL     1      19.049  30.913  16.040  1.00  0.00     0.000 C 
BRANCH  10  11
ATOM     11  C   UNL     1      18.142  30.999  14.803  1.00  0.00     0.000 C 
BRANCH  11  12
ATOM     12  C   UNL     1      16.859  31.806  15.057  1.00  0.00     0.006 C 
BRANCH  12  13
ATOM     13  C   UNL     1      15.704  30.883  15.463  1.00  0.00     0.053 C 
BRANCH  13  14
ATOM     14  C   UNL     1      14.388  31.590  15.350  1.00  0.00     0.041 C 
ATOM     15  O   UNL     1      14.297  32.814  15.638  1.00  0.00    -0.550 OA
ATOM     16  O   UNL     1      13.267  30.908  14.890  1.00  0.00    -0.550 OA
ENDBRANCH  13  14
ENDBRANCH  12  13
ENDBRANCH  11  12
ENDBRANCH  10  11
ENDBRANCH   9  10
ENDBRANCH   8   9
ENDBRANCH   7   8
ENDBRANCH   6   7
ENDBRANCH   5   6
ENDBRANCH   4   5
ENDBRANCH   3   4
ENDBRANCH   2   3
ENDBRANCH   1   2
BRANCH   1  17
ATOM     17  C   UNL     1      23.882  38.636  13.046  1.00  0.00     0.000 C 
BRANCH  17  18
ATOM     18  C   UNL     1      23.622  37.402  12.156  1.00  0.00     0.000 C 
BRANCH  18  19
ATOM     19  C   UNL     1      22.713  36.363  12.836  1.00  0.00     0.000 C 
BRANCH  19  20
ATOM     20  C   UNL     1      23.203  34.922  12.615  1.00  0.00     0.000 C 
BRANCH  20  21
ATOM     21  C   UNL     1      23.012  34.454  11.161  1.00  0.00     0.000 C 
BRANCH  21  22
ATOM     22  C   UNL     1      24.210  33.646  10.631  1.00  0.00    -0.000 C 
BRANCH  22  23
ATOM     23  C   UNL     1      24.362  32.238  11.238  1.00  0.00    -0.000 C 
BRANCH  23  24
ATOM     24  C   UNL     1      25.810  31.910  11.634  1.00  0.00    -0.000 C 
BRANCH  24  25
ATOM     25  C   UNL     1      25.861  31.111  12.941  1.00  0.00    -0.000 C 
BRANCH  25  26
ATOM     26  C   UNL     1      24.656  31.445  13.832  1.00  0.00    -0.000 C 
BRANCH  26  27
ATOM     27  C   UNL     1      25.066  31.879  15.248  1.00  0.00    -0.000 C 
BRANCH  27  28
ATOM     28  C   UNL     1      26.466  32.519  15.286  1.00  0.00    -0.000 C 
BRANCH  28  29
ATOM     29  C   UNL     1      26.412  34.055  15.326  1.00  0.00    -0.003 C 
ATOM     30  C   UNL     1      26.712  34.694  13.969  1.00  0.00     0.004 C 
ENDBRANCH  28  29
ENDBRANCH  27  28
ENDBRANCH  26  27
ENDBRANCH  25  26
ENDBRANCH  24  25
ENDBRANCH  23  24
ENDBRANCH  22  23
ENDBRANCH  21  22
ENDBRANCH  20  21
ENDBRANCH  19  20
ENDBRANCH  18  19
ENDBRANCH  17  18
ENDBRANCH   1  17
TORSDOF 26
ENDMDL
MODEL 5
REMARK VINA RESULT:    -0.845      1.485      4.097
REMARK INTER + INTRA:          -3.896
REMARK INTER:                  -1.051
REMARK INTRA:                  -2.845
REMARK UNBOUND:                -1.766
REMARK SMILES CCCCCCCCCCCCCCCCCCCCCCCCCCCC(=O)[O-]
REMARK SMILES IDX 15 1 16 2 17 3 18 4 19 5 20 6 21 7 22 8 23 9 24 10 25 11
REMARK SMILES IDX 26 12 27 13 28 14 29 15 30 16 14 17 13 18 12 19 11 20 10 21
REMARK SMILES IDX 9 22 8 23 7 24 6 25 5 26 4 27 3 28 2 29 1 30
REMARK H PARENT
REMARK Flexibility Score: inf
ROOT
ATOM      1  C   UNL     1      23.084  38.621  15.344  1.00  0.00     0.000 C 
ENDROOT
BRANCH   1   2
ATOM      2  C   UNL     1      22.083  37.705  16.072  1.00  0.00     0.000 C 
BRANCH   2   3
ATOM      3  C   UNL     1      22.060  36.243  15.579  1.00  0.00     0.000 C 
BRANCH   3   4
ATOM      4  C   UNL     1      23.345  35.438  15.862  1.00  0.00     0.000 C 
BRANCH   4   5
ATOM      5  C   UNL     1      23.125  33.936  16.124  1.00  0.00     0.000 C 
BRANCH   5   6
ATOM      6  C   UNL     1      22.027  33.281  15.262  1.00  0.00     0.000 C 
BRANCH   6   7
ATOM      7  C   UNL     1      20.905  32.586  16.059  1.00  0.00     0.000 C 
BRANCH   7   8
ATOM      8  C   UNL     1      19.563  33.347  16.102  1.00  0.00     0.000 C 
BRANCH   8   9
ATOM      9  C   UNL     1      18.519  32.887  15.067  1.00  0.00     0.000 C 
BRANCH   9  10
ATOM     10  C   UNL     1      18.340  31.360  15.040  1.00  0.00     0.000 C 
BRANCH  10  11
ATOM     11  C   UNL     1      17.199  30.879  15.948  1.00  0.00     0.000 C 
BRANCH  11  12
ATOM     12  C   UNL     1      15.826  30.924  15.259  1.00  0.00     0.006 C 
BRANCH  12  13
ATOM     13  C   UNL     1      15.031  32.157  15.703  1.00  0.00     0.053 C 
BRANCH  13  14
ATOM     14  C   UNL     1      13.623  32.100  15.193  1.00  0.00     0.041 C 
ATOM     15  O   UNL     1      13.180  31.044  14.666  1.00  0.00    -0.550 OA
ATOM     16  O   UNL     1      12.785  33.201  15.334  1.00  0.00    -0.550 OA
ENDBRANCH  13  14
ENDBRANCH  12  13
ENDBRANCH  11  12
ENDBRANCH  10  11
ENDBRANCH   9  10
ENDBRANCH   8   9
ENDBRANCH   7   8
ENDBRANCH   6   7
ENDBRANCH   5   6
ENDBRANCH   4   5
ENDBRANCH   3   4
ENDBRANCH   2   3
ENDBRANCH   1   2
BRANCH   1  17
ATOM     17  C   UNL     1      23.108  38.472  13.811  1.00  0.00     0.000 C 
BRANCH  17  18
ATOM     18  C   UNL     1      24.284  39.204  13.131  1.00  0.00     0.000 C 
BRANCH  18  19
ATOM     19  C   UNL     1      25.629  38.487  13.344  1.00  0.00     0.000 C 
BRANCH  19  20
ATOM     20  C   UNL     1      25.470  37.158  14.103  1.00  0.00     0.000 C 
BRANCH  20  21
ATOM     21  C   UNL     1      25.745  35.935  13.210  1.00  0.00     0.000 C 
BRANCH  21  22
ATOM     22  C   UNL     1      26.751  34.952  13.835  1.00  0.00    -0.000 C 
BRANCH  22  23
ATOM     23  C   UNL     1      26.145  33.614  14.301  1.00  0.00    -0.000 C 
BRANCH  23  24
ATOM     24  C   UNL     1      26.421  32.460  13.327  1.00  0.00    -0.000 C 
BRANCH  24  25
ATOM     25  C   UNL     1      25.364  31.357  13.457  1.00  0.00    -0.000 C 
BRANCH  25  26
ATOM     26  C   UNL     1      24.375  31.410  12.284  1.00  0.00    -0.000 C 
BRANCH  26  27
ATOM     27  C   UNL     1      24.981  32.045  11.023  1.00  0.00    -0.000 C 
BRANCH  27  28
ATOM     28  C   UNL     1      24.051  33.093  10.385  1.00  0.00    -0.000 C 
BRANCH  28  29
ATOM     29  C   UNL     1      22.991  33.617  11.368  1.00  0.00    -0.003 C 
ATOM     30  C   UNL     1      22.910  35.144  11.394  1.00  0.00     0.004 C 
ENDBRANCH  28  29
ENDBRANCH  27  28
ENDBRANCH  26  27
ENDBRANCH  25  26
ENDBRANCH  24  25
ENDBRANCH  23  24
ENDBRANCH  22  23
ENDBRANCH  21  22
ENDBRANCH  20  21
ENDBRANCH  19  20
ENDBRANCH  18  19
ENDBRANCH  17  18
ENDBRANCH   1  17
TORSDOF 26
ENDMDL
MODEL 6
REMARK VINA RESULT:    -0.752      1.244      5.076
REMARK INTER + INTRA:          -3.661
REMARK INTER:                  -3.499
REMARK INTRA:                  -0.162
REMARK UNBOUND:                -1.766
REMARK SMILES CCCCCCCCCCCCCCCCCCCCCCCCCCCC(=O)[O-]
REMARK SMILES IDX 15 1 16 2 17 3 18 4 19 5 20 6 21 7 22 8 23 9 24 10 25 11
REMARK SMILES IDX 26 12 27 13 28 14 29 15 30 16 14 17 13 18 12 19 11 20 10 21
REMARK SMILES IDX 9 22 8 23 7 24 6 25 5 26 4 27 3 28 2 29 1 30
REMARK H PARENT
REMARK Flexibility Score: inf
ROOT
ATOM      1  C   UNL     1      26.324  35.002  14.027  1.00  0.00     0.000 C 
ENDROOT
BRANCH   1   2
ATOM      2  C   UNL     1      26.001  33.581  14.524  1.00  0.00     0.000 C 
BRANCH   2   3
ATOM      3  C   UNL     1      24.892  33.502  15.594  1.00  0.00     0.000 C 
BRANCH   3   4
ATOM      4  C   UNL     1      24.500  32.074  16.024  1.00  0.00     0.000 C 
BRANCH   4   5
ATOM      5  C   UNL     1      23.850  31.219  14.918  1.00  0.00     0.000 C 
BRANCH   5   6
ATOM      6  C   UNL     1      22.309  31.276  14.877  1.00  0.00     0.000 C 
BRANCH   6   7
ATOM      7  C   UNL     1      21.683  32.457  15.644  1.00  0.00     0.000 C 
BRANCH   7   8
ATOM      8  C   UNL     1      20.234  32.234  16.125  1.00  0.00     0.000 C 
BRANCH   8   9
ATOM      9  C   UNL     1      19.576  30.933  15.629  1.00  0.00     0.000 C 
BRANCH   9  10
ATOM     10  C   UNL     1      18.220  31.175  14.945  1.00  0.00     0.000 C 
BRANCH  10  11
ATOM     11  C   UNL     1      17.041  31.136  15.930  1.00  0.00     0.000 C 
BRANCH  11  12
ATOM     12  C   UNL     1      15.678  31.034  15.227  1.00  0.00     0.006 C 
BRANCH  12  13
ATOM     13  C   UNL     1      14.620  31.863  15.963  1.00  0.00     0.053 C 
BRANCH  13  14
ATOM     14  C   UNL     1      13.351  31.940  15.170  1.00  0.00     0.041 C 
ATOM     15  O   UNL     1      12.760  30.884  14.814  1.00  0.00    -0.550 OA
ATOM     16  O   UNL     1      12.798  33.176  14.856  1.00  0.00    -0.550 OA
ENDBRANCH  13  14
ENDBRANCH  12  13
ENDBRANCH  11  12
ENDBRANCH  10  11
ENDBRANCH   9  10
ENDBRANCH   8   9
ENDBRANCH   7   8
ENDBRANCH   6   7
ENDBRANCH   5   6
ENDBRANCH   4   5
ENDBRANCH   3   4
ENDBRANCH   2   3
ENDBRANCH   1   2
BRANCH   1  17
ATOM     17  C   UNL     1      26.257  36.100  15.105  1.00  0.00     0.000 C 
BRANCH  17  18
ATOM     18  C   UNL     1      24.830  36.620  15.380  1.00  0.00     0.000 C 
BRANCH  18  19
ATOM     19  C   UNL     1      24.825  37.968  16.124  1.00  0.00     0.000 C 
BRANCH  19  20
ATOM     20  C   UNL     1      24.148  39.083  15.309  1.00  0.00     0.000 C 
BRANCH  20  21
ATOM     21  C   UNL     1      23.431  38.545  14.059  1.00  0.00     0.000 C 
BRANCH  21  22
ATOM     22  C   UNL     1      22.349  37.503  14.392  1.00  0.00    -0.000 C 
BRANCH  22  23
ATOM     23  C   UNL     1      22.804  36.036  14.276  1.00  0.00    -0.000 C 
BRANCH  23  24
ATOM     24  C   UNL     1      22.048  35.258  13.188  1.00  0.00    -0.000 C 
BRANCH  24  25
ATOM     25  C   UNL     1      22.958  34.940  11.997  1.00  0.00    -0.000 C 
BRANCH  25  26
ATOM     26  C   UNL     1      22.830  33.464  11.592  1.00  0.00    -0.000 C 
BRANCH  26  27
ATOM     27  C   UNL     1      23.880  33.040  10.553  1.00  0.00    -0.000 C 
BRANCH  27  28
ATOM     28  C   UNL     1      25.216  32.628  11.200  1.00  0.00    -0.000 C 
BRANCH  28  29
ATOM     29  C   UNL     1      25.682  31.233  10.751  1.00  0.00    -0.003 C 
ATOM     30  C   UNL     1      25.635  31.053   9.233  1.00  0.00     0.004 C 
ENDBRANCH  28  29
ENDBRANCH  27  28
ENDBRANCH  26  27
ENDBRANCH  25  26
ENDBRANCH  24  25
ENDBRANCH  23  24
ENDBRANCH  22  23
ENDBRANCH  21  22
ENDBRANCH  20  21
ENDBRANCH  19  20
ENDBRANCH  18  19
ENDBRANCH  17  18
ENDBRANCH   1  17
TORSDOF 26
ENDMDL
MODEL 7
REMARK VINA RESULT:    -0.250      8.068     12.879
REMARK INTER + INTRA:          -2.396
REMARK INTER:                  -0.649
REMARK INTRA:                  -1.747
REMARK UNBOUND:                -1.766
REMARK SMILES CCCCCCCCCCCCCCCCCCCCCCCCCCCC(=O)[O-]
REMARK SMILES IDX 15 1 16 2 17 3 18 4 19 5 20 6 21 7 22 8 23 9 24 10 25 11
REMARK SMILES IDX 26 12 27 13 28 14 29 15 30 16 14 17 13 18 12 19 11 20 10 21
REMARK SMILES IDX 9 22 8 23 7 24 6 25 5 26 4 27 3 28 2 29 1 30
REMARK H PARENT
REMARK Flexibility Score: inf
ROOT
ATOM      1  C   UNL     1      23.904  39.082  14.876  1.00  0.00     0.000 C 
ENDROOT
BRANCH   1   2
ATOM      2  C   UNL     1      25.428  39.207  15.060  1.00  0.00     0.000 C 
BRANCH   2   3
ATOM      3  C   UNL     1      25.893  40.479  15.799  1.00  0.00     0.000 C 
BRANCH   3   4
ATOM      4  C   UNL     1      24.847  41.611  15.872  1.00  0.00     0.000 C 
BRANCH   4   5
ATOM      5  C   UNL     1      25.430  43.019  16.105  1.00  0.00     0.000 C 
BRANCH   5   6
ATOM      6  C   UNL     1      24.528  44.178  15.637  1.00  0.00     0.000 C 
BRANCH   6   7
ATOM      7  C   UNL     1      24.964  45.576  16.121  1.00  0.00     0.000 C 
BRANCH   7   8
ATOM      8  C   UNL     1      24.148  46.753  15.549  1.00  0.00     0.000 C 
BRANCH   8   9
ATOM      9  C   UNL     1      24.567  48.145  16.058  1.00  0.00     0.000 C 
BRANCH   9  10
ATOM     10  C   UNL     1      23.390  49.134  16.122  1.00  0.00     0.000 C 
BRANCH  10  11
ATOM     11  C   UNL     1      23.498  50.255  15.078  1.00  0.00     0.000 C 
BRANCH  11  12
ATOM     12  C   UNL     1      24.774  51.097  15.234  1.00  0.00     0.006 C 
BRANCH  12  13
ATOM     13  C   UNL     1      25.684  50.944  14.010  1.00  0.00     0.053 C 
BRANCH  13  14
ATOM     14  C   UNL     1      27.056  50.495  14.414  1.00  0.00     0.041 C 
ATOM     15  O   UNL     1      27.829  49.973  13.565  1.00  0.00    -0.550 OA
ATOM     16  O   UNL     1      27.497  50.686  15.718  1.00  0.00    -0.550 OA
ENDBRANCH  13  14
ENDBRANCH  12  13
ENDBRANCH  11  12
ENDBRANCH  10  11
ENDBRANCH   9  10
ENDBRANCH   8   9
ENDBRANCH   7   8
ENDBRANCH   6   7
ENDBRANCH   5   6
ENDBRANCH   4   5
ENDBRANCH   3   4
ENDBRANCH   2   3
ENDBRANCH   1   2
BRANCH   1  17
ATOM     17  C   UNL     1      23.212  38.090  15.831  1.00  0.00     0.000 C 
BRANCH  17  18
ATOM     18  C   UNL     1      22.674  36.823  15.131  1.00  0.00     0.000 C 
BRANCH  18  19
ATOM     19  C   UNL     1      22.433  35.663  16.113  1.00  0.00     0.000 C 
BRANCH  19  20
ATOM     20  C   UNL     1      22.676  34.289  15.465  1.00  0.00     0.000 C 
BRANCH  20  21
ATOM     21  C   UNL     1      23.948  33.605  15.997  1.00  0.00     0.000 C 
BRANCH  21  22
ATOM     22  C   UNL     1      24.332  32.349  15.195  1.00  0.00    -0.000 C 
BRANCH  22  23
ATOM     23  C   UNL     1      25.748  32.375  14.589  1.00  0.00    -0.000 C 
BRANCH  23  24
ATOM     24  C   UNL     1      26.181  33.778  14.139  1.00  0.00    -0.000 C 
BRANCH  24  25
ATOM     25  C   UNL     1      25.991  33.961  12.629  1.00  0.00    -0.000 C 
BRANCH  25  26
ATOM     26  C   UNL     1      26.009  32.605  11.909  1.00  0.00    -0.000 C 
BRANCH  26  27
ATOM     27  C   UNL     1      24.752  32.368  11.057  1.00  0.00    -0.000 C 
BRANCH  27  28
ATOM     28  C   UNL     1      24.144  33.679  10.526  1.00  0.00    -0.000 C 
BRANCH  28  29
ATOM     29  C   UNL     1      22.804  34.022  11.198  1.00  0.00    -0.003 C 
ATOM     30  C   UNL     1      22.894  35.248  12.107  1.00  0.00     0.004 C 
ENDBRANCH  28  29
ENDBRANCH  27  28
ENDBRANCH  26  27
ENDBRANCH  25  26
ENDBRANCH  24  25
ENDBRANCH  23  24
ENDBRANCH  22  23
ENDBRANCH  21  22
ENDBRANCH  20  21
ENDBRANCH  19  20
ENDBRANCH  18  19
ENDBRANCH  17  18
ENDBRANCH   1  17
TORSDOF 26
ENDMDL
MODEL 8
REMARK VINA RESULT:    -0.216      4.631      7.418
REMARK INTER + INTRA:          -2.312
REMARK INTER:                  -1.196
REMARK INTRA:                  -1.116
REMARK UNBOUND:                -1.766
REMARK SMILES CCCCCCCCCCCCCCCCCCCCCCCCCCCC(=O)[O-]
REMARK SMILES IDX 15 1 16 2 17 3 18 4 19 5 20 6 21 7 22 8 23 9 24 10 25 11
REMARK SMILES IDX 26 12 27 13 28 14 29 15 30 16 14 17 13 18 12 19 11 20 10 21
REMARK SMILES IDX 9 22 8 23 7 24 6 25 5 26 4 27 3 28 2 29 1 30
REMARK H PARENT
REMARK Flexibility Score: inf
ROOT
ATOM      1  C   UNL     1      22.790  36.340  15.841  1.00  0.00     0.000 C 
ENDROOT
BRANCH   1   2
ATOM      2  C   UNL     1      24.297  36.522  16.096  1.00  0.00     0.000 C 
BRANCH   2   3
ATOM      3  C   UNL     1      24.790  37.985  16.074  1.00  0.00     0.000 C 
BRANCH   3   4
ATOM      4  C   UNL     1      23.869  38.972  15.328  1.00  0.00     0.000 C 
BRANCH   4   5
ATOM      5  C   UNL     1      24.375  39.407  13.938  1.00  0.00     0.000 C 
BRANCH   5   6
ATOM      6  C   UNL     1      24.075  38.412  12.799  1.00  0.00     0.000 C 
BRANCH   6   7
ATOM      7  C   UNL     1      23.637  37.008  13.263  1.00  0.00     0.000 C 
BRANCH   7   8
ATOM      8  C   UNL     1      23.927  35.867  12.266  1.00  0.00     0.000 C 
BRANCH   8   9
ATOM      9  C   UNL     1      22.715  34.982  11.918  1.00  0.00     0.000 C 
BRANCH   9  10
ATOM     10  C   UNL     1      23.116  33.546  11.542  1.00  0.00     0.000 C 
BRANCH  10  11
ATOM     11  C   UNL     1      23.853  32.817  12.676  1.00  0.00     0.000 C 
BRANCH  11  12
ATOM     12  C   UNL     1      23.808  31.288  12.532  1.00  0.00     0.006 C 
BRANCH  12  13
ATOM     13  C   UNL     1      23.633  30.881  11.065  1.00  0.00     0.053 C 
BRANCH  13  14
ATOM     14  C   UNL     1      24.825  31.282  10.250  1.00  0.00     0.041 C 
ATOM     15  O   UNL     1      25.985  31.197  10.738  1.00  0.00    -0.550 OA
ATOM     16  O   UNL     1      24.662  31.713   8.939  1.00  0.00    -0.550 OA
ENDBRANCH  13  14
ENDBRANCH  12  13
ENDBRANCH  11  12
ENDBRANCH  10  11
ENDBRANCH   9  10
ENDBRANCH   8   9
ENDBRANCH   7   8
ENDBRANCH   6   7
ENDBRANCH   5   6
ENDBRANCH   4   5
ENDBRANCH   3   4
ENDBRANCH   2   3
ENDBRANCH   1   2
BRANCH   1  17
ATOM     17  C   UNL     1      22.248  34.926  16.125  1.00  0.00     0.000 C 
BRANCH  17  18
ATOM     18  C   UNL     1      20.917  34.612  15.408  1.00  0.00     0.000 C 
BRANCH  18  19
ATOM     19  C   UNL     1      20.366  33.220  15.767  1.00  0.00     0.000 C 
BRANCH  19  20
ATOM     20  C   UNL     1      20.889  32.123  14.825  1.00  0.00     0.000 C 
BRANCH  20  21
ATOM     21  C   UNL     1      21.776  31.097  15.555  1.00  0.00     0.000 C 
BRANCH  21  22
ATOM     22  C   UNL     1      23.067  31.716  16.118  1.00  0.00    -0.000 C 
BRANCH  22  23
ATOM     23  C   UNL     1      24.362  31.265  15.417  1.00  0.00    -0.000 C 
BRANCH  23  24
ATOM     24  C   UNL     1      25.595  32.063  15.865  1.00  0.00    -0.000 C 
BRANCH  24  25
ATOM     25  C   UNL     1      25.340  33.572  15.784  1.00  0.00    -0.000 C 
BRANCH  25  26
ATOM     26  C   UNL     1      26.614  34.359  16.125  1.00  0.00    -0.000 C 
BRANCH  26  27
ATOM     27  C   UNL     1      27.600  34.432  14.948  1.00  0.00    -0.000 C 
BRANCH  27  28
ATOM     28  C   UNL     1      26.912  34.822  13.626  1.00  0.00    -0.000 C 
BRANCH  28  29
ATOM     29  C   UNL     1      26.987  33.705  12.572  1.00  0.00    -0.003 C 
ATOM     30  C   UNL     1      27.690  34.149  11.288  1.00  0.00     0.004 C 
ENDBRANCH  28  29
ENDBRANCH  27  28
ENDBRANCH  26  27
ENDBRANCH  25  26
ENDBRANCH  24  25
ENDBRANCH  23  24
ENDBRANCH  22  23
ENDBRANCH  21  22
ENDBRANCH  20  21
ENDBRANCH  19  20
ENDBRANCH  18  19
ENDBRANCH  17  18
ENDBRANCH   1  17
TORSDOF 26
ENDMDL
MODEL 9
REMARK VINA RESULT:    -0.031      1.078      2.130
REMARK INTER + INTRA:          -1.843
REMARK INTER:                  -2.199
REMARK INTRA:                   0.356
REMARK UNBOUND:                -1.766
REMARK SMILES CCCCCCCCCCCCCCCCCCCCCCCCCCCC(=O)[O-]
REMARK SMILES IDX 15 1 16 2 17 3 18 4 19 5 20 6 21 7 22 8 23 9 24 10 25 11
REMARK SMILES IDX 26 12 27 13 28 14 29 15 30 16 14 17 13 18 12 19 11 20 10 21
REMARK SMILES IDX 9 22 8 23 7 24 6 25 5 26 4 27 3 28 2 29 1 30
REMARK H PARENT
REMARK Flexibility Score: inf
ROOT
ATOM      1  C   UNL     1      22.963  34.772  11.938  1.00  0.00     0.000 C 
ENDROOT
BRANCH   1   2
ATOM      2  C   UNL     1      23.101  34.831  13.470  1.00  0.00     0.000 C 
BRANCH   2   3
ATOM      3  C   UNL     1      22.255  33.796  14.240  1.00  0.00     0.000 C 
BRANCH   3   4
ATOM      4  C   UNL     1      22.108  32.426  13.547  1.00  0.00     0.000 C 
BRANCH   4   5
ATOM      5  C   UNL     1      20.941  31.560  14.060  1.00  0.00     0.000 C 
BRANCH   5   6
ATOM      6  C   UNL     1      20.839  31.456  15.596  1.00  0.00     0.000 C 
BRANCH   6   7
ATOM      7  C   UNL     1      19.472  30.977  16.124  1.00  0.00     0.000 C 
BRANCH   7   8
ATOM      8  C   UNL     1      18.257  31.791  15.634  1.00  0.00     0.000 C 
BRANCH   8   9
ATOM      9  C   UNL     1      17.530  31.205  14.409  1.00  0.00     0.000 C 
BRANCH   9  10
ATOM     10  C   UNL     1      16.055  30.875  14.695  1.00  0.00     0.000 C 
BRANCH  10  11
ATOM     11  C   UNL     1      15.583  31.394  16.061  1.00  0.00     0.000 C 
BRANCH  11  12
ATOM     12  C   UNL     1      14.066  31.635  16.118  1.00  0.00     0.006 C 
BRANCH  12  13
ATOM     13  C   UNL     1      13.591  32.422  14.892  1.00  0.00     0.053 C 
BRANCH  13  14
ATOM     14  C   UNL     1      12.524  33.406  15.265  1.00  0.00     0.041 C 
ATOM     15  O   UNL     1      12.613  34.609  14.896  1.00  0.00    -0.550 OA
ATOM     16  O   UNL     1      11.413  32.990  15.990  1.00  0.00    -0.550 OA
ENDBRANCH  13  14
ENDBRANCH  12  13
ENDBRANCH  11  12
ENDBRANCH  10  11
ENDBRANCH   9  10
ENDBRANCH   8   9
ENDBRANCH   7   8
ENDBRANCH   6   7
ENDBRANCH   5   6
ENDBRANCH   4   5
ENDBRANCH   3   4
ENDBRANCH   2   3
ENDBRANCH   1   2
BRANCH   1  17
ATOM     17  C   UNL     1      23.532  33.500  11.280  1.00  0.00     0.000 C 
BRANCH  17  18
ATOM     18  C   UNL     1      24.949  33.680  10.695  1.00  0.00     0.000 C 
BRANCH  18  19
ATOM     19  C   UNL     1      25.966  34.159  11.746  1.00  0.00     0.000 C 
BRANCH  19  20
ATOM     20  C   UNL     1      26.376  33.038  12.717  1.00  0.00     0.000 C 
BRANCH  20  21
ATOM     21  C   UNL     1      25.837  33.268  14.140  1.00  0.00     0.000 C 
BRANCH  21  22
ATOM     22  C   UNL     1      26.148  34.676  14.678  1.00  0.00    -0.000 C 
BRANCH  22  23
ATOM     23  C   UNL     1      25.542  34.991  16.058  1.00  0.00    -0.000 C 
BRANCH  23  24
ATOM     24  C   UNL     1      24.894  36.382  16.124  1.00  0.00    -0.000 C 
BRANCH  24  25
ATOM     25  C   UNL     1      23.368  36.291  16.009  1.00  0.00    -0.000 C 
BRANCH  25  26
ATOM     26  C   UNL     1      22.796  37.552  15.345  1.00  0.00    -0.000 C 
BRANCH  26  27
ATOM     27  C   UNL     1      23.768  38.741  15.391  1.00  0.00    -0.000 C 
BRANCH  27  28
ATOM     28  C   UNL     1      25.063  38.475  14.602  1.00  0.00    -0.000 C 
BRANCH  28  29
ATOM     29  C   UNL     1      24.849  38.539  13.080  1.00  0.00    -0.003 C 
ATOM     30  C   UNL     1      23.614  39.351  12.689  1.00  0.00     0.004 C 
ENDBRANCH  28  29
ENDBRANCH  27  28
ENDBRANCH  26  27
ENDBRANCH  25  26
ENDBRANCH  24  25
ENDBRANCH  23  24
ENDBRANCH  22  23
ENDBRANCH  21  22
ENDBRANCH  20  21
ENDBRANCH  19  20
ENDBRANCH  18  19
ENDBRANCH  17  18
ENDBRANCH   1  17
TORSDOF 26
ENDMDL
