MODEL 1
REMARK VINA RESULT:    11.777      0.000      0.000
REMARK INTER + INTRA:          13.542
REMARK INTER:                  12.809
REMARK INTRA:                   0.733
REMARK UNBOUND:                 0.733
REMARK SMILES CC1(C)CC[C@@]2(C(=O)[O-])CC[C@@]3(C)C(=CC[C@@H]4[C@]5(C)CC[C@H](O)C(C)(C)[C@@H]5CC[C@@]43C)[C@@H]2C1
REMARK SMILES IDX 6 1 5 2 10 3 32 4 4 5 11 6 14 7 33 8 2 9 12 10 15 11 1 12
REMARK SMILES IDX 3 13 13 14 30 15 16 16 17 17 29 18 31 19 18 20 28 21 27 22
REMARK SMILES IDX 20 23 19 24 24 25 21 26 22 27 25 28 26 29 7 30 8 31 9 32
REMARK SMILES IDX 23 33
REMARK H PARENT 23 34
REMARK Flexibility Score: inf
ROOT
ATOM      1  C   UNL     1     -28.207  -2.009  15.837  1.00  0.00     0.017 C 
ATOM      2  C   UNL     1     -28.091  -2.684  14.440  1.00  0.00     0.014 C 
ATOM      3  C   UNL     1     -29.706  -2.032  16.305  1.00  0.00     0.014 C 
ATOM      4  C   UNL     1     -27.310  -2.818  16.823  1.00  0.00     0.028 C 
ATOM      5  C   UNL     1     -26.638  -2.757  13.935  1.00  0.00     0.007 C 
ATOM      6  C   UNL     1     -29.983  -2.750  17.653  1.00  0.00     0.013 C 
ATOM      7  C   UNL     1     -27.548  -2.348  18.256  1.00  0.00    -0.064 C 
ATOM      8  C   UNL     1     -25.833  -2.891  16.354  1.00  0.00     0.015 C 
ATOM      9  C   UNL     1     -25.679  -3.477  14.922  1.00  0.00    -0.035 C 
ATOM     10  C   UNL     1     -28.955  -2.499  18.832  1.00  0.00    -0.006 C 
ATOM     11  C   UNL     1     -26.556  -1.890  19.046  1.00  0.00    -0.027 C 
ATOM     12  C   UNL     1     -24.227  -3.249  14.451  1.00  0.00     0.011 C 
ATOM     13  C   UNL     1     -25.938  -5.004  14.917  1.00  0.00     0.011 C 
ATOM     14  C   UNL     1     -28.928  -3.851  19.616  1.00  0.00     0.017 C 
ATOM     15  C   UNL     1     -29.335  -1.204  19.760  1.00  0.00    -0.020 C 
ATOM     16  C   UNL     1     -26.824  -1.473  20.461  1.00  0.00     0.032 C 
ATOM     17  C   UNL     1     -28.075  -0.569  20.534  1.00  0.00     0.006 C 
ATOM     18  C   UNL     1     -30.488  -1.546  20.765  1.00  0.00     0.008 C 
ATOM     19  C   UNL     1     -29.887  -0.077  18.832  1.00  0.00     0.012 C 
ATOM     20  C   UNL     1     -28.364   0.036  21.992  1.00  0.00    -0.025 C 
ATOM     21  C   UNL     1     -29.990  -2.028  22.132  1.00  0.00     0.005 C 
ATOM     22  C   UNL     1     -29.186  -0.969  22.935  1.00  0.00     0.003 C 
ATOM     23  C   UNL     1     -27.039   0.593  22.640  1.00  0.00     0.010 C 
ATOM     24  C   UNL     1     -29.230   1.333  21.814  1.00  0.00     0.012 C 
ATOM     25  C   UNL     1     -28.472  -1.601  24.226  1.00  0.00    -0.006 C 
ATOM     26  C   UNL     1     -26.360  -0.335  23.632  1.00  0.00     0.033 C 
ATOM     27  C   UNL     1     -27.344  -0.669  24.749  1.00  0.00     0.120 C 
ATOM     28  C   UNL     1     -29.520  -1.735  25.366  1.00  0.00     0.014 C 
ATOM     29  C   UNL     1     -27.902  -3.036  23.997  1.00  0.00     0.014 C 
ENDROOT
BRANCH   1  30
ATOM     30  C   UNL     1     -27.771  -0.549  15.712  1.00  0.00     0.048 C 
ATOM     31  O   UNL     1     -27.969   0.281  16.640  1.00  0.00    -0.550 OA
ATOM     32  O   UNL     1     -27.210  -0.095  14.523  1.00  0.00    -0.550 OA
ENDBRANCH   1  30
BRANCH  27  33
ATOM     33  O   UNL     1     -26.654  -1.261  25.825  1.00  0.00    -0.393 OA
ATOM     34  H   UNL     1     -25.806  -0.759  25.938  1.00  0.00     0.210 HD
ENDBRANCH  27  33
TORSDOF 2
ENDMDL
MODEL 2
REMARK VINA RESULT:    12.505      1.258      1.429
REMARK INTER + INTRA:          14.335
REMARK INTER:                  13.954
REMARK INTRA:                   0.380
REMARK UNBOUND:                 0.733
REMARK SMILES CC1(C)CC[C@@]2(C(=O)[O-])CC[C@@]3(C)C(=CC[C@@H]4[C@]5(C)CC[C@H](O)C(C)(C)[C@@H]5CC[C@@]43C)[C@@H]2C1
REMARK SMILES IDX 6 1 5 2 10 3 32 4 4 5 11 6 14 7 33 8 2 9 12 10 15 11 1 12
REMARK SMILES IDX 3 13 13 14 30 15 16 16 17 17 29 18 31 19 18 20 28 21 27 22
REMARK SMILES IDX 20 23 19 24 24 25 21 26 22 27 25 28 26 29 7 30 8 31 9 32
REMARK SMILES IDX 23 33
REMARK H PARENT 23 34
REMARK Flexibility Score: inf
ROOT
ATOM      1  C   UNL     1     -28.984  -3.020  16.078  1.00  0.00     0.017 C 
ATOM      2  C   UNL     1     -28.716  -3.869  14.802  1.00  0.00     0.014 C 
ATOM      3  C   UNL     1     -30.139  -3.682  16.912  1.00  0.00     0.014 C 
ATOM      4  C   UNL     1     -27.662  -2.984  16.902  1.00  0.00     0.028 C 
ATOM      5  C   UNL     1     -27.551  -3.319  13.957  1.00  0.00     0.007 C 
ATOM      6  C   UNL     1     -29.781  -4.075  18.370  1.00  0.00     0.013 C 
ATOM      7  C   UNL     1     -27.912  -2.355  18.270  1.00  0.00    -0.064 C 
ATOM      8  C   UNL     1     -26.472  -2.411  16.085  1.00  0.00     0.015 C 
ATOM      9  C   UNL     1     -26.226  -3.177  14.754  1.00  0.00    -0.035 C 
ATOM     10  C   UNL     1     -28.905  -3.049  19.202  1.00  0.00    -0.006 C 
ATOM     11  C   UNL     1     -27.236  -1.276  18.712  1.00  0.00    -0.027 C 
ATOM     12  C   UNL     1     -25.224  -2.371  13.901  1.00  0.00     0.011 C 
ATOM     13  C   UNL     1     -25.600  -4.568  15.022  1.00  0.00     0.011 C 
ATOM     14  C   UNL     1     -28.028  -3.952  20.128  1.00  0.00     0.017 C 
ATOM     15  C   UNL     1     -29.799  -1.941  20.013  1.00  0.00    -0.020 C 
ATOM     16  C   UNL     1     -27.485  -0.711  20.078  1.00  0.00     0.032 C 
ATOM     17  C   UNL     1     -29.001  -0.583  20.346  1.00  0.00     0.006 C 
ATOM     18  C   UNL     1     -30.417  -2.554  21.316  1.00  0.00     0.008 C 
ATOM     19  C   UNL     1     -31.005  -1.526  19.113  1.00  0.00     0.012 C 
ATOM     20  C   UNL     1     -29.366   0.136  21.733  1.00  0.00    -0.025 C 
ATOM     21  C   UNL     1     -29.548  -2.355  22.562  1.00  0.00     0.005 C 
ATOM     22  C   UNL     1     -29.356  -0.872  22.982  1.00  0.00     0.003 C 
ATOM     23  C   UNL     1     -28.490   1.431  21.939  1.00  0.00     0.010 C 
ATOM     24  C   UNL     1     -30.817   0.720  21.609  1.00  0.00     0.012 C 
ATOM     25  C   UNL     1     -28.236  -0.705  24.121  1.00  0.00    -0.006 C 
ATOM     26  C   UNL     1     -27.280   1.261  22.841  1.00  0.00     0.033 C 
ATOM     27  C   UNL     1     -27.747   0.767  24.207  1.00  0.00     0.120 C 
ATOM     28  C   UNL     1     -28.864  -1.061  25.498  1.00  0.00     0.014 C 
ATOM     29  C   UNL     1     -27.011  -1.656  23.950  1.00  0.00     0.014 C 
ENDROOT
BRANCH   1  30
ATOM     30  C   UNL     1     -29.447  -1.627  15.649  1.00  0.00     0.048 C 
ATOM     31  O   UNL     1     -30.615  -1.422  15.223  1.00  0.00    -0.550 OA
ATOM     32  O   UNL     1     -28.546  -0.568  15.652  1.00  0.00    -0.550 OA
ENDBRANCH   1  30
BRANCH  27  33
ATOM     33  O   UNL     1     -26.701   0.900  25.141  1.00  0.00    -0.393 OA
ATOM     34  H   UNL     1     -27.022   0.511  25.995  1.00  0.00     0.210 HD
ENDBRANCH  27  33
TORSDOF 2
ENDMDL
MODEL 3
REMARK VINA RESULT:    13.712      2.371      4.105
REMARK INTER + INTRA:          15.647
REMARK INTER:                  14.987
REMARK INTRA:                   0.660
REMARK UNBOUND:                 0.733
REMARK SMILES CC1(C)CC[C@@]2(C(=O)[O-])CC[C@@]3(C)C(=CC[C@@H]4[C@]5(C)CC[C@H](O)C(C)(C)[C@@H]5CC[C@@]43C)[C@@H]2C1
REMARK SMILES IDX 6 1 5 2 10 3 32 4 4 5 11 6 14 7 33 8 2 9 12 10 15 11 1 12
REMARK SMILES IDX 3 13 13 14 30 15 16 16 17 17 29 18 31 19 18 20 28 21 27 22
REMARK SMILES IDX 20 23 19 24 24 25 21 26 22 27 25 28 26 29 7 30 8 31 9 32
REMARK SMILES IDX 23 33
REMARK H PARENT 23 34
REMARK Flexibility Score: inf
ROOT
ATOM      1  C   UNL     1     -28.567  -3.529  16.450  1.00  0.00     0.017 C 
ATOM      2  C   UNL     1     -28.507  -3.683  14.903  1.00  0.00     0.014 C 
ATOM      3  C   UNL     1     -27.157  -3.093  16.986  1.00  0.00     0.014 C 
ATOM      4  C   UNL     1     -29.638  -2.442  16.770  1.00  0.00     0.028 C 
ATOM      5  C   UNL     1     -29.871  -4.050  14.289  1.00  0.00     0.007 C 
ATOM      6  C   UNL     1     -27.117  -1.760  17.780  1.00  0.00     0.013 C 
ATOM      7  C   UNL     1     -29.593  -2.082  18.253  1.00  0.00    -0.064 C 
ATOM      8  C   UNL     1     -31.032  -2.795  16.186  1.00  0.00     0.015 C 
ATOM      9  C   UNL     1     -30.999  -3.046  14.651  1.00  0.00    -0.035 C 
ATOM     10  C   UNL     1     -28.296  -1.492  18.805  1.00  0.00    -0.006 C 
ATOM     11  C   UNL     1     -30.667  -2.184  19.061  1.00  0.00    -0.027 C 
ATOM     12  C   UNL     1     -32.353  -3.653  14.224  1.00  0.00     0.011 C 
ATOM     13  C   UNL     1     -30.816  -1.718  13.876  1.00  0.00     0.011 C 
ATOM     14  C   UNL     1     -28.504   0.056  18.759  1.00  0.00     0.017 C 
ATOM     15  C   UNL     1     -27.995  -2.075  20.306  1.00  0.00    -0.020 C 
ATOM     16  C   UNL     1     -30.593  -1.785  20.504  1.00  0.00     0.032 C 
ATOM     17  C   UNL     1     -29.325  -2.369  21.165  1.00  0.00     0.006 C 
ATOM     18  C   UNL     1     -27.022  -1.134  21.095  1.00  0.00     0.008 C 
ATOM     19  C   UNL     1     -27.258  -3.444  20.165  1.00  0.00     0.012 C 
ATOM     20  C   UNL     1     -29.225  -2.105  22.745  1.00  0.00    -0.025 C 
ATOM     21  C   UNL     1     -27.739  -0.083  21.949  1.00  0.00     0.005 C 
ATOM     22  C   UNL     1     -28.601  -0.670  23.102  1.00  0.00     0.003 C 
ATOM     23  C   UNL     1     -30.604  -2.404  23.450  1.00  0.00     0.010 C 
ATOM     24  C   UNL     1     -28.282  -3.196  23.360  1.00  0.00     0.012 C 
ATOM     25  C   UNL     1     -29.529   0.445  23.792  1.00  0.00    -0.006 C 
ATOM     26  C   UNL     1     -31.466  -1.187  23.736  1.00  0.00     0.033 C 
ATOM     27  C   UNL     1     -30.676  -0.215  24.607  1.00  0.00     0.120 C 
ATOM     28  C   UNL     1     -28.669   1.265  24.792  1.00  0.00     0.014 C 
ATOM     29  C   UNL     1     -30.126   1.481  22.790  1.00  0.00     0.014 C 
ENDROOT
BRANCH   1  30
ATOM     30  C   UNL     1     -28.909  -4.888  17.063  1.00  0.00     0.048 C 
ATOM     31  O   UNL     1     -29.007  -5.043  18.309  1.00  0.00    -0.550 OA
ATOM     32  O   UNL     1     -29.043  -6.002  16.242  1.00  0.00    -0.550 OA
ENDBRANCH   1  30
BRANCH  27  33
ATOM     33  O   UNL     1     -31.545   0.758  25.137  1.00  0.00    -0.393 OA
ATOM     34  H   UNL     1     -31.526   1.534  24.520  1.00  0.00     0.210 HD
ENDBRANCH  27  33
TORSDOF 2
ENDMDL
