MODEL 1
REMARK VINA RESULT:    -3.113      0.000      0.000
REMARK INTER + INTRA:          -3.642
REMARK INTER:                  -3.750
REMARK INTRA:                   0.108
REMARK UNBOUND:                 0.108
REMARK SMILES O=c1c(O)c(-c2ccc(O)c(O)c2)oc2cc(O)cc(O)c12
REMARK SMILES IDX 5 1 3 2 2 3 1 4 22 5 20 6 19 7 17 8 16 9 15 10 14 11 6 12
REMARK SMILES IDX 7 13 8 14 9 15 13 16 11 17 10 18 12 20 4 22 21 24 18 26
REMARK H PARENT 10 19 12 21 4 23 21 25 18 27
REMARK Flexibility Score: inf
ROOT
ATOM      1  C   UNL     1      -2.837  68.122  -7.872  1.00  0.00     0.180 A 
ATOM      2  C   UNL     1      -1.951  67.524  -8.789  1.00  0.00     0.208 A 
ATOM      3  C   UNL     1      -0.613  67.335  -8.415  1.00  0.00     0.238 A 
ATOM      4  O   UNL     1       0.188  66.791  -9.224  1.00  0.00    -0.285 OA
ATOM      5  C   UNL     1      -0.177  67.762  -7.143  1.00  0.00     0.111 A 
ATOM      6  C   UNL     1       1.156  67.611  -6.690  1.00  0.00     0.134 A 
ATOM      7  C   UNL     1       1.513  68.071  -5.414  1.00  0.00     0.093 A 
ATOM      8  C   UNL     1       0.567  68.676  -4.584  1.00  0.00     0.123 A 
ATOM      9  C   UNL     1      -0.752  68.827  -5.026  1.00  0.00     0.094 A 
ATOM     10  C   UNL     1      -1.128  68.375  -6.294  1.00  0.00     0.146 A 
ATOM     11  O   UNL     1      -2.388  68.526  -6.687  1.00  0.00    -0.452 OA
ENDROOT
BRANCH   1  12
ATOM     12  C   UNL     1      -4.267  68.338  -8.186  1.00  0.00     0.025 A 
ATOM     13  C   UNL     1      -4.627  68.879  -9.431  1.00  0.00     0.016 A 
ATOM     14  C   UNL     1      -5.970  69.111  -9.741  1.00  0.00     0.051 A 
ATOM     15  C   UNL     1      -6.970  68.821  -8.805  1.00  0.00     0.157 A 
ATOM     16  C   UNL     1      -5.274  68.069  -7.241  1.00  0.00     0.062 A 
ATOM     17  C   UNL     1      -6.621  68.304  -7.550  1.00  0.00     0.158 A 
BRANCH  15  18
ATOM     18  O   UNL     1      -8.311  69.050  -9.110  1.00  0.00    -0.504 OA
ATOM     19  H   UNL     1      -8.723  69.971  -9.025  1.00  0.00     0.293 HD
ENDBRANCH  15  18
BRANCH  17  20
ATOM     20  O   UNL     1      -7.619  68.030  -6.615  1.00  0.00    -0.504 OA
ATOM     21  H   UNL     1      -7.638  68.489  -5.711  1.00  0.00     0.293 HD
ENDBRANCH  17  20
ENDBRANCH   1  12
BRANCH   2  22
ATOM     22  O   UNL     1      -2.396  67.155 -10.062  1.00  0.00    -0.502 OA
ATOM     23  H   UNL     1      -3.268  67.492 -10.451  1.00  0.00     0.293 HD
ENDBRANCH   2  22
BRANCH   6  24
ATOM     24  O   UNL     1       2.125  67.011  -7.495  1.00  0.00    -0.507 OA
ATOM     25  H   UNL     1       3.049  67.411  -7.604  1.00  0.00     0.293 HD
ENDBRANCH   6  24
BRANCH   8  26
ATOM     26  O   UNL     1       0.947  69.125  -3.321  1.00  0.00    -0.508 OA
ATOM     27  H   UNL     1       1.916  69.111  -3.023  1.00  0.00     0.293 HD
ENDBRANCH   8  26
TORSDOF 6
ENDMDL
MODEL 2
REMARK VINA RESULT:    -2.321      5.255      7.349
REMARK INTER + INTRA:          -2.688
REMARK INTER:                  -3.199
REMARK INTRA:                   0.511
REMARK UNBOUND:                 0.108
REMARK SMILES O=c1c(O)c(-c2ccc(O)c(O)c2)oc2cc(O)cc(O)c12
REMARK SMILES IDX 5 1 3 2 2 3 1 4 22 5 20 6 19 7 17 8 16 9 15 10 14 11 6 12
REMARK SMILES IDX 7 13 8 14 9 15 13 16 11 17 10 18 12 20 4 22 21 24 18 26
REMARK H PARENT 10 19 12 21 4 23 21 25 18 27
REMARK Flexibility Score: inf
ROOT
ATOM      1  C   UNL     1       1.685  64.192  -7.481  1.00  0.00     0.180 A 
ATOM      2  C   UNL     1       1.783  64.785  -8.754  1.00  0.00     0.208 A 
ATOM      3  C   UNL     1       1.745  66.184  -8.855  1.00  0.00     0.238 A 
ATOM      4  O   UNL     1       1.843  66.727  -9.989  1.00  0.00    -0.285 OA
ATOM      5  C   UNL     1       1.591  66.964  -7.690  1.00  0.00     0.111 A 
ATOM      6  C   UNL     1       1.540  68.378  -7.706  1.00  0.00     0.134 A 
ATOM      7  C   UNL     1       1.374  69.082  -6.504  1.00  0.00     0.093 A 
ATOM      8  C   UNL     1       1.259  68.402  -5.291  1.00  0.00     0.123 A 
ATOM      9  C   UNL     1       1.310  67.004  -5.268  1.00  0.00     0.094 A 
ATOM     10  C   UNL     1       1.475  66.284  -6.455  1.00  0.00     0.146 A 
ATOM     11  O   UNL     1       1.525  64.958  -6.405  1.00  0.00    -0.452 OA
ENDROOT
BRANCH   1  12
ATOM     12  C   UNL     1       1.735  62.724  -7.290  1.00  0.00     0.025 A 
ATOM     13  C   UNL     1       2.091  61.899  -8.369  1.00  0.00     0.016 A 
ATOM     14  C   UNL     1       2.125  60.510  -8.217  1.00  0.00     0.051 A 
ATOM     15  C   UNL     1       1.788  59.927  -6.990  1.00  0.00     0.157 A 
ATOM     16  C   UNL     1       1.377  62.132  -6.066  1.00  0.00     0.062 A 
ATOM     17  C   UNL     1       1.408  60.739  -5.913  1.00  0.00     0.158 A 
BRANCH  15  18
ATOM     18  O   UNL     1       1.821  58.542  -6.833  1.00  0.00    -0.504 OA
ATOM     19  H   UNL     1       1.045  57.958  -7.121  1.00  0.00     0.293 HD
ENDBRANCH  15  18
BRANCH  17  20
ATOM     20  O   UNL     1       1.059  60.153  -4.697  1.00  0.00    -0.504 OA
ATOM     21  H   UNL     1       0.093  59.957  -4.461  1.00  0.00     0.293 HD
ENDBRANCH  17  20
ENDBRANCH   1  12
BRANCH   2  22
ATOM     22  O   UNL     1       1.885  63.988  -9.898  1.00  0.00    -0.502 OA
ATOM     23  H   UNL     1       1.492  64.266 -10.789  1.00  0.00     0.293 HD
ENDBRANCH   2  22
BRANCH   6  24
ATOM     24  O   UNL     1       1.652  69.088  -8.903  1.00  0.00    -0.507 OA
ATOM     25  H   UNL     1       1.604  68.625  -9.803  1.00  0.00     0.293 HD
ENDBRANCH   6  24
BRANCH   8  26
ATOM     26  O   UNL     1       1.096  69.125  -4.111  1.00  0.00    -0.508 OA
ATOM     27  H   UNL     1       0.405  68.859  -3.418  1.00  0.00     0.293 HD
ENDBRANCH   8  26
TORSDOF 6
ENDMDL
MODEL 3
REMARK VINA RESULT:    -1.975      2.158      2.789
REMARK INTER + INTRA:          -2.271
REMARK INTER:                  -2.164
REMARK INTRA:                  -0.107
REMARK UNBOUND:                 0.108
REMARK SMILES O=c1c(O)c(-c2ccc(O)c(O)c2)oc2cc(O)cc(O)c12
REMARK SMILES IDX 5 1 3 2 2 3 1 4 22 5 20 6 19 7 17 8 16 9 15 10 14 11 6 12
REMARK SMILES IDX 7 13 8 14 9 15 13 16 11 17 10 18 12 20 4 22 21 24 18 26
REMARK H PARENT 10 19 12 21 4 23 21 25 18 27
REMARK Flexibility Score: inf
ROOT
ATOM      1  C   UNL     1      -2.588  67.738  -7.179  1.00  0.00     0.180 A 
ATOM      2  C   UNL     1      -2.128  68.222  -8.419  1.00  0.00     0.208 A 
ATOM      3  C   UNL     1      -0.870  67.809  -8.884  1.00  0.00     0.238 A 
ATOM      4  O   UNL     1      -0.452  68.228  -9.999  1.00  0.00    -0.285 OA
ATOM      5  C   UNL     1      -0.086  66.939  -8.098  1.00  0.00     0.111 A 
ATOM      6  C   UNL     1       1.193  66.480  -8.493  1.00  0.00     0.134 A 
ATOM      7  C   UNL     1       1.915  65.623  -7.649  1.00  0.00     0.093 A 
ATOM      8  C   UNL     1       1.385  65.217  -6.423  1.00  0.00     0.123 A 
ATOM      9  C   UNL     1       0.121  65.668  -6.028  1.00  0.00     0.094 A 
ATOM     10  C   UNL     1      -0.615  66.522  -6.854  1.00  0.00     0.146 A 
ATOM     11  O   UNL     1      -1.815  66.930  -6.457  1.00  0.00    -0.452 OA
ENDROOT
BRANCH   1  12
ATOM     12  C   UNL     1      -3.910  68.112  -6.630  1.00  0.00     0.025 A 
ATOM     13  C   UNL     1      -3.992  68.662  -5.341  1.00  0.00     0.016 A 
ATOM     14  C   UNL     1      -5.232  69.004  -4.794  1.00  0.00     0.051 A 
ATOM     15  C   UNL     1      -6.408  68.784  -5.521  1.00  0.00     0.157 A 
ATOM     16  C   UNL     1      -5.096  67.873  -7.348  1.00  0.00     0.062 A 
ATOM     17  C   UNL     1      -6.341  68.212  -6.798  1.00  0.00     0.158 A 
BRANCH  15  18
ATOM     18  O   UNL     1      -7.647  69.124  -4.980  1.00  0.00    -0.504 OA
ATOM     19  H   UNL     1      -8.017  70.064  -5.054  1.00  0.00     0.293 HD
ENDBRANCH  15  18
BRANCH  17  20
ATOM     20  O   UNL     1      -7.515  67.982  -7.514  1.00  0.00    -0.504 OA
ATOM     21  H   UNL     1      -8.005  68.734  -7.985  1.00  0.00     0.293 HD
ENDBRANCH  17  20
ENDBRANCH   1  12
BRANCH   2  22
ATOM     22  O   UNL     1      -2.902  69.122  -9.156  1.00  0.00    -0.502 OA
ATOM     23  H   UNL     1      -3.250  68.907 -10.082  1.00  0.00     0.293 HD
ENDBRANCH   2  22
BRANCH   6  24
ATOM     24  O   UNL     1       1.751  66.867  -9.712  1.00  0.00    -0.507 OA
ATOM     25  H   UNL     1       2.668  66.548 -10.004  1.00  0.00     0.293 HD
ENDBRANCH   6  24
BRANCH   8  26
ATOM     26  O   UNL     1       2.123  64.366  -5.603  1.00  0.00    -0.508 OA
ATOM     27  H   UNL     1       3.097  64.160  -5.793  1.00  0.00     0.293 HD
ENDBRANCH   8  26
TORSDOF 6
ENDMDL
MODEL 4
REMARK VINA RESULT:    -1.242     23.834     24.947
REMARK INTER + INTRA:          -1.388
REMARK INTER:                  -1.758
REMARK INTRA:                   0.370
REMARK UNBOUND:                 0.108
REMARK SMILES O=c1c(O)c(-c2ccc(O)c(O)c2)oc2cc(O)cc(O)c12
REMARK SMILES IDX 5 1 3 2 2 3 1 4 22 5 20 6 19 7 17 8 16 9 15 10 14 11 6 12
REMARK SMILES IDX 7 13 8 14 9 15 13 16 11 17 10 18 12 20 4 22 21 24 18 26
REMARK H PARENT 10 19 12 21 4 23 21 25 18 27
REMARK Flexibility Score: inf
ROOT
ATOM      1  C   UNL     1      -9.219  51.439   9.689  1.00  0.00     0.180 A 
ATOM      2  C   UNL     1      -9.075  52.837   9.769  1.00  0.00     0.208 A 
ATOM      3  C   UNL     1      -7.787  53.381   9.884  1.00  0.00     0.238 A 
ATOM      4  O   UNL     1      -7.644  54.632   9.946  1.00  0.00    -0.285 OA
ATOM      5  C   UNL     1      -6.669  52.521   9.938  1.00  0.00     0.111 A 
ATOM      6  C   UNL     1      -5.338  52.989  10.058  1.00  0.00     0.134 A 
ATOM      7  C   UNL     1      -4.281  52.069  10.115  1.00  0.00     0.093 A 
ATOM      8  C   UNL     1      -4.527  50.696  10.055  1.00  0.00     0.123 A 
ATOM      9  C   UNL     1      -5.840  50.229   9.935  1.00  0.00     0.094 A 
ATOM     10  C   UNL     1      -6.908  51.128   9.876  1.00  0.00     0.146 A 
ATOM     11  O   UNL     1      -8.144  50.658   9.758  1.00  0.00    -0.452 OA
ENDROOT
BRANCH   1  12
ATOM     12  C   UNL     1     -10.543  50.791   9.547  1.00  0.00     0.025 A 
ATOM     13  C   UNL     1     -10.627  49.509   8.980  1.00  0.00     0.016 A 
ATOM     14  C   UNL     1     -11.868  48.887   8.817  1.00  0.00     0.051 A 
ATOM     15  C   UNL     1     -13.042  49.543   9.204  1.00  0.00     0.157 A 
ATOM     16  C   UNL     1     -11.727  51.455   9.914  1.00  0.00     0.062 A 
ATOM     17  C   UNL     1     -12.972  50.832   9.749  1.00  0.00     0.158 A 
BRANCH  15  18
ATOM     18  O   UNL     1     -14.282  48.926   9.045  1.00  0.00    -0.504 OA
ATOM     19  H   UNL     1     -15.112  49.458   8.813  1.00  0.00     0.293 HD
ENDBRANCH  15  18
BRANCH  17  20
ATOM     20  O   UNL     1     -14.145  51.488  10.119  1.00  0.00    -0.504 OA
ATOM     21  H   UNL     1     -14.126  52.409  10.543  1.00  0.00     0.293 HD
ENDBRANCH  17  20
ENDBRANCH   1  12
BRANCH   2  22
ATOM     22  O   UNL     1     -10.202  53.664   9.764  1.00  0.00    -0.502 OA
ATOM     23  H   UNL     1     -10.958  53.554  10.427  1.00  0.00     0.293 HD
ENDBRANCH   2  22
BRANCH   6  24
ATOM     24  O   UNL     1      -5.059  54.355  10.121  1.00  0.00    -0.507 OA
ATOM     25  H   UNL     1      -5.713  55.049   9.777  1.00  0.00     0.293 HD
ENDBRANCH   6  24
BRANCH   8  26
ATOM     26  O   UNL     1      -3.458  49.804  10.113  1.00  0.00    -0.508 OA
ATOM     27  H   UNL     1      -3.032  49.431   9.273  1.00  0.00     0.293 HD
ENDBRANCH   8  26
TORSDOF 6
ENDMDL
MODEL 5
REMARK VINA RESULT:    -0.789      5.137      7.839
REMARK INTER + INTRA:          -0.843
REMARK INTER:                  -1.021
REMARK INTRA:                   0.178
REMARK UNBOUND:                 0.108
REMARK SMILES O=c1c(O)c(-c2ccc(O)c(O)c2)oc2cc(O)cc(O)c12
REMARK SMILES IDX 5 1 3 2 2 3 1 4 22 5 20 6 19 7 17 8 16 9 15 10 14 11 6 12
REMARK SMILES IDX 7 13 8 14 9 15 13 16 11 17 10 18 12 20 4 22 21 24 18 26
REMARK H PARENT 10 19 12 21 4 23 21 25 18 27
REMARK Flexibility Score: inf
ROOT
ATOM      1  C   UNL     1       1.662  64.122  -6.657  1.00  0.00     0.180 A 
ATOM      2  C   UNL     1       1.869  64.746  -5.412  1.00  0.00     0.208 A 
ATOM      3  C   UNL     1       1.846  66.147  -5.342  1.00  0.00     0.238 A 
ATOM      4  O   UNL     1       2.020  66.716  -4.230  1.00  0.00    -0.285 OA
ATOM      5  C   UNL     1       1.636  66.900  -6.516  1.00  0.00     0.111 A 
ATOM      6  C   UNL     1       1.602  68.315  -6.532  1.00  0.00     0.134 A 
ATOM      7  C   UNL     1       1.398  68.992  -7.744  1.00  0.00     0.093 A 
ATOM      8  C   UNL     1       1.228  68.285  -8.935  1.00  0.00     0.123 A 
ATOM      9  C   UNL     1       1.260  66.886  -8.925  1.00  0.00     0.094 A 
ATOM     10  C   UNL     1       1.461  66.193  -7.729  1.00  0.00     0.146 A 
ATOM     11  O   UNL     1       1.482  64.865  -7.746  1.00  0.00    -0.452 OA
ENDROOT
BRANCH   1  12
ATOM     12  C   UNL     1       1.653  62.650  -6.809  1.00  0.00     0.025 A 
ATOM     13  C   UNL     1       2.123  62.075  -8.001  1.00  0.00     0.016 A 
ATOM     14  C   UNL     1       2.105  60.688  -8.174  1.00  0.00     0.051 A 
ATOM     15  C   UNL     1       1.603  59.859  -7.164  1.00  0.00     0.157 A 
ATOM     16  C   UNL     1       1.131  61.813  -5.806  1.00  0.00     0.062 A 
ATOM     17  C   UNL     1       1.110  60.422  -5.980  1.00  0.00     0.158 A 
BRANCH  15  18
ATOM     18  O   UNL     1       1.584  58.474  -7.332  1.00  0.00    -0.504 OA
ATOM     19  H   UNL     1       2.369  57.980  -7.740  1.00  0.00     0.293 HD
ENDBRANCH  15  18
BRANCH  17  20
ATOM     20  O   UNL     1       0.598  59.593  -4.983  1.00  0.00    -0.504 OA
ATOM     21  H   UNL     1       0.762  58.592  -4.989  1.00  0.00     0.293 HD
ENDBRANCH  17  20
ENDBRANCH   1  12
BRANCH   2  22
ATOM     22  O   UNL     1       2.125  63.978  -4.272  1.00  0.00    -0.502 OA
ATOM     23  H   UNL     1       2.985  64.059  -3.745  1.00  0.00     0.293 HD
ENDBRANCH   2  22
BRANCH   6  24
ATOM     24  O   UNL     1       1.769  69.052  -5.359  1.00  0.00    -0.507 OA
ATOM     25  H   UNL     1       0.979  69.433  -4.852  1.00  0.00     0.293 HD
ENDBRANCH   6  24
BRANCH   8  26
ATOM     26  O   UNL     1       1.027  68.981 -10.125  1.00  0.00    -0.508 OA
ATOM     27  H   UNL     1       1.091  69.992 -10.165  1.00  0.00     0.293 HD
ENDBRANCH   8  26
TORSDOF 6
ENDMDL
MODEL 6
REMARK VINA RESULT:    -0.592      3.920      7.195
REMARK INTER + INTRA:          -0.605
REMARK INTER:                  -0.456
REMARK INTRA:                  -0.149
REMARK UNBOUND:                 0.108
REMARK SMILES O=c1c(O)c(-c2ccc(O)c(O)c2)oc2cc(O)cc(O)c12
REMARK SMILES IDX 5 1 3 2 2 3 1 4 22 5 20 6 19 7 17 8 16 9 15 10 14 11 6 12
REMARK SMILES IDX 7 13 8 14 9 15 13 16 11 17 10 18 12 20 4 22 21 24 18 26
REMARK H PARENT 10 19 12 21 4 23 21 25 18 27
REMARK Flexibility Score: inf
ROOT
ATOM      1  C   UNL     1       0.322  65.003  -6.366  1.00  0.00     0.180 A 
ATOM      2  C   UNL     1       0.993  65.504  -7.497  1.00  0.00     0.208 A 
ATOM      3  C   UNL     1       0.524  66.682  -8.099  1.00  0.00     0.238 A 
ATOM      4  O   UNL     1       1.124  67.146  -9.106  1.00  0.00    -0.285 OA
ATOM      5  C   UNL     1      -0.617  67.326  -7.575  1.00  0.00     0.111 A 
ATOM      6  C   UNL     1      -1.156  68.513  -8.125  1.00  0.00     0.134 A 
ATOM      7  C   UNL     1      -2.300  69.088  -7.551  1.00  0.00     0.093 A 
ATOM      8  C   UNL     1      -2.913  68.501  -6.443  1.00  0.00     0.123 A 
ATOM      9  C   UNL     1      -2.384  67.328  -5.895  1.00  0.00     0.094 A 
ATOM     10  C   UNL     1      -1.245  66.739  -6.451  1.00  0.00     0.146 A 
ATOM     11  O   UNL     1      -0.760  65.629  -5.908  1.00  0.00    -0.452 OA
ENDROOT
BRANCH   1  12
ATOM     12  C   UNL     1       0.767  63.778  -5.665  1.00  0.00     0.025 A 
ATOM     13  C   UNL     1       1.254  63.872  -4.351  1.00  0.00     0.016 A 
ATOM     14  C   UNL     1       1.699  62.731  -3.677  1.00  0.00     0.051 A 
ATOM     15  C   UNL     1       1.678  61.484  -4.313  1.00  0.00     0.157 A 
ATOM     16  C   UNL     1       0.768  62.526  -6.306  1.00  0.00     0.062 A 
ATOM     17  C   UNL     1       1.217  61.382  -5.631  1.00  0.00     0.158 A 
BRANCH  15  18
ATOM     18  O   UNL     1       2.120  60.343  -3.644  1.00  0.00    -0.504 OA
ATOM     19  H   UNL     1       1.674  60.023  -2.793  1.00  0.00     0.293 HD
ENDBRANCH  15  18
BRANCH  17  20
ATOM     20  O   UNL     1       1.212  60.140  -6.266  1.00  0.00    -0.504 OA
ATOM     21  H   UNL     1       0.355  59.612  -6.390  1.00  0.00     0.293 HD
ENDBRANCH  17  20
ENDBRANCH   1  12
BRANCH   2  22
ATOM     22  O   UNL     1       2.091  64.820  -8.027  1.00  0.00    -0.502 OA
ATOM     23  H   UNL     1       2.009  63.898  -8.437  1.00  0.00     0.293 HD
ENDBRANCH   2  22
BRANCH   6  24
ATOM     24  O   UNL     1      -0.567  69.125  -9.232  1.00  0.00    -0.507 OA
ATOM     25  H   UNL     1      -0.246  68.588 -10.030  1.00  0.00     0.293 HD
ENDBRANCH   6  24
BRANCH   8  26
ATOM     26  O   UNL     1      -4.048  69.092  -5.893  1.00  0.00    -0.508 OA
ATOM     27  H   UNL     1      -3.981  69.870  -5.247  1.00  0.00     0.293 HD
ENDBRANCH   8  26
TORSDOF 6
ENDMDL
MODEL 7
REMARK VINA RESULT:    -0.309      1.876      6.892
REMARK INTER + INTRA:          -0.265
REMARK INTER:                  -0.409
REMARK INTRA:                   0.145
REMARK UNBOUND:                 0.108
REMARK SMILES O=c1c(O)c(-c2ccc(O)c(O)c2)oc2cc(O)cc(O)c12
REMARK SMILES IDX 5 1 3 2 2 3 1 4 22 5 20 6 19 7 17 8 16 9 15 10 14 11 6 12
REMARK SMILES IDX 7 13 8 14 9 15 13 16 11 17 10 18 12 20 4 22 21 24 18 26
REMARK H PARENT 10 19 12 21 4 23 21 25 18 27
REMARK Flexibility Score: inf
ROOT
ATOM      1  C   UNL     1      -2.762  68.033  -7.458  1.00  0.00     0.180 A 
ATOM      2  C   UNL     1      -2.835  68.364  -6.092  1.00  0.00     0.208 A 
ATOM      3  C   UNL     1      -4.091  68.620  -5.522  1.00  0.00     0.238 A 
ATOM      4  O   UNL     1      -4.170  68.907  -4.296  1.00  0.00    -0.285 OA
ATOM      5  C   UNL     1      -5.248  68.560  -6.327  1.00  0.00     0.111 A 
ATOM      6  C   UNL     1      -6.550  68.807  -5.830  1.00  0.00     0.134 A 
ATOM      7  C   UNL     1      -7.650  68.738  -6.698  1.00  0.00     0.093 A 
ATOM      8  C   UNL     1      -7.474  68.426  -8.047  1.00  0.00     0.123 A 
ATOM      9  C   UNL     1      -6.189  68.180  -8.543  1.00  0.00     0.094 A 
ATOM     10  C   UNL     1      -5.080  68.244  -7.695  1.00  0.00     0.146 A 
ATOM     11  O   UNL     1      -3.873  68.000  -8.191  1.00  0.00    -0.452 OA
ENDROOT
BRANCH   1  12
ATOM     12  C   UNL     1      -1.477  67.731  -8.128  1.00  0.00     0.025 A 
ATOM     13  C   UNL     1      -1.287  68.119  -9.464  1.00  0.00     0.016 A 
ATOM     14  C   UNL     1      -0.089  67.827 -10.123  1.00  0.00     0.051 A 
ATOM     15  C   UNL     1       0.928  67.129  -9.460  1.00  0.00     0.157 A 
ATOM     16  C   UNL     1      -0.461  67.012  -7.474  1.00  0.00     0.062 A 
ATOM     17  C   UNL     1       0.740  66.716  -8.135  1.00  0.00     0.158 A 
BRANCH  15  18
ATOM     18  O   UNL     1       2.125  66.836 -10.113  1.00  0.00    -0.504 OA
ATOM     19  H   UNL     1       2.407  65.881 -10.297  1.00  0.00     0.293 HD
ENDBRANCH  15  18
BRANCH  17  20
ATOM     20  O   UNL     1       1.750  66.009  -7.483  1.00  0.00    -0.504 OA
ATOM     21  H   UNL     1       2.710  66.335  -7.482  1.00  0.00     0.293 HD
ENDBRANCH  17  20
ENDBRANCH   1  12
BRANCH   2  22
ATOM     22  O   UNL     1      -1.669  68.465  -5.328  1.00  0.00    -0.502 OA
ATOM     23  H   UNL     1      -0.755  68.240  -5.700  1.00  0.00     0.293 HD
ENDBRANCH   2  22
BRANCH   6  24
ATOM     24  O   UNL     1      -6.759  69.121  -4.486  1.00  0.00    -0.507 OA
ATOM     25  H   UNL     1      -7.644  68.938  -4.028  1.00  0.00     0.293 HD
ENDBRANCH   6  24
BRANCH   8  26
ATOM     26  O   UNL     1      -8.583  68.364  -8.888  1.00  0.00    -0.508 OA
ATOM     27  H   UNL     1      -9.415  68.916  -8.711  1.00  0.00     0.293 HD
ENDBRANCH   8  26
TORSDOF 6
ENDMDL
