MODEL 1
REMARK VINA RESULT:    -4.246      0.000      0.000
REMARK INTER + INTRA:         -13.247
REMARK INTER:                  -9.706
REMARK INTRA:                  -3.540
REMARK UNBOUND:                -3.540
REMARK SMILES CCCCCCCCCCCCCCCCCCCCCCCC(=O)[O-]
REMARK SMILES IDX 13 1 14 2 15 3 16 4 17 5 18 6 19 7 20 8 21 9 22 10 23 11
REMARK SMILES IDX 24 12 25 13 26 14 12 15 11 16 10 17 9 18 8 19 7 20 6 21 5 22
REMARK SMILES IDX 4 23 3 24 2 25 1 26
REMARK H PARENT
REMARK Flexibility Score: inf
ROOT
ATOM      1  C   UNL     1     109.080  99.816  90.898  1.00  0.00     0.000 C 
ENDROOT
BRANCH   1   2
ATOM      2  C   UNL     1     108.615  99.129  92.196  1.00  0.00     0.000 C 
BRANCH   2   3
ATOM      3  C   UNL     1     108.469  97.596  92.115  1.00  0.00     0.000 C 
BRANCH   3   4
ATOM      4  C   UNL     1     107.027  97.067  92.236  1.00  0.00     0.000 C 
BRANCH   4   5
ATOM      5  C   UNL     1     105.979  98.191  92.306  1.00  0.00     0.000 C 
BRANCH   5   6
ATOM      6  C   UNL     1     104.555  97.658  92.538  1.00  0.00     0.000 C 
BRANCH   6   7
ATOM      7  C   UNL     1     103.545  98.194  91.509  1.00  0.00     0.000 C 
BRANCH   7   8
ATOM      8  C   UNL     1     102.220  97.411  91.527  1.00  0.00     0.000 C 
BRANCH   8   9
ATOM      9  C   UNL     1     101.045  98.229  90.965  1.00  0.00     0.000 C 
BRANCH   9  10
ATOM     10  C   UNL     1      99.679  97.707  91.440  1.00  0.00     0.006 C 
BRANCH  10  11
ATOM     11  C   UNL     1      98.903  98.740  92.266  1.00  0.00     0.053 C 
BRANCH  11  12
ATOM     12  C   UNL     1      98.254  99.744  91.366  1.00  0.00     0.041 C 
ATOM     13  O   UNL     1      98.174 100.952  91.716  1.00  0.00    -0.550 OA
ATOM     14  O   UNL     1      97.692  99.339  90.162  1.00  0.00    -0.550 OA
ENDBRANCH  11  12
ENDBRANCH  10  11
ENDBRANCH   9  10
ENDBRANCH   8   9
ENDBRANCH   7   8
ENDBRANCH   6   7
ENDBRANCH   5   6
ENDBRANCH   4   5
ENDBRANCH   3   4
ENDBRANCH   2   3
ENDBRANCH   1   2
BRANCH   1  15
ATOM     15  C   UNL     1     107.935 100.139  89.912  1.00  0.00     0.000 C 
BRANCH  15  16
ATOM     16  C   UNL     1     107.588  98.999  88.938  1.00  0.00     0.000 C 
BRANCH  16  17
ATOM     17  C   UNL     1     106.285  99.255  88.158  1.00  0.00     0.000 C 
BRANCH  17  18
ATOM     18  C   UNL     1     105.209  98.193  88.458  1.00  0.00    -0.000 C 
BRANCH  18  19
ATOM     19  C   UNL     1     105.786  96.785  88.695  1.00  0.00    -0.000 C 
BRANCH  19  20
ATOM     20  C   UNL     1     104.682  95.732  88.904  1.00  0.00    -0.000 C 
BRANCH  20  21
ATOM     21  C   UNL     1     104.923  94.861  90.146  1.00  0.00    -0.000 C 
BRANCH  21  22
ATOM     22  C   UNL     1     103.656  94.121  90.609  1.00  0.00    -0.000 C 
BRANCH  22  23
ATOM     23  C   UNL     1     103.156  93.109  89.556  1.00  0.00    -0.000 C 
BRANCH  23  24
ATOM     24  C   UNL     1     101.637  93.160  89.324  1.00  0.00    -0.000 C 
BRANCH  24  25
ATOM     25  C   UNL     1     101.098  94.591  89.188  1.00  0.00    -0.003 C 
ATOM     26  C   UNL     1      99.606  94.651  89.504  1.00  0.00     0.004 C 
ENDBRANCH  24  25
ENDBRANCH  23  24
ENDBRANCH  22  23
ENDBRANCH  21  22
ENDBRANCH  20  21
ENDBRANCH  19  20
ENDBRANCH  18  19
ENDBRANCH  17  18
ENDBRANCH  16  17
ENDBRANCH  15  16
ENDBRANCH   1  15
TORSDOF 22
ENDMDL
MODEL 2
REMARK VINA RESULT:    -4.232      5.572     11.616
REMARK INTER + INTRA:         -13.215
REMARK INTER:                  -9.798
REMARK INTRA:                  -3.417
REMARK UNBOUND:                -3.540
REMARK SMILES CCCCCCCCCCCCCCCCCCCCCCCC(=O)[O-]
REMARK SMILES IDX 13 1 14 2 15 3 16 4 17 5 18 6 19 7 20 8 21 9 22 10 23 11
REMARK SMILES IDX 24 12 25 13 26 14 12 15 11 16 10 17 9 18 8 19 7 20 6 21 5 22
REMARK SMILES IDX 4 23 3 24 2 25 1 26
REMARK H PARENT
REMARK Flexibility Score: inf
ROOT
ATOM      1  C   UNL     1      91.840  98.116  89.393  1.00  0.00     0.000 C 
ENDROOT
BRANCH   1   2
ATOM      2  C   UNL     1      90.365  97.751  89.652  1.00  0.00     0.000 C 
BRANCH   2   3
ATOM      3  C   UNL     1      89.446  98.936  90.008  1.00  0.00     0.000 C 
BRANCH   3   4
ATOM      4  C   UNL     1      88.938  98.959  91.462  1.00  0.00     0.000 C 
BRANCH   4   5
ATOM      5  C   UNL     1      89.972  99.522  92.451  1.00  0.00     0.000 C 
BRANCH   5   6
ATOM      6  C   UNL     1      90.686 100.772  91.911  1.00  0.00     0.000 C 
BRANCH   6   7
ATOM      7  C   UNL     1      92.189 100.787  92.241  1.00  0.00     0.000 C 
BRANCH   7   8
ATOM      8  C   UNL     1      92.858 102.121  91.864  1.00  0.00     0.000 C 
BRANCH   8   9
ATOM      9  C   UNL     1      92.246 102.751  90.601  1.00  0.00     0.000 C 
BRANCH   9  10
ATOM     10  C   UNL     1      93.264 103.580  89.801  1.00  0.00     0.006 C 
BRANCH  10  11
ATOM     11  C   UNL     1      94.533 103.896  90.603  1.00  0.00     0.053 C 
BRANCH  11  12
ATOM     12  C   UNL     1      95.612 104.394  89.694  1.00  0.00     0.041 C 
ATOM     13  O   UNL     1      95.564 105.565  89.234  1.00  0.00    -0.550 OA
ATOM     14  O   UNL     1      96.647 103.547  89.314  1.00  0.00    -0.550 OA
ENDBRANCH  11  12
ENDBRANCH  10  11
ENDBRANCH   9  10
ENDBRANCH   8   9
ENDBRANCH   7   8
ENDBRANCH   6   7
ENDBRANCH   5   6
ENDBRANCH   4   5
ENDBRANCH   3   4
ENDBRANCH   2   3
ENDBRANCH   1   2
BRANCH   1  15
ATOM     15  C   UNL     1      92.034  99.386  88.536  1.00  0.00     0.000 C 
BRANCH  15  16
ATOM     16  C   UNL     1      93.451  99.986  88.591  1.00  0.00     0.000 C 
BRANCH  16  17
ATOM     17  C   UNL     1      94.333  99.339  89.675  1.00  0.00     0.000 C 
BRANCH  17  18
ATOM     18  C   UNL     1      95.551 100.213  90.032  1.00  0.00    -0.000 C 
BRANCH  18  19
ATOM     19  C   UNL     1      95.865 100.243  91.540  1.00  0.00    -0.000 C 
BRANCH  19  20
ATOM     20  C   UNL     1      96.973 101.255  91.883  1.00  0.00    -0.000 C 
BRANCH  20  21
ATOM     21  C   UNL     1      98.373 100.750  91.502  1.00  0.00    -0.000 C 
BRANCH  21  22
ATOM     22  C   UNL     1      98.659  99.334  92.031  1.00  0.00    -0.000 C 
BRANCH  22  23
ATOM     23  C   UNL     1      99.789  98.637  91.244  1.00  0.00    -0.000 C 
BRANCH  23  24
ATOM     24  C   UNL     1      99.707  97.102  91.274  1.00  0.00    -0.000 C 
BRANCH  24  25
ATOM     25  C   UNL     1     101.018  96.439  91.716  1.00  0.00    -0.003 C 
ATOM     26  C   UNL     1     102.191  97.411  91.609  1.00  0.00     0.004 C 
ENDBRANCH  24  25
ENDBRANCH  23  24
ENDBRANCH  22  23
ENDBRANCH  21  22
ENDBRANCH  20  21
ENDBRANCH  19  20
ENDBRANCH  18  19
ENDBRANCH  17  18
ENDBRANCH  16  17
ENDBRANCH  15  16
ENDBRANCH   1  15
TORSDOF 22
ENDMDL
MODEL 3
REMARK VINA RESULT:    -4.189      6.733     11.604
REMARK INTER + INTRA:         -13.116
REMARK INTER:                  -9.754
REMARK INTRA:                  -3.362
REMARK UNBOUND:                -3.540
REMARK SMILES CCCCCCCCCCCCCCCCCCCCCCCC(=O)[O-]
REMARK SMILES IDX 13 1 14 2 15 3 16 4 17 5 18 6 19 7 20 8 21 9 22 10 23 11
REMARK SMILES IDX 24 12 25 13 26 14 12 15 11 16 10 17 9 18 8 19 7 20 6 21 5 22
REMARK SMILES IDX 4 23 3 24 2 25 1 26
REMARK H PARENT
REMARK Flexibility Score: inf
ROOT
ATOM      1  C   UNL     1      93.549 103.490  90.906  1.00  0.00     0.000 C 
ENDROOT
BRANCH   1   2
ATOM      2  C   UNL     1      94.900 103.803  90.234  1.00  0.00     0.000 C 
BRANCH   2   3
ATOM      3  C   UNL     1      95.050 105.239  89.694  1.00  0.00     0.000 C 
BRANCH   3   4
ATOM      4  C   UNL     1      96.352 105.516  88.918  1.00  0.00     0.000 C 
BRANCH   4   5
ATOM      5  C   UNL     1      97.153 104.239  88.614  1.00  0.00     0.000 C 
BRANCH   5   6
ATOM      6  C   UNL     1      98.655 104.401  88.896  1.00  0.00     0.000 C 
BRANCH   6   7
ATOM      7  C   UNL     1      99.139 103.521  90.062  1.00  0.00     0.000 C 
BRANCH   7   8
ATOM      8  C   UNL     1      98.241 102.291  90.278  1.00  0.00     0.000 C 
BRANCH   8   9
ATOM      9  C   UNL     1      98.317 101.751  91.717  1.00  0.00     0.000 C 
BRANCH   9  10
ATOM     10  C   UNL     1      98.078 100.234  91.794  1.00  0.00     0.006 C 
BRANCH  10  11
ATOM     11  C   UNL     1      97.628  99.636  90.455  1.00  0.00     0.053 C 
BRANCH  11  12
ATOM     12  C   UNL     1      98.664  98.691  89.934  1.00  0.00     0.041 C 
ATOM     13  O   UNL     1      99.710  98.465  90.600  1.00  0.00    -0.550 OA
ATOM     14  O   UNL     1      98.500  98.096  88.689  1.00  0.00    -0.550 OA
ENDBRANCH  11  12
ENDBRANCH  10  11
ENDBRANCH   9  10
ENDBRANCH   8   9
ENDBRANCH   7   8
ENDBRANCH   6   7
ENDBRANCH   5   6
ENDBRANCH   4   5
ENDBRANCH   3   4
ENDBRANCH   2   3
ENDBRANCH   1   2
BRANCH   1  15
ATOM     15  C   UNL     1      92.549 102.746  89.993  1.00  0.00     0.000 C 
BRANCH  15  16
ATOM     16  C   UNL     1      93.201 101.862  88.914  1.00  0.00     0.000 C 
BRANCH  16  17
ATOM     17  C   UNL     1      92.171 101.066  88.091  1.00  0.00     0.000 C 
BRANCH  17  18
ATOM     18  C   UNL     1      92.366  99.544  88.232  1.00  0.00    -0.000 C 
BRANCH  18  19
ATOM     19  C   UNL     1      91.048  98.748  88.174  1.00  0.00    -0.000 C 
BRANCH  19  20
ATOM     20  C   UNL     1      90.890  97.796  89.373  1.00  0.00    -0.000 C 
BRANCH  20  21
ATOM     21  C   UNL     1      89.634  98.096  90.205  1.00  0.00    -0.000 C 
BRANCH  21  22
ATOM     22  C   UNL     1      89.964  98.562  91.634  1.00  0.00    -0.000 C 
BRANCH  22  23
ATOM     23  C   UNL     1      90.476 100.017  91.668  1.00  0.00    -0.000 C 
BRANCH  23  24
ATOM     24  C   UNL     1      91.784 100.193  92.456  1.00  0.00    -0.000 C 
BRANCH  24  25
ATOM     25  C   UNL     1      92.935  99.338  91.909  1.00  0.00    -0.003 C 
ATOM     26  C   UNL     1      94.273 100.058  92.051  1.00  0.00     0.004 C 
ENDBRANCH  24  25
ENDBRANCH  23  24
ENDBRANCH  22  23
ENDBRANCH  21  22
ENDBRANCH  20  21
ENDBRANCH  19  20
ENDBRANCH  18  19
ENDBRANCH  17  18
ENDBRANCH  16  17
ENDBRANCH  15  16
ENDBRANCH   1  15
TORSDOF 22
ENDMDL
MODEL 4
REMARK VINA RESULT:    -4.141      6.954     12.322
REMARK INTER + INTRA:         -13.007
REMARK INTER:                  -9.082
REMARK INTRA:                  -3.925
REMARK UNBOUND:                -3.540
REMARK SMILES CCCCCCCCCCCCCCCCCCCCCCCC(=O)[O-]
REMARK SMILES IDX 13 1 14 2 15 3 16 4 17 5 18 6 19 7 20 8 21 9 22 10 23 11
REMARK SMILES IDX 24 12 25 13 26 14 12 15 11 16 10 17 9 18 8 19 7 20 6 21 5 22
REMARK SMILES IDX 4 23 3 24 2 25 1 26
REMARK H PARENT
REMARK Flexibility Score: inf
ROOT
ATOM      1  C   UNL     1      92.385 100.856  88.635  1.00  0.00     0.000 C 
ENDROOT
BRANCH   1   2
ATOM      2  C   UNL     1      93.308 102.085  88.756  1.00  0.00     0.000 C 
BRANCH   2   3
ATOM      3  C   UNL     1      93.067 102.969  89.995  1.00  0.00     0.000 C 
BRANCH   3   4
ATOM      4  C   UNL     1      94.312 103.703  90.530  1.00  0.00     0.000 C 
BRANCH   4   5
ATOM      5  C   UNL     1      94.947 104.644  89.492  1.00  0.00     0.000 C 
BRANCH   5   6
ATOM      6  C   UNL     1      96.481 104.557  89.475  1.00  0.00     0.000 C 
BRANCH   6   7
ATOM      7  C   UNL     1      97.018 103.745  88.284  1.00  0.00     0.000 C 
BRANCH   7   8
ATOM      8  C   UNL     1      97.775 102.482  88.731  1.00  0.00     0.000 C 
BRANCH   8   9
ATOM      9  C   UNL     1      96.829 101.329  89.108  1.00  0.00     0.000 C 
BRANCH   9  10
ATOM     10  C   UNL     1      97.556  99.979  89.222  1.00  0.00     0.006 C 
BRANCH  10  11
ATOM     11  C   UNL     1      98.859 100.074  90.026  1.00  0.00     0.053 C 
BRANCH  11  12
ATOM     12  C   UNL     1      98.563 100.124  91.492  1.00  0.00     0.041 C 
ATOM     13  O   UNL     1      98.321  99.064  92.127  1.00  0.00    -0.550 OA
ATOM     14  O   UNL     1      98.506 101.348  92.148  1.00  0.00    -0.550 OA
ENDBRANCH  11  12
ENDBRANCH  10  11
ENDBRANCH   9  10
ENDBRANCH   8   9
ENDBRANCH   7   8
ENDBRANCH   6   7
ENDBRANCH   5   6
ENDBRANCH   4   5
ENDBRANCH   3   4
ENDBRANCH   2   3
ENDBRANCH   1   2
BRANCH   1  15
ATOM     15  C   UNL     1      93.129  99.503  88.688  1.00  0.00     0.000 C 
BRANCH  15  16
ATOM     16  C   UNL     1      92.303  98.341  89.269  1.00  0.00     0.000 C 
BRANCH  16  17
ATOM     17  C   UNL     1      90.964  98.133  88.538  1.00  0.00     0.000 C 
BRANCH  17  18
ATOM     18  C   UNL     1      89.900  97.487  89.445  1.00  0.00    -0.000 C 
BRANCH  18  19
ATOM     19  C   UNL     1      88.876  98.492  90.005  1.00  0.00    -0.000 C 
BRANCH  19  20
ATOM     20  C   UNL     1      89.252  98.981  91.416  1.00  0.00    -0.000 C 
BRANCH  20  21
ATOM     21  C   UNL     1      89.629 100.470  91.445  1.00  0.00    -0.000 C 
BRANCH  21  22
ATOM     22  C   UNL     1      90.776 100.774  92.425  1.00  0.00    -0.000 C 
BRANCH  22  23
ATOM     23  C   UNL     1      91.300  99.500  93.119  1.00  0.00    -0.000 C 
BRANCH  23  24
ATOM     24  C   UNL     1      92.773  99.187  92.805  1.00  0.00    -0.000 C 
BRANCH  24  25
ATOM     25  C   UNL     1      93.608 100.445  92.528  1.00  0.00    -0.003 C 
ATOM     26  C   UNL     1      94.914 100.094  91.821  1.00  0.00     0.004 C 
ENDBRANCH  24  25
ENDBRANCH  23  24
ENDBRANCH  22  23
ENDBRANCH  21  22
ENDBRANCH  20  21
ENDBRANCH  19  20
ENDBRANCH  18  19
ENDBRANCH  17  18
ENDBRANCH  16  17
ENDBRANCH  15  16
ENDBRANCH   1  15
TORSDOF 22
ENDMDL
MODEL 5
REMARK VINA RESULT:    -4.124      5.924     12.248
REMARK INTER + INTRA:         -12.969
REMARK INTER:                  -9.470
REMARK INTRA:                  -3.499
REMARK UNBOUND:                -3.540
REMARK SMILES CCCCCCCCCCCCCCCCCCCCCCCC(=O)[O-]
REMARK SMILES IDX 13 1 14 2 15 3 16 4 17 5 18 6 19 7 20 8 21 9 22 10 23 11
REMARK SMILES IDX 24 12 25 13 26 14 12 15 11 16 10 17 9 18 8 19 7 20 6 21 5 22
REMARK SMILES IDX 4 23 3 24 2 25 1 26
REMARK H PARENT
REMARK Flexibility Score: inf
ROOT
ATOM      1  C   UNL     1      92.836 101.458  91.858  1.00  0.00     0.000 C 
ENDROOT
BRANCH   1   2
ATOM      2  C   UNL     1      92.097 102.061  90.647  1.00  0.00     0.000 C 
BRANCH   2   3
ATOM      3  C   UNL     1      92.960 102.935  89.716  1.00  0.00     0.000 C 
BRANCH   3   4
ATOM      4  C   UNL     1      93.919 103.906  90.431  1.00  0.00     0.000 C 
BRANCH   4   5
ATOM      5  C   UNL     1      95.219 104.151  89.645  1.00  0.00     0.000 C 
BRANCH   5   6
ATOM      6  C   UNL     1      95.902 102.845  89.209  1.00  0.00     0.000 C 
BRANCH   6   7
ATOM      7  C   UNL     1      97.151 102.519  90.046  1.00  0.00     0.000 C 
BRANCH   7   8
ATOM      8  C   UNL     1      96.806 101.772  91.346  1.00  0.00     0.000 C 
BRANCH   8   9
ATOM      9  C   UNL     1      98.032 101.091  91.978  1.00  0.00     0.000 C 
BRANCH   9  10
ATOM     10  C   UNL     1      98.441  99.805  91.241  1.00  0.00     0.006 C 
BRANCH  10  11
ATOM     11  C   UNL     1      99.357  98.905  92.080  1.00  0.00     0.053 C 
BRANCH  11  12
ATOM     12  C   UNL     1     100.030  97.892  91.209  1.00  0.00     0.041 C 
ATOM     13  O   UNL     1      99.426  97.408  90.216  1.00  0.00    -0.550 OA
ATOM     14  O   UNL     1     101.308  97.444  91.523  1.00  0.00    -0.550 OA
ENDBRANCH  11  12
ENDBRANCH  10  11
ENDBRANCH   9  10
ENDBRANCH   8   9
ENDBRANCH   7   8
ENDBRANCH   6   7
ENDBRANCH   5   6
ENDBRANCH   4   5
ENDBRANCH   3   4
ENDBRANCH   2   3
ENDBRANCH   1   2
BRANCH   1  15
ATOM     15  C   UNL     1      92.842  99.914  91.887  1.00  0.00     0.000 C 
BRANCH  15  16
ATOM     16  C   UNL     1      91.914  99.290  92.945  1.00  0.00     0.000 C 
BRANCH  16  17
ATOM     17  C   UNL     1      90.621 100.099  93.159  1.00  0.00     0.000 C 
BRANCH  17  18
ATOM     18  C   UNL     1      89.526  99.726  92.142  1.00  0.00    -0.000 C 
BRANCH  18  19
ATOM     19  C   UNL     1      89.336  98.206  91.974  1.00  0.00    -0.000 C 
BRANCH  19  20
ATOM     20  C   UNL     1      89.109  97.807  90.504  1.00  0.00    -0.000 C 
BRANCH  20  21
ATOM     21  C   UNL     1      90.369  97.983  89.643  1.00  0.00    -0.000 C 
BRANCH  21  22
ATOM     22  C   UNL     1      90.163  98.970  88.480  1.00  0.00    -0.000 C 
BRANCH  22  23
ATOM     23  C   UNL     1      91.469  99.697  88.097  1.00  0.00    -0.000 C 
BRANCH  23  24
ATOM     24  C   UNL     1      92.740  98.971  88.569  1.00  0.00    -0.000 C 
BRANCH  24  25
ATOM     25  C   UNL     1      94.028  99.734  88.230  1.00  0.00    -0.003 C 
ATOM     26  C   UNL     1      95.191  99.267  89.102  1.00  0.00     0.004 C 
ENDBRANCH  24  25
ENDBRANCH  23  24
ENDBRANCH  22  23
ENDBRANCH  21  22
ENDBRANCH  20  21
ENDBRANCH  19  20
ENDBRANCH  18  19
ENDBRANCH  17  18
ENDBRANCH  16  17
ENDBRANCH  15  16
ENDBRANCH   1  15
TORSDOF 22
ENDMDL
MODEL 6
REMARK VINA RESULT:    -4.124      3.383      7.693
REMARK INTER + INTRA:         -12.968
REMARK INTER:                  -8.993
REMARK INTRA:                  -3.975
REMARK UNBOUND:                -3.540
REMARK SMILES CCCCCCCCCCCCCCCCCCCCCCCC(=O)[O-]
REMARK SMILES IDX 13 1 14 2 15 3 16 4 17 5 18 6 19 7 20 8 21 9 22 10 23 11
REMARK SMILES IDX 24 12 25 13 26 14 12 15 11 16 10 17 9 18 8 19 7 20 6 21 5 22
REMARK SMILES IDX 4 23 3 24 2 25 1 26
REMARK H PARENT
REMARK Flexibility Score: inf
ROOT
ATOM      1  C   UNL     1      99.773  96.042  91.396  1.00  0.00     0.000 C 
ENDROOT
BRANCH   1   2
ATOM      2  C   UNL     1      99.428  95.795  89.914  1.00  0.00     0.000 C 
BRANCH   2   3
ATOM      3  C   UNL     1      99.734  94.377  89.394  1.00  0.00     0.000 C 
BRANCH   3   4
ATOM      4  C   UNL     1     101.108  94.209  88.716  1.00  0.00     0.000 C 
BRANCH   4   5
ATOM      5  C   UNL     1     101.977  93.127  89.380  1.00  0.00     0.000 C 
BRANCH   5   6
ATOM      6  C   UNL     1     103.114  93.721  90.228  1.00  0.00     0.000 C 
BRANCH   6   7
ATOM      7  C   UNL     1     104.085  94.581  89.401  1.00  0.00     0.000 C 
BRANCH   7   8
ATOM      8  C   UNL     1     105.310  95.029  90.217  1.00  0.00     0.000 C 
BRANCH   8   9
ATOM      9  C   UNL     1     104.957  95.360  91.678  1.00  0.00     0.000 C 
BRANCH   9  10
ATOM     10  C   UNL     1     105.222  96.832  92.032  1.00  0.00     0.006 C 
BRANCH  10  11
ATOM     11  C   UNL     1     106.183  97.515  91.050  1.00  0.00     0.053 C 
BRANCH  11  12
ATOM     12  C   UNL     1     107.487  97.811  91.720  1.00  0.00     0.041 C 
ATOM     13  O   UNL     1     108.233  98.726  91.280  1.00  0.00    -0.550 OA
ATOM     14  O   UNL     1     107.904  97.044  92.801  1.00  0.00    -0.550 OA
ENDBRANCH  11  12
ENDBRANCH  10  11
ENDBRANCH   9  10
ENDBRANCH   8   9
ENDBRANCH   7   8
ENDBRANCH   6   7
ENDBRANCH   5   6
ENDBRANCH   4   5
ENDBRANCH   3   4
ENDBRANCH   2   3
ENDBRANCH   1   2
BRANCH   1  15
ATOM     15  C   UNL     1     101.238  96.468  91.639  1.00  0.00     0.000 C 
BRANCH  15  16
ATOM     16  C   UNL     1     101.606  97.851  91.071  1.00  0.00     0.000 C 
BRANCH  16  17
ATOM     17  C   UNL     1     102.389  97.766  89.748  1.00  0.00     0.000 C 
BRANCH  17  18
ATOM     18  C   UNL     1     101.646  98.454  88.587  1.00  0.00    -0.000 C 
BRANCH  18  19
ATOM     19  C   UNL     1     100.490  99.361  89.049  1.00  0.00    -0.000 C 
BRANCH  19  20
ATOM     20  C   UNL     1      99.237  99.201  88.169  1.00  0.00    -0.000 C 
BRANCH  20  21
ATOM     21  C   UNL     1      98.359 100.462  88.155  1.00  0.00    -0.000 C 
BRANCH  21  22
ATOM     22  C   UNL     1      99.072 101.691  88.746  1.00  0.00    -0.000 C 
BRANCH  22  23
ATOM     23  C   UNL     1      98.215 102.402  89.814  1.00  0.00    -0.000 C 
BRANCH  23  24
ATOM     24  C   UNL     1      97.491 101.436  90.767  1.00  0.00    -0.000 C 
BRANCH  24  25
ATOM     25  C   UNL     1      98.405 100.882  91.869  1.00  0.00    -0.003 C 
ATOM     26  C   UNL     1      98.264  99.367  91.992  1.00  0.00     0.004 C 
ENDBRANCH  24  25
ENDBRANCH  23  24
ENDBRANCH  22  23
ENDBRANCH  21  22
ENDBRANCH  20  21
ENDBRANCH  19  20
ENDBRANCH  18  19
ENDBRANCH  17  18
ENDBRANCH  16  17
ENDBRANCH  15  16
ENDBRANCH   1  15
TORSDOF 22
ENDMDL
MODEL 7
REMARK VINA RESULT:    -4.109      1.641      5.574
REMARK INTER + INTRA:         -12.934
REMARK INTER:                  -9.538
REMARK INTRA:                  -3.397
REMARK UNBOUND:                -3.540
REMARK SMILES CCCCCCCCCCCCCCCCCCCCCCCC(=O)[O-]
REMARK SMILES IDX 13 1 14 2 15 3 16 4 17 5 18 6 19 7 20 8 21 9 22 10 23 11
REMARK SMILES IDX 24 12 25 13 26 14 12 15 11 16 10 17 9 18 8 19 7 20 6 21 5 22
REMARK SMILES IDX 4 23 3 24 2 25 1 26
REMARK H PARENT
REMARK Flexibility Score: inf
ROOT
ATOM      1  C   UNL     1     104.540  97.618  92.000  1.00  0.00     0.000 C 
ENDROOT
BRANCH   1   2
ATOM      2  C   UNL     1     103.061  97.733  91.583  1.00  0.00     0.000 C 
BRANCH   2   3
ATOM      3  C   UNL     1     102.258  96.419  91.638  1.00  0.00     0.000 C 
BRANCH   3   4
ATOM      4  C   UNL     1     101.443  96.093  90.371  1.00  0.00     0.000 C 
BRANCH   4   5
ATOM      5  C   UNL     1      99.925  96.222  90.584  1.00  0.00     0.000 C 
BRANCH   5   6
ATOM      6  C   UNL     1      99.563  96.643  92.018  1.00  0.00     0.000 C 
BRANCH   6   7
ATOM      7  C   UNL     1      98.972  98.062  92.090  1.00  0.00     0.000 C 
BRANCH   7   8
ATOM      8  C   UNL     1      99.180  98.849  90.784  1.00  0.00     0.000 C 
BRANCH   8   9
ATOM      9  C   UNL     1      98.197 100.024  90.642  1.00  0.00     0.000 C 
BRANCH   9  10
ATOM     10  C   UNL     1      97.345 100.240  91.902  1.00  0.00     0.006 C 
BRANCH  10  11
ATOM     11  C   UNL     1      96.102 101.101  91.639  1.00  0.00     0.053 C 
BRANCH  11  12
ATOM     12  C   UNL     1      94.928 100.233  91.314  1.00  0.00     0.041 C 
ATOM     13  O   UNL     1      94.707  99.883  90.124  1.00  0.00    -0.550 OA
ATOM     14  O   UNL     1      94.047  99.851  92.318  1.00  0.00    -0.550 OA
ENDBRANCH  11  12
ENDBRANCH  10  11
ENDBRANCH   9  10
ENDBRANCH   8   9
ENDBRANCH   7   8
ENDBRANCH   6   7
ENDBRANCH   5   6
ENDBRANCH   4   5
ENDBRANCH   3   4
ENDBRANCH   2   3
ENDBRANCH   1   2
BRANCH   1  15
ATOM     15  C   UNL     1     105.071  96.168  92.047  1.00  0.00     0.000 C 
BRANCH  15  16
ATOM     16  C   UNL     1     105.891  95.746  90.815  1.00  0.00     0.000 C 
BRANCH  16  17
ATOM     17  C   UNL     1     105.047  95.008  89.759  1.00  0.00     0.000 C 
BRANCH  17  18
ATOM     18  C   UNL     1     104.653  95.924  88.585  1.00  0.00    -0.000 C 
BRANCH  18  19
ATOM     19  C   UNL     1     105.624  97.101  88.370  1.00  0.00    -0.000 C 
BRANCH  19  20
ATOM     20  C   UNL     1     104.908  98.463  88.424  1.00  0.00    -0.000 C 
BRANCH  20  21
ATOM     21  C   UNL     1     105.798  99.576  88.998  1.00  0.00    -0.000 C 
BRANCH  21  22
ATOM     22  C   UNL     1     107.135  99.046  89.546  1.00  0.00    -0.000 C 
BRANCH  22  23
ATOM     23  C   UNL     1     107.950 100.149  90.254  1.00  0.00    -0.000 C 
BRANCH  23  24
ATOM     24  C   UNL     1     108.885  99.617  91.352  1.00  0.00    -0.000 C 
BRANCH  24  25
ATOM     25  C   UNL     1     108.644  98.137  91.680  1.00  0.00    -0.003 C 
ATOM     26  C   UNL     1     108.132  97.965  93.108  1.00  0.00     0.004 C 
ENDBRANCH  24  25
ENDBRANCH  23  24
ENDBRANCH  22  23
ENDBRANCH  21  22
ENDBRANCH  20  21
ENDBRANCH  19  20
ENDBRANCH  18  19
ENDBRANCH  17  18
ENDBRANCH  16  17
ENDBRANCH  15  16
ENDBRANCH   1  15
TORSDOF 22
ENDMDL
MODEL 8
REMARK VINA RESULT:    -4.084      4.289      9.272
REMARK INTER + INTRA:         -12.876
REMARK INTER:                 -10.659
REMARK INTRA:                  -2.217
REMARK UNBOUND:                -3.540
REMARK SMILES CCCCCCCCCCCCCCCCCCCCCCCC(=O)[O-]
REMARK SMILES IDX 13 1 14 2 15 3 16 4 17 5 18 6 19 7 20 8 21 9 22 10 23 11
REMARK SMILES IDX 24 12 25 13 26 14 12 15 11 16 10 17 9 18 8 19 7 20 6 21 5 22
REMARK SMILES IDX 4 23 3 24 2 25 1 26
REMARK H PARENT
REMARK Flexibility Score: inf
ROOT
ATOM      1  C   UNL     1      99.820  98.644  92.021  1.00  0.00     0.000 C 
ENDROOT
BRANCH   1   2
ATOM      2  C   UNL     1     101.005  97.883  91.394  1.00  0.00     0.000 C 
BRANCH   2   3
ATOM      3  C   UNL     1     100.914  96.347  91.469  1.00  0.00     0.000 C 
BRANCH   3   4
ATOM      4  C   UNL     1     100.625  95.640  90.131  1.00  0.00     0.000 C 
BRANCH   4   5
ATOM      5  C   UNL     1     101.686  94.587  89.766  1.00  0.00     0.000 C 
BRANCH   5   6
ATOM      6  C   UNL     1     102.910  94.635  90.696  1.00  0.00     0.000 C 
BRANCH   6   7
ATOM      7  C   UNL     1     104.205  94.187  89.996  1.00  0.00     0.000 C 
BRANCH   7   8
ATOM      8  C   UNL     1     105.257  95.309  89.937  1.00  0.00     0.000 C 
BRANCH   8   9
ATOM      9  C   UNL     1     104.659  96.694  90.242  1.00  0.00     0.000 C 
BRANCH   9  10
ATOM     10  C   UNL     1     105.588  97.561  91.108  1.00  0.00     0.006 C 
BRANCH  10  11
ATOM     11  C   UNL     1     106.653  96.738  91.845  1.00  0.00     0.053 C 
BRANCH  11  12
ATOM     12  C   UNL     1     107.681  97.641  92.449  1.00  0.00     0.041 C 
ATOM     13  O   UNL     1     108.698  97.156  93.013  1.00  0.00    -0.550 OA
ATOM     14  O   UNL     1     107.492  99.018  92.435  1.00  0.00    -0.550 OA
ENDBRANCH  11  12
ENDBRANCH  10  11
ENDBRANCH   9  10
ENDBRANCH   8   9
ENDBRANCH   7   8
ENDBRANCH   6   7
ENDBRANCH   5   6
ENDBRANCH   4   5
ENDBRANCH   3   4
ENDBRANCH   2   3
ENDBRANCH   1   2
BRANCH   1  15
ATOM     15  C   UNL     1      98.871  99.293  90.989  1.00  0.00     0.000 C 
BRANCH  15  16
ATOM     16  C   UNL     1      97.730 100.125  91.603  1.00  0.00     0.000 C 
BRANCH  16  17
ATOM     17  C   UNL     1      98.019 101.637  91.590  1.00  0.00     0.000 C 
BRANCH  17  18
ATOM     18  C   UNL     1      98.234 102.177  90.163  1.00  0.00    -0.000 C 
BRANCH  18  19
ATOM     19  C   UNL     1      99.242 103.339  90.091  1.00  0.00    -0.000 C 
BRANCH  19  20
ATOM     20  C   UNL     1      98.669 104.562  89.352  1.00  0.00    -0.000 C 
BRANCH  20  21
ATOM     21  C   UNL     1      97.281 104.292  88.750  1.00  0.00    -0.000 C 
BRANCH  21  22
ATOM     22  C   UNL     1      96.266 105.403  89.072  1.00  0.00    -0.000 C 
BRANCH  22  23
ATOM     23  C   UNL     1      94.975 104.844  89.707  1.00  0.00    -0.000 C 
BRANCH  23  24
ATOM     24  C   UNL     1      94.759 103.344  89.447  1.00  0.00    -0.000 C 
BRANCH  24  25
ATOM     25  C   UNL     1      94.054 102.628  90.607  1.00  0.00    -0.003 C 
ATOM     26  C   UNL     1      94.530 103.163  91.955  1.00  0.00     0.004 C 
ENDBRANCH  24  25
ENDBRANCH  23  24
ENDBRANCH  22  23
ENDBRANCH  21  22
ENDBRANCH  20  21
ENDBRANCH  19  20
ENDBRANCH  18  19
ENDBRANCH  17  18
ENDBRANCH  16  17
ENDBRANCH  15  16
ENDBRANCH   1  15
TORSDOF 22
ENDMDL
MODEL 9
REMARK VINA RESULT:    -4.066      1.116      2.671
REMARK INTER + INTRA:         -12.835
REMARK INTER:                  -8.859
REMARK INTRA:                  -3.977
REMARK UNBOUND:                -3.540
REMARK SMILES CCCCCCCCCCCCCCCCCCCCCCCC(=O)[O-]
REMARK SMILES IDX 13 1 14 2 15 3 16 4 17 5 18 6 19 7 20 8 21 9 22 10 23 11
REMARK SMILES IDX 24 12 25 13 26 14 12 15 11 16 10 17 9 18 8 19 7 20 6 21 5 22
REMARK SMILES IDX 4 23 3 24 2 25 1 26
REMARK H PARENT
REMARK Flexibility Score: inf
ROOT
ATOM      1  C   UNL     1     108.635  99.439  89.754  1.00  0.00     0.000 C 
ENDROOT
BRANCH   1   2
ATOM      2  C   UNL     1     107.526 100.439  89.372  1.00  0.00     0.000 C 
BRANCH   2   3
ATOM      3  C   UNL     1     106.151  99.814  89.069  1.00  0.00     0.000 C 
BRANCH   3   4
ATOM      4  C   UNL     1     106.192  98.397  88.464  1.00  0.00     0.000 C 
BRANCH   4   5
ATOM      5  C   UNL     1     104.867  97.634  88.634  1.00  0.00     0.000 C 
BRANCH   5   6
ATOM      6  C   UNL     1     103.649  98.452  88.174  1.00  0.00     0.000 C 
BRANCH   6   7
ATOM      7  C   UNL     1     102.528  98.492  89.226  1.00  0.00     0.000 C 
BRANCH   7   8
ATOM      8  C   UNL     1     103.003  98.002  90.606  1.00  0.00     0.000 C 
BRANCH   8   9
ATOM      9  C   UNL     1     101.856  97.918  91.628  1.00  0.00     0.000 C 
BRANCH   9  10
ATOM     10  C   UNL     1     100.473  97.830  90.962  1.00  0.00     0.006 C 
BRANCH  10  11
ATOM     11  C   UNL     1      99.324  98.104  91.941  1.00  0.00     0.053 C 
BRANCH  11  12
ATOM     12  C   UNL     1      98.619  99.371  91.573  1.00  0.00     0.041 C 
ATOM     13  O   UNL     1      97.767  99.376  90.644  1.00  0.00    -0.550 OA
ATOM     14  O   UNL     1      98.937 100.558  92.221  1.00  0.00    -0.550 OA
ENDBRANCH  11  12
ENDBRANCH  10  11
ENDBRANCH   9  10
ENDBRANCH   8   9
ENDBRANCH   7   8
ENDBRANCH   6   7
ENDBRANCH   5   6
ENDBRANCH   4   5
ENDBRANCH   3   4
ENDBRANCH   2   3
ENDBRANCH   1   2
BRANCH   1  15
ATOM     15  C   UNL     1     109.031  99.478  91.247  1.00  0.00     0.000 C 
BRANCH  15  16
ATOM     16  C   UNL     1     108.003  98.841  92.200  1.00  0.00     0.000 C 
BRANCH  16  17
ATOM     17  C   UNL     1     107.650  97.392  91.817  1.00  0.00     0.000 C 
BRANCH  17  18
ATOM     18  C   UNL     1     106.151  97.090  92.003  1.00  0.00    -0.000 C 
BRANCH  18  19
ATOM     19  C   UNL     1     105.759  95.655  91.605  1.00  0.00    -0.000 C 
BRANCH  19  20
ATOM     20  C   UNL     1     104.513  95.161  92.363  1.00  0.00    -0.000 C 
BRANCH  20  21
ATOM     21  C   UNL     1     103.524  94.415  91.454  1.00  0.00    -0.000 C 
BRANCH  21  22
ATOM     22  C   UNL     1     103.999  94.341  89.992  1.00  0.00    -0.000 C 
BRANCH  22  23
ATOM     23  C   UNL     1     102.865  94.663  88.996  1.00  0.00    -0.000 C 
BRANCH  23  24
ATOM     24  C   UNL     1     101.519  94.018  89.365  1.00  0.00    -0.000 C 
BRANCH  24  25
ATOM     25  C   UNL     1     100.311  94.871  88.951  1.00  0.00    -0.003 C 
ATOM     26  C   UNL     1      99.095  94.561  89.820  1.00  0.00     0.004 C 
ENDBRANCH  24  25
ENDBRANCH  23  24
ENDBRANCH  22  23
ENDBRANCH  21  22
ENDBRANCH  20  21
ENDBRANCH  19  20
ENDBRANCH  18  19
ENDBRANCH  17  18
ENDBRANCH  16  17
ENDBRANCH  15  16
ENDBRANCH   1  15
TORSDOF 22
ENDMDL
