MODEL 1
REMARK VINA RESULT:    -3.698      0.000      0.000
REMARK INTER + INTRA:          -8.483
REMARK INTER:                  -6.725
REMARK INTRA:                  -1.759
REMARK UNBOUND:                -1.759
REMARK SMILES CCCCCCCCCCCCCCCC(=O)[O-]
REMARK SMILES IDX 9 1 10 2 11 3 12 4 13 5 14 6 15 7 16 8 17 9 18 10 8 11 7 12
REMARK SMILES IDX 6 13 5 14 4 15 3 16 2 17 1 18
REMARK H PARENT
REMARK Flexibility Score: inf
ROOT
ATOM      1  C   UNL     1      -6.334  83.387  -9.596  1.00  0.00     0.000 C 
ENDROOT
BRANCH   1   2
ATOM      2  C   UNL     1      -6.655  83.655  -8.117  1.00  0.00     0.000 C 
BRANCH   2   3
ATOM      3  C   UNL     1      -8.140  84.006  -7.934  1.00  0.00     0.000 C 
BRANCH   3   4
ATOM      4  C   UNL     1      -8.965  83.777  -9.210  1.00  0.00     0.000 C 
BRANCH   4   5
ATOM      5  C   UNL     1     -10.415  83.368  -8.912  1.00  0.00     0.000 C 
BRANCH   5   6
ATOM      6  C   UNL     1     -10.828  82.155  -9.759  1.00  0.00     0.006 C 
BRANCH   6   7
ATOM      7  C   UNL     1     -12.206  82.341 -10.410  1.00  0.00     0.053 C 
BRANCH   7   8
ATOM      8  C   UNL     1     -12.240  81.796 -11.805  1.00  0.00     0.041 C 
ATOM      9  O   UNL     1     -13.344  81.548 -12.361  1.00  0.00    -0.550 OA
ATOM     10  O   UNL     1     -11.058  81.593 -12.504  1.00  0.00    -0.550 OA
ENDBRANCH   7   8
ENDBRANCH   6   7
ENDBRANCH   5   6
ENDBRANCH   4   5
ENDBRANCH   3   4
ENDBRANCH   2   3
ENDBRANCH   1   2
BRANCH   1  11
ATOM     11  C   UNL     1      -4.863  83.005  -9.825  1.00  0.00     0.000 C 
BRANCH  11  12
ATOM     12  C   UNL     1      -3.994  83.230  -8.576  1.00  0.00    -0.000 C 
BRANCH  12  13
ATOM     13  C   UNL     1      -3.115  84.490  -8.678  1.00  0.00    -0.000 C 
BRANCH  13  14
ATOM     14  C   UNL     1      -3.601  85.701  -7.855  1.00  0.00    -0.000 C 
BRANCH  14  15
ATOM     15  C   UNL     1      -3.981  86.944  -8.680  1.00  0.00    -0.000 C 
BRANCH  15  16
ATOM     16  C   UNL     1      -5.492  87.123  -8.924  1.00  0.00    -0.000 C 
BRANCH  16  17
ATOM     17  C   UNL     1      -5.918  86.865 -10.384  1.00  0.00    -0.003 C 
ATOM     18  C   UNL     1      -7.436  86.814 -10.557  1.00  0.00     0.004 C 
ENDBRANCH  16  17
ENDBRANCH  15  16
ENDBRANCH  14  15
ENDBRANCH  13  14
ENDBRANCH  12  13
ENDBRANCH  11  12
ENDBRANCH   1  11
TORSDOF 14
ENDMDL
MODEL 2
REMARK VINA RESULT:    -3.634      1.315      3.019
REMARK INTER + INTRA:          -8.366
REMARK INTER:                  -7.103
REMARK INTRA:                  -1.264
REMARK UNBOUND:                -1.759
REMARK SMILES CCCCCCCCCCCCCCCC(=O)[O-]
REMARK SMILES IDX 9 1 10 2 11 3 12 4 13 5 14 6 15 7 16 8 17 9 18 10 8 11 7 12
REMARK SMILES IDX 6 13 5 14 4 15 3 16 2 17 1 18
REMARK H PARENT
REMARK Flexibility Score: inf
ROOT
ATOM      1  C   UNL     1      -7.635  84.466  -8.044  1.00  0.00     0.000 C 
ENDROOT
BRANCH   1   2
ATOM      2  C   UNL     1      -8.966  83.699  -8.016  1.00  0.00     0.000 C 
BRANCH   2   3
ATOM      3  C   UNL     1      -9.233  83.018  -9.368  1.00  0.00     0.000 C 
BRANCH   3   4
ATOM      4  C   UNL     1     -10.427  82.053  -9.320  1.00  0.00     0.000 C 
BRANCH   4   5
ATOM      5  C   UNL     1     -11.744  82.757  -8.960  1.00  0.00     0.000 C 
BRANCH   5   6
ATOM      6  C   UNL     1     -12.597  83.002 -10.214  1.00  0.00     0.006 C 
BRANCH   6   7
ATOM      7  C   UNL     1     -12.945  81.697 -10.944  1.00  0.00     0.053 C 
BRANCH   7   8
ATOM      8  C   UNL     1     -12.498  81.723 -12.374  1.00  0.00     0.041 C 
ATOM      9  O   UNL     1     -11.278  81.591 -12.659  1.00  0.00    -0.550 OA
ATOM     10  O   UNL     1     -13.431  81.859 -13.394  1.00  0.00    -0.550 OA
ENDBRANCH   7   8
ENDBRANCH   6   7
ENDBRANCH   5   6
ENDBRANCH   4   5
ENDBRANCH   3   4
ENDBRANCH   2   3
ENDBRANCH   1   2
BRANCH   1  11
ATOM     11  C   UNL     1      -7.269  84.972  -9.449  1.00  0.00     0.000 C 
BRANCH  11  12
ATOM     12  C   UNL     1      -5.803  84.685  -9.816  1.00  0.00    -0.000 C 
BRANCH  12  13
ATOM     13  C   UNL     1      -5.486  83.180  -9.878  1.00  0.00    -0.000 C 
BRANCH  13  14
ATOM     14  C   UNL     1      -4.322  82.713  -8.978  1.00  0.00    -0.000 C 
BRANCH  14  15
ATOM     15  C   UNL     1      -4.075  83.576  -7.727  1.00  0.00    -0.000 C 
BRANCH  15  16
ATOM     16  C   UNL     1      -2.595  83.746  -7.338  1.00  0.00    -0.000 C 
BRANCH  16  17
ATOM     17  C   UNL     1      -2.174  85.216  -7.128  1.00  0.00    -0.003 C 
ATOM     18  C   UNL     1      -2.873  86.175  -8.091  1.00  0.00     0.004 C 
ENDBRANCH  16  17
ENDBRANCH  15  16
ENDBRANCH  14  15
ENDBRANCH  13  14
ENDBRANCH  12  13
ENDBRANCH  11  12
ENDBRANCH   1  11
TORSDOF 14
ENDMDL
MODEL 3
REMARK VINA RESULT:    -3.621      7.369      9.336
REMARK INTER + INTRA:          -8.342
REMARK INTER:                  -6.419
REMARK INTRA:                  -1.924
REMARK UNBOUND:                -1.759
REMARK SMILES CCCCCCCCCCCCCCCC(=O)[O-]
REMARK SMILES IDX 9 1 10 2 11 3 12 4 13 5 14 6 15 7 16 8 17 9 18 10 8 11 7 12
REMARK SMILES IDX 6 13 5 14 4 15 3 16 2 17 1 18
REMARK H PARENT
REMARK Flexibility Score: inf
ROOT
ATOM      1  C   UNL     1      -4.128  91.809 -12.465  1.00  0.00     0.000 C 
ENDROOT
BRANCH   1   2
ATOM      2  C   UNL     1      -4.267  92.981 -13.450  1.00  0.00     0.000 C 
BRANCH   2   3
ATOM      3  C   UNL     1      -3.824  92.565 -14.862  1.00  0.00     0.000 C 
BRANCH   3   4
ATOM      4  C   UNL     1      -3.827  91.041 -15.060  1.00  0.00     0.000 C 
BRANCH   4   5
ATOM      5  C   UNL     1      -5.065  90.546 -15.823  1.00  0.00     0.000 C 
BRANCH   5   6
ATOM      6  C   UNL     1      -5.991  89.739 -14.901  1.00  0.00     0.006 C 
BRANCH   6   7
ATOM      7  C   UNL     1      -7.130  90.593 -14.327  1.00  0.00     0.053 C 
BRANCH   7   8
ATOM      8  C   UNL     1      -7.873  89.874 -13.243  1.00  0.00     0.041 C 
ATOM      9  O   UNL     1      -7.258  89.104 -12.457  1.00  0.00    -0.550 OA
ATOM     10  O   UNL     1      -9.237  90.078 -13.078  1.00  0.00    -0.550 OA
ENDBRANCH   7   8
ENDBRANCH   6   7
ENDBRANCH   5   6
ENDBRANCH   4   5
ENDBRANCH   3   4
ENDBRANCH   2   3
ENDBRANCH   1   2
BRANCH   1  11
ATOM     11  C   UNL     1      -5.126  91.892 -11.299  1.00  0.00     0.000 C 
BRANCH  11  12
ATOM     12  C   UNL     1      -4.906  90.782 -10.256  1.00  0.00    -0.000 C 
BRANCH  12  13
ATOM     13  C   UNL     1      -5.110  91.272  -8.811  1.00  0.00    -0.000 C 
BRANCH  13  14
ATOM     14  C   UNL     1      -4.195  92.434  -8.373  1.00  0.00    -0.000 C 
BRANCH  14  15
ATOM     15  C   UNL     1      -4.919  93.760  -8.072  1.00  0.00    -0.000 C 
BRANCH  15  16
ATOM     16  C   UNL     1      -4.491  94.947  -8.956  1.00  0.00    -0.000 C 
BRANCH  16  17
ATOM     17  C   UNL     1      -3.141  94.733  -9.672  1.00  0.00    -0.003 C 
ATOM     18  C   UNL     1      -3.105  95.357 -11.067  1.00  0.00     0.004 C 
ENDBRANCH  16  17
ENDBRANCH  15  16
ENDBRANCH  14  15
ENDBRANCH  13  14
ENDBRANCH  12  13
ENDBRANCH  11  12
ENDBRANCH   1  11
TORSDOF 14
ENDMDL
MODEL 4
REMARK VINA RESULT:    -3.527      8.667     11.036
REMARK INTER + INTRA:          -8.172
REMARK INTER:                  -6.469
REMARK INTRA:                  -1.703
REMARK UNBOUND:                -1.759
REMARK SMILES CCCCCCCCCCCCCCCC(=O)[O-]
REMARK SMILES IDX 9 1 10 2 11 3 12 4 13 5 14 6 15 7 16 8 17 9 18 10 8 11 7 12
REMARK SMILES IDX 6 13 5 14 4 15 3 16 2 17 1 18
REMARK H PARENT
REMARK Flexibility Score: inf
ROOT
ATOM      1  C   UNL     1      -5.562  91.291 -11.990  1.00  0.00     0.000 C 
ENDROOT
BRANCH   1   2
ATOM      2  C   UNL     1      -5.986  89.937 -12.581  1.00  0.00     0.000 C 
BRANCH   2   3
ATOM      3  C   UNL     1      -5.464  89.780 -14.018  1.00  0.00     0.000 C 
BRANCH   3   4
ATOM      4  C   UNL     1      -6.394  90.419 -15.061  1.00  0.00     0.000 C 
BRANCH   4   5
ATOM      5  C   UNL     1      -5.689  91.491 -15.905  1.00  0.00     0.000 C 
BRANCH   5   6
ATOM      6  C   UNL     1      -4.215  91.125 -16.138  1.00  0.00     0.006 C 
BRANCH   6   7
ATOM      7  C   UNL     1      -3.332  92.364 -16.335  1.00  0.00     0.053 C 
BRANCH   7   8
ATOM      8  C   UNL     1      -2.546  92.291 -17.608  1.00  0.00     0.041 C 
ATOM      9  O   UNL     1      -2.029  93.333 -18.094  1.00  0.00    -0.550 OA
ATOM     10  O   UNL     1      -2.354  91.069 -18.240  1.00  0.00    -0.550 OA
ENDBRANCH   7   8
ENDBRANCH   6   7
ENDBRANCH   5   6
ENDBRANCH   4   5
ENDBRANCH   3   4
ENDBRANCH   2   3
ENDBRANCH   1   2
BRANCH   1  11
ATOM     11  C   UNL     1      -4.122  91.679 -12.365  1.00  0.00     0.000 C 
BRANCH  11  12
ATOM     12  C   UNL     1      -4.012  93.135 -12.851  1.00  0.00    -0.000 C 
BRANCH  12  13
ATOM     13  C   UNL     1      -4.479  94.154 -11.797  1.00  0.00    -0.000 C 
BRANCH  13  14
ATOM     14  C   UNL     1      -3.353  94.956 -11.111  1.00  0.00    -0.000 C 
BRANCH  14  15
ATOM     15  C   UNL     1      -3.297  94.826  -9.578  1.00  0.00    -0.000 C 
BRANCH  15  16
ATOM     16  C   UNL     1      -4.034  93.601  -9.003  1.00  0.00    -0.000 C 
BRANCH  16  17
ATOM     17  C   UNL     1      -5.239  93.964  -8.111  1.00  0.00    -0.003 C 
ATOM     18  C   UNL     1      -5.475  95.472  -8.021  1.00  0.00     0.004 C 
ENDBRANCH  16  17
ENDBRANCH  15  16
ENDBRANCH  14  15
ENDBRANCH  13  14
ENDBRANCH  12  13
ENDBRANCH  11  12
ENDBRANCH   1  11
TORSDOF 14
ENDMDL
MODEL 5
REMARK VINA RESULT:    -3.504      3.759      7.758
REMARK INTER + INTRA:          -8.130
REMARK INTER:                  -7.196
REMARK INTRA:                  -0.934
REMARK UNBOUND:                -1.759
REMARK SMILES CCCCCCCCCCCCCCCC(=O)[O-]
REMARK SMILES IDX 9 1 10 2 11 3 12 4 13 5 14 6 15 7 16 8 17 9 18 10 8 11 7 12
REMARK SMILES IDX 6 13 5 14 4 15 3 16 2 17 1 18
REMARK H PARENT
REMARK Flexibility Score: inf
ROOT
ATOM      1  C   UNL     1      -6.205  84.165  -9.671  1.00  0.00     0.000 C 
ENDROOT
BRANCH   1   2
ATOM      2  C   UNL     1      -5.286  82.964  -9.943  1.00  0.00     0.000 C 
BRANCH   2   3
ATOM      3  C   UNL     1      -3.988  83.072  -9.127  1.00  0.00     0.000 C 
BRANCH   3   4
ATOM      4  C   UNL     1      -4.221  83.626  -7.713  1.00  0.00     0.000 C 
BRANCH   4   5
ATOM      5  C   UNL     1      -3.245  84.757  -7.352  1.00  0.00     0.000 C 
BRANCH   5   6
ATOM      6  C   UNL     1      -3.084  85.737  -8.524  1.00  0.00     0.006 C 
BRANCH   6   7
ATOM      7  C   UNL     1      -2.745  87.158  -8.052  1.00  0.00     0.053 C 
BRANCH   7   8
ATOM      8  C   UNL     1      -3.898  88.096  -8.240  1.00  0.00     0.041 C 
ATOM      9  O   UNL     1      -5.062  87.742  -7.913  1.00  0.00    -0.550 OA
ATOM     10  O   UNL     1      -3.683  89.373  -8.743  1.00  0.00    -0.550 OA
ENDBRANCH   7   8
ENDBRANCH   6   7
ENDBRANCH   5   6
ENDBRANCH   4   5
ENDBRANCH   3   4
ENDBRANCH   2   3
ENDBRANCH   1   2
BRANCH   1  11
ATOM     11  C   UNL     1      -7.687  83.768  -9.570  1.00  0.00     0.000 C 
BRANCH  11  12
ATOM     12  C   UNL     1      -8.205  83.788  -8.122  1.00  0.00    -0.000 C 
BRANCH  12  13
ATOM     13  C   UNL     1      -9.557  83.071  -7.961  1.00  0.00    -0.000 C 
BRANCH  13  14
ATOM     14  C   UNL     1     -10.119  82.427  -9.246  1.00  0.00    -0.000 C 
BRANCH  14  15
ATOM     15  C   UNL     1     -11.579  82.788  -9.576  1.00  0.00    -0.000 C 
BRANCH  15  16
ATOM     16  C   UNL     1     -12.323  81.754 -10.442  1.00  0.00    -0.000 C 
BRANCH  16  17
ATOM     17  C   UNL     1     -11.864  81.733 -11.915  1.00  0.00    -0.003 C 
ATOM     18  C   UNL     1     -13.034  81.711 -12.899  1.00  0.00     0.004 C 
ENDBRANCH  16  17
ENDBRANCH  15  16
ENDBRANCH  14  15
ENDBRANCH  13  14
ENDBRANCH  12  13
ENDBRANCH  11  12
ENDBRANCH   1  11
TORSDOF 14
ENDMDL
MODEL 6
REMARK VINA RESULT:    -3.499      8.118     10.318
REMARK INTER + INTRA:          -8.120
REMARK INTER:                  -5.968
REMARK INTRA:                  -2.152
REMARK UNBOUND:                -1.759
REMARK SMILES CCCCCCCCCCCCCCCC(=O)[O-]
REMARK SMILES IDX 9 1 10 2 11 3 12 4 13 5 14 6 15 7 16 8 17 9 18 10 8 11 7 12
REMARK SMILES IDX 6 13 5 14 4 15 3 16 2 17 1 18
REMARK H PARENT
REMARK Flexibility Score: inf
ROOT
ATOM      1  C   UNL     1      -6.293  92.313 -11.785  1.00  0.00     0.000 C 
ENDROOT
BRANCH   1   2
ATOM      2  C   UNL     1      -5.428  91.049 -11.664  1.00  0.00     0.000 C 
BRANCH   2   3
ATOM      3  C   UNL     1      -6.282  89.783 -11.837  1.00  0.00     0.000 C 
BRANCH   3   4
ATOM      4  C   UNL     1      -6.760  89.582 -13.283  1.00  0.00     0.000 C 
BRANCH   4   5
ATOM      5  C   UNL     1      -5.615  89.675 -14.304  1.00  0.00     0.000 C 
BRANCH   5   6
ATOM      6  C   UNL     1      -5.941  90.699 -15.402  1.00  0.00     0.006 C 
BRANCH   6   7
ATOM      7  C   UNL     1      -4.857  90.753 -16.487  1.00  0.00     0.053 C 
BRANCH   7   8
ATOM      8  C   UNL     1      -3.753  91.698 -16.124  1.00  0.00     0.041 C 
ATOM      9  O   UNL     1      -2.665  91.256 -15.666  1.00  0.00    -0.550 OA
ATOM     10  O   UNL     1      -3.910  93.064 -16.322  1.00  0.00    -0.550 OA
ENDBRANCH   7   8
ENDBRANCH   6   7
ENDBRANCH   5   6
ENDBRANCH   4   5
ENDBRANCH   3   4
ENDBRANCH   2   3
ENDBRANCH   1   2
BRANCH   1  11
ATOM     11  C   UNL     1      -5.696  93.354 -12.746  1.00  0.00     0.000 C 
BRANCH  11  12
ATOM     12  C   UNL     1      -4.157  93.332 -12.755  1.00  0.00    -0.000 C 
BRANCH  12  13
ATOM     13  C   UNL     1      -3.539  94.366 -11.798  1.00  0.00    -0.000 C 
BRANCH  13  14
ATOM     14  C   UNL     1      -4.507  95.455 -11.290  1.00  0.00    -0.000 C 
BRANCH  14  15
ATOM     15  C   UNL     1      -4.772  95.441  -9.773  1.00  0.00    -0.000 C 
BRANCH  15  16
ATOM     16  C   UNL     1      -3.988  94.372  -8.988  1.00  0.00    -0.000 C 
BRANCH  16  17
ATOM     17  C   UNL     1      -4.859  93.192  -8.510  1.00  0.00    -0.003 C 
ATOM     18  C   UNL     1      -4.037  91.947  -8.174  1.00  0.00     0.004 C 
ENDBRANCH  16  17
ENDBRANCH  15  16
ENDBRANCH  14  15
ENDBRANCH  13  14
ENDBRANCH  12  13
ENDBRANCH  11  12
ENDBRANCH   1  11
TORSDOF 14
ENDMDL
MODEL 7
REMARK VINA RESULT:    -3.486      7.534      9.942
REMARK INTER + INTRA:          -8.098
REMARK INTER:                  -6.463
REMARK INTRA:                  -1.635
REMARK UNBOUND:                -1.759
REMARK SMILES CCCCCCCCCCCCCCCC(=O)[O-]
REMARK SMILES IDX 9 1 10 2 11 3 12 4 13 5 14 6 15 7 16 8 17 9 18 10 8 11 7 12
REMARK SMILES IDX 6 13 5 14 4 15 3 16 2 17 1 18
REMARK H PARENT
REMARK Flexibility Score: inf
ROOT
ATOM      1  C   UNL     1      -4.644  93.950 -11.710  1.00  0.00     0.000 C 
ENDROOT
BRANCH   1   2
ATOM      2  C   UNL     1      -4.074  93.087 -12.846  1.00  0.00     0.000 C 
BRANCH   2   3
ATOM      3  C   UNL     1      -4.143  91.594 -12.488  1.00  0.00     0.000 C 
BRANCH   3   4
ATOM      4  C   UNL     1      -5.576  91.041 -12.527  1.00  0.00     0.000 C 
BRANCH   4   5
ATOM      5  C   UNL     1      -5.688  89.747 -13.349  1.00  0.00     0.000 C 
BRANCH   5   6
ATOM      6  C   UNL     1      -6.481  89.987 -14.642  1.00  0.00     0.006 C 
BRANCH   6   7
ATOM      7  C   UNL     1      -5.569  90.320 -15.831  1.00  0.00     0.053 C 
BRANCH   7   8
ATOM      8  C   UNL     1      -5.923  91.637 -16.452  1.00  0.00     0.041 C 
ATOM      9  O   UNL     1      -6.210  92.624 -15.723  1.00  0.00    -0.550 OA
ATOM     10  O   UNL     1      -5.902  91.785 -17.833  1.00  0.00    -0.550 OA
ENDBRANCH   7   8
ENDBRANCH   6   7
ENDBRANCH   5   6
ENDBRANCH   4   5
ENDBRANCH   3   4
ENDBRANCH   2   3
ENDBRANCH   1   2
BRANCH   1  11
ATOM     11  C   UNL     1      -3.618  94.947 -11.148  1.00  0.00     0.000 C 
BRANCH  11  12
ATOM     12  C   UNL     1      -3.352  94.736  -9.647  1.00  0.00    -0.000 C 
BRANCH  12  13
ATOM     13  C   UNL     1      -4.599  94.979  -8.779  1.00  0.00    -0.000 C 
BRANCH  13  14
ATOM     14  C   UNL     1      -4.920  93.866  -7.759  1.00  0.00    -0.000 C 
BRANCH  14  15
ATOM     15  C   UNL     1      -4.183  92.534  -7.990  1.00  0.00    -0.000 C 
BRANCH  15  16
ATOM     16  C   UNL     1      -4.994  91.467  -8.748  1.00  0.00    -0.000 C 
BRANCH  16  17
ATOM     17  C   UNL     1      -4.165  90.230  -9.154  1.00  0.00    -0.003 C 
ATOM     18  C   UNL     1      -4.412  89.028  -8.242  1.00  0.00     0.004 C 
ENDBRANCH  16  17
ENDBRANCH  15  16
ENDBRANCH  14  15
ENDBRANCH  13  14
ENDBRANCH  12  13
ENDBRANCH  11  12
ENDBRANCH   1  11
TORSDOF 14
ENDMDL
MODEL 8
REMARK VINA RESULT:    -3.478      7.928     10.508
REMARK INTER + INTRA:          -8.084
REMARK INTER:                  -5.906
REMARK INTRA:                  -2.178
REMARK UNBOUND:                -1.759
REMARK SMILES CCCCCCCCCCCCCCCC(=O)[O-]
REMARK SMILES IDX 9 1 10 2 11 3 12 4 13 5 14 6 15 7 16 8 17 9 18 10 8 11 7 12
REMARK SMILES IDX 6 13 5 14 4 15 3 16 2 17 1 18
REMARK H PARENT
REMARK Flexibility Score: inf
ROOT
ATOM      1  C   UNL     1      -4.071  93.083 -12.883  1.00  0.00     0.000 C 
ENDROOT
BRANCH   1   2
ATOM      2  C   UNL     1      -4.493  94.297 -12.042  1.00  0.00     0.000 C 
BRANCH   2   3
ATOM      3  C   UNL     1      -3.304  94.847 -11.239  1.00  0.00     0.000 C 
BRANCH   3   4
ATOM      4  C   UNL     1      -3.519  94.753  -9.720  1.00  0.00     0.000 C 
BRANCH   4   5
ATOM      5  C   UNL     1      -4.910  94.215  -9.352  1.00  0.00     0.000 C 
BRANCH   5   6
ATOM      6  C   UNL     1      -4.871  93.467  -8.010  1.00  0.00     0.006 C 
BRANCH   6   7
ATOM      7  C   UNL     1      -3.939  92.249  -8.050  1.00  0.00     0.053 C 
BRANCH   7   8
ATOM      8  C   UNL     1      -4.680  90.993  -8.395  1.00  0.00     0.041 C 
ATOM      9  O   UNL     1      -5.918  90.909  -8.179  1.00  0.00    -0.550 OA
ATOM     10  O   UNL     1      -4.011  89.928  -8.985  1.00  0.00    -0.550 OA
ENDBRANCH   7   8
ENDBRANCH   6   7
ENDBRANCH   5   6
ENDBRANCH   4   5
ENDBRANCH   3   4
ENDBRANCH   2   3
ENDBRANCH   1   2
BRANCH   1  11
ATOM     11  C   UNL     1      -4.233  91.753 -12.130  1.00  0.00     0.000 C 
BRANCH  11  12
ATOM     12  C   UNL     1      -5.706  91.338 -11.976  1.00  0.00    -0.000 C 
BRANCH  12  13
ATOM     13  C   UNL     1      -5.970  89.891 -12.431  1.00  0.00    -0.000 C 
BRANCH  13  14
ATOM     14  C   UNL     1      -6.571  89.744 -13.845  1.00  0.00    -0.000 C 
BRANCH  14  15
ATOM     15  C   UNL     1      -5.604  90.053 -15.003  1.00  0.00    -0.000 C 
BRANCH  15  16
ATOM     16  C   UNL     1      -5.941  91.323 -15.808  1.00  0.00    -0.000 C 
BRANCH  16  17
ATOM     17  C   UNL     1      -7.216  92.045 -15.323  1.00  0.00    -0.003 C 
ATOM     18  C   UNL     1      -6.974  93.518 -14.997  1.00  0.00     0.004 C 
ENDBRANCH  16  17
ENDBRANCH  15  16
ENDBRANCH  14  15
ENDBRANCH  13  14
ENDBRANCH  12  13
ENDBRANCH  11  12
ENDBRANCH   1  11
TORSDOF 14
ENDMDL
MODEL 9
REMARK VINA RESULT:    -3.451      6.125      9.371
REMARK INTER + INTRA:          -8.034
REMARK INTER:                  -6.541
REMARK INTRA:                  -1.492
REMARK UNBOUND:                -1.759
REMARK SMILES CCCCCCCCCCCCCCCC(=O)[O-]
REMARK SMILES IDX 9 1 10 2 11 3 12 4 13 5 14 6 15 7 16 8 17 9 18 10 8 11 7 12
REMARK SMILES IDX 6 13 5 14 4 15 3 16 2 17 1 18
REMARK H PARENT
REMARK Flexibility Score: inf
ROOT
ATOM      1  C   UNL     1      -4.713  94.919  -8.999  1.00  0.00     0.000 C 
ENDROOT
BRANCH   1   2
ATOM      2  C   UNL     1      -4.947  93.809  -7.963  1.00  0.00     0.000 C 
BRANCH   2   3
ATOM      3  C   UNL     1      -4.100  92.569  -8.288  1.00  0.00     0.000 C 
BRANCH   3   4
ATOM      4  C   UNL     1      -4.952  91.358  -8.699  1.00  0.00     0.000 C 
BRANCH   4   5
ATOM      5  C   UNL     1      -4.102  90.131  -9.060  1.00  0.00     0.000 C 
BRANCH   5   6
ATOM      6  C   UNL     1      -4.360  88.977  -8.080  1.00  0.00     0.006 C 
BRANCH   6   7
ATOM      7  C   UNL     1      -3.274  87.895  -8.155  1.00  0.00     0.053 C 
BRANCH   7   8
ATOM      8  C   UNL     1      -3.817  86.596  -8.666  1.00  0.00     0.041 C 
ATOM      9  O   UNL     1      -4.972  86.546  -9.167  1.00  0.00    -0.550 OA
ATOM     10  O   UNL     1      -3.036  85.448  -8.622  1.00  0.00    -0.550 OA
ENDBRANCH   7   8
ENDBRANCH   6   7
ENDBRANCH   5   6
ENDBRANCH   4   5
ENDBRANCH   3   4
ENDBRANCH   2   3
ENDBRANCH   1   2
BRANCH   1  11
ATOM     11  C   UNL     1      -3.338  94.817  -9.679  1.00  0.00     0.000 C 
BRANCH  11  12
ATOM     12  C   UNL     1      -3.431  94.905 -11.212  1.00  0.00    -0.000 C 
BRANCH  12  13
ATOM     13  C   UNL     1      -4.487  93.954 -11.802  1.00  0.00    -0.000 C 
BRANCH  13  14
ATOM     14  C   UNL     1      -3.972  92.990 -12.891  1.00  0.00    -0.000 C 
BRANCH  14  15
ATOM     15  C   UNL     1      -4.157  91.493 -12.582  1.00  0.00    -0.000 C 
BRANCH  15  16
ATOM     16  C   UNL     1      -5.617  91.052 -12.364  1.00  0.00    -0.000 C 
BRANCH  16  17
ATOM     17  C   UNL     1      -6.085  89.952 -13.339  1.00  0.00    -0.003 C 
ATOM     18  C   UNL     1      -5.493  90.111 -14.739  1.00  0.00     0.004 C 
ENDBRANCH  16  17
ENDBRANCH  15  16
ENDBRANCH  14  15
ENDBRANCH  13  14
ENDBRANCH  12  13
ENDBRANCH  11  12
ENDBRANCH   1  11
TORSDOF 14
ENDMDL
