MODEL 1
REMARK VINA RESULT:    24.162      0.000      0.000
REMARK INTER + INTRA:          63.435
REMARK INTER:                  63.712
REMARK INTRA:                  -0.277
REMARK UNBOUND:                -0.277
REMARK SMILES CCCCCCCCCCCCCCCCCCCCCCCCCCCCCC(=O)[O-]
REMARK SMILES IDX 16 1 17 2 18 3 19 4 20 5 21 6 22 7 23 8 24 9 25 10 26 11
REMARK SMILES IDX 27 12 28 13 29 14 30 15 31 16 32 17 15 18 14 19 13 20 12 21
REMARK SMILES IDX 11 22 10 23 9 24 8 25 7 26 6 27 5 28 4 29 3 30 2 31 1 32
REMARK H PARENT
REMARK Flexibility Score: inf
ROOT
ATOM      1  C   UNL     1       2.843  44.062  20.743  1.00  0.00     0.000 C 
ENDROOT
BRANCH   1   2
ATOM      2  C   UNL     1       2.368  43.434  22.068  1.00  0.00     0.000 C 
BRANCH   2   3
ATOM      3  C   UNL     1       2.883  42.008  22.332  1.00  0.00     0.000 C 
BRANCH   3   4
ATOM      4  C   UNL     1       3.982  41.961  23.404  1.00  0.00     0.000 C 
BRANCH   4   5
ATOM      5  C   UNL     1       5.242  41.268  22.868  1.00  0.00     0.000 C 
BRANCH   5   6
ATOM      6  C   UNL     1       6.475  42.192  22.851  1.00  0.00     0.000 C 
BRANCH   6   7
ATOM      7  C   UNL     1       7.726  41.599  22.178  1.00  0.00     0.000 C 
BRANCH   7   8
ATOM      8  C   UNL     1       9.006  42.388  22.491  1.00  0.00     0.000 C 
BRANCH   8   9
ATOM      9  C   UNL     1       9.063  43.687  21.678  1.00  0.00     0.000 C 
BRANCH   9  10
ATOM     10  C   UNL     1       9.763  43.465  20.333  1.00  0.00     0.000 C 
BRANCH  10  11
ATOM     11  C   UNL     1       9.165  42.260  19.590  1.00  0.00     0.000 C 
BRANCH  11  12
ATOM     12  C   UNL     1      10.231  41.474  18.797  1.00  0.00     0.000 C 
BRANCH  12  13
ATOM     13  C   UNL     1       9.906  41.329  17.301  1.00  0.00     0.006 C 
BRANCH  13  14
ATOM     14  C   UNL     1      11.142  41.014  16.449  1.00  0.00     0.053 C 
BRANCH  14  15
ATOM     15  C   UNL     1      11.523  39.573  16.587  1.00  0.00     0.041 C 
ATOM     16  O   UNL     1      12.509  39.113  15.951  1.00  0.00    -0.550 OA
ATOM     17  O   UNL     1      10.773  38.729  17.397  1.00  0.00    -0.550 OA
ENDBRANCH  14  15
ENDBRANCH  13  14
ENDBRANCH  12  13
ENDBRANCH  11  12
ENDBRANCH  10  11
ENDBRANCH   9  10
ENDBRANCH   8   9
ENDBRANCH   7   8
ENDBRANCH   6   7
ENDBRANCH   5   6
ENDBRANCH   4   5
ENDBRANCH   3   4
ENDBRANCH   2   3
ENDBRANCH   1   2
BRANCH   1  18
ATOM     18  C   UNL     1       1.885  45.102  20.133  1.00  0.00     0.000 C 
BRANCH  18  19
ATOM     19  C   UNL     1       2.493  45.837  18.928  1.00  0.00     0.000 C 
BRANCH  19  20
ATOM     20  C   UNL     1       2.514  44.937  17.684  1.00  0.00     0.000 C 
BRANCH  20  21
ATOM     21  C   UNL     1       3.467  45.454  16.595  1.00  0.00     0.000 C 
BRANCH  21  22
ATOM     22  C   UNL     1       3.065  46.837  16.062  1.00  0.00     0.000 C 
BRANCH  22  23
ATOM     23  C   UNL     1       2.846  46.800  14.545  1.00  0.00     0.000 C 
BRANCH  23  24
ATOM     24  C   UNL     1       3.834  47.729  13.824  1.00  0.00    -0.000 C 
BRANCH  24  25
ATOM     25  C   UNL     1       3.435  48.016  12.365  1.00  0.00    -0.000 C 
BRANCH  25  26
ATOM     26  C   UNL     1       4.612  48.279  11.408  1.00  0.00    -0.000 C 
BRANCH  26  27
ATOM     27  C   UNL     1       4.179  48.376   9.938  1.00  0.00    -0.000 C 
BRANCH  27  28
ATOM     28  C   UNL     1       4.783  49.620   9.269  1.00  0.00    -0.000 C 
BRANCH  28  29
ATOM     29  C   UNL     1       6.310  49.699   9.424  1.00  0.00    -0.000 C 
BRANCH  29  30
ATOM     30  C   UNL     1       6.965  48.312   9.550  1.00  0.00    -0.000 C 
BRANCH  30  31
ATOM     31  C   UNL     1       8.211  48.333  10.450  1.00  0.00    -0.003 C 
ATOM     32  C   UNL     1       7.994  47.605  11.776  1.00  0.00     0.004 C 
ENDBRANCH  30  31
ENDBRANCH  29  30
ENDBRANCH  28  29
ENDBRANCH  27  28
ENDBRANCH  26  27
ENDBRANCH  25  26
ENDBRANCH  24  25
ENDBRANCH  23  24
ENDBRANCH  22  23
ENDBRANCH  21  22
ENDBRANCH  20  21
ENDBRANCH  19  20
ENDBRANCH  18  19
ENDBRANCH   1  18
TORSDOF 28
ENDMDL
MODEL 2
REMARK VINA RESULT:    25.142      2.761     10.673
REMARK INTER + INTRA:          66.019
REMARK INTER:                  65.891
REMARK INTRA:                   0.128
REMARK UNBOUND:                -0.277
REMARK SMILES CCCCCCCCCCCCCCCCCCCCCCCCCCCCCC(=O)[O-]
REMARK SMILES IDX 16 1 17 2 18 3 19 4 20 5 21 6 22 7 23 8 24 9 25 10 26 11
REMARK SMILES IDX 27 12 28 13 29 14 30 15 31 16 32 17 15 18 14 19 13 20 12 21
REMARK SMILES IDX 11 22 10 23 9 24 8 25 7 26 6 27 5 28 4 29 3 30 2 31 1 32
REMARK H PARENT
REMARK Flexibility Score: inf
ROOT
ATOM      1  C   UNL     1       2.377  46.749  18.994  1.00  0.00     0.000 C 
ENDROOT
BRANCH   1   2
ATOM      2  C   UNL     1       2.003  46.884  17.505  1.00  0.00     0.000 C 
BRANCH   2   3
ATOM      3  C   UNL     1       3.100  46.448  16.517  1.00  0.00     0.000 C 
BRANCH   3   4
ATOM      4  C   UNL     1       2.912  47.048  15.117  1.00  0.00     0.000 C 
BRANCH   4   5
ATOM      5  C   UNL     1       4.015  48.068  14.804  1.00  0.00     0.000 C 
BRANCH   5   6
ATOM      6  C   UNL     1       4.621  47.887  13.399  1.00  0.00     0.000 C 
BRANCH   6   7
ATOM      7  C   UNL     1       3.600  47.872  12.246  1.00  0.00     0.000 C 
BRANCH   7   8
ATOM      8  C   UNL     1       4.260  47.962  10.862  1.00  0.00     0.000 C 
BRANCH   8   9
ATOM      9  C   UNL     1       3.708  49.152  10.067  1.00  0.00     0.000 C 
BRANCH   9  10
ATOM     10  C   UNL     1       4.816  49.834   9.256  1.00  0.00     0.000 C 
BRANCH  10  11
ATOM     11  C   UNL     1       5.918  48.834   8.875  1.00  0.00     0.000 C 
BRANCH  11  12
ATOM     12  C   UNL     1       7.329  49.362   9.215  1.00  0.00     0.000 C 
BRANCH  12  13
ATOM     13  C   UNL     1       8.390  48.256   9.339  1.00  0.00     0.006 C 
BRANCH  13  14
ATOM     14  C   UNL     1       7.977  47.137  10.302  1.00  0.00     0.053 C 
BRANCH  14  15
ATOM     15  C   UNL     1       7.988  47.628  11.716  1.00  0.00     0.041 C 
ATOM     16  O   UNL     1       6.925  48.044  12.252  1.00  0.00    -0.550 OA
ATOM     17  O   UNL     1       9.177  47.653  12.435  1.00  0.00    -0.550 OA
ENDBRANCH  14  15
ENDBRANCH  13  14
ENDBRANCH  12  13
ENDBRANCH  11  12
ENDBRANCH  10  11
ENDBRANCH   9  10
ENDBRANCH   8   9
ENDBRANCH   7   8
ENDBRANCH   6   7
ENDBRANCH   5   6
ENDBRANCH   4   5
ENDBRANCH   3   4
ENDBRANCH   2   3
ENDBRANCH   1   2
BRANCH   1  18
ATOM     18  C   UNL     1       1.541  45.728  19.787  1.00  0.00     0.000 C 
BRANCH  18  19
ATOM     19  C   UNL     1       2.272  44.391  19.993  1.00  0.00     0.000 C 
BRANCH  19  20
ATOM     20  C   UNL     1       2.216  43.950  21.463  1.00  0.00     0.000 C 
BRANCH  20  21
ATOM     21  C   UNL     1       3.469  43.173  21.896  1.00  0.00     0.000 C 
BRANCH  21  22
ATOM     22  C   UNL     1       3.138  41.794  22.487  1.00  0.00     0.000 C 
BRANCH  22  23
ATOM     23  C   UNL     1       3.959  41.527  23.754  1.00  0.00     0.000 C 
BRANCH  23  24
ATOM     24  C   UNL     1       5.420  41.206  23.405  1.00  0.00    -0.000 C 
BRANCH  24  25
ATOM     25  C   UNL     1       6.233  42.453  23.012  1.00  0.00    -0.000 C 
BRANCH  25  26
ATOM     26  C   UNL     1       7.741  42.366  23.305  1.00  0.00    -0.000 C 
BRANCH  26  27
ATOM     27  C   UNL     1       8.578  42.067  22.053  1.00  0.00    -0.000 C 
BRANCH  27  28
ATOM     28  C   UNL     1       9.268  43.339  21.537  1.00  0.00    -0.000 C 
BRANCH  28  29
ATOM     29  C   UNL     1       9.211  43.468  20.006  1.00  0.00    -0.000 C 
BRANCH  29  30
ATOM     30  C   UNL     1      10.255  42.588  19.297  1.00  0.00    -0.000 C 
BRANCH  30  31
ATOM     31  C   UNL     1       9.724  41.177  18.999  1.00  0.00    -0.003 C 
ATOM     32  C   UNL     1       9.137  41.051  17.594  1.00  0.00     0.004 C 
ENDBRANCH  30  31
ENDBRANCH  29  30
ENDBRANCH  28  29
ENDBRANCH  27  28
ENDBRANCH  26  27
ENDBRANCH  25  26
ENDBRANCH  24  25
ENDBRANCH  23  24
ENDBRANCH  22  23
ENDBRANCH  21  22
ENDBRANCH  20  21
ENDBRANCH  19  20
ENDBRANCH  18  19
ENDBRANCH   1  18
TORSDOF 28
ENDMDL
MODEL 3
REMARK VINA RESULT:    25.542      3.096     10.226
REMARK INTER + INTRA:          67.073
REMARK INTER:                  68.507
REMARK INTRA:                  -1.434
REMARK UNBOUND:                -0.277
REMARK SMILES CCCCCCCCCCCCCCCCCCCCCCCCCCCCCC(=O)[O-]
REMARK SMILES IDX 16 1 17 2 18 3 19 4 20 5 21 6 22 7 23 8 24 9 25 10 26 11
REMARK SMILES IDX 27 12 28 13 29 14 30 15 31 16 32 17 15 18 14 19 13 20 12 21
REMARK SMILES IDX 11 22 10 23 9 24 8 25 7 26 6 27 5 28 4 29 3 30 2 31 1 32
REMARK H PARENT
REMARK Flexibility Score: inf
ROOT
ATOM      1  C   UNL     1       1.915  45.014  20.867  1.00  0.00     0.000 C 
ENDROOT
BRANCH   1   2
ATOM      2  C   UNL     1       1.783  45.582  19.439  1.00  0.00     0.000 C 
BRANCH   2   3
ATOM      3  C   UNL     1       3.043  45.446  18.567  1.00  0.00     0.000 C 
BRANCH   3   4
ATOM      4  C   UNL     1       2.757  44.791  17.208  1.00  0.00     0.000 C 
BRANCH   4   5
ATOM      5  C   UNL     1       3.222  45.694  16.056  1.00  0.00     0.000 C 
BRANCH   5   6
ATOM      6  C   UNL     1       2.816  47.167  16.246  1.00  0.00     0.000 C 
BRANCH   6   7
ATOM      7  C   UNL     1       2.827  48.017  14.963  1.00  0.00     0.000 C 
BRANCH   7   8
ATOM      8  C   UNL     1       3.523  47.317  13.786  1.00  0.00     0.000 C 
BRANCH   8   9
ATOM      9  C   UNL     1       4.264  48.330  12.904  1.00  0.00     0.000 C 
BRANCH   9  10
ATOM     10  C   UNL     1       4.415  47.806  11.471  1.00  0.00     0.000 C 
BRANCH  10  11
ATOM     11  C   UNL     1       3.728  48.741  10.465  1.00  0.00     0.000 C 
BRANCH  11  12
ATOM     12  C   UNL     1       4.372  48.666   9.064  1.00  0.00     0.000 C 
BRANCH  12  13
ATOM     13  C   UNL     1       5.782  49.278   8.998  1.00  0.00     0.006 C 
BRANCH  13  14
ATOM     14  C   UNL     1       6.890  48.219   8.945  1.00  0.00     0.053 C 
BRANCH  14  15
ATOM     15  C   UNL     1       8.027  48.601   9.840  1.00  0.00     0.041 C 
ATOM     16  O   UNL     1       8.541  49.749   9.758  1.00  0.00    -0.550 OA
ATOM     17  O   UNL     1       8.537  47.681  10.748  1.00  0.00    -0.550 OA
ENDBRANCH  14  15
ENDBRANCH  13  14
ENDBRANCH  12  13
ENDBRANCH  11  12
ENDBRANCH  10  11
ENDBRANCH   9  10
ENDBRANCH   8   9
ENDBRANCH   7   8
ENDBRANCH   6   7
ENDBRANCH   5   6
ENDBRANCH   4   5
ENDBRANCH   3   4
ENDBRANCH   2   3
ENDBRANCH   1   2
BRANCH   1  18
ATOM     18  C   UNL     1       2.096  43.488  20.948  1.00  0.00     0.000 C 
BRANCH  18  19
ATOM     19  C   UNL     1       2.466  43.006  22.360  1.00  0.00     0.000 C 
BRANCH  19  20
ATOM     20  C   UNL     1       2.686  41.486  22.386  1.00  0.00     0.000 C 
BRANCH  20  21
ATOM     21  C   UNL     1       4.160  41.105  22.596  1.00  0.00     0.000 C 
BRANCH  21  22
ATOM     22  C   UNL     1       4.777  41.779  23.831  1.00  0.00     0.000 C 
BRANCH  22  23
ATOM     23  C   UNL     1       5.858  42.788  23.424  1.00  0.00     0.000 C 
BRANCH  23  24
ATOM     24  C   UNL     1       7.142  42.071  22.983  1.00  0.00    -0.000 C 
BRANCH  24  25
ATOM     25  C   UNL     1       8.319  43.036  22.748  1.00  0.00    -0.000 C 
BRANCH  25  26
ATOM     26  C   UNL     1       9.363  42.552  21.725  1.00  0.00    -0.000 C 
BRANCH  26  27
ATOM     27  C   UNL     1       8.793  41.537  20.724  1.00  0.00    -0.000 C 
BRANCH  27  28
ATOM     28  C   UNL     1       9.456  41.692  19.346  1.00  0.00    -0.000 C 
BRANCH  28  29
ATOM     29  C   UNL     1       9.099  40.552  18.381  1.00  0.00    -0.000 C 
BRANCH  29  30
ATOM     30  C   UNL     1       9.511  40.853  16.929  1.00  0.00    -0.000 C 
BRANCH  30  31
ATOM     31  C   UNL     1      11.006  41.184  16.801  1.00  0.00    -0.003 C 
ATOM     32  C   UNL     1      11.317  42.058  15.587  1.00  0.00     0.004 C 
ENDBRANCH  30  31
ENDBRANCH  29  30
ENDBRANCH  28  29
ENDBRANCH  27  28
ENDBRANCH  26  27
ENDBRANCH  25  26
ENDBRANCH  24  25
ENDBRANCH  23  24
ENDBRANCH  22  23
ENDBRANCH  21  22
ENDBRANCH  20  21
ENDBRANCH  19  20
ENDBRANCH  18  19
ENDBRANCH   1  18
TORSDOF 28
ENDMDL
MODEL 4
REMARK VINA RESULT:    25.562      2.285      4.273
REMARK INTER + INTRA:          67.126
REMARK INTER:                  68.669
REMARK INTRA:                  -1.543
REMARK UNBOUND:                -0.277
REMARK SMILES CCCCCCCCCCCCCCCCCCCCCCCCCCCCCC(=O)[O-]
REMARK SMILES IDX 16 1 17 2 18 3 19 4 20 5 21 6 22 7 23 8 24 9 25 10 26 11
REMARK SMILES IDX 27 12 28 13 29 14 30 15 31 16 32 17 15 18 14 19 13 20 12 21
REMARK SMILES IDX 11 22 10 23 9 24 8 25 7 26 6 27 5 28 4 29 3 30 2 31 1 32
REMARK H PARENT
REMARK Flexibility Score: inf
ROOT
ATOM      1  C   UNL     1       3.545  45.083  17.244  1.00  0.00     0.000 C 
ENDROOT
BRANCH   1   2
ATOM      2  C   UNL     1       2.380  44.746  18.196  1.00  0.00     0.000 C 
BRANCH   2   3
ATOM      3  C   UNL     1       2.258  45.666  19.424  1.00  0.00     0.000 C 
BRANCH   3   4
ATOM      4  C   UNL     1       1.760  44.925  20.674  1.00  0.00     0.000 C 
BRANCH   4   5
ATOM      5  C   UNL     1       2.459  43.566  20.822  1.00  0.00     0.000 C 
BRANCH   5   6
ATOM      6  C   UNL     1       2.265  42.940  22.215  1.00  0.00     0.000 C 
BRANCH   6   7
ATOM      7  C   UNL     1       3.203  41.761  22.536  1.00  0.00     0.000 C 
BRANCH   7   8
ATOM      8  C   UNL     1       4.210  42.084  23.651  1.00  0.00     0.000 C 
BRANCH   8   9
ATOM      9  C   UNL     1       5.604  42.350  23.070  1.00  0.00     0.000 C 
BRANCH   9  10
ATOM     10  C   UNL     1       6.327  41.037  22.748  1.00  0.00     0.000 C 
BRANCH  10  11
ATOM     11  C   UNL     1       7.851  41.215  22.808  1.00  0.00     0.000 C 
BRANCH  11  12
ATOM     12  C   UNL     1       8.262  42.699  22.926  1.00  0.00     0.000 C 
BRANCH  12  13
ATOM     13  C   UNL     1       9.628  43.015  22.293  1.00  0.00     0.006 C 
BRANCH  13  14
ATOM     14  C   UNL     1       9.590  43.014  20.760  1.00  0.00     0.053 C 
BRANCH  14  15
ATOM     15  C   UNL     1      10.407  44.142  20.213  1.00  0.00     0.041 C 
ATOM     16  O   UNL     1      11.420  43.906  19.500  1.00  0.00    -0.550 OA
ATOM     17  O   UNL     1      10.067  45.456  20.511  1.00  0.00    -0.550 OA
ENDBRANCH  14  15
ENDBRANCH  13  14
ENDBRANCH  12  13
ENDBRANCH  11  12
ENDBRANCH  10  11
ENDBRANCH   9  10
ENDBRANCH   8   9
ENDBRANCH   7   8
ENDBRANCH   6   7
ENDBRANCH   5   6
ENDBRANCH   4   5
ENDBRANCH   3   4
ENDBRANCH   2   3
ENDBRANCH   1   2
BRANCH   1  18
ATOM     18  C   UNL     1       3.127  45.508  15.825  1.00  0.00     0.000 C 
BRANCH  18  19
ATOM     19  C   UNL     1       3.952  46.688  15.289  1.00  0.00     0.000 C 
BRANCH  19  20
ATOM     20  C   UNL     1       3.130  47.538  14.309  1.00  0.00     0.000 C 
BRANCH  20  21
ATOM     21  C   UNL     1       3.977  48.605  13.596  1.00  0.00     0.000 C 
BRANCH  21  22
ATOM     22  C   UNL     1       4.955  48.002  12.576  1.00  0.00     0.000 C 
BRANCH  22  23
ATOM     23  C   UNL     1       4.204  47.379  11.394  1.00  0.00     0.000 C 
BRANCH  23  24
ATOM     24  C   UNL     1       3.677  48.464  10.443  1.00  0.00    -0.000 C 
BRANCH  24  25
ATOM     25  C   UNL     1       4.580  48.677   9.214  1.00  0.00    -0.000 C 
BRANCH  25  26
ATOM     26  C   UNL     1       4.882  50.148   8.876  1.00  0.00    -0.000 C 
BRANCH  26  27
ATOM     27  C   UNL     1       6.333  50.547   9.182  1.00  0.00    -0.000 C 
BRANCH  27  28
ATOM     28  C   UNL     1       7.239  49.309   9.253  1.00  0.00    -0.000 C 
BRANCH  28  29
ATOM     29  C   UNL     1       8.068  49.251  10.546  1.00  0.00    -0.000 C 
BRANCH  29  30
ATOM     30  C   UNL     1       8.294  47.811  11.041  1.00  0.00    -0.000 C 
BRANCH  30  31
ATOM     31  C   UNL     1       7.380  46.798  10.333  1.00  0.00    -0.003 C 
ATOM     32  C   UNL     1       7.781  46.557   8.878  1.00  0.00     0.004 C 
ENDBRANCH  30  31
ENDBRANCH  29  30
ENDBRANCH  28  29
ENDBRANCH  27  28
ENDBRANCH  26  27
ENDBRANCH  25  26
ENDBRANCH  24  25
ENDBRANCH  23  24
ENDBRANCH  22  23
ENDBRANCH  21  22
ENDBRANCH  20  21
ENDBRANCH  19  20
ENDBRANCH  18  19
ENDBRANCH   1  18
TORSDOF 28
ENDMDL
MODEL 5
REMARK VINA RESULT:    25.653      3.441     11.492
REMARK INTER + INTRA:          67.366
REMARK INTER:                  68.467
REMARK INTRA:                  -1.101
REMARK UNBOUND:                -0.277
REMARK SMILES CCCCCCCCCCCCCCCCCCCCCCCCCCCCCC(=O)[O-]
REMARK SMILES IDX 16 1 17 2 18 3 19 4 20 5 21 6 22 7 23 8 24 9 25 10 26 11
REMARK SMILES IDX 27 12 28 13 29 14 30 15 31 16 32 17 15 18 14 19 13 20 12 21
REMARK SMILES IDX 11 22 10 23 9 24 8 25 7 26 6 27 5 28 4 29 3 30 2 31 1 32
REMARK H PARENT
REMARK Flexibility Score: inf
ROOT
ATOM      1  C   UNL     1       3.033  45.244  19.796  1.00  0.00     0.000 C 
ENDROOT
BRANCH   1   2
ATOM      2  C   UNL     1       2.605  45.697  18.385  1.00  0.00     0.000 C 
BRANCH   2   3
ATOM      3  C   UNL     1       3.147  44.832  17.233  1.00  0.00     0.000 C 
BRANCH   3   4
ATOM      4  C   UNL     1       3.311  45.619  15.925  1.00  0.00     0.000 C 
BRANCH   4   5
ATOM      5  C   UNL     1       3.057  47.117  16.150  1.00  0.00     0.000 C 
BRANCH   5   6
ATOM      6  C   UNL     1       2.795  47.885  14.841  1.00  0.00     0.000 C 
BRANCH   6   7
ATOM      7  C   UNL     1       3.065  47.087  13.552  1.00  0.00     0.000 C 
BRANCH   7   8
ATOM      8  C   UNL     1       4.396  47.463  12.883  1.00  0.00     0.000 C 
BRANCH   8   9
ATOM      9  C   UNL     1       4.215  48.649  11.927  1.00  0.00     0.000 C 
BRANCH   9  10
ATOM     10  C   UNL     1       3.680  48.183  10.568  1.00  0.00     0.000 C 
BRANCH  10  11
ATOM     11  C   UNL     1       4.250  49.039   9.427  1.00  0.00     0.000 C 
BRANCH  11  12
ATOM     12  C   UNL     1       5.761  49.305   9.594  1.00  0.00     0.000 C 
BRANCH  12  13
ATOM     13  C   UNL     1       6.644  48.093   9.253  1.00  0.00     0.006 C 
BRANCH  13  14
ATOM     14  C   UNL     1       8.054  48.194   9.849  1.00  0.00     0.053 C 
BRANCH  14  15
ATOM     15  C   UNL     1       8.041  47.825  11.299  1.00  0.00     0.041 C 
ATOM     16  O   UNL     1       9.019  48.117  12.037  1.00  0.00    -0.550 OA
ATOM     17  O   UNL     1       6.959  47.134  11.832  1.00  0.00    -0.550 OA
ENDBRANCH  14  15
ENDBRANCH  13  14
ENDBRANCH  12  13
ENDBRANCH  11  12
ENDBRANCH  10  11
ENDBRANCH   9  10
ENDBRANCH   8   9
ENDBRANCH   7   8
ENDBRANCH   6   7
ENDBRANCH   5   6
ENDBRANCH   4   5
ENDBRANCH   3   4
ENDBRANCH   2   3
ENDBRANCH   1   2
BRANCH   1  18
ATOM     18  C   UNL     1       1.875  44.968  20.772  1.00  0.00     0.000 C 
BRANCH  18  19
ATOM     19  C   UNL     1       1.692  43.472  21.072  1.00  0.00     0.000 C 
BRANCH  19  20
ATOM     20  C   UNL     1       2.540  43.041  22.277  1.00  0.00     0.000 C 
BRANCH  20  21
ATOM     21  C   UNL     1       2.869  41.539  22.264  1.00  0.00     0.000 C 
BRANCH  21  22
ATOM     22  C   UNL     1       3.678  41.098  23.493  1.00  0.00     0.000 C 
BRANCH  22  23
ATOM     23  C   UNL     1       4.887  42.015  23.714  1.00  0.00     0.000 C 
BRANCH  23  24
ATOM     24  C   UNL     1       5.972  41.759  22.658  1.00  0.00    -0.000 C 
BRANCH  24  25
ATOM     25  C   UNL     1       7.296  42.482  22.968  1.00  0.00    -0.000 C 
BRANCH  25  26
ATOM     26  C   UNL     1       8.463  42.134  22.027  1.00  0.00    -0.000 C 
BRANCH  26  27
ATOM     27  C   UNL     1       9.835  42.482  22.622  1.00  0.00    -0.000 C 
BRANCH  27  28
ATOM     28  C   UNL     1       9.684  43.146  23.999  1.00  0.00    -0.000 C 
BRANCH  28  29
ATOM     29  C   UNL     1      10.988  43.137  24.812  1.00  0.00    -0.000 C 
BRANCH  29  30
ATOM     30  C   UNL     1      10.744  42.999  26.325  1.00  0.00    -0.000 C 
BRANCH  30  31
ATOM     31  C   UNL     1       9.255  43.111  26.690  1.00  0.00    -0.003 C 
ATOM     32  C   UNL     1       8.994  42.905  28.181  1.00  0.00     0.004 C 
ENDBRANCH  30  31
ENDBRANCH  29  30
ENDBRANCH  28  29
ENDBRANCH  27  28
ENDBRANCH  26  27
ENDBRANCH  25  26
ENDBRANCH  24  25
ENDBRANCH  23  24
ENDBRANCH  22  23
ENDBRANCH  21  22
ENDBRANCH  20  21
ENDBRANCH  19  20
ENDBRANCH  18  19
ENDBRANCH   1  18
TORSDOF 28
ENDMDL
MODEL 6
REMARK VINA RESULT:    26.002      1.062      2.194
REMARK INTER + INTRA:          68.287
REMARK INTER:                  67.559
REMARK INTRA:                   0.728
REMARK UNBOUND:                -0.277
REMARK SMILES CCCCCCCCCCCCCCCCCCCCCCCCCCCCCC(=O)[O-]
REMARK SMILES IDX 16 1 17 2 18 3 19 4 20 5 21 6 22 7 23 8 24 9 25 10 26 11
REMARK SMILES IDX 27 12 28 13 29 14 30 15 31 16 32 17 15 18 14 19 13 20 12 21
REMARK SMILES IDX 11 22 10 23 9 24 8 25 7 26 6 27 5 28 4 29 3 30 2 31 1 32
REMARK H PARENT
REMARK Flexibility Score: inf
ROOT
ATOM      1  C   UNL     1       2.045  45.822  19.994  1.00  0.00     0.000 C 
ENDROOT
BRANCH   1   2
ATOM      2  C   UNL     1       2.377  44.352  20.318  1.00  0.00     0.000 C 
BRANCH   2   3
ATOM      3  C   UNL     1       1.966  43.888  21.727  1.00  0.00     0.000 C 
BRANCH   3   4
ATOM      4  C   UNL     1       2.528  42.505  22.086  1.00  0.00     0.000 C 
BRANCH   4   5
ATOM      5  C   UNL     1       3.711  42.629  23.056  1.00  0.00     0.000 C 
BRANCH   5   6
ATOM      6  C   UNL     1       4.102  41.285  23.700  1.00  0.00     0.000 C 
BRANCH   6   7
ATOM      7  C   UNL     1       5.568  40.863  23.488  1.00  0.00     0.000 C 
BRANCH   7   8
ATOM      8  C   UNL     1       6.437  41.986  22.903  1.00  0.00     0.000 C 
BRANCH   8   9
ATOM      9  C   UNL     1       7.883  41.516  22.705  1.00  0.00     0.000 C 
BRANCH   9  10
ATOM     10  C   UNL     1       8.836  42.708  22.563  1.00  0.00     0.000 C 
BRANCH  10  11
ATOM     11  C   UNL     1       8.475  43.561  21.337  1.00  0.00     0.000 C 
BRANCH  11  12
ATOM     12  C   UNL     1       9.563  43.500  20.243  1.00  0.00     0.000 C 
BRANCH  12  13
ATOM     13  C   UNL     1       9.776  42.093  19.660  1.00  0.00     0.006 C 
BRANCH  13  14
ATOM     14  C   UNL     1      10.482  42.110  18.299  1.00  0.00     0.053 C 
BRANCH  14  15
ATOM     15  C   UNL     1      10.203  40.848  17.545  1.00  0.00     0.041 C 
ATOM     16  O   UNL     1      10.991  40.462  16.639  1.00  0.00    -0.550 OA
ATOM     17  O   UNL     1       9.059  40.109  17.823  1.00  0.00    -0.550 OA
ENDBRANCH  14  15
ENDBRANCH  13  14
ENDBRANCH  12  13
ENDBRANCH  11  12
ENDBRANCH  10  11
ENDBRANCH   9  10
ENDBRANCH   8   9
ENDBRANCH   7   8
ENDBRANCH   6   7
ENDBRANCH   5   6
ENDBRANCH   4   5
ENDBRANCH   3   4
ENDBRANCH   2   3
ENDBRANCH   1   2
BRANCH   1  18
ATOM     18  C   UNL     1       1.531  46.076  18.565  1.00  0.00     0.000 C 
BRANCH  18  19
ATOM     19  C   UNL     1       2.517  46.892  17.714  1.00  0.00     0.000 C 
BRANCH  19  20
ATOM     20  C   UNL     1       2.766  46.217  16.356  1.00  0.00     0.000 C 
BRANCH  20  21
ATOM     21  C   UNL     1       3.707  47.032  15.454  1.00  0.00     0.000 C 
BRANCH  21  22
ATOM     22  C   UNL     1       3.226  47.093  13.997  1.00  0.00     0.000 C 
BRANCH  22  23
ATOM     23  C   UNL     1       3.875  48.266  13.251  1.00  0.00     0.000 C 
BRANCH  23  24
ATOM     24  C   UNL     1       4.552  47.788  11.958  1.00  0.00    -0.000 C 
BRANCH  24  25
ATOM     25  C   UNL     1       4.219  48.673  10.743  1.00  0.00    -0.000 C 
BRANCH  25  26
ATOM     26  C   UNL     1       5.259  48.638   9.608  1.00  0.00    -0.000 C 
BRANCH  26  27
ATOM     27  C   UNL     1       5.492  47.225   9.053  1.00  0.00    -0.000 C 
BRANCH  27  28
ATOM     28  C   UNL     1       6.903  46.725   9.399  1.00  0.00    -0.000 C 
BRANCH  28  29
ATOM     29  C   UNL     1       8.010  47.654   8.876  1.00  0.00    -0.000 C 
BRANCH  29  30
ATOM     30  C   UNL     1       7.823  49.113   9.330  1.00  0.00    -0.000 C 
BRANCH  30  31
ATOM     31  C   UNL     1       7.843  49.257  10.860  1.00  0.00    -0.003 C 
ATOM     32  C   UNL     1       8.353  48.001  11.566  1.00  0.00     0.004 C 
ENDBRANCH  30  31
ENDBRANCH  29  30
ENDBRANCH  28  29
ENDBRANCH  27  28
ENDBRANCH  26  27
ENDBRANCH  25  26
ENDBRANCH  24  25
ENDBRANCH  23  24
ENDBRANCH  22  23
ENDBRANCH  21  22
ENDBRANCH  20  21
ENDBRANCH  19  20
ENDBRANCH  18  19
ENDBRANCH   1  18
TORSDOF 28
ENDMDL
MODEL 7
REMARK VINA RESULT:    26.415      3.104     10.878
REMARK INTER + INTRA:          69.375
REMARK INTER:                  71.348
REMARK INTRA:                  -1.973
REMARK UNBOUND:                -0.277
REMARK SMILES CCCCCCCCCCCCCCCCCCCCCCCCCCCCCC(=O)[O-]
REMARK SMILES IDX 16 1 17 2 18 3 19 4 20 5 21 6 22 7 23 8 24 9 25 10 26 11
REMARK SMILES IDX 27 12 28 13 29 14 30 15 31 16 32 17 15 18 14 19 13 20 12 21
REMARK SMILES IDX 11 22 10 23 9 24 8 25 7 26 6 27 5 28 4 29 3 30 2 31 1 32
REMARK H PARENT
REMARK Flexibility Score: inf
ROOT
ATOM      1  C   UNL     1       2.710  45.611  19.272  1.00  0.00     0.000 C 
ENDROOT
BRANCH   1   2
ATOM      2  C   UNL     1       3.049  45.953  17.808  1.00  0.00     0.000 C 
BRANCH   2   3
ATOM      3  C   UNL     1       3.534  44.765  16.959  1.00  0.00     0.000 C 
BRANCH   3   4
ATOM      4  C   UNL     1       3.572  45.084  15.457  1.00  0.00     0.000 C 
BRANCH   4   5
ATOM      5  C   UNL     1       2.726  46.324  15.138  1.00  0.00     0.000 C 
BRANCH   5   6
ATOM      6  C   UNL     1       3.533  47.441  14.450  1.00  0.00     0.000 C 
BRANCH   6   7
ATOM      7  C   UNL     1       3.428  47.470  12.914  1.00  0.00     0.000 C 
BRANCH   7   8
ATOM      8  C   UNL     1       4.312  48.551  12.274  1.00  0.00     0.000 C 
BRANCH   8   9
ATOM      9  C   UNL     1       4.086  48.618  10.758  1.00  0.00     0.000 C 
BRANCH   9  10
ATOM     10  C   UNL     1       4.856  49.789  10.137  1.00  0.00     0.000 C 
BRANCH  10  11
ATOM     11  C   UNL     1       5.612  49.348   8.875  1.00  0.00     0.000 C 
BRANCH  11  12
ATOM     12  C   UNL     1       7.080  49.826   8.876  1.00  0.00     0.000 C 
BRANCH  12  13
ATOM     13  C   UNL     1       8.091  48.719   9.219  1.00  0.00     0.006 C 
BRANCH  13  14
ATOM     14  C   UNL     1       7.607  47.795  10.344  1.00  0.00     0.053 C 
BRANCH  14  15
ATOM     15  C   UNL     1       7.210  46.461   9.795  1.00  0.00     0.041 C 
ATOM     16  O   UNL     1       6.303  46.376   8.924  1.00  0.00    -0.550 OA
ATOM     17  O   UNL     1       7.823  45.305  10.264  1.00  0.00    -0.550 OA
ENDBRANCH  14  15
ENDBRANCH  13  14
ENDBRANCH  12  13
ENDBRANCH  11  12
ENDBRANCH  10  11
ENDBRANCH   9  10
ENDBRANCH   8   9
ENDBRANCH   7   8
ENDBRANCH   6   7
ENDBRANCH   5   6
ENDBRANCH   4   5
ENDBRANCH   3   4
ENDBRANCH   2   3
ENDBRANCH   1   2
BRANCH   1  18
ATOM     18  C   UNL     1       3.007  46.728  20.290  1.00  0.00     0.000 C 
BRANCH  18  19
ATOM     19  C   UNL     1       4.428  47.298  20.151  1.00  0.00     0.000 C 
BRANCH  19  20
ATOM     20  C   UNL     1       5.337  46.801  21.285  1.00  0.00     0.000 C 
BRANCH  20  21
ATOM     21  C   UNL     1       6.241  45.636  20.852  1.00  0.00     0.000 C 
BRANCH  21  22
ATOM     22  C   UNL     1       7.536  46.109  20.175  1.00  0.00     0.000 C 
BRANCH  22  23
ATOM     23  C   UNL     1       8.320  44.924  19.597  1.00  0.00     0.000 C 
BRANCH  23  24
ATOM     24  C   UNL     1       9.568  44.626  20.442  1.00  0.00    -0.000 C 
BRANCH  24  25
ATOM     25  C   UNL     1       9.727  43.130  20.772  1.00  0.00    -0.000 C 
BRANCH  25  26
ATOM     26  C   UNL     1       8.460  42.446  21.317  1.00  0.00    -0.000 C 
BRANCH  26  27
ATOM     27  C   UNL     1       8.320  42.572  22.841  1.00  0.00    -0.000 C 
BRANCH  27  28
ATOM     28  C   UNL     1       6.845  42.719  23.246  1.00  0.00    -0.000 C 
BRANCH  28  29
ATOM     29  C   UNL     1       6.014  41.464  22.938  1.00  0.00    -0.000 C 
BRANCH  29  30
ATOM     30  C   UNL     1       4.698  41.413  23.734  1.00  0.00    -0.000 C 
BRANCH  30  31
ATOM     31  C   UNL     1       3.462  41.373  22.822  1.00  0.00    -0.003 C 
ATOM     32  C   UNL     1       3.025  42.762  22.358  1.00  0.00     0.004 C 
ENDBRANCH  30  31
ENDBRANCH  29  30
ENDBRANCH  28  29
ENDBRANCH  27  28
ENDBRANCH  26  27
ENDBRANCH  25  26
ENDBRANCH  24  25
ENDBRANCH  23  24
ENDBRANCH  22  23
ENDBRANCH  21  22
ENDBRANCH  20  21
ENDBRANCH  19  20
ENDBRANCH  18  19
ENDBRANCH   1  18
TORSDOF 28
ENDMDL
MODEL 8
REMARK VINA RESULT:    26.686      3.212      9.880
REMARK INTER + INTRA:          70.091
REMARK INTER:                  71.703
REMARK INTRA:                  -1.612
REMARK UNBOUND:                -0.277
REMARK SMILES CCCCCCCCCCCCCCCCCCCCCCCCCCCCCC(=O)[O-]
REMARK SMILES IDX 16 1 17 2 18 3 19 4 20 5 21 6 22 7 23 8 24 9 25 10 26 11
REMARK SMILES IDX 27 12 28 13 29 14 30 15 31 16 32 17 15 18 14 19 13 20 12 21
REMARK SMILES IDX 11 22 10 23 9 24 8 25 7 26 6 27 5 28 4 29 3 30 2 31 1 32
REMARK H PARENT
REMARK Flexibility Score: inf
ROOT
ATOM      1  C   UNL     1       2.489  45.810  19.178  1.00  0.00     0.000 C 
ENDROOT
BRANCH   1   2
ATOM      2  C   UNL     1       2.276  44.382  18.638  1.00  0.00     0.000 C 
BRANCH   2   3
ATOM      3  C   UNL     1       2.817  44.138  17.218  1.00  0.00     0.000 C 
BRANCH   3   4
ATOM      4  C   UNL     1       3.692  45.292  16.708  1.00  0.00     0.000 C 
BRANCH   4   5
ATOM      5  C   UNL     1       3.378  45.612  15.240  1.00  0.00     0.000 C 
BRANCH   5   6
ATOM      6  C   UNL     1       3.268  47.123  14.964  1.00  0.00     0.000 C 
BRANCH   6   7
ATOM      7  C   UNL     1       2.843  47.495  13.532  1.00  0.00     0.000 C 
BRANCH   7   8
ATOM      8  C   UNL     1       4.012  47.996  12.671  1.00  0.00     0.000 C 
BRANCH   8   9
ATOM      9  C   UNL     1       3.549  48.302  11.241  1.00  0.00     0.000 C 
BRANCH   9  10
ATOM     10  C   UNL     1       4.565  47.791  10.212  1.00  0.00     0.000 C 
BRANCH  10  11
ATOM     11  C   UNL     1       4.978  48.908   9.241  1.00  0.00     0.000 C 
BRANCH  11  12
ATOM     12  C   UNL     1       6.476  48.840   8.875  1.00  0.00     0.000 C 
BRANCH  12  13
ATOM     13  C   UNL     1       7.275  47.838   9.725  1.00  0.00     0.006 C 
BRANCH  13  14
ATOM     14  C   UNL     1       8.277  48.519  10.666  1.00  0.00     0.053 C 
BRANCH  14  15
ATOM     15  C   UNL     1       8.203  47.920  12.036  1.00  0.00     0.041 C 
ATOM     16  O   UNL     1       7.085  47.643  12.548  1.00  0.00    -0.550 OA
ATOM     17  O   UNL     1       9.367  47.692  12.760  1.00  0.00    -0.550 OA
ENDBRANCH  14  15
ENDBRANCH  13  14
ENDBRANCH  12  13
ENDBRANCH  11  12
ENDBRANCH  10  11
ENDBRANCH   9  10
ENDBRANCH   8   9
ENDBRANCH   7   8
ENDBRANCH   6   7
ENDBRANCH   5   6
ENDBRANCH   4   5
ENDBRANCH   3   4
ENDBRANCH   2   3
ENDBRANCH   1   2
BRANCH   1  18
ATOM     18  C   UNL     1       3.353  45.905  20.449  1.00  0.00     0.000 C 
BRANCH  18  19
ATOM     19  C   UNL     1       4.418  47.010  20.365  1.00  0.00     0.000 C 
BRANCH  19  20
ATOM     20  C   UNL     1       5.682  46.621  21.145  1.00  0.00     0.000 C 
BRANCH  20  21
ATOM     21  C   UNL     1       6.607  45.688  20.347  1.00  0.00     0.000 C 
BRANCH  21  22
ATOM     22  C   UNL     1       7.991  46.302  20.091  1.00  0.00     0.000 C 
BRANCH  22  23
ATOM     23  C   UNL     1       8.930  45.287  19.428  1.00  0.00     0.000 C 
BRANCH  23  24
ATOM     24  C   UNL     1       8.843  43.921  20.125  1.00  0.00    -0.000 C 
BRANCH  24  25
ATOM     25  C   UNL     1       9.475  42.784  19.302  1.00  0.00    -0.000 C 
BRANCH  25  26
ATOM     26  C   UNL     1       8.707  41.450  19.337  1.00  0.00    -0.000 C 
BRANCH  26  27
ATOM     27  C   UNL     1       9.307  40.389  18.403  1.00  0.00    -0.000 C 
BRANCH  27  28
ATOM     28  C   UNL     1      10.176  41.042  17.317  1.00  0.00    -0.000 C 
BRANCH  28  29
ATOM     29  C   UNL     1      11.626  40.531  17.327  1.00  0.00    -0.000 C 
BRANCH  29  30
ATOM     30  C   UNL     1      11.766  39.132  16.701  1.00  0.00    -0.000 C 
BRANCH  30  31
ATOM     31  C   UNL     1      13.075  38.973  15.911  1.00  0.00    -0.003 C 
ATOM     32  C   UNL     1      12.873  39.097  14.401  1.00  0.00     0.004 C 
ENDBRANCH  30  31
ENDBRANCH  29  30
ENDBRANCH  28  29
ENDBRANCH  27  28
ENDBRANCH  26  27
ENDBRANCH  25  26
ENDBRANCH  24  25
ENDBRANCH  23  24
ENDBRANCH  22  23
ENDBRANCH  21  22
ENDBRANCH  20  21
ENDBRANCH  19  20
ENDBRANCH  18  19
ENDBRANCH   1  18
TORSDOF 28
ENDMDL
MODEL 9
REMARK VINA RESULT:    26.704      3.085      9.894
REMARK INTER + INTRA:          70.137
REMARK INTER:                  70.481
REMARK INTRA:                  -0.344
REMARK UNBOUND:                -0.277
REMARK SMILES CCCCCCCCCCCCCCCCCCCCCCCCCCCCCC(=O)[O-]
REMARK SMILES IDX 16 1 17 2 18 3 19 4 20 5 21 6 22 7 23 8 24 9 25 10 26 11
REMARK SMILES IDX 27 12 28 13 29 14 30 15 31 16 32 17 15 18 14 19 13 20 12 21
REMARK SMILES IDX 11 22 10 23 9 24 8 25 7 26 6 27 5 28 4 29 3 30 2 31 1 32
REMARK H PARENT
REMARK Flexibility Score: inf
ROOT
ATOM      1  C   UNL     1       2.262  42.827  21.633  1.00  0.00     0.000 C 
ENDROOT
BRANCH   1   2
ATOM      2  C   UNL     1       2.786  44.209  21.196  1.00  0.00     0.000 C 
BRANCH   2   3
ATOM      3  C   UNL     1       1.873  44.971  20.218  1.00  0.00     0.000 C 
BRANCH   3   4
ATOM      4  C   UNL     1       2.364  44.895  18.766  1.00  0.00     0.000 C 
BRANCH   4   5
ATOM      5  C   UNL     1       2.582  46.299  18.185  1.00  0.00     0.000 C 
BRANCH   5   6
ATOM      6  C   UNL     1       3.419  46.292  16.893  1.00  0.00     0.000 C 
BRANCH   6   7
ATOM      7  C   UNL     1       2.604  46.328  15.587  1.00  0.00     0.000 C 
BRANCH   7   8
ATOM      8  C   UNL     1       2.967  47.518  14.687  1.00  0.00     0.000 C 
BRANCH   8   9
ATOM      9  C   UNL     1       4.482  47.590  14.456  1.00  0.00     0.000 C 
BRANCH   9  10
ATOM     10  C   UNL     1       4.812  48.433  13.219  1.00  0.00     0.000 C 
BRANCH  10  11
ATOM     11  C   UNL     1       4.494  47.667  11.926  1.00  0.00     0.000 C 
BRANCH  11  12
ATOM     12  C   UNL     1       4.062  48.607  10.780  1.00  0.00     0.000 C 
BRANCH  12  13
ATOM     13  C   UNL     1       5.116  48.751   9.670  1.00  0.00     0.006 C 
BRANCH  13  14
ATOM     14  C   UNL     1       6.274  47.757   9.812  1.00  0.00     0.053 C 
BRANCH  14  15
ATOM     15  C   UNL     1       7.429  48.391  10.522  1.00  0.00     0.041 C 
ATOM     16  O   UNL     1       7.848  49.525  10.167  1.00  0.00    -0.550 OA
ATOM     17  O   UNL     1       8.061  47.718  11.561  1.00  0.00    -0.550 OA
ENDBRANCH  14  15
ENDBRANCH  13  14
ENDBRANCH  12  13
ENDBRANCH  11  12
ENDBRANCH  10  11
ENDBRANCH   9  10
ENDBRANCH   8   9
ENDBRANCH   7   8
ENDBRANCH   6   7
ENDBRANCH   5   6
ENDBRANCH   4   5
ENDBRANCH   3   4
ENDBRANCH   2   3
ENDBRANCH   1   2
BRANCH   1  18
ATOM     18  C   UNL     1       3.057  42.155  22.767  1.00  0.00     0.000 C 
BRANCH  18  19
ATOM     19  C   UNL     1       4.403  42.845  23.041  1.00  0.00     0.000 C 
BRANCH  19  20
ATOM     20  C   UNL     1       5.568  41.853  22.916  1.00  0.00     0.000 C 
BRANCH  20  21
ATOM     21  C   UNL     1       6.935  42.511  23.167  1.00  0.00     0.000 C 
BRANCH  21  22
ATOM     22  C   UNL     1       8.019  42.014  22.198  1.00  0.00     0.000 C 
BRANCH  22  23
ATOM     23  C   UNL     1       9.355  42.721  22.458  1.00  0.00     0.000 C 
BRANCH  23  24
ATOM     24  C   UNL     1      10.013  43.156  21.140  1.00  0.00    -0.000 C 
BRANCH  24  25
ATOM     25  C   UNL     1       9.186  42.772  19.900  1.00  0.00    -0.000 C 
BRANCH  25  26
ATOM     26  C   UNL     1       8.781  41.288  19.821  1.00  0.00    -0.000 C 
BRANCH  26  27
ATOM     27  C   UNL     1       9.094  40.654  18.458  1.00  0.00    -0.000 C 
BRANCH  27  28
ATOM     28  C   UNL     1      10.171  41.457  17.713  1.00  0.00    -0.000 C 
BRANCH  28  29
ATOM     29  C   UNL     1      11.476  40.670  17.523  1.00  0.00    -0.000 C 
BRANCH  29  30
ATOM     30  C   UNL     1      11.646  40.141  16.088  1.00  0.00    -0.000 C 
BRANCH  30  31
ATOM     31  C   UNL     1      12.476  38.848  16.035  1.00  0.00    -0.003 C 
ATOM     32  C   UNL     1      13.799  38.963  16.790  1.00  0.00     0.004 C 
ENDBRANCH  30  31
ENDBRANCH  29  30
ENDBRANCH  28  29
ENDBRANCH  27  28
ENDBRANCH  26  27
ENDBRANCH  25  26
ENDBRANCH  24  25
ENDBRANCH  23  24
ENDBRANCH  22  23
ENDBRANCH  21  22
ENDBRANCH  20  21
ENDBRANCH  19  20
ENDBRANCH  18  19
ENDBRANCH   1  18
TORSDOF 28
ENDMDL
