MODEL 1
REMARK VINA RESULT:     1.740      0.000      0.000
REMARK INTER + INTRA:           1.846
REMARK INTER:                   1.995
REMARK INTRA:                  -0.149
REMARK UNBOUND:                -0.149
REMARK SMILES O=C([O-])C=Cc1ccc(O)cc1
REMARK SMILES IDX 6 1 7 2 12 3 8 4 11 5 9 6 5 7 4 8 2 9 1 10 3 11 10 12
REMARK H PARENT 10 13
REMARK Flexibility Score: inf
ROOT
ATOM      1  C   UNL     1      17.589  96.423   8.619  1.00  0.00    -0.025 A 
ATOM      2  C   UNL     1      18.217  95.175   8.433  1.00  0.00     0.012 A 
ATOM      3  C   UNL     1      16.235  96.451   8.993  1.00  0.00     0.012 A 
ATOM      4  C   UNL     1      17.495  93.988   8.594  1.00  0.00     0.047 A 
ATOM      5  C   UNL     1      15.516  95.262   9.152  1.00  0.00     0.047 A 
ATOM      6  C   UNL     1      16.141  94.029   8.950  1.00  0.00     0.115 A 
ENDROOT
BRANCH   1   7
ATOM      7  C   UNL     1      18.312  97.711   8.474  1.00  0.00     0.010 C 
ATOM      8  C   UNL     1      17.956  98.841   9.101  1.00  0.00     0.025 C 
BRANCH   8   9
ATOM      9  C   UNL     1      18.706 100.098   8.942  1.00  0.00     0.064 C 
ATOM     10  O   UNL     1      18.534 100.837   7.937  1.00  0.00    -0.545 OA
ATOM     11  O   UNL     1      19.617 100.477   9.920  1.00  0.00    -0.545 OA
ENDBRANCH   8   9
ENDBRANCH   1   7
BRANCH   6  12
ATOM     12  O   UNL     1      15.412  92.853   9.112  1.00  0.00    -0.508 OA
ATOM     13  H   UNL     1      14.720  92.562   8.431  1.00  0.00     0.293 HD
ENDBRANCH   6  12
TORSDOF 3
ENDMDL
MODEL 2
REMARK VINA RESULT:     3.016      2.527      5.160
REMARK INTER + INTRA:           3.308
REMARK INTER:                   3.459
REMARK INTRA:                  -0.151
REMARK UNBOUND:                -0.149
REMARK SMILES O=C([O-])C=Cc1ccc(O)cc1
REMARK SMILES IDX 6 1 7 2 12 3 8 4 11 5 9 6 5 7 4 8 2 9 1 10 3 11 10 12
REMARK H PARENT 10 13
REMARK Flexibility Score: inf
ROOT
ATOM      1  C   UNL     1      16.592  95.897   9.018  1.00  0.00    -0.025 A 
ATOM      2  C   UNL     1      15.372  95.940   9.721  1.00  0.00     0.012 A 
ATOM      3  C   UNL     1      17.227  97.107   8.687  1.00  0.00     0.012 A 
ATOM      4  C   UNL     1      14.793  97.167  10.060  1.00  0.00     0.047 A 
ATOM      5  C   UNL     1      16.645  98.332   9.028  1.00  0.00     0.047 A 
ATOM      6  C   UNL     1      15.427  98.366   9.712  1.00  0.00     0.115 A 
ENDROOT
BRANCH   1   7
ATOM      7  C   UNL     1      17.255  94.623   8.645  1.00  0.00     0.010 C 
ATOM      8  C   UNL     1      18.471  94.551   8.085  1.00  0.00     0.025 C 
BRANCH   8   9
ATOM      9  C   UNL     1      19.102  93.266   7.740  1.00  0.00     0.064 C 
ATOM     10  O   UNL     1      18.875  92.703   6.636  1.00  0.00    -0.545 OA
ATOM     11  O   UNL     1      19.966  92.665   8.646  1.00  0.00    -0.545 OA
ENDBRANCH   8   9
ENDBRANCH   1   7
BRANCH   6  12
ATOM     12  O   UNL     1      14.859  99.594  10.044  1.00  0.00    -0.508 OA
ATOM     13  H   UNL     1      14.056  99.657  10.660  1.00  0.00     0.293 HD
ENDBRANCH   6  12
TORSDOF 3
ENDMDL
MODEL 3
REMARK VINA RESULT:     4.699      1.478      5.801
REMARK INTER + INTRA:           5.238
REMARK INTER:                   5.387
REMARK INTRA:                  -0.149
REMARK UNBOUND:                -0.149
REMARK SMILES O=C([O-])C=Cc1ccc(O)cc1
REMARK SMILES IDX 6 1 7 2 12 3 8 4 11 5 9 6 5 7 4 8 2 9 1 10 3 11 10 12
REMARK H PARENT 10 13
REMARK Flexibility Score: inf
ROOT
ATOM      1  C   UNL     1      17.767  97.449   8.762  1.00  0.00    -0.025 A 
ATOM      2  C   UNL     1      16.729  98.403   8.772  1.00  0.00     0.012 A 
ATOM      3  C   UNL     1      19.096  97.893   8.878  1.00  0.00     0.012 A 
ATOM      4  C   UNL     1      17.022  99.767   8.871  1.00  0.00     0.047 A 
ATOM      5  C   UNL     1      19.384  99.258   8.977  1.00  0.00     0.047 A 
ATOM      6  C   UNL     1      18.351 100.198   8.970  1.00  0.00     0.115 A 
ENDROOT
BRANCH   1   7
ATOM      7  C   UNL     1      17.511  95.991   8.672  1.00  0.00     0.010 C 
ATOM      8  C   UNL     1      18.382  95.111   8.156  1.00  0.00     0.025 C 
BRANCH   8   9
ATOM      9  C   UNL     1      18.097  93.668   8.095  1.00  0.00     0.064 C 
ATOM     10  O   UNL     1      18.783  92.897   7.372  1.00  0.00    -0.545 OA
ATOM     11  O   UNL     1      17.055  93.145   8.851  1.00  0.00    -0.545 OA
ENDBRANCH   8   9
ENDBRANCH   1   7
BRANCH   6  12
ATOM     12  O   UNL     1      18.654 101.554   9.068  1.00  0.00    -0.508 OA
ATOM     13  H   UNL     1      19.389 101.889   9.681  1.00  0.00     0.293 HD
ENDBRANCH   6  12
TORSDOF 3
ENDMDL
