MODEL 1
REMARK VINA RESULT:    -5.066      0.000      0.000
REMARK INTER + INTRA:         -15.303
REMARK INTER:                 -12.766
REMARK INTRA:                  -2.537
REMARK UNBOUND:                -2.537
REMARK SMILES CCCCCCCCCCCCCCCCCCCCCCCCCCCC(=O)[O-]
REMARK SMILES IDX 15 1 16 2 17 3 18 4 19 5 20 6 21 7 22 8 23 9 24 10 25 11
REMARK SMILES IDX 26 12 27 13 28 14 29 15 30 16 14 17 13 18 12 19 11 20 10 21
REMARK SMILES IDX 9 22 8 23 7 24 6 25 5 26 4 27 3 28 2 29 1 30
REMARK H PARENT
REMARK Flexibility Score: inf
ROOT
ATOM      1  C   UNL     1       0.445  -3.852  -2.133  1.00  0.00     0.000 C 
ENDROOT
BRANCH   1   2
ATOM      2  C   UNL     1       0.123  -5.329  -2.445  1.00  0.00     0.000 C 
BRANCH   2   3
ATOM      3  C   UNL     1      -0.071  -6.204  -1.191  1.00  0.00     0.000 C 
BRANCH   3   4
ATOM      4  C   UNL     1      -0.962  -7.441  -1.405  1.00  0.00     0.000 C 
BRANCH   4   5
ATOM      5  C   UNL     1      -1.840  -7.768  -0.187  1.00  0.00     0.000 C 
BRANCH   5   6
ATOM      6  C   UNL     1      -1.864  -9.281   0.083  1.00  0.00     0.000 C 
BRANCH   6   7
ATOM      7  C   UNL     1      -0.621 -10.009  -0.462  1.00  0.00     0.000 C 
BRANCH   7   8
ATOM      8  C   UNL     1       0.645  -9.874   0.405  1.00  0.00     0.000 C 
BRANCH   8   9
ATOM      9  C   UNL     1       1.874  -9.417  -0.400  1.00  0.00     0.000 C 
BRANCH   9  10
ATOM     10  C   UNL     1       1.904 -10.022  -1.814  1.00  0.00     0.000 C 
BRANCH  10  11
ATOM     11  C   UNL     1       1.790  -8.951  -2.913  1.00  0.00     0.000 C 
BRANCH  11  12
ATOM     12  C   UNL     1       2.318  -9.431  -4.277  1.00  0.00     0.006 C 
BRANCH  12  13
ATOM     13  C   UNL     1       3.128  -8.370  -5.043  1.00  0.00     0.053 C 
BRANCH  13  14
ATOM     14  C   UNL     1       4.608  -8.579  -4.932  1.00  0.00     0.041 C 
ATOM     15  O   UNL     1       5.148  -9.592  -5.449  1.00  0.00    -0.550 OA
ATOM     16  O   UNL     1       5.396  -7.632  -4.291  1.00  0.00    -0.550 OA
ENDBRANCH  13  14
ENDBRANCH  12  13
ENDBRANCH  11  12
ENDBRANCH  10  11
ENDBRANCH   9  10
ENDBRANCH   8   9
ENDBRANCH   7   8
ENDBRANCH   6   7
ENDBRANCH   5   6
ENDBRANCH   4   5
ENDBRANCH   3   4
ENDBRANCH   2   3
ENDBRANCH   1   2
BRANCH   1  17
ATOM     17  C   UNL     1       0.860  -3.592  -0.671  1.00  0.00     0.000 C 
BRANCH  17  18
ATOM     18  C   UNL     1       0.293  -2.285  -0.081  1.00  0.00     0.000 C 
BRANCH  18  19
ATOM     19  C   UNL     1       1.028  -1.849   1.197  1.00  0.00     0.000 C 
BRANCH  19  20
ATOM     20  C   UNL     1       0.760  -0.382   1.574  1.00  0.00     0.000 C 
BRANCH  20  21
ATOM     21  C   UNL     1       0.589   0.553   0.358  1.00  0.00     0.000 C 
BRANCH  21  22
ATOM     22  C   UNL     1      -0.735   1.336   0.401  1.00  0.00    -0.000 C 
BRANCH  22  23
ATOM     23  C   UNL     1      -1.642   1.055  -0.811  1.00  0.00    -0.000 C 
BRANCH  23  24
ATOM     24  C   UNL     1      -1.938   2.277  -1.700  1.00  0.00    -0.000 C 
BRANCH  24  25
ATOM     25  C   UNL     1      -1.831   3.610  -0.945  1.00  0.00    -0.000 C 
BRANCH  25  26
ATOM     26  C   UNL     1      -0.784   4.526  -1.595  1.00  0.00    -0.000 C 
BRANCH  26  27
ATOM     27  C   UNL     1       0.465   3.762  -2.064  1.00  0.00    -0.000 C 
BRANCH  27  28
ATOM     28  C   UNL     1       0.890   4.142  -3.490  1.00  0.00    -0.000 C 
BRANCH  28  29
ATOM     29  C   UNL     1       0.829   2.926  -4.421  1.00  0.00    -0.003 C 
ATOM     30  C   UNL     1       0.952   1.624  -3.636  1.00  0.00     0.004 C 
ENDBRANCH  28  29
ENDBRANCH  27  28
ENDBRANCH  26  27
ENDBRANCH  25  26
ENDBRANCH  24  25
ENDBRANCH  23  24
ENDBRANCH  22  23
ENDBRANCH  21  22
ENDBRANCH  20  21
ENDBRANCH  19  20
ENDBRANCH  18  19
ENDBRANCH  17  18
ENDBRANCH   1  17
TORSDOF 26
ENDMDL
MODEL 2
REMARK VINA RESULT:    -5.023      1.771      3.500
REMARK INTER + INTRA:         -15.195
REMARK INTER:                 -12.907
REMARK INTRA:                  -2.288
REMARK UNBOUND:                -2.537
REMARK SMILES CCCCCCCCCCCCCCCCCCCCCCCCCCCC(=O)[O-]
REMARK SMILES IDX 15 1 16 2 17 3 18 4 19 5 20 6 21 7 22 8 23 9 24 10 25 11
REMARK SMILES IDX 26 12 27 13 28 14 29 15 30 16 14 17 13 18 12 19 11 20 10 21
REMARK SMILES IDX 9 22 8 23 7 24 6 25 5 26 4 27 3 28 2 29 1 30
REMARK H PARENT
REMARK Flexibility Score: inf
ROOT
ATOM      1  C   UNL     1       0.125  -6.281  -1.114  1.00  0.00     0.000 C 
ENDROOT
BRANCH   1   2
ATOM      2  C   UNL     1      -0.935  -7.402  -1.184  1.00  0.00     0.000 C 
BRANCH   2   3
ATOM      3  C   UNL     1      -0.524  -8.696  -0.455  1.00  0.00     0.000 C 
BRANCH   3   4
ATOM      4  C   UNL     1       0.134  -9.757  -1.358  1.00  0.00     0.000 C 
BRANCH   4   5
ATOM      5  C   UNL     1       1.660  -9.599  -1.458  1.00  0.00     0.000 C 
BRANCH   5   6
ATOM      6  C   UNL     1       2.060  -8.968  -2.800  1.00  0.00     0.000 C 
BRANCH   6   7
ATOM      7  C   UNL     1       3.178  -9.745  -3.520  1.00  0.00     0.000 C 
BRANCH   7   8
ATOM      8  C   UNL     1       4.465  -8.943  -3.782  1.00  0.00     0.000 C 
BRANCH   8   9
ATOM      9  C   UNL     1       5.132  -9.305  -5.121  1.00  0.00     0.000 C 
BRANCH   9  10
ATOM     10  C   UNL     1       4.109  -9.472  -6.257  1.00  0.00     0.000 C 
BRANCH  10  11
ATOM     11  C   UNL     1       4.026  -8.229  -7.159  1.00  0.00     0.000 C 
BRANCH  11  12
ATOM     12  C   UNL     1       2.643  -7.552  -7.125  1.00  0.00     0.006 C 
BRANCH  12  13
ATOM     13  C   UNL     1       2.350  -6.793  -5.819  1.00  0.00     0.053 C 
BRANCH  13  14
ATOM     14  C   UNL     1       1.953  -5.367  -6.054  1.00  0.00     0.041 C 
ATOM     15  O   UNL     1       2.727  -4.429  -5.729  1.00  0.00    -0.550 OA
ATOM     16  O   UNL     1       0.743  -5.076  -6.672  1.00  0.00    -0.550 OA
ENDBRANCH  13  14
ENDBRANCH  12  13
ENDBRANCH  11  12
ENDBRANCH  10  11
ENDBRANCH   9  10
ENDBRANCH   8   9
ENDBRANCH   7   8
ENDBRANCH   6   7
ENDBRANCH   5   6
ENDBRANCH   4   5
ENDBRANCH   3   4
ENDBRANCH   2   3
ENDBRANCH   1   2
BRANCH   1  17
ATOM     17  C   UNL     1       0.073  -5.289  -2.293  1.00  0.00     0.000 C 
BRANCH  17  18
ATOM     18  C   UNL     1       0.673  -3.905  -1.976  1.00  0.00     0.000 C 
BRANCH  18  19
ATOM     19  C   UNL     1       0.804  -3.654  -0.464  1.00  0.00     0.000 C 
BRANCH  19  20
ATOM     20  C   UNL     1       0.308  -2.260  -0.042  1.00  0.00     0.000 C 
BRANCH  20  21
ATOM     21  C   UNL     1       1.128  -1.626   1.101  1.00  0.00     0.000 C 
BRANCH  21  22
ATOM     22  C   UNL     1       0.742  -0.158   1.357  1.00  0.00    -0.000 C 
BRANCH  22  23
ATOM     23  C   UNL     1      -0.042   0.471   0.191  1.00  0.00    -0.000 C 
BRANCH  23  24
ATOM     24  C   UNL     1      -0.764   1.788   0.527  1.00  0.00    -0.000 C 
BRANCH  24  25
ATOM     25  C   UNL     1      -2.009   2.030  -0.337  1.00  0.00    -0.000 C 
BRANCH  25  26
ATOM     26  C   UNL     1      -1.620   2.583  -1.716  1.00  0.00    -0.000 C 
BRANCH  26  27
ATOM     27  C   UNL     1      -0.728   3.831  -1.627  1.00  0.00    -0.000 C 
BRANCH  27  28
ATOM     28  C   UNL     1       0.312   3.898  -2.755  1.00  0.00    -0.000 C 
BRANCH  28  29
ATOM     29  C   UNL     1       0.315   2.602  -3.573  1.00  0.00    -0.003 C 
ATOM     30  C   UNL     1       1.162   2.749  -4.834  1.00  0.00     0.004 C 
ENDBRANCH  28  29
ENDBRANCH  27  28
ENDBRANCH  26  27
ENDBRANCH  25  26
ENDBRANCH  24  25
ENDBRANCH  23  24
ENDBRANCH  22  23
ENDBRANCH  21  22
ENDBRANCH  20  21
ENDBRANCH  19  20
ENDBRANCH  18  19
ENDBRANCH  17  18
ENDBRANCH   1  17
TORSDOF 26
ENDMDL
MODEL 3
REMARK VINA RESULT:    -4.886      3.769     10.433
REMARK INTER + INTRA:         -14.849
REMARK INTER:                 -12.802
REMARK INTRA:                  -2.047
REMARK UNBOUND:                -2.537
REMARK SMILES CCCCCCCCCCCCCCCCCCCCCCCCCCCC(=O)[O-]
REMARK SMILES IDX 15 1 16 2 17 3 18 4 19 5 20 6 21 7 22 8 23 9 24 10 25 11
REMARK SMILES IDX 26 12 27 13 28 14 29 15 30 16 14 17 13 18 12 19 11 20 10 21
REMARK SMILES IDX 9 22 8 23 7 24 6 25 5 26 4 27 3 28 2 29 1 30
REMARK H PARENT
REMARK Flexibility Score: inf
ROOT
ATOM      1  C   UNL     1       0.397  -5.957  -0.837  1.00  0.00     0.000 C 
ENDROOT
BRANCH   1   2
ATOM      2  C   UNL     1       0.078  -4.477  -1.145  1.00  0.00     0.000 C 
BRANCH   2   3
ATOM      3  C   UNL     1       1.045  -3.480  -0.478  1.00  0.00     0.000 C 
BRANCH   3   4
ATOM      4  C   UNL     1       0.373  -2.205   0.067  1.00  0.00     0.000 C 
BRANCH   4   5
ATOM      5  C   UNL     1       1.115  -1.602   1.270  1.00  0.00     0.000 C 
BRANCH   5   6
ATOM      6  C   UNL     1       0.660  -0.157   1.529  1.00  0.00     0.000 C 
BRANCH   6   7
ATOM      7  C   UNL     1       0.050   0.513   0.283  1.00  0.00     0.000 C 
BRANCH   7   8
ATOM      8  C   UNL     1      -0.602   1.884   0.534  1.00  0.00     0.000 C 
BRANCH   8   9
ATOM      9  C   UNL     1      -1.804   2.152  -0.388  1.00  0.00     0.000 C 
BRANCH   9  10
ATOM     10  C   UNL     1      -1.964   1.068  -1.468  1.00  0.00     0.000 C 
BRANCH  10  11
ATOM     11  C   UNL     1      -1.605   1.582  -2.873  1.00  0.00     0.000 C 
BRANCH  11  12
ATOM     12  C   UNL     1      -0.086   1.688  -3.104  1.00  0.00     0.006 C 
BRANCH  12  13
ATOM     13  C   UNL     1       0.377   3.068  -3.602  1.00  0.00     0.053 C 
BRANCH  13  14
ATOM     14  C   UNL     1       0.336   4.114  -2.531  1.00  0.00     0.041 C 
ATOM     15  O   UNL     1      -0.765   4.585  -2.143  1.00  0.00    -0.550 OA
ATOM     16  O   UNL     1       1.515   4.540  -1.932  1.00  0.00    -0.550 OA
ENDBRANCH  13  14
ENDBRANCH  12  13
ENDBRANCH  11  12
ENDBRANCH  10  11
ENDBRANCH   9  10
ENDBRANCH   8   9
ENDBRANCH   7   8
ENDBRANCH   6   7
ENDBRANCH   5   6
ENDBRANCH   4   5
ENDBRANCH   3   4
ENDBRANCH   2   3
ENDBRANCH   1   2
BRANCH   1  17
ATOM     17  C   UNL     1      -0.568  -6.960  -1.500  1.00  0.00     0.000 C 
BRANCH  17  18
ATOM     18  C   UNL     1      -0.557  -8.361  -0.856  1.00  0.00     0.000 C 
BRANCH  18  19
ATOM     19  C   UNL     1       0.865  -8.842  -0.520  1.00  0.00     0.000 C 
BRANCH  19  20
ATOM     20  C   UNL     1       1.480  -9.716  -1.626  1.00  0.00     0.000 C 
BRANCH  20  21
ATOM     21  C   UNL     1       2.427  -8.948  -2.573  1.00  0.00     0.000 C 
BRANCH  21  22
ATOM     22  C   UNL     1       2.817  -9.774  -3.811  1.00  0.00    -0.000 C 
BRANCH  22  23
ATOM     23  C   UNL     1       4.304  -9.635  -4.186  1.00  0.00    -0.000 C 
BRANCH  23  24
ATOM     24  C   UNL     1       4.619  -8.514  -5.193  1.00  0.00    -0.000 C 
BRANCH  24  25
ATOM     25  C   UNL     1       4.114  -8.820  -6.611  1.00  0.00    -0.000 C 
BRANCH  25  26
ATOM     26  C   UNL     1       3.086  -7.773  -7.064  1.00  0.00    -0.000 C 
BRANCH  26  27
ATOM     27  C   UNL     1       2.578  -6.898  -5.906  1.00  0.00    -0.000 C 
BRANCH  27  28
ATOM     28  C   UNL     1       1.805  -5.663  -6.392  1.00  0.00    -0.000 C 
BRANCH  28  29
ATOM     29  C   UNL     1       1.712  -4.606  -5.286  1.00  0.00    -0.003 C 
ATOM     30  C   UNL     1       0.279  -4.463  -4.781  1.00  0.00     0.004 C 
ENDBRANCH  28  29
ENDBRANCH  27  28
ENDBRANCH  26  27
ENDBRANCH  25  26
ENDBRANCH  24  25
ENDBRANCH  23  24
ENDBRANCH  22  23
ENDBRANCH  21  22
ENDBRANCH  20  21
ENDBRANCH  19  20
ENDBRANCH  18  19
ENDBRANCH  17  18
ENDBRANCH   1  17
TORSDOF 26
ENDMDL
MODEL 4
REMARK VINA RESULT:    -4.835      2.493      4.323
REMARK INTER + INTRA:         -14.721
REMARK INTER:                 -12.640
REMARK INTRA:                  -2.081
REMARK UNBOUND:                -2.537
REMARK SMILES CCCCCCCCCCCCCCCCCCCCCCCCCCCC(=O)[O-]
REMARK SMILES IDX 15 1 16 2 17 3 18 4 19 5 20 6 21 7 22 8 23 9 24 10 25 11
REMARK SMILES IDX 26 12 27 13 28 14 29 15 30 16 14 17 13 18 12 19 11 20 10 21
REMARK SMILES IDX 9 22 8 23 7 24 6 25 5 26 4 27 3 28 2 29 1 30
REMARK H PARENT
REMARK Flexibility Score: inf
ROOT
ATOM      1  C   UNL     1       0.387  -4.783  -3.127  1.00  0.00     0.000 C 
ENDROOT
BRANCH   1   2
ATOM      2  C   UNL     1       0.259  -4.406  -4.619  1.00  0.00     0.000 C 
BRANCH   2   3
ATOM      3  C   UNL     1       1.590  -4.468  -5.394  1.00  0.00     0.000 C 
BRANCH   3   4
ATOM      4  C   UNL     1       1.723  -5.675  -6.341  1.00  0.00     0.000 C 
BRANCH   4   5
ATOM      5  C   UNL     1       2.662  -6.765  -5.799  1.00  0.00     0.000 C 
BRANCH   5   6
ATOM      6  C   UNL     1       2.892  -7.864  -6.848  1.00  0.00     0.000 C 
BRANCH   6   7
ATOM      7  C   UNL     1       4.165  -8.689  -6.585  1.00  0.00     0.000 C 
BRANCH   7   8
ATOM      8  C   UNL     1       4.594  -8.774  -5.109  1.00  0.00     0.000 C 
BRANCH   8   9
ATOM      9  C   UNL     1       3.811  -9.838  -4.320  1.00  0.00     0.000 C 
BRANCH   9  10
ATOM     10  C   UNL     1       3.337  -9.320  -2.952  1.00  0.00     0.000 C 
BRANCH  10  11
ATOM     11  C   UNL     1       1.867  -8.870  -2.972  1.00  0.00     0.000 C 
BRANCH  11  12
ATOM     12  C   UNL     1       1.195  -8.947  -1.589  1.00  0.00     0.006 C 
BRANCH  12  13
ATOM     13  C   UNL     1       0.060  -7.927  -1.387  1.00  0.00     0.053 C 
BRANCH  13  14
ATOM     14  C   UNL     1      -1.257  -8.577  -1.092  1.00  0.00     0.041 C 
ATOM     15  O   UNL     1      -1.572  -9.661  -1.651  1.00  0.00    -0.550 OA
ATOM     16  O   UNL     1      -2.122  -8.005  -0.167  1.00  0.00    -0.550 OA
ENDBRANCH  13  14
ENDBRANCH  12  13
ENDBRANCH  11  12
ENDBRANCH  10  11
ENDBRANCH   9  10
ENDBRANCH   8   9
ENDBRANCH   7   8
ENDBRANCH   6   7
ENDBRANCH   5   6
ENDBRANCH   4   5
ENDBRANCH   3   4
ENDBRANCH   2   3
ENDBRANCH   1   2
BRANCH   1  17
ATOM     17  C   UNL     1       0.897  -3.638  -2.229  1.00  0.00     0.000 C 
BRANCH  17  18
ATOM     18  C   UNL     1       0.586  -3.829  -0.731  1.00  0.00     0.000 C 
BRANCH  18  19
ATOM     19  C   UNL     1       1.234  -2.746   0.147  1.00  0.00     0.000 C 
BRANCH  19  20
ATOM     20  C   UNL     1       0.214  -1.746   0.719  1.00  0.00     0.000 C 
BRANCH  20  21
ATOM     21  C   UNL     1       0.856  -0.572   1.488  1.00  0.00     0.000 C 
BRANCH  21  22
ATOM     22  C   UNL     1       0.796   0.748   0.700  1.00  0.00    -0.000 C 
BRANCH  22  23
ATOM     23  C   UNL     1      -0.554   1.474   0.840  1.00  0.00    -0.000 C 
BRANCH  23  24
ATOM     24  C   UNL     1      -1.249   1.820  -0.490  1.00  0.00    -0.000 C 
BRANCH  24  25
ATOM     25  C   UNL     1      -1.843   3.236  -0.508  1.00  0.00    -0.000 C 
BRANCH  25  26
ATOM     26  C   UNL     1      -1.069   4.143  -1.475  1.00  0.00    -0.000 C 
BRANCH  26  27
ATOM     27  C   UNL     1       0.294   3.558  -1.878  1.00  0.00    -0.000 C 
BRANCH  27  28
ATOM     28  C   UNL     1       0.810   4.123  -3.210  1.00  0.00    -0.000 C 
BRANCH  28  29
ATOM     29  C   UNL     1       1.014   3.004  -4.237  1.00  0.00    -0.003 C 
ATOM     30  C   UNL     1       0.389   1.697  -3.759  1.00  0.00     0.004 C 
ENDBRANCH  28  29
ENDBRANCH  27  28
ENDBRANCH  26  27
ENDBRANCH  25  26
ENDBRANCH  24  25
ENDBRANCH  23  24
ENDBRANCH  22  23
ENDBRANCH  21  22
ENDBRANCH  20  21
ENDBRANCH  19  20
ENDBRANCH  18  19
ENDBRANCH  17  18
ENDBRANCH   1  17
TORSDOF 26
ENDMDL
MODEL 5
REMARK VINA RESULT:    -4.808      3.311     10.808
REMARK INTER + INTRA:         -14.653
REMARK INTER:                 -13.005
REMARK INTRA:                  -1.648
REMARK UNBOUND:                -2.537
REMARK SMILES CCCCCCCCCCCCCCCCCCCCCCCCCCCC(=O)[O-]
REMARK SMILES IDX 15 1 16 2 17 3 18 4 19 5 20 6 21 7 22 8 23 9 24 10 25 11
REMARK SMILES IDX 26 12 27 13 28 14 29 15 30 16 14 17 13 18 12 19 11 20 10 21
REMARK SMILES IDX 9 22 8 23 7 24 6 25 5 26 4 27 3 28 2 29 1 30
REMARK H PARENT
REMARK Flexibility Score: inf
ROOT
ATOM      1  C   UNL     1       0.864  -3.509  -2.199  1.00  0.00     0.000 C 
ENDROOT
BRANCH   1   2
ATOM      2  C   UNL     1       0.686  -4.005  -0.747  1.00  0.00     0.000 C 
BRANCH   2   3
ATOM      3  C   UNL     1       1.146  -2.992   0.319  1.00  0.00     0.000 C 
BRANCH   3   4
ATOM      4  C   UNL     1       0.393  -1.648   0.291  1.00  0.00     0.000 C 
BRANCH   4   5
ATOM      5  C   UNL     1       0.821  -0.695   1.419  1.00  0.00     0.000 C 
BRANCH   5   6
ATOM      6  C   UNL     1       0.438   0.755   1.087  1.00  0.00     0.000 C 
BRANCH   6   7
ATOM      7  C   UNL     1      -0.485   0.868  -0.140  1.00  0.00     0.000 C 
BRANCH   7   8
ATOM      8  C   UNL     1      -1.812   1.608   0.108  1.00  0.00     0.000 C 
BRANCH   8   9
ATOM      9  C   UNL     1      -2.210   2.529  -1.058  1.00  0.00     0.000 C 
BRANCH   9  10
ATOM     10  C   UNL     1      -1.822   3.996  -0.803  1.00  0.00     0.000 C 
BRANCH  10  11
ATOM     11  C   UNL     1      -0.704   4.479  -1.742  1.00  0.00     0.000 C 
BRANCH  11  12
ATOM     12  C   UNL     1       0.334   3.385  -2.054  1.00  0.00     0.006 C 
BRANCH  12  13
ATOM     13  C   UNL     1       0.097   2.660  -3.390  1.00  0.00     0.053 C 
BRANCH  13  14
ATOM     14  C   UNL     1       1.034   3.112  -4.469  1.00  0.00     0.041 C 
ATOM     15  O   UNL     1       1.802   4.091  -4.275  1.00  0.00    -0.550 OA
ATOM     16  O   UNL     1       1.086   2.426  -5.675  1.00  0.00    -0.550 OA
ENDBRANCH  13  14
ENDBRANCH  12  13
ENDBRANCH  11  12
ENDBRANCH  10  11
ENDBRANCH   9  10
ENDBRANCH   8   9
ENDBRANCH   7   8
ENDBRANCH   6   7
ENDBRANCH   5   6
ENDBRANCH   4   5
ENDBRANCH   3   4
ENDBRANCH   2   3
ENDBRANCH   1   2
BRANCH   1  17
ATOM     17  C   UNL     1       0.391  -4.513  -3.270  1.00  0.00     0.000 C 
BRANCH  17  18
ATOM     18  C   UNL     1      -0.005  -3.860  -4.610  1.00  0.00     0.000 C 
BRANCH  18  19
ATOM     19  C   UNL     1       0.375  -4.727  -5.822  1.00  0.00     0.000 C 
BRANCH  19  20
ATOM     20  C   UNL     1       1.895  -4.899  -5.983  1.00  0.00     0.000 C 
BRANCH  20  21
ATOM     21  C   UNL     1       2.321  -6.324  -6.397  1.00  0.00     0.000 C 
BRANCH  21  22
ATOM     22  C   UNL     1       2.511  -7.255  -5.185  1.00  0.00    -0.000 C 
BRANCH  22  23
ATOM     23  C   UNL     1       3.736  -8.177  -5.320  1.00  0.00    -0.000 C 
BRANCH  23  24
ATOM     24  C   UNL     1       3.761  -9.372  -4.350  1.00  0.00    -0.000 C 
BRANCH  24  25
ATOM     25  C   UNL     1       2.412  -9.614  -3.659  1.00  0.00    -0.000 C 
BRANCH  25  26
ATOM     26  C   UNL     1       2.504  -9.314  -2.155  1.00  0.00    -0.000 C 
BRANCH  26  27
ATOM     27  C   UNL     1       1.243  -9.740  -1.386  1.00  0.00    -0.000 C 
BRANCH  27  28
ATOM     28  C   UNL     1       0.701  -8.627  -0.477  1.00  0.00    -0.000 C 
BRANCH  28  29
ATOM     29  C   UNL     1      -0.405  -7.834  -1.182  1.00  0.00    -0.003 C 
ATOM     30  C   UNL     1      -1.769  -8.116  -0.559  1.00  0.00     0.004 C 
ENDBRANCH  28  29
ENDBRANCH  27  28
ENDBRANCH  26  27
ENDBRANCH  25  26
ENDBRANCH  24  25
ENDBRANCH  23  24
ENDBRANCH  22  23
ENDBRANCH  21  22
ENDBRANCH  20  21
ENDBRANCH  19  20
ENDBRANCH  18  19
ENDBRANCH  17  18
ENDBRANCH   1  17
TORSDOF 26
ENDMDL
MODEL 6
REMARK VINA RESULT:    -4.691      3.263     10.690
REMARK INTER + INTRA:         -14.358
REMARK INTER:                 -12.694
REMARK INTRA:                  -1.665
REMARK UNBOUND:                -2.537
REMARK SMILES CCCCCCCCCCCCCCCCCCCCCCCCCCCC(=O)[O-]
REMARK SMILES IDX 15 1 16 2 17 3 18 4 19 5 20 6 21 7 22 8 23 9 24 10 25 11
REMARK SMILES IDX 26 12 27 13 28 14 29 15 30 16 14 17 13 18 12 19 11 20 10 21
REMARK SMILES IDX 9 22 8 23 7 24 6 25 5 26 4 27 3 28 2 29 1 30
REMARK H PARENT
REMARK Flexibility Score: inf
ROOT
ATOM      1  C   UNL     1       0.000  -6.323  -1.061  1.00  0.00     0.000 C 
ENDROOT
BRANCH   1   2
ATOM      2  C   UNL     1       0.014  -5.362  -2.270  1.00  0.00     0.000 C 
BRANCH   2   3
ATOM      3  C   UNL     1       0.742  -4.030  -1.999  1.00  0.00     0.000 C 
BRANCH   3   4
ATOM      4  C   UNL     1       0.971  -3.718  -0.509  1.00  0.00     0.000 C 
BRANCH   4   5
ATOM      5  C   UNL     1       0.282  -2.422  -0.053  1.00  0.00     0.000 C 
BRANCH   5   6
ATOM      6  C   UNL     1       1.046  -1.774   1.112  1.00  0.00     0.000 C 
BRANCH   6   7
ATOM      7  C   UNL     1       0.696  -0.287   1.307  1.00  0.00     0.000 C 
BRANCH   7   8
ATOM      8  C   UNL     1      -0.104   0.351   0.157  1.00  0.00     0.000 C 
BRANCH   8   9
ATOM      9  C   UNL     1      -0.373   1.850   0.376  1.00  0.00     0.000 C 
BRANCH   9  10
ATOM     10  C   UNL     1      -1.873   2.189   0.318  1.00  0.00     0.000 C 
BRANCH  10  11
ATOM     11  C   UNL     1      -2.298   2.736  -1.055  1.00  0.00     0.000 C 
BRANCH  11  12
ATOM     12  C   UNL     1      -1.245   2.491  -2.152  1.00  0.00     0.006 C 
BRANCH  12  13
ATOM     13  C   UNL     1      -0.377   3.720  -2.473  1.00  0.00     0.053 C 
BRANCH  13  14
ATOM     14  C   UNL     1       0.718   3.417  -3.450  1.00  0.00     0.041 C 
ATOM     15  O   UNL     1       1.553   4.304  -3.765  1.00  0.00    -0.550 OA
ATOM     16  O   UNL     1       0.838   2.140  -3.983  1.00  0.00    -0.550 OA
ENDBRANCH  13  14
ENDBRANCH  12  13
ENDBRANCH  11  12
ENDBRANCH  10  11
ENDBRANCH   9  10
ENDBRANCH   8   9
ENDBRANCH   7   8
ENDBRANCH   6   7
ENDBRANCH   5   6
ENDBRANCH   4   5
ENDBRANCH   3   4
ENDBRANCH   2   3
ENDBRANCH   1   2
BRANCH   1  17
ATOM     17  C   UNL     1      -0.956  -7.522  -1.221  1.00  0.00     0.000 C 
BRANCH  17  18
ATOM     18  C   UNL     1      -0.686  -8.675  -0.233  1.00  0.00     0.000 C 
BRANCH  18  19
ATOM     19  C   UNL     1      -0.627 -10.045  -0.930  1.00  0.00     0.000 C 
BRANCH  19  20
ATOM     20  C   UNL     1       0.250 -10.038  -2.194  1.00  0.00     0.000 C 
BRANCH  20  21
ATOM     21  C   UNL     1       1.737  -9.730  -1.919  1.00  0.00     0.000 C 
BRANCH  21  22
ATOM     22  C   UNL     1       2.642 -10.089  -3.111  1.00  0.00    -0.000 C 
BRANCH  22  23
ATOM     23  C   UNL     1       3.117  -8.856  -3.900  1.00  0.00    -0.000 C 
BRANCH  23  24
ATOM     24  C   UNL     1       4.644  -8.659  -3.944  1.00  0.00    -0.000 C 
BRANCH  24  25
ATOM     25  C   UNL     1       5.294  -9.276  -5.191  1.00  0.00    -0.000 C 
BRANCH  25  26
ATOM     26  C   UNL     1       4.227  -9.733  -6.197  1.00  0.00    -0.000 C 
BRANCH  26  27
ATOM     27  C   UNL     1       4.140  -8.818  -7.428  1.00  0.00    -0.000 C 
BRANCH  27  28
ATOM     28  C   UNL     1       2.900  -7.912  -7.406  1.00  0.00    -0.000 C 
BRANCH  28  29
ATOM     29  C   UNL     1       3.178  -6.623  -6.626  1.00  0.00    -0.003 C 
ATOM     30  C   UNL     1       1.888  -6.024  -6.074  1.00  0.00     0.004 C 
ENDBRANCH  28  29
ENDBRANCH  27  28
ENDBRANCH  26  27
ENDBRANCH  25  26
ENDBRANCH  24  25
ENDBRANCH  23  24
ENDBRANCH  22  23
ENDBRANCH  21  22
ENDBRANCH  20  21
ENDBRANCH  19  20
ENDBRANCH  18  19
ENDBRANCH  17  18
ENDBRANCH   1  17
TORSDOF 26
ENDMDL
MODEL 7
REMARK VINA RESULT:    -4.645      1.140      2.015
REMARK INTER + INTRA:         -14.242
REMARK INTER:                 -12.553
REMARK INTRA:                  -1.689
REMARK UNBOUND:                -2.537
REMARK SMILES CCCCCCCCCCCCCCCCCCCCCCCCCCCC(=O)[O-]
REMARK SMILES IDX 15 1 16 2 17 3 18 4 19 5 20 6 21 7 22 8 23 9 24 10 25 11
REMARK SMILES IDX 26 12 27 13 28 14 29 15 30 16 14 17 13 18 12 19 11 20 10 21
REMARK SMILES IDX 9 22 8 23 7 24 6 25 5 26 4 27 3 28 2 29 1 30
REMARK H PARENT
REMARK Flexibility Score: inf
ROOT
ATOM      1  C   UNL     1       0.355  -5.626  -2.610  1.00  0.00     0.000 C 
ENDROOT
BRANCH   1   2
ATOM      2  C   UNL     1      -0.117  -6.496  -1.424  1.00  0.00     0.000 C 
BRANCH   2   3
ATOM      3  C   UNL     1      -1.487  -7.166  -1.649  1.00  0.00     0.000 C 
BRANCH   3   4
ATOM      4  C   UNL     1      -1.511  -8.680  -1.368  1.00  0.00     0.000 C 
BRANCH   4   5
ATOM      5  C   UNL     1      -1.826  -9.015   0.099  1.00  0.00     0.000 C 
BRANCH   5   6
ATOM      6  C   UNL     1      -0.730  -9.905   0.706  1.00  0.00     0.000 C 
BRANCH   6   7
ATOM      7  C   UNL     1       0.692  -9.454   0.323  1.00  0.00     0.000 C 
BRANCH   7   8
ATOM      8  C   UNL     1       1.262 -10.107  -0.949  1.00  0.00     0.000 C 
BRANCH   8   9
ATOM      9  C   UNL     1       2.269  -9.204  -1.684  1.00  0.00     0.000 C 
BRANCH   9  10
ATOM     10  C   UNL     1       2.067  -9.224  -3.208  1.00  0.00     0.000 C 
BRANCH  10  11
ATOM     11  C   UNL     1       3.146 -10.048  -3.932  1.00  0.00     0.000 C 
BRANCH  11  12
ATOM     12  C   UNL     1       4.464  -9.276  -4.124  1.00  0.00     0.006 C 
BRANCH  12  13
ATOM     13  C   UNL     1       4.931  -9.188  -5.588  1.00  0.00     0.053 C 
BRANCH  13  14
ATOM     14  C   UNL     1       3.871  -8.652  -6.502  1.00  0.00     0.041 C 
ATOM     15  O   UNL     1       3.127  -7.708  -6.131  1.00  0.00    -0.550 OA
ATOM     16  O   UNL     1       3.734  -9.173  -7.783  1.00  0.00    -0.550 OA
ENDBRANCH  13  14
ENDBRANCH  12  13
ENDBRANCH  11  12
ENDBRANCH  10  11
ENDBRANCH   9  10
ENDBRANCH   8   9
ENDBRANCH   7   8
ENDBRANCH   6   7
ENDBRANCH   5   6
ENDBRANCH   4   5
ENDBRANCH   3   4
ENDBRANCH   2   3
ENDBRANCH   1   2
BRANCH   1  17
ATOM     17  C   UNL     1       0.088  -4.118  -2.431  1.00  0.00     0.000 C 
BRANCH  17  18
ATOM     18  C   UNL     1       1.177  -3.379  -1.627  1.00  0.00     0.000 C 
BRANCH  18  19
ATOM     19  C   UNL     1       0.848  -3.302  -0.127  1.00  0.00     0.000 C 
BRANCH  19  20
ATOM     20  C   UNL     1       0.183  -1.973   0.274  1.00  0.00     0.000 C 
BRANCH  20  21
ATOM     21  C   UNL     1       0.938  -1.209   1.383  1.00  0.00     0.000 C 
BRANCH  21  22
ATOM     22  C   UNL     1       0.843   0.318   1.212  1.00  0.00    -0.000 C 
BRANCH  22  23
ATOM     23  C   UNL     1      -0.262   0.748   0.230  1.00  0.00    -0.000 C 
BRANCH  23  24
ATOM     24  C   UNL     1      -0.988   2.054   0.598  1.00  0.00    -0.000 C 
BRANCH  24  25
ATOM     25  C   UNL     1      -2.080   2.441  -0.410  1.00  0.00    -0.000 C 
BRANCH  25  26
ATOM     26  C   UNL     1      -1.893   1.689  -1.736  1.00  0.00    -0.000 C 
BRANCH  26  27
ATOM     27  C   UNL     1      -1.303   2.576  -2.845  1.00  0.00    -0.000 C 
BRANCH  27  28
ATOM     28  C   UNL     1      -0.070   3.365  -2.378  1.00  0.00    -0.000 C 
BRANCH  28  29
ATOM     29  C   UNL     1       0.799   3.776  -3.571  1.00  0.00    -0.003 C 
ATOM     30  C   UNL     1       1.092   2.584  -4.477  1.00  0.00     0.004 C 
ENDBRANCH  28  29
ENDBRANCH  27  28
ENDBRANCH  26  27
ENDBRANCH  25  26
ENDBRANCH  24  25
ENDBRANCH  23  24
ENDBRANCH  22  23
ENDBRANCH  21  22
ENDBRANCH  20  21
ENDBRANCH  19  20
ENDBRANCH  18  19
ENDBRANCH  17  18
ENDBRANCH   1  17
TORSDOF 26
ENDMDL
MODEL 8
REMARK VINA RESULT:    -4.506      2.280      4.512
REMARK INTER + INTRA:         -13.891
REMARK INTER:                 -12.314
REMARK INTRA:                  -1.577
REMARK UNBOUND:                -2.537
REMARK SMILES CCCCCCCCCCCCCCCCCCCCCCCCCCCC(=O)[O-]
REMARK SMILES IDX 15 1 16 2 17 3 18 4 19 5 20 6 21 7 22 8 23 9 24 10 25 11
REMARK SMILES IDX 26 12 27 13 28 14 29 15 30 16 14 17 13 18 12 19 11 20 10 21
REMARK SMILES IDX 9 22 8 23 7 24 6 25 5 26 4 27 3 28 2 29 1 30
REMARK H PARENT
REMARK Flexibility Score: inf
ROOT
ATOM      1  C   UNL     1      -0.338  -7.936  -1.128  1.00  0.00     0.000 C 
ENDROOT
BRANCH   1   2
ATOM      2  C   UNL     1       0.976  -8.422  -0.480  1.00  0.00     0.000 C 
BRANCH   2   3
ATOM      3  C   UNL     1       1.757  -9.437  -1.338  1.00  0.00     0.000 C 
BRANCH   3   4
ATOM      4  C   UNL     1       1.930  -9.027  -2.812  1.00  0.00     0.000 C 
BRANCH   4   5
ATOM      5  C   UNL     1       3.041  -9.813  -3.528  1.00  0.00     0.000 C 
BRANCH   5   6
ATOM      6  C   UNL     1       4.354  -9.016  -3.545  1.00  0.00     0.000 C 
BRANCH   6   7
ATOM      7  C   UNL     1       5.060  -9.049  -4.914  1.00  0.00     0.000 C 
BRANCH   7   8
ATOM      8  C   UNL     1       4.493 -10.072  -5.915  1.00  0.00     0.000 C 
BRANCH   8   9
ATOM      9  C   UNL     1       3.762  -9.410  -7.096  1.00  0.00     0.000 C 
BRANCH   9  10
ATOM     10  C   UNL     1       3.773  -7.874  -7.003  1.00  0.00     0.000 C 
BRANCH  10  11
ATOM     11  C   UNL     1       2.650  -7.333  -6.102  1.00  0.00     0.000 C 
BRANCH  11  12
ATOM     12  C   UNL     1       1.917  -6.126  -6.714  1.00  0.00     0.006 C 
BRANCH  12  13
ATOM     13  C   UNL     1       1.811  -4.914  -5.771  1.00  0.00     0.053 C 
BRANCH  13  14
ATOM     14  C   UNL     1       0.393  -4.514  -5.499  1.00  0.00     0.041 C 
ATOM     15  O   UNL     1      -0.025  -4.417  -4.315  1.00  0.00    -0.550 OA
ATOM     16  O   UNL     1      -0.457  -4.211  -6.555  1.00  0.00    -0.550 OA
ENDBRANCH  13  14
ENDBRANCH  12  13
ENDBRANCH  11  12
ENDBRANCH  10  11
ENDBRANCH   9  10
ENDBRANCH   8   9
ENDBRANCH   7   8
ENDBRANCH   6   7
ENDBRANCH   5   6
ENDBRANCH   4   5
ENDBRANCH   3   4
ENDBRANCH   2   3
ENDBRANCH   1   2
BRANCH   1  17
ATOM     17  C   UNL     1      -0.333  -6.445  -1.521  1.00  0.00     0.000 C 
BRANCH  17  18
ATOM     18  C   UNL     1       0.447  -5.541  -0.545  1.00  0.00     0.000 C 
BRANCH  18  19
ATOM     19  C   UNL     1       0.488  -4.075  -1.006  1.00  0.00     0.000 C 
BRANCH  19  20
ATOM     20  C   UNL     1       1.101  -3.132   0.044  1.00  0.00     0.000 C 
BRANCH  20  21
ATOM     21  C   UNL     1       0.219  -1.910   0.375  1.00  0.00     0.000 C 
BRANCH  21  22
ATOM     22  C   UNL     1       0.972  -0.847   1.195  1.00  0.00    -0.000 C 
BRANCH  22  23
ATOM     23  C   UNL     1       0.288   0.533   1.166  1.00  0.00    -0.000 C 
BRANCH  23  24
ATOM     24  C   UNL     1      -0.450   0.866  -0.143  1.00  0.00    -0.000 C 
BRANCH  24  25
ATOM     25  C   UNL     1      -1.635   1.821   0.060  1.00  0.00    -0.000 C 
BRANCH  25  26
ATOM     26  C   UNL     1      -1.344   3.196  -0.558  1.00  0.00    -0.000 C 
BRANCH  26  27
ATOM     27  C   UNL     1      -0.895   3.106  -2.025  1.00  0.00    -0.000 C 
BRANCH  27  28
ATOM     28  C   UNL     1       0.495   3.717  -2.257  1.00  0.00    -0.000 C 
BRANCH  28  29
ATOM     29  C   UNL     1       0.819   3.787  -3.754  1.00  0.00    -0.003 C 
ATOM     30  C   UNL     1       1.062   2.395  -4.330  1.00  0.00     0.004 C 
ENDBRANCH  28  29
ENDBRANCH  27  28
ENDBRANCH  26  27
ENDBRANCH  25  26
ENDBRANCH  24  25
ENDBRANCH  23  24
ENDBRANCH  22  23
ENDBRANCH  21  22
ENDBRANCH  20  21
ENDBRANCH  19  20
ENDBRANCH  18  19
ENDBRANCH  17  18
ENDBRANCH   1  17
TORSDOF 26
ENDMDL
MODEL 9
REMARK VINA RESULT:    -4.463      3.190     10.541
REMARK INTER + INTRA:         -13.783
REMARK INTER:                 -11.799
REMARK INTRA:                  -1.985
REMARK UNBOUND:                -2.537
REMARK SMILES CCCCCCCCCCCCCCCCCCCCCCCCCCCC(=O)[O-]
REMARK SMILES IDX 15 1 16 2 17 3 18 4 19 5 20 6 21 7 22 8 23 9 24 10 25 11
REMARK SMILES IDX 26 12 27 13 28 14 29 15 30 16 14 17 13 18 12 19 11 20 10 21
REMARK SMILES IDX 9 22 8 23 7 24 6 25 5 26 4 27 3 28 2 29 1 30
REMARK H PARENT
REMARK Flexibility Score: inf
ROOT
ATOM      1  C   UNL     1       0.371  -5.233  -2.324  1.00  0.00     0.000 C 
ENDROOT
BRANCH   1   2
ATOM      2  C   UNL     1       0.377  -4.494  -0.968  1.00  0.00     0.000 C 
BRANCH   2   3
ATOM      3  C   UNL     1       0.775  -3.009  -1.069  1.00  0.00     0.000 C 
BRANCH   3   4
ATOM      4  C   UNL     1       0.152  -2.105   0.012  1.00  0.00     0.000 C 
BRANCH   4   5
ATOM      5  C   UNL     1       1.128  -1.772   1.152  1.00  0.00     0.000 C 
BRANCH   5   6
ATOM      6  C   UNL     1       0.816  -0.395   1.757  1.00  0.00     0.000 C 
BRANCH   6   7
ATOM      7  C   UNL     1       0.497   0.671   0.693  1.00  0.00     0.000 C 
BRANCH   7   8
ATOM      8  C   UNL     1      -0.421   1.812   1.169  1.00  0.00     0.000 C 
BRANCH   8   9
ATOM      9  C   UNL     1      -1.337   2.346   0.054  1.00  0.00     0.000 C 
BRANCH   9  10
ATOM     10  C   UNL     1      -1.888   1.220  -0.838  1.00  0.00     0.000 C 
BRANCH  10  11
ATOM     11  C   UNL     1      -1.905   1.606  -2.327  1.00  0.00     0.000 C 
BRANCH  11  12
ATOM     12  C   UNL     1      -0.516   1.524  -2.985  1.00  0.00     0.006 C 
BRANCH  12  13
ATOM     13  C   UNL     1       0.363   2.764  -2.750  1.00  0.00     0.053 C 
BRANCH  13  14
ATOM     14  C   UNL     1       1.126   3.174  -3.973  1.00  0.00     0.041 C 
ATOM     15  O   UNL     1       1.273   2.370  -4.931  1.00  0.00    -0.550 OA
ATOM     16  O   UNL     1       1.641   4.461  -4.071  1.00  0.00    -0.550 OA
ENDBRANCH  13  14
ENDBRANCH  12  13
ENDBRANCH  11  12
ENDBRANCH  10  11
ENDBRANCH   9  10
ENDBRANCH   8   9
ENDBRANCH   7   8
ENDBRANCH   6   7
ENDBRANCH   5   6
ENDBRANCH   4   5
ENDBRANCH   3   4
ENDBRANCH   2   3
ENDBRANCH   1   2
BRANCH   1  17
ATOM     17  C   UNL     1      -0.149  -6.683  -2.250  1.00  0.00     0.000 C 
BRANCH  17  18
ATOM     18  C   UNL     1      -0.948  -6.997  -0.968  1.00  0.00     0.000 C 
BRANCH  18  19
ATOM     19  C   UNL     1      -1.811  -8.262  -1.109  1.00  0.00     0.000 C 
BRANCH  19  20
ATOM     20  C   UNL     1      -2.062  -8.971   0.233  1.00  0.00     0.000 C 
BRANCH  20  21
ATOM     21  C   UNL     1      -0.848  -9.770   0.752  1.00  0.00     0.000 C 
BRANCH  21  22
ATOM     22  C   UNL     1       0.151 -10.114  -0.367  1.00  0.00    -0.000 C 
BRANCH  22  23
ATOM     23  C   UNL     1       1.505  -9.398  -0.207  1.00  0.00    -0.000 C 
BRANCH  23  24
ATOM     24  C   UNL     1       2.381  -9.374  -1.473  1.00  0.00    -0.000 C 
BRANCH  24  25
ATOM     25  C   UNL     1       1.568  -9.479  -2.770  1.00  0.00    -0.000 C 
BRANCH  25  26
ATOM     26  C   UNL     1       2.493  -9.626  -3.987  1.00  0.00    -0.000 C 
BRANCH  26  27
ATOM     27  C   UNL     1       3.873  -8.986  -3.766  1.00  0.00    -0.000 C 
BRANCH  27  28
ATOM     28  C   UNL     1       4.573  -8.619  -5.083  1.00  0.00    -0.000 C 
BRANCH  28  29
ATOM     29  C   UNL     1       4.018  -9.447  -6.247  1.00  0.00    -0.003 C 
ATOM     30  C   UNL     1       3.727  -8.568  -7.460  1.00  0.00     0.004 C 
ENDBRANCH  28  29
ENDBRANCH  27  28
ENDBRANCH  26  27
ENDBRANCH  25  26
ENDBRANCH  24  25
ENDBRANCH  23  24
ENDBRANCH  22  23
ENDBRANCH  21  22
ENDBRANCH  20  21
ENDBRANCH  19  20
ENDBRANCH  18  19
ENDBRANCH  17  18
ENDBRANCH   1  17
TORSDOF 26
ENDMDL
