MODEL 1
REMARK VINA RESULT:    -5.598      0.000      0.000
REMARK INTER + INTRA:         -19.524
REMARK INTER:                 -14.761
REMARK INTRA:                  -4.764
REMARK UNBOUND:                -4.764
REMARK SMILES CCCCCCCCCCCCCCCCCCCCCCCCCCCCCC(=O)[O-]
REMARK SMILES IDX 16 1 17 2 18 3 19 4 20 5 21 6 22 7 23 8 24 9 25 10 26 11
REMARK SMILES IDX 27 12 28 13 29 14 30 15 31 16 32 17 15 18 14 19 13 20 12 21
REMARK SMILES IDX 11 22 10 23 9 24 8 25 7 26 6 27 5 28 4 29 3 30 2 31 1 32
REMARK H PARENT
REMARK Flexibility Score: inf
ROOT
ATOM      1  C   UNL     1     122.807 177.385 123.620  1.00  0.00     0.000 C 
ENDROOT
BRANCH   1   2
ATOM      2  C   UNL     1     123.877 177.225 122.519  1.00  0.00     0.000 C 
BRANCH   2   3
ATOM      3  C   UNL     1     123.446 177.853 121.185  1.00  0.00     0.000 C 
BRANCH   3   4
ATOM      4  C   UNL     1     124.449 177.517 120.073  1.00  0.00     0.000 C 
BRANCH   4   5
ATOM      5  C   UNL     1     125.401 176.393 120.506  1.00  0.00     0.000 C 
BRANCH   5   6
ATOM      6  C   UNL     1     126.846 176.626 120.031  1.00  0.00     0.000 C 
BRANCH   6   7
ATOM      7  C   UNL     1     127.445 177.994 120.428  1.00  0.00     0.000 C 
BRANCH   7   8
ATOM      8  C   UNL     1     128.242 178.005 121.749  1.00  0.00     0.000 C 
BRANCH   8   9
ATOM      9  C   UNL     1     127.461 178.519 122.973  1.00  0.00     0.000 C 
BRANCH   9  10
ATOM     10  C   UNL     1     127.107 177.398 123.965  1.00  0.00     0.000 C 
BRANCH  10  11
ATOM     11  C   UNL     1     128.341 176.581 124.390  1.00  0.00     0.000 C 
BRANCH  11  12
ATOM     12  C   UNL     1     128.183 175.063 124.178  1.00  0.00     0.000 C 
BRANCH  12  13
ATOM     13  C   UNL     1     126.883 174.703 123.435  1.00  0.00     0.006 C 
BRANCH  13  14
ATOM     14  C   UNL     1     125.961 173.816 124.282  1.00  0.00     0.053 C 
BRANCH  14  15
ATOM     15  C   UNL     1     126.425 172.390 124.294  1.00  0.00     0.041 C 
ATOM     16  O   UNL     1     126.225 171.666 125.305  1.00  0.00    -0.550 OA
ATOM     17  O   UNL     1     127.057 171.856 123.178  1.00  0.00    -0.550 OA
ENDBRANCH  14  15
ENDBRANCH  13  14
ENDBRANCH  12  13
ENDBRANCH  11  12
ENDBRANCH  10  11
ENDBRANCH   9  10
ENDBRANCH   8   9
ENDBRANCH   7   8
ENDBRANCH   6   7
ENDBRANCH   5   6
ENDBRANCH   4   5
ENDBRANCH   3   4
ENDBRANCH   2   3
ENDBRANCH   1   2
BRANCH   1  18
ATOM     18  C   UNL     1     123.298 176.976 125.020  1.00  0.00     0.000 C 
BRANCH  18  19
ATOM     19  C   UNL     1     124.091 178.062 125.772  1.00  0.00     0.000 C 
BRANCH  19  20
ATOM     20  C   UNL     1     123.291 178.819 126.849  1.00  0.00     0.000 C 
BRANCH  20  21
ATOM     21  C   UNL     1     121.958 178.131 127.199  1.00  0.00     0.000 C 
BRANCH  21  22
ATOM     22  C   UNL     1     120.756 179.086 127.118  1.00  0.00     0.000 C 
BRANCH  22  23
ATOM     23  C   UNL     1     120.449 179.536 125.681  1.00  0.00     0.000 C 
BRANCH  23  24
ATOM     24  C   UNL     1     118.946 179.492 125.358  1.00  0.00    -0.000 C 
BRANCH  24  25
ATOM     25  C   UNL     1     118.437 178.064 125.093  1.00  0.00    -0.000 C 
BRANCH  25  26
ATOM     26  C   UNL     1     117.778 177.430 126.339  1.00  0.00    -0.000 C 
BRANCH  26  27
ATOM     27  C   UNL     1     118.573 176.246 126.925  1.00  0.00    -0.000 C 
BRANCH  27  28
ATOM     28  C   UNL     1     118.956 175.155 125.908  1.00  0.00    -0.000 C 
BRANCH  28  29
ATOM     29  C   UNL     1     120.438 175.150 125.481  1.00  0.00    -0.000 C 
BRANCH  29  30
ATOM     30  C   UNL     1     121.102 173.762 125.436  1.00  0.00    -0.000 C 
BRANCH  30  31
ATOM     31  C   UNL     1     122.275 173.630 126.419  1.00  0.00    -0.003 C 
ATOM     32  C   UNL     1     121.885 174.132 127.807  1.00  0.00     0.004 C 
ENDBRANCH  30  31
ENDBRANCH  29  30
ENDBRANCH  28  29
ENDBRANCH  27  28
ENDBRANCH  26  27
ENDBRANCH  25  26
ENDBRANCH  24  25
ENDBRANCH  23  24
ENDBRANCH  22  23
ENDBRANCH  21  22
ENDBRANCH  20  21
ENDBRANCH  19  20
ENDBRANCH  18  19
ENDBRANCH   1  18
TORSDOF 28
ENDMDL
MODEL 2
REMARK VINA RESULT:    -5.588      2.425      4.390
REMARK INTER + INTRA:         -19.498
REMARK INTER:                 -14.301
REMARK INTRA:                  -5.197
REMARK UNBOUND:                -4.764
REMARK SMILES CCCCCCCCCCCCCCCCCCCCCCCCCCCCCC(=O)[O-]
REMARK SMILES IDX 16 1 17 2 18 3 19 4 20 5 21 6 22 7 23 8 24 9 25 10 26 11
REMARK SMILES IDX 27 12 28 13 29 14 30 15 31 16 32 17 15 18 14 19 13 20 12 21
REMARK SMILES IDX 11 22 10 23 9 24 8 25 7 26 6 27 5 28 4 29 3 30 2 31 1 32
REMARK H PARENT
REMARK Flexibility Score: inf
ROOT
ATOM      1  C   UNL     1     124.396 176.899 122.155  1.00  0.00     0.000 C 
ENDROOT
BRANCH   1   2
ATOM      2  C   UNL     1     124.842 177.816 120.996  1.00  0.00     0.000 C 
BRANCH   2   3
ATOM      3  C   UNL     1     126.340 178.148 121.053  1.00  0.00     0.000 C 
BRANCH   3   4
ATOM      4  C   UNL     1     126.778 178.456 122.490  1.00  0.00     0.000 C 
BRANCH   4   5
ATOM      5  C   UNL     1     128.255 178.095 122.709  1.00  0.00     0.000 C 
BRANCH   5   6
ATOM      6  C   UNL     1     128.523 177.531 124.116  1.00  0.00     0.000 C 
BRANCH   6   7
ATOM      7  C   UNL     1     127.427 176.584 124.653  1.00  0.00     0.000 C 
BRANCH   7   8
ATOM      8  C   UNL     1     127.640 175.088 124.343  1.00  0.00     0.000 C 
BRANCH   8   9
ATOM      9  C   UNL     1     126.478 174.410 123.592  1.00  0.00     0.000 C 
BRANCH   9  10
ATOM     10  C   UNL     1     126.925 173.170 122.799  1.00  0.00     0.000 C 
BRANCH  10  11
ATOM     11  C   UNL     1     126.891 173.407 121.278  1.00  0.00     0.000 C 
BRANCH  11  12
ATOM     12  C   UNL     1     127.378 174.805 120.856  1.00  0.00     0.000 C 
BRANCH  12  13
ATOM     13  C   UNL     1     128.914 174.901 120.792  1.00  0.00     0.006 C 
BRANCH  13  14
ATOM     14  C   UNL     1     129.415 175.203 119.374  1.00  0.00     0.053 C 
BRANCH  14  15
ATOM     15  C   UNL     1     128.930 176.536 118.889  1.00  0.00     0.041 C 
ATOM     16  O   UNL     1     129.389 177.598 119.386  1.00  0.00    -0.550 OA
ATOM     17  O   UNL     1     127.987 176.604 117.871  1.00  0.00    -0.550 OA
ENDBRANCH  14  15
ENDBRANCH  13  14
ENDBRANCH  12  13
ENDBRANCH  11  12
ENDBRANCH  10  11
ENDBRANCH   9  10
ENDBRANCH   8   9
ENDBRANCH   7   8
ENDBRANCH   6   7
ENDBRANCH   5   6
ENDBRANCH   4   5
ENDBRANCH   3   4
ENDBRANCH   2   3
ENDBRANCH   1   2
BRANCH   1  18
ATOM     18  C   UNL     1     123.169 177.425 122.921  1.00  0.00     0.000 C 
BRANCH  18  19
ATOM     19  C   UNL     1     122.490 176.396 123.844  1.00  0.00     0.000 C 
BRANCH  19  20
ATOM     20  C   UNL     1     122.929 176.460 125.319  1.00  0.00     0.000 C 
BRANCH  20  21
ATOM     21  C   UNL     1     123.728 177.734 125.650  1.00  0.00     0.000 C 
BRANCH  21  22
ATOM     22  C   UNL     1     123.095 178.557 126.784  1.00  0.00     0.000 C 
BRANCH  22  23
ATOM     23  C   UNL     1     122.333 177.687 127.798  1.00  0.00     0.000 C 
BRANCH  23  24
ATOM     24  C   UNL     1     120.897 178.181 128.037  1.00  0.00    -0.000 C 
BRANCH  24  25
ATOM     25  C   UNL     1     119.925 177.039 128.382  1.00  0.00    -0.000 C 
BRANCH  25  26
ATOM     26  C   UNL     1     120.052 175.841 127.414  1.00  0.00    -0.000 C 
BRANCH  26  27
ATOM     27  C   UNL     1     119.313 176.045 126.077  1.00  0.00    -0.000 C 
BRANCH  27  28
ATOM     28  C   UNL     1     118.097 176.986 126.145  1.00  0.00    -0.000 C 
BRANCH  28  29
ATOM     29  C   UNL     1     118.203 178.256 125.275  1.00  0.00    -0.000 C 
BRANCH  29  30
ATOM     30  C   UNL     1     119.278 178.207 124.173  1.00  0.00    -0.000 C 
BRANCH  30  31
ATOM     31  C   UNL     1     120.363 179.278 124.350  1.00  0.00    -0.003 C 
ATOM     32  C   UNL     1     120.003 180.242 125.477  1.00  0.00     0.004 C 
ENDBRANCH  30  31
ENDBRANCH  29  30
ENDBRANCH  28  29
ENDBRANCH  27  28
ENDBRANCH  26  27
ENDBRANCH  25  26
ENDBRANCH  24  25
ENDBRANCH  23  24
ENDBRANCH  22  23
ENDBRANCH  21  22
ENDBRANCH  20  21
ENDBRANCH  19  20
ENDBRANCH  18  19
ENDBRANCH   1  18
TORSDOF 28
ENDMDL
MODEL 3
REMARK VINA RESULT:    -5.549      3.037      8.638
REMARK INTER + INTRA:         -19.395
REMARK INTER:                 -14.551
REMARK INTRA:                  -4.844
REMARK UNBOUND:                -4.764
REMARK SMILES CCCCCCCCCCCCCCCCCCCCCCCCCCCCCC(=O)[O-]
REMARK SMILES IDX 16 1 17 2 18 3 19 4 20 5 21 6 22 7 23 8 24 9 25 10 26 11
REMARK SMILES IDX 27 12 28 13 29 14 30 15 31 16 32 17 15 18 14 19 13 20 12 21
REMARK SMILES IDX 11 22 10 23 9 24 8 25 7 26 6 27 5 28 4 29 3 30 2 31 1 32
REMARK H PARENT
REMARK Flexibility Score: inf
ROOT
ATOM      1  C   UNL     1     123.405 177.855 120.897  1.00  0.00     0.000 C 
ENDROOT
BRANCH   1   2
ATOM      2  C   UNL     1     123.914 177.377 122.274  1.00  0.00     0.000 C 
BRANCH   2   3
ATOM      3  C   UNL     1     122.846 177.503 123.371  1.00  0.00     0.000 C 
BRANCH   3   4
ATOM      4  C   UNL     1     122.877 176.287 124.306  1.00  0.00     0.000 C 
BRANCH   4   5
ATOM      5  C   UNL     1     121.486 175.648 124.429  1.00  0.00     0.000 C 
BRANCH   5   6
ATOM      6  C   UNL     1     121.400 174.638 125.589  1.00  0.00     0.000 C 
BRANCH   6   7
ATOM      7  C   UNL     1     120.463 175.057 126.743  1.00  0.00     0.000 C 
BRANCH   7   8
ATOM      8  C   UNL     1     121.173 175.489 128.043  1.00  0.00     0.000 C 
BRANCH   8   9
ATOM      9  C   UNL     1     122.017 176.772 127.925  1.00  0.00     0.000 C 
BRANCH   9  10
ATOM     10  C   UNL     1     121.433 177.945 128.730  1.00  0.00     0.000 C 
BRANCH  10  11
ATOM     11  C   UNL     1     120.683 178.951 127.838  1.00  0.00     0.000 C 
BRANCH  11  12
ATOM     12  C   UNL     1     121.103 178.900 126.357  1.00  0.00     0.000 C 
BRANCH  12  13
ATOM     13  C   UNL     1     120.085 179.589 125.430  1.00  0.00     0.006 C 
BRANCH  13  14
ATOM     14  C   UNL     1     119.498 178.621 124.395  1.00  0.00     0.053 C 
BRANCH  14  15
ATOM     15  C   UNL     1     118.111 178.192 124.765  1.00  0.00     0.041 C 
ATOM     16  O   UNL     1     117.130 178.522 124.047  1.00  0.00    -0.550 OA
ATOM     17  O   UNL     1     117.904 177.406 125.893  1.00  0.00    -0.550 OA
ENDBRANCH  14  15
ENDBRANCH  13  14
ENDBRANCH  12  13
ENDBRANCH  11  12
ENDBRANCH  10  11
ENDBRANCH   9  10
ENDBRANCH   8   9
ENDBRANCH   7   8
ENDBRANCH   6   7
ENDBRANCH   5   6
ENDBRANCH   4   5
ENDBRANCH   3   4
ENDBRANCH   2   3
ENDBRANCH   1   2
BRANCH   1  18
ATOM     18  C   UNL     1     124.533 178.221 119.916  1.00  0.00     0.000 C 
BRANCH  18  19
ATOM     19  C   UNL     1     125.110 177.035 119.121  1.00  0.00     0.000 C 
BRANCH  19  20
ATOM     20  C   UNL     1     126.509 177.276 118.523  1.00  0.00     0.000 C 
BRANCH  20  21
ATOM     21  C   UNL     1     127.330 178.309 119.316  1.00  0.00     0.000 C 
BRANCH  21  22
ATOM     22  C   UNL     1     128.846 178.078 119.206  1.00  0.00     0.000 C 
BRANCH  22  23
ATOM     23  C   UNL     1     129.402 177.220 120.355  1.00  0.00     0.000 C 
BRANCH  23  24
ATOM     24  C   UNL     1     129.492 175.730 119.987  1.00  0.00    -0.000 C 
BRANCH  24  25
ATOM     25  C   UNL     1     129.000 174.809 121.118  1.00  0.00    -0.000 C 
BRANCH  25  26
ATOM     26  C   UNL     1     127.533 174.364 120.922  1.00  0.00    -0.000 C 
BRANCH  26  27
ATOM     27  C   UNL     1     126.542 175.063 121.873  1.00  0.00    -0.000 C 
BRANCH  27  28
ATOM     28  C   UNL     1     126.788 174.805 123.371  1.00  0.00    -0.000 C 
BRANCH  28  29
ATOM     29  C   UNL     1     126.771 176.065 124.262  1.00  0.00    -0.000 C 
BRANCH  29  30
ATOM     30  C   UNL     1     128.156 176.643 124.604  1.00  0.00    -0.000 C 
BRANCH  30  31
ATOM     31  C   UNL     1     128.501 177.892 123.778  1.00  0.00    -0.003 C 
ATOM     32  C   UNL     1     127.244 178.519 123.183  1.00  0.00     0.004 C 
ENDBRANCH  30  31
ENDBRANCH  29  30
ENDBRANCH  28  29
ENDBRANCH  27  28
ENDBRANCH  26  27
ENDBRANCH  25  26
ENDBRANCH  24  25
ENDBRANCH  23  24
ENDBRANCH  22  23
ENDBRANCH  21  22
ENDBRANCH  20  21
ENDBRANCH  19  20
ENDBRANCH  18  19
ENDBRANCH   1  18
TORSDOF 28
ENDMDL
MODEL 4
REMARK VINA RESULT:    -5.521      2.678      5.153
REMARK INTER + INTRA:         -19.323
REMARK INTER:                 -14.637
REMARK INTRA:                  -4.686
REMARK UNBOUND:                -4.764
REMARK SMILES CCCCCCCCCCCCCCCCCCCCCCCCCCCCCC(=O)[O-]
REMARK SMILES IDX 16 1 17 2 18 3 19 4 20 5 21 6 22 7 23 8 24 9 25 10 26 11
REMARK SMILES IDX 27 12 28 13 29 14 30 15 31 16 32 17 15 18 14 19 13 20 12 21
REMARK SMILES IDX 11 22 10 23 9 24 8 25 7 26 6 27 5 28 4 29 3 30 2 31 1 32
REMARK H PARENT
REMARK Flexibility Score: inf
ROOT
ATOM      1  C   UNL     1     124.698 176.659 124.220  1.00  0.00     0.000 C 
ENDROOT
BRANCH   1   2
ATOM      2  C   UNL     1     125.052 176.860 122.731  1.00  0.00     0.000 C 
BRANCH   2   3
ATOM      3  C   UNL     1     126.259 177.790 122.534  1.00  0.00     0.000 C 
BRANCH   3   4
ATOM      4  C   UNL     1     126.945 178.087 123.873  1.00  0.00     0.000 C 
BRANCH   4   5
ATOM      5  C   UNL     1     128.404 177.607 123.867  1.00  0.00     0.000 C 
BRANCH   5   6
ATOM      6  C   UNL     1     128.619 176.358 124.741  1.00  0.00     0.000 C 
BRANCH   6   7
ATOM      7  C   UNL     1     127.952 175.072 124.206  1.00  0.00     0.000 C 
BRANCH   7   8
ATOM      8  C   UNL     1     128.629 174.444 122.970  1.00  0.00     0.000 C 
BRANCH   8   9
ATOM      9  C   UNL     1     127.824 174.559 121.662  1.00  0.00     0.000 C 
BRANCH   9  10
ATOM     10  C   UNL     1     128.696 174.968 120.462  1.00  0.00     0.000 C 
BRANCH  10  11
ATOM     11  C   UNL     1     129.113 176.449 120.520  1.00  0.00     0.000 C 
BRANCH  11  12
ATOM     12  C   UNL     1     129.018 177.174 119.165  1.00  0.00     0.000 C 
BRANCH  12  13
ATOM     13  C   UNL     1     127.779 178.083 119.067  1.00  0.00     0.006 C 
BRANCH  13  14
ATOM     14  C   UNL     1     126.634 177.418 118.294  1.00  0.00     0.053 C 
BRANCH  14  15
ATOM     15  C   UNL     1     125.374 178.227 118.368  1.00  0.00     0.041 C 
ATOM     16  O   UNL     1     124.562 178.227 117.406  1.00  0.00    -0.550 OA
ATOM     17  O   UNL     1     125.087 178.962 119.512  1.00  0.00    -0.550 OA
ENDBRANCH  14  15
ENDBRANCH  13  14
ENDBRANCH  12  13
ENDBRANCH  11  12
ENDBRANCH  10  11
ENDBRANCH   9  10
ENDBRANCH   8   9
ENDBRANCH   7   8
ENDBRANCH   6   7
ENDBRANCH   5   6
ENDBRANCH   4   5
ENDBRANCH   3   4
ENDBRANCH   2   3
ENDBRANCH   1   2
BRANCH   1  18
ATOM     18  C   UNL     1     123.381 177.336 124.638  1.00  0.00     0.000 C 
BRANCH  18  19
ATOM     19  C   UNL     1     122.208 177.130 123.660  1.00  0.00     0.000 C 
BRANCH  19  20
ATOM     20  C   UNL     1     121.043 176.288 124.213  1.00  0.00     0.000 C 
BRANCH  20  21
ATOM     21  C   UNL     1     121.501 174.931 124.778  1.00  0.00     0.000 C 
BRANCH  21  22
ATOM     22  C   UNL     1     120.676 174.484 125.996  1.00  0.00     0.000 C 
BRANCH  22  23
ATOM     23  C   UNL     1     119.364 175.272 126.148  1.00  0.00     0.000 C 
BRANCH  23  24
ATOM     24  C   UNL     1     119.004 175.539 127.620  1.00  0.00    -0.000 C 
BRANCH  24  25
ATOM     25  C   UNL     1     119.187 177.014 128.017  1.00  0.00    -0.000 C 
BRANCH  25  26
ATOM     26  C   UNL     1     120.575 177.566 127.623  1.00  0.00    -0.000 C 
BRANCH  26  27
ATOM     27  C   UNL     1     120.585 179.085 127.361  1.00  0.00    -0.000 C 
BRANCH  27  28
ATOM     28  C   UNL     1     120.366 179.490 125.892  1.00  0.00    -0.000 C 
BRANCH  28  29
ATOM     29  C   UNL     1     118.890 179.631 125.466  1.00  0.00    -0.000 C 
BRANCH  29  30
ATOM     30  C   UNL     1     118.349 178.485 124.590  1.00  0.00    -0.000 C 
BRANCH  30  31
ATOM     31  C   UNL     1     116.817 178.380 124.626  1.00  0.00    -0.003 C 
ATOM     32  C   UNL     1     116.323 178.055 126.032  1.00  0.00     0.004 C 
ENDBRANCH  30  31
ENDBRANCH  29  30
ENDBRANCH  28  29
ENDBRANCH  27  28
ENDBRANCH  26  27
ENDBRANCH  25  26
ENDBRANCH  24  25
ENDBRANCH  23  24
ENDBRANCH  22  23
ENDBRANCH  21  22
ENDBRANCH  20  21
ENDBRANCH  19  20
ENDBRANCH  18  19
ENDBRANCH   1  18
TORSDOF 28
ENDMDL
MODEL 5
REMARK VINA RESULT:    -5.454      1.931      7.782
REMARK INTER + INTRA:         -19.146
REMARK INTER:                 -14.115
REMARK INTRA:                  -5.032
REMARK UNBOUND:                -4.764
REMARK SMILES CCCCCCCCCCCCCCCCCCCCCCCCCCCCCC(=O)[O-]
REMARK SMILES IDX 16 1 17 2 18 3 19 4 20 5 21 6 22 7 23 8 24 9 25 10 26 11
REMARK SMILES IDX 27 12 28 13 29 14 30 15 31 16 32 17 15 18 14 19 13 20 12 21
REMARK SMILES IDX 11 22 10 23 9 24 8 25 7 26 6 27 5 28 4 29 3 30 2 31 1 32
REMARK H PARENT
REMARK Flexibility Score: inf
ROOT
ATOM      1  C   UNL     1     123.720 177.735 120.742  1.00  0.00     0.000 C 
ENDROOT
BRANCH   1   2
ATOM      2  C   UNL     1     124.207 177.290 122.138  1.00  0.00     0.000 C 
BRANCH   2   3
ATOM      3  C   UNL     1     123.067 177.223 123.164  1.00  0.00     0.000 C 
BRANCH   3   4
ATOM      4  C   UNL     1     123.577 176.706 124.516  1.00  0.00     0.000 C 
BRANCH   4   5
ATOM      5  C   UNL     1     123.924 177.867 125.459  1.00  0.00     0.000 C 
BRANCH   5   6
ATOM      6  C   UNL     1     123.000 177.926 126.689  1.00  0.00     0.000 C 
BRANCH   6   7
ATOM      7  C   UNL     1     122.205 179.241 126.839  1.00  0.00     0.000 C 
BRANCH   7   8
ATOM      8  C   UNL     1     120.700 179.141 126.517  1.00  0.00     0.000 C 
BRANCH   8   9
ATOM      9  C   UNL     1     120.356 179.144 125.016  1.00  0.00     0.000 C 
BRANCH   9  10
ATOM     10  C   UNL     1     119.564 177.898 124.585  1.00  0.00     0.000 C 
BRANCH  10  11
ATOM     11  C   UNL     1     119.532 176.817 125.681  1.00  0.00     0.000 C 
BRANCH  11  12
ATOM     12  C   UNL     1     120.374 175.571 125.349  1.00  0.00     0.000 C 
BRANCH  12  13
ATOM     13  C   UNL     1     120.939 174.887 126.607  1.00  0.00     0.006 C 
BRANCH  13  14
ATOM     14  C   UNL     1     121.889 173.733 126.261  1.00  0.00     0.053 C 
BRANCH  14  15
ATOM     15  C   UNL     1     121.221 172.401 126.420  1.00  0.00     0.041 C 
ATOM     16  O   UNL     1     120.994 171.679 125.413  1.00  0.00    -0.550 OA
ATOM     17  O   UNL     1     120.871 171.946 127.685  1.00  0.00    -0.550 OA
ENDBRANCH  14  15
ENDBRANCH  13  14
ENDBRANCH  12  13
ENDBRANCH  11  12
ENDBRANCH  10  11
ENDBRANCH   9  10
ENDBRANCH   8   9
ENDBRANCH   7   8
ENDBRANCH   6   7
ENDBRANCH   5   6
ENDBRANCH   4   5
ENDBRANCH   3   4
ENDBRANCH   2   3
ENDBRANCH   1   2
BRANCH   1  18
ATOM     18  C   UNL     1     124.782 178.505 119.936  1.00  0.00     0.000 C 
BRANCH  18  19
ATOM     19  C   UNL     1     125.257 177.799 118.651  1.00  0.00     0.000 C 
BRANCH  19  20
ATOM     20  C   UNL     1     126.633 177.116 118.759  1.00  0.00     0.000 C 
BRANCH  20  21
ATOM     21  C   UNL     1     127.763 177.944 118.118  1.00  0.00     0.000 C 
BRANCH  21  22
ATOM     22  C   UNL     1     128.987 178.092 119.036  1.00  0.00     0.000 C 
BRANCH  22  23
ATOM     23  C   UNL     1     128.874 177.253 120.319  1.00  0.00     0.000 C 
BRANCH  23  24
ATOM     24  C   UNL     1     128.963 178.109 121.594  1.00  0.00    -0.000 C 
BRANCH  24  25
ATOM     25  C   UNL     1     127.639 178.150 122.376  1.00  0.00    -0.000 C 
BRANCH  25  26
ATOM     26  C   UNL     1     127.844 177.977 123.897  1.00  0.00    -0.000 C 
BRANCH  26  27
ATOM     27  C   UNL     1     127.278 176.655 124.452  1.00  0.00    -0.000 C 
BRANCH  27  28
ATOM     28  C   UNL     1     127.735 175.389 123.704  1.00  0.00    -0.000 C 
BRANCH  28  29
ATOM     29  C   UNL     1     126.613 174.619 122.976  1.00  0.00    -0.000 C 
BRANCH  29  30
ATOM     30  C   UNL     1     126.705 174.627 121.439  1.00  0.00    -0.000 C 
BRANCH  30  31
ATOM     31  C   UNL     1     127.644 173.542 120.892  1.00  0.00    -0.003 C 
ATOM     32  C   UNL     1     127.139 172.148 121.252  1.00  0.00     0.004 C 
ENDBRANCH  30  31
ENDBRANCH  29  30
ENDBRANCH  28  29
ENDBRANCH  27  28
ENDBRANCH  26  27
ENDBRANCH  25  26
ENDBRANCH  24  25
ENDBRANCH  23  24
ENDBRANCH  22  23
ENDBRANCH  21  22
ENDBRANCH  20  21
ENDBRANCH  19  20
ENDBRANCH  18  19
ENDBRANCH   1  18
TORSDOF 28
ENDMDL
MODEL 6
REMARK VINA RESULT:    -5.451      1.582      3.692
REMARK INTER + INTRA:         -19.138
REMARK INTER:                 -14.507
REMARK INTRA:                  -4.631
REMARK UNBOUND:                -4.764
REMARK SMILES CCCCCCCCCCCCCCCCCCCCCCCCCCCCCC(=O)[O-]
REMARK SMILES IDX 16 1 17 2 18 3 19 4 20 5 21 6 22 7 23 8 24 9 25 10 26 11
REMARK SMILES IDX 27 12 28 13 29 14 30 15 31 16 32 17 15 18 14 19 13 20 12 21
REMARK SMILES IDX 11 22 10 23 9 24 8 25 7 26 6 27 5 28 4 29 3 30 2 31 1 32
REMARK H PARENT
REMARK Flexibility Score: inf
ROOT
ATOM      1  C   UNL     1     123.783 177.341 122.477  1.00  0.00     0.000 C 
ENDROOT
BRANCH   1   2
ATOM      2  C   UNL     1     123.528 178.062 121.137  1.00  0.00     0.000 C 
BRANCH   2   3
ATOM      3  C   UNL     1     124.781 178.118 120.251  1.00  0.00     0.000 C 
BRANCH   3   4
ATOM      4  C   UNL     1     125.129 176.726 119.708  1.00  0.00     0.000 C 
BRANCH   4   5
ATOM      5  C   UNL     1     126.629 176.431 119.858  1.00  0.00     0.000 C 
BRANCH   5   6
ATOM      6  C   UNL     1     127.438 177.676 120.263  1.00  0.00     0.000 C 
BRANCH   6   7
ATOM      7  C   UNL     1     128.504 177.429 121.353  1.00  0.00     0.000 C 
BRANCH   7   8
ATOM      8  C   UNL     1     128.373 178.309 122.614  1.00  0.00     0.000 C 
BRANCH   8   9
ATOM      9  C   UNL     1     127.183 177.960 123.527  1.00  0.00     0.000 C 
BRANCH   9  10
ATOM     10  C   UNL     1     127.431 176.696 124.369  1.00  0.00     0.000 C 
BRANCH  10  11
ATOM     11  C   UNL     1     126.290 175.671 124.234  1.00  0.00     0.000 C 
BRANCH  11  12
ATOM     12  C   UNL     1     126.434 174.740 123.015  1.00  0.00     0.000 C 
BRANCH  12  13
ATOM     13  C   UNL     1     127.520 173.667 123.216  1.00  0.00     0.006 C 
BRANCH  13  14
ATOM     14  C   UNL     1     128.701 173.854 122.255  1.00  0.00     0.053 C 
BRANCH  14  15
ATOM     15  C   UNL     1     128.585 172.961 121.057  1.00  0.00     0.041 C 
ATOM     16  O   UNL     1     129.491 172.950 120.183  1.00  0.00    -0.550 OA
ATOM     17  O   UNL     1     127.486 172.123 120.920  1.00  0.00    -0.550 OA
ENDBRANCH  14  15
ENDBRANCH  13  14
ENDBRANCH  12  13
ENDBRANCH  11  12
ENDBRANCH  10  11
ENDBRANCH   9  10
ENDBRANCH   8   9
ENDBRANCH   7   8
ENDBRANCH   6   7
ENDBRANCH   5   6
ENDBRANCH   4   5
ENDBRANCH   3   4
ENDBRANCH   2   3
ENDBRANCH   1   2
BRANCH   1  18
ATOM     18  C   UNL     1     122.562 177.333 123.415  1.00  0.00     0.000 C 
BRANCH  18  19
ATOM     19  C   UNL     1     122.561 176.208 124.467  1.00  0.00     0.000 C 
BRANCH  19  20
ATOM     20  C   UNL     1     121.163 175.747 124.921  1.00  0.00     0.000 C 
BRANCH  20  21
ATOM     21  C   UNL     1     121.211 174.788 126.125  1.00  0.00     0.000 C 
BRANCH  21  22
ATOM     22  C   UNL     1     121.846 175.428 127.371  1.00  0.00     0.000 C 
BRANCH  22  23
ATOM     23  C   UNL     1     121.270 176.818 127.686  1.00  0.00     0.000 C 
BRANCH  23  24
ATOM     24  C   UNL     1     122.336 177.925 127.631  1.00  0.00    -0.000 C 
BRANCH  24  25
ATOM     25  C   UNL     1     121.890 179.139 126.798  1.00  0.00    -0.000 C 
BRANCH  25  26
ATOM     26  C   UNL     1     120.356 179.207 126.624  1.00  0.00    -0.000 C 
BRANCH  26  27
ATOM     27  C   UNL     1     119.909 179.443 125.169  1.00  0.00    -0.000 C 
BRANCH  27  28
ATOM     28  C   UNL     1     118.792 178.505 124.673  1.00  0.00    -0.000 C 
BRANCH  28  29
ATOM     29  C   UNL     1     118.175 177.595 125.755  1.00  0.00    -0.000 C 
BRANCH  29  30
ATOM     30  C   UNL     1     116.686 177.851 126.054  1.00  0.00    -0.000 C 
BRANCH  30  31
ATOM     31  C   UNL     1     115.891 178.268 124.809  1.00  0.00    -0.003 C 
ATOM     32  C   UNL     1     114.793 179.265 125.169  1.00  0.00     0.004 C 
ENDBRANCH  30  31
ENDBRANCH  29  30
ENDBRANCH  28  29
ENDBRANCH  27  28
ENDBRANCH  26  27
ENDBRANCH  25  26
ENDBRANCH  24  25
ENDBRANCH  23  24
ENDBRANCH  22  23
ENDBRANCH  21  22
ENDBRANCH  20  21
ENDBRANCH  19  20
ENDBRANCH  18  19
ENDBRANCH   1  18
TORSDOF 28
ENDMDL
MODEL 7
REMARK VINA RESULT:    -5.443      1.490      3.605
REMARK INTER + INTRA:         -19.115
REMARK INTER:                 -14.467
REMARK INTRA:                  -4.648
REMARK UNBOUND:                -4.764
REMARK SMILES CCCCCCCCCCCCCCCCCCCCCCCCCCCCCC(=O)[O-]
REMARK SMILES IDX 16 1 17 2 18 3 19 4 20 5 21 6 22 7 23 8 24 9 25 10 26 11
REMARK SMILES IDX 27 12 28 13 29 14 30 15 31 16 32 17 15 18 14 19 13 20 12 21
REMARK SMILES IDX 11 22 10 23 9 24 8 25 7 26 6 27 5 28 4 29 3 30 2 31 1 32
REMARK H PARENT
REMARK Flexibility Score: inf
ROOT
ATOM      1  C   UNL     1     122.953 177.575 124.775  1.00  0.00     0.000 C 
ENDROOT
BRANCH   1   2
ATOM      2  C   UNL     1     123.722 176.729 123.738  1.00  0.00     0.000 C 
BRANCH   2   3
ATOM      3  C   UNL     1     125.108 177.308 123.418  1.00  0.00     0.000 C 
BRANCH   3   4
ATOM      4  C   UNL     1     125.245 177.604 121.919  1.00  0.00     0.000 C 
BRANCH   4   5
ATOM      5  C   UNL     1     123.893 177.470 121.202  1.00  0.00     0.000 C 
BRANCH   5   6
ATOM      6  C   UNL     1     124.046 177.307 119.679  1.00  0.00     0.000 C 
BRANCH   6   7
ATOM      7  C   UNL     1     124.967 178.348 119.005  1.00  0.00     0.000 C 
BRANCH   7   8
ATOM      8  C   UNL     1     126.252 177.776 118.370  1.00  0.00     0.000 C 
BRANCH   8   9
ATOM      9  C   UNL     1     127.559 178.438 118.845  1.00  0.00     0.000 C 
BRANCH   9  10
ATOM     10  C   UNL     1     128.370 177.538 119.793  1.00  0.00     0.000 C 
BRANCH  10  11
ATOM     11  C   UNL     1     127.903 176.071 119.749  1.00  0.00     0.000 C 
BRANCH  11  12
ATOM     12  C   UNL     1     128.809 175.107 120.538  1.00  0.00     0.000 C 
BRANCH  12  13
ATOM     13  C   UNL     1     128.035 173.908 121.116  1.00  0.00     0.006 C 
BRANCH  13  14
ATOM     14  C   UNL     1     126.844 174.350 121.976  1.00  0.00     0.053 C 
BRANCH  14  15
ATOM     15  C   UNL     1     127.129 174.187 123.439  1.00  0.00     0.041 C 
ATOM     16  O   UNL     1     128.269 174.461 123.899  1.00  0.00    -0.550 OA
ATOM     17  O   UNL     1     126.126 173.753 124.297  1.00  0.00    -0.550 OA
ENDBRANCH  14  15
ENDBRANCH  13  14
ENDBRANCH  12  13
ENDBRANCH  11  12
ENDBRANCH  10  11
ENDBRANCH   9  10
ENDBRANCH   8   9
ENDBRANCH   7   8
ENDBRANCH   6   7
ENDBRANCH   5   6
ENDBRANCH   4   5
ENDBRANCH   3   4
ENDBRANCH   2   3
ENDBRANCH   1   2
BRANCH   1  18
ATOM     18  C   UNL     1     123.773 177.901 126.035  1.00  0.00     0.000 C 
BRANCH  18  19
ATOM     19  C   UNL     1     123.175 179.002 126.931  1.00  0.00     0.000 C 
BRANCH  19  20
ATOM     20  C   UNL     1     122.765 178.538 128.342  1.00  0.00     0.000 C 
BRANCH  20  21
ATOM     21  C   UNL     1     121.238 178.459 128.526  1.00  0.00     0.000 C 
BRANCH  21  22
ATOM     22  C   UNL     1     120.762 177.065 128.965  1.00  0.00     0.000 C 
BRANCH  22  23
ATOM     23  C   UNL     1     121.879 176.009 128.908  1.00  0.00     0.000 C 
BRANCH  23  24
ATOM     24  C   UNL     1     121.429 174.713 128.214  1.00  0.00    -0.000 C 
BRANCH  24  25
ATOM     25  C   UNL     1     121.969 174.590 126.778  1.00  0.00    -0.000 C 
BRANCH  25  26
ATOM     26  C   UNL     1     120.865 174.769 125.712  1.00  0.00    -0.000 C 
BRANCH  26  27
ATOM     27  C   UNL     1     119.436 174.707 126.285  1.00  0.00    -0.000 C 
BRANCH  27  28
ATOM     28  C   UNL     1     118.623 176.006 126.144  1.00  0.00    -0.000 C 
BRANCH  28  29
ATOM     29  C   UNL     1     119.341 177.149 125.396  1.00  0.00    -0.000 C 
BRANCH  29  30
ATOM     30  C   UNL     1     118.414 178.202 124.762  1.00  0.00    -0.000 C 
BRANCH  30  31
ATOM     31  C   UNL     1     118.597 179.600 125.370  1.00  0.00    -0.003 C 
ATOM     32  C   UNL     1     120.070 180.001 125.387  1.00  0.00     0.004 C 
ENDBRANCH  30  31
ENDBRANCH  29  30
ENDBRANCH  28  29
ENDBRANCH  27  28
ENDBRANCH  26  27
ENDBRANCH  25  26
ENDBRANCH  24  25
ENDBRANCH  23  24
ENDBRANCH  22  23
ENDBRANCH  21  22
ENDBRANCH  20  21
ENDBRANCH  19  20
ENDBRANCH  18  19
ENDBRANCH   1  18
TORSDOF 28
ENDMDL
MODEL 8
REMARK VINA RESULT:    -5.431      3.265      8.666
REMARK INTER + INTRA:         -19.084
REMARK INTER:                 -14.265
REMARK INTRA:                  -4.819
REMARK UNBOUND:                -4.764
REMARK SMILES CCCCCCCCCCCCCCCCCCCCCCCCCCCCCC(=O)[O-]
REMARK SMILES IDX 16 1 17 2 18 3 19 4 20 5 21 6 22 7 23 8 24 9 25 10 26 11
REMARK SMILES IDX 27 12 28 13 29 14 30 15 31 16 32 17 15 18 14 19 13 20 12 21
REMARK SMILES IDX 11 22 10 23 9 24 8 25 7 26 6 27 5 28 4 29 3 30 2 31 1 32
REMARK H PARENT
REMARK Flexibility Score: inf
ROOT
ATOM      1  C   UNL     1     123.393 177.391 122.832  1.00  0.00     0.000 C 
ENDROOT
BRANCH   1   2
ATOM      2  C   UNL     1     123.744 176.696 124.164  1.00  0.00     0.000 C 
BRANCH   2   3
ATOM      3  C   UNL     1     123.441 177.577 125.385  1.00  0.00     0.000 C 
BRANCH   3   4
ATOM      4  C   UNL     1     122.026 178.164 125.298  1.00  0.00     0.000 C 
BRANCH   4   5
ATOM      5  C   UNL     1     121.730 179.075 126.499  1.00  0.00     0.000 C 
BRANCH   5   6
ATOM      6  C   UNL     1     122.360 178.556 127.804  1.00  0.00     0.000 C 
BRANCH   6   7
ATOM      7  C   UNL     1     121.493 177.543 128.583  1.00  0.00     0.000 C 
BRANCH   7   8
ATOM      8  C   UNL     1     122.043 176.103 128.629  1.00  0.00     0.000 C 
BRANCH   8   9
ATOM      9  C   UNL     1     121.091 175.027 128.073  1.00  0.00     0.000 C 
BRANCH   9  10
ATOM     10  C   UNL     1     121.522 174.508 126.690  1.00  0.00     0.000 C 
BRANCH  10  11
ATOM     11  C   UNL     1     120.545 174.931 125.577  1.00  0.00     0.000 C 
BRANCH  11  12
ATOM     12  C   UNL     1     119.158 175.352 126.096  1.00  0.00     0.000 C 
BRANCH  12  13
ATOM     13  C   UNL     1     118.820 176.816 125.757  1.00  0.00     0.006 C 
BRANCH  13  14
ATOM     14  C   UNL     1     117.636 177.341 126.578  1.00  0.00     0.053 C 
BRANCH  14  15
ATOM     15  C   UNL     1     116.637 178.051 125.715  1.00  0.00     0.041 C 
ATOM     16  O   UNL     1     116.857 178.208 124.485  1.00  0.00    -0.550 OA
ATOM     17  O   UNL     1     115.451 178.519 126.267  1.00  0.00    -0.550 OA
ENDBRANCH  14  15
ENDBRANCH  13  14
ENDBRANCH  12  13
ENDBRANCH  11  12
ENDBRANCH  10  11
ENDBRANCH   9  10
ENDBRANCH   8   9
ENDBRANCH   7   8
ENDBRANCH   6   7
ENDBRANCH   5   6
ENDBRANCH   4   5
ENDBRANCH   3   4
ENDBRANCH   2   3
ENDBRANCH   1   2
BRANCH   1  18
ATOM     18  C   UNL     1     124.363 177.054 121.686  1.00  0.00     0.000 C 
BRANCH  18  19
ATOM     19  C   UNL     1     123.847 177.400 120.276  1.00  0.00     0.000 C 
BRANCH  19  20
ATOM     20  C   UNL     1     124.762 178.333 119.461  1.00  0.00     0.000 C 
BRANCH  20  21
ATOM     21  C   UNL     1     126.031 177.627 118.948  1.00  0.00     0.000 C 
BRANCH  21  22
ATOM     22  C   UNL     1     127.324 178.334 119.384  1.00  0.00     0.000 C 
BRANCH  22  23
ATOM     23  C   UNL     1     128.391 177.356 119.906  1.00  0.00     0.000 C 
BRANCH  23  24
ATOM     24  C   UNL     1     128.653 177.518 121.412  1.00  0.00    -0.000 C 
BRANCH  24  25
ATOM     25  C   UNL     1     127.624 178.434 122.099  1.00  0.00    -0.000 C 
BRANCH  25  26
ATOM     26  C   UNL     1     127.268 177.959 123.525  1.00  0.00    -0.000 C 
BRANCH  26  27
ATOM     27  C   UNL     1     128.458 177.349 124.291  1.00  0.00    -0.000 C 
BRANCH  27  28
ATOM     28  C   UNL     1     128.236 175.913 124.799  1.00  0.00    -0.000 C 
BRANCH  28  29
ATOM     29  C   UNL     1     127.602 174.948 123.775  1.00  0.00    -0.000 C 
BRANCH  29  30
ATOM     30  C   UNL     1     128.602 174.120 122.949  1.00  0.00    -0.000 C 
BRANCH  30  31
ATOM     31  C   UNL     1     128.050 173.717 121.574  1.00  0.00    -0.003 C 
ATOM     32  C   UNL     1     126.716 174.403 121.297  1.00  0.00     0.004 C 
ENDBRANCH  30  31
ENDBRANCH  29  30
ENDBRANCH  28  29
ENDBRANCH  27  28
ENDBRANCH  26  27
ENDBRANCH  25  26
ENDBRANCH  24  25
ENDBRANCH  23  24
ENDBRANCH  22  23
ENDBRANCH  21  22
ENDBRANCH  20  21
ENDBRANCH  19  20
ENDBRANCH  18  19
ENDBRANCH   1  18
TORSDOF 28
ENDMDL
MODEL 9
REMARK VINA RESULT:    -5.418      1.342      2.945
REMARK INTER + INTRA:         -19.051
REMARK INTER:                 -13.969
REMARK INTRA:                  -5.082
REMARK UNBOUND:                -4.764
REMARK SMILES CCCCCCCCCCCCCCCCCCCCCCCCCCCCCC(=O)[O-]
REMARK SMILES IDX 16 1 17 2 18 3 19 4 20 5 21 6 22 7 23 8 24 9 25 10 26 11
REMARK SMILES IDX 27 12 28 13 29 14 30 15 31 16 32 17 15 18 14 19 13 20 12 21
REMARK SMILES IDX 11 22 10 23 9 24 8 25 7 26 6 27 5 28 4 29 3 30 2 31 1 32
REMARK H PARENT
REMARK Flexibility Score: inf
ROOT
ATOM      1  C   UNL     1     122.604 177.716 123.031  1.00  0.00     0.000 C 
ENDROOT
BRANCH   1   2
ATOM      2  C   UNL     1     123.783 177.348 122.106  1.00  0.00     0.000 C 
BRANCH   2   3
ATOM      3  C   UNL     1     123.715 178.068 120.751  1.00  0.00     0.000 C 
BRANCH   3   4
ATOM      4  C   UNL     1     124.993 177.827 119.938  1.00  0.00     0.000 C 
BRANCH   4   5
ATOM      5  C   UNL     1     125.516 176.397 120.139  1.00  0.00     0.000 C 
BRANCH   5   6
ATOM      6  C   UNL     1     127.052 176.335 120.221  1.00  0.00     0.000 C 
BRANCH   6   7
ATOM      7  C   UNL     1     127.733 177.665 120.613  1.00  0.00     0.000 C 
BRANCH   7   8
ATOM      8  C   UNL     1     128.212 177.752 122.077  1.00  0.00     0.000 C 
BRANCH   8   9
ATOM      9  C   UNL     1     127.123 178.140 123.094  1.00  0.00     0.000 C 
BRANCH   9  10
ATOM     10  C   UNL     1     126.985 177.120 124.237  1.00  0.00     0.000 C 
BRANCH  10  11
ATOM     11  C   UNL     1     126.305 175.817 123.779  1.00  0.00     0.000 C 
BRANCH  11  12
ATOM     12  C   UNL     1     127.213 174.577 123.875  1.00  0.00     0.000 C 
BRANCH  12  13
ATOM     13  C   UNL     1     126.414 173.272 124.051  1.00  0.00     0.006 C 
BRANCH  13  14
ATOM     14  C   UNL     1     126.965 172.136 123.180  1.00  0.00     0.053 C 
BRANCH  14  15
ATOM     15  C   UNL     1     127.283 172.607 121.793  1.00  0.00     0.041 C 
ATOM     16  O   UNL     1     126.356 172.848 120.976  1.00  0.00    -0.550 OA
ATOM     17  O   UNL     1     128.605 172.801 121.412  1.00  0.00    -0.550 OA
ENDBRANCH  14  15
ENDBRANCH  13  14
ENDBRANCH  12  13
ENDBRANCH  11  12
ENDBRANCH  10  11
ENDBRANCH   9  10
ENDBRANCH   8   9
ENDBRANCH   7   8
ENDBRANCH   6   7
ENDBRANCH   5   6
ENDBRANCH   4   5
ENDBRANCH   3   4
ENDBRANCH   2   3
ENDBRANCH   1   2
BRANCH   1  18
ATOM     18  C   UNL     1     122.273 176.631 124.071  1.00  0.00     0.000 C 
BRANCH  18  19
ATOM     19  C   UNL     1     123.077 176.724 125.382  1.00  0.00     0.000 C 
BRANCH  19  20
ATOM     20  C   UNL     1     123.321 178.157 125.892  1.00  0.00     0.000 C 
BRANCH  20  21
ATOM     21  C   UNL     1     123.160 178.284 127.418  1.00  0.00     0.000 C 
BRANCH  21  22
ATOM     22  C   UNL     1     121.693 178.432 127.852  1.00  0.00     0.000 C 
BRANCH  22  23
ATOM     23  C   UNL     1     121.305 177.461 128.980  1.00  0.00     0.000 C 
BRANCH  23  24
ATOM     24  C   UNL     1     122.286 176.284 129.108  1.00  0.00    -0.000 C 
BRANCH  24  25
ATOM     25  C   UNL     1     121.780 175.010 128.409  1.00  0.00    -0.000 C 
BRANCH  25  26
ATOM     26  C   UNL     1     120.237 174.927 128.373  1.00  0.00    -0.000 C 
BRANCH  26  27
ATOM     27  C   UNL     1     119.663 174.678 126.965  1.00  0.00    -0.000 C 
BRANCH  27  28
ATOM     28  C   UNL     1     119.521 175.937 126.090  1.00  0.00    -0.000 C 
BRANCH  28  29
ATOM     29  C   UNL     1     118.206 176.721 126.282  1.00  0.00    -0.000 C 
BRANCH  29  30
ATOM     30  C   UNL     1     118.247 178.191 125.827  1.00  0.00    -0.000 C 
BRANCH  30  31
ATOM     31  C   UNL     1     119.256 178.436 124.695  1.00  0.00    -0.003 C 
ATOM     32  C   UNL     1     120.075 179.697 124.955  1.00  0.00     0.004 C 
ENDBRANCH  30  31
ENDBRANCH  29  30
ENDBRANCH  28  29
ENDBRANCH  27  28
ENDBRANCH  26  27
ENDBRANCH  25  26
ENDBRANCH  24  25
ENDBRANCH  23  24
ENDBRANCH  22  23
ENDBRANCH  21  22
ENDBRANCH  20  21
ENDBRANCH  19  20
ENDBRANCH  18  19
ENDBRANCH   1  18
TORSDOF 28
ENDMDL
