MODEL 1
REMARK VINA RESULT:    -6.706      0.000      0.000
REMARK INTER + INTRA:          -8.296
REMARK INTER:                  -8.078
REMARK INTRA:                  -0.219
REMARK UNBOUND:                -0.219
REMARK SMILES O=c1c(O)c(-c2ccc(O)c(O)c2)oc2cc(O)cc(O)c12
REMARK SMILES IDX 5 1 3 2 2 3 1 4 22 5 20 6 19 7 17 8 16 9 15 10 14 11 6 12
REMARK SMILES IDX 7 13 8 14 9 15 13 16 11 17 10 18 12 20 4 22 21 24 18 26
REMARK H PARENT 10 19 12 21 4 23 21 25 18 27
REMARK Flexibility Score: inf
ROOT
ATOM      1  C   UNL     1     -18.655  16.680  -2.974  1.00  0.00     0.180 A 
ATOM      2  C   UNL     1     -17.904  17.810  -2.606  1.00  0.00     0.208 A 
ATOM      3  C   UNL     1     -18.555  18.883  -1.978  1.00  0.00     0.238 A 
ATOM      4  O   UNL     1     -17.869  19.869  -1.602  1.00  0.00    -0.285 OA
ATOM      5  C   UNL     1     -19.949  18.821  -1.740  1.00  0.00     0.111 A 
ATOM      6  C   UNL     1     -20.718  19.867  -1.147  1.00  0.00     0.134 A 
ATOM      7  C   UNL     1     -22.067  19.645  -0.841  1.00  0.00     0.093 A 
ATOM      8  C   UNL     1     -22.690  18.437  -1.166  1.00  0.00     0.123 A 
ATOM      9  C   UNL     1     -21.962  17.432  -1.799  1.00  0.00     0.094 A 
ATOM     10  C   UNL     1     -20.607  17.611  -2.084  1.00  0.00     0.146 A 
ATOM     11  O   UNL     1     -19.948  16.623  -2.679  1.00  0.00    -0.452 OA
ENDROOT
BRANCH   1  12
ATOM     12  C   UNL     1     -18.045  15.519  -3.663  1.00  0.00     0.025 A 
ATOM     13  C   UNL     1     -17.156  14.657  -2.996  1.00  0.00     0.016 A 
ATOM     14  C   UNL     1     -16.574  13.582  -3.673  1.00  0.00     0.051 A 
ATOM     15  C   UNL     1     -16.860  13.359  -5.026  1.00  0.00     0.157 A 
ATOM     16  C   UNL     1     -18.312  15.303  -5.024  1.00  0.00     0.062 A 
ATOM     17  C   UNL     1     -17.731  14.226  -5.705  1.00  0.00     0.158 A 
BRANCH  15  18
ATOM     18  O   UNL     1     -16.279  12.284  -5.697  1.00  0.00    -0.504 OA
ATOM     19  H   UNL     1     -15.434  11.840  -5.357  1.00  0.00     0.293 HD
ENDBRANCH  15  18
BRANCH  17  20
ATOM     20  O   UNL     1     -18.031  14.037  -7.054  1.00  0.00    -0.504 OA
ATOM     21  H   UNL     1     -18.321  14.801  -7.652  1.00  0.00     0.293 HD
ENDBRANCH  17  20
ENDBRANCH   1  12
BRANCH   2  22
ATOM     22  O   UNL     1     -16.525  17.842  -2.830  1.00  0.00    -0.502 OA
ATOM     23  H   UNL     1     -15.850  17.691  -2.090  1.00  0.00     0.293 HD
ENDBRANCH   2  22
BRANCH   6  24
ATOM     24  O   UNL     1     -20.216  21.141  -0.867  1.00  0.00    -0.507 OA
ATOM     25  H   UNL     1     -19.892  21.446   0.039  1.00  0.00     0.293 HD
ENDBRANCH   6  24
BRANCH   8  26
ATOM     26  O   UNL     1     -24.036  18.231  -0.872  1.00  0.00    -0.508 OA
ATOM     27  H   UNL     1     -24.329  17.812   0.003  1.00  0.00     0.293 HD
ENDBRANCH   8  26
TORSDOF 6
ENDMDL
MODEL 2
REMARK VINA RESULT:    -6.626      0.745      1.520
REMARK INTER + INTRA:          -8.200
REMARK INTER:                  -7.924
REMARK INTRA:                  -0.277
REMARK UNBOUND:                -0.219
REMARK SMILES O=c1c(O)c(-c2ccc(O)c(O)c2)oc2cc(O)cc(O)c12
REMARK SMILES IDX 5 1 3 2 2 3 1 4 22 5 20 6 19 7 17 8 16 9 15 10 14 11 6 12
REMARK SMILES IDX 7 13 8 14 9 15 13 16 11 17 10 18 12 20 4 22 21 24 18 26
REMARK H PARENT 10 19 12 21 4 23 21 25 18 27
REMARK Flexibility Score: inf
ROOT
ATOM      1  C   UNL     1     -18.545  16.877  -2.755  1.00  0.00     0.180 A 
ATOM      2  C   UNL     1     -17.760  17.940  -2.273  1.00  0.00     0.208 A 
ATOM      3  C   UNL     1     -18.391  19.009  -1.619  1.00  0.00     0.238 A 
ATOM      4  O   UNL     1     -17.678  19.931  -1.142  1.00  0.00    -0.285 OA
ATOM      5  C   UNL     1     -19.799  19.011  -1.467  1.00  0.00     0.111 A 
ATOM      6  C   UNL     1     -20.547  20.063  -0.856  1.00  0.00     0.134 A 
ATOM      7  C   UNL     1     -21.921  19.898  -0.644  1.00  0.00     0.093 A 
ATOM      8  C   UNL     1     -22.586  18.749  -1.079  1.00  0.00     0.123 A 
ATOM      9  C   UNL     1     -21.875  17.744  -1.730  1.00  0.00     0.094 A 
ATOM     10  C   UNL     1     -20.497  17.863  -1.924  1.00  0.00     0.146 A 
ATOM     11  O   UNL     1     -19.855  16.876  -2.539  1.00  0.00    -0.452 OA
ENDROOT
BRANCH   1  12
ATOM     12  C   UNL     1     -17.956  15.727  -3.477  1.00  0.00     0.025 A 
ATOM     13  C   UNL     1     -18.067  15.604  -4.873  1.00  0.00     0.016 A 
ATOM     14  C   UNL     1     -17.523  14.497  -5.531  1.00  0.00     0.051 A 
ATOM     15  C   UNL     1     -16.874  13.492  -4.805  1.00  0.00     0.157 A 
ATOM     16  C   UNL     1     -17.322  14.705  -2.752  1.00  0.00     0.062 A 
ATOM     17  C   UNL     1     -16.776  13.595  -3.407  1.00  0.00     0.158 A 
BRANCH  15  18
ATOM     18  O   UNL     1     -16.331  12.390  -5.465  1.00  0.00    -0.504 OA
ATOM     19  H   UNL     1     -15.468  12.459  -5.990  1.00  0.00     0.293 HD
ENDBRANCH  15  18
BRANCH  17  20
ATOM     20  O   UNL     1     -16.142  12.608  -2.654  1.00  0.00    -0.504 OA
ATOM     21  H   UNL     1     -15.458  11.980  -3.058  1.00  0.00     0.293 HD
ENDBRANCH  17  20
ENDBRANCH   1  12
BRANCH   2  22
ATOM     22  O   UNL     1     -16.370  17.907  -2.415  1.00  0.00    -0.502 OA
ATOM     23  H   UNL     1     -15.751  18.442  -1.818  1.00  0.00     0.293 HD
ENDBRANCH   2  22
BRANCH   6  24
ATOM     24  O   UNL     1     -19.997  21.287  -0.468  1.00  0.00    -0.507 OA
ATOM     25  H   UNL     1     -19.402  21.860  -1.047  1.00  0.00     0.293 HD
ENDBRANCH   6  24
BRANCH   8  26
ATOM     26  O   UNL     1     -23.956  18.602  -0.877  1.00  0.00    -0.508 OA
ATOM     27  H   UNL     1     -24.431  19.058  -0.107  1.00  0.00     0.293 HD
ENDBRANCH   8  26
TORSDOF 6
ENDMDL
MODEL 3
REMARK VINA RESULT:    -6.539      2.347      3.298
REMARK INTER + INTRA:          -8.095
REMARK INTER:                  -8.333
REMARK INTRA:                   0.238
REMARK UNBOUND:                -0.219
REMARK SMILES O=c1c(O)c(-c2ccc(O)c(O)c2)oc2cc(O)cc(O)c12
REMARK SMILES IDX 5 1 3 2 2 3 1 4 22 5 20 6 19 7 17 8 16 9 15 10 14 11 6 12
REMARK SMILES IDX 7 13 8 14 9 15 13 16 11 17 10 18 12 20 4 22 21 24 18 26
REMARK H PARENT 10 19 12 21 4 23 21 25 18 27
REMARK Flexibility Score: inf
ROOT
ATOM      1  C   UNL     1     -19.717  16.547  -2.773  1.00  0.00     0.180 A 
ATOM      2  C   UNL     1     -18.341  16.668  -2.509  1.00  0.00     0.208 A 
ATOM      3  C   UNL     1     -17.865  17.840  -1.903  1.00  0.00     0.238 A 
ATOM      4  O   UNL     1     -16.641  17.920  -1.619  1.00  0.00    -0.285 OA
ATOM      5  C   UNL     1     -18.766  18.884  -1.582  1.00  0.00     0.111 A 
ATOM      6  C   UNL     1     -18.388  20.133  -1.002  1.00  0.00     0.134 A 
ATOM      7  C   UNL     1     -19.379  21.040  -0.608  1.00  0.00     0.093 A 
ATOM      8  C   UNL     1     -20.732  20.771  -0.832  1.00  0.00     0.123 A 
ATOM      9  C   UNL     1     -21.108  19.582  -1.451  1.00  0.00     0.094 A 
ATOM     10  C   UNL     1     -20.144  18.642  -1.823  1.00  0.00     0.146 A 
ATOM     11  O   UNL     1     -20.546  17.516  -2.401  1.00  0.00    -0.452 OA
ENDROOT
BRANCH   1  12
ATOM     12  C   UNL     1     -20.291  15.352  -3.433  1.00  0.00     0.025 A 
ATOM     13  C   UNL     1     -19.549  14.602  -4.361  1.00  0.00     0.016 A 
ATOM     14  C   UNL     1     -20.120  13.491  -4.989  1.00  0.00     0.051 A 
ATOM     15  C   UNL     1     -21.442  13.122  -4.710  1.00  0.00     0.157 A 
ATOM     16  C   UNL     1     -21.623  14.991  -3.172  1.00  0.00     0.062 A 
ATOM     17  C   UNL     1     -22.198  13.879  -3.799  1.00  0.00     0.158 A 
BRANCH  15  18
ATOM     18  O   UNL     1     -22.008  12.013  -5.337  1.00  0.00    -0.504 OA
ATOM     19  H   UNL     1     -22.338  12.055  -6.293  1.00  0.00     0.293 HD
ENDBRANCH  15  18
BRANCH  17  20
ATOM     20  O   UNL     1     -23.519  13.543  -3.504  1.00  0.00    -0.504 OA
ATOM     21  H   UNL     1     -23.788  13.162  -2.605  1.00  0.00     0.293 HD
ENDBRANCH  17  20
ENDBRANCH   1  12
BRANCH   2  22
ATOM     22  O   UNL     1     -17.473  15.616  -2.814  1.00  0.00    -0.502 OA
ATOM     23  H   UNL     1     -16.765  15.687  -3.536  1.00  0.00     0.293 HD
ENDBRANCH   2  22
BRANCH   6  24
ATOM     24  O   UNL     1     -17.062  20.537  -0.819  1.00  0.00    -0.507 OA
ATOM     25  H   UNL     1     -16.311  20.355  -1.466  1.00  0.00     0.293 HD
ENDBRANCH   6  24
BRANCH   8  26
ATOM     26  O   UNL     1     -21.710  21.686  -0.450  1.00  0.00    -0.508 OA
ATOM     27  H   UNL     1     -21.868  22.542  -0.969  1.00  0.00     0.293 HD
ENDBRANCH   8  26
TORSDOF 6
ENDMDL
MODEL 4
REMARK VINA RESULT:    -6.494      2.594      4.032
REMARK INTER + INTRA:          -8.042
REMARK INTER:                  -7.869
REMARK INTRA:                  -0.173
REMARK UNBOUND:                -0.219
REMARK SMILES O=c1c(O)c(-c2ccc(O)c(O)c2)oc2cc(O)cc(O)c12
REMARK SMILES IDX 5 1 3 2 2 3 1 4 22 5 20 6 19 7 17 8 16 9 15 10 14 11 6 12
REMARK SMILES IDX 7 13 8 14 9 15 13 16 11 17 10 18 12 20 4 22 21 24 18 26
REMARK H PARENT 10 19 12 21 4 23 21 25 18 27
REMARK Flexibility Score: inf
ROOT
ATOM      1  C   UNL     1     -18.603  15.987  -2.549  1.00  0.00     0.180 A 
ATOM      2  C   UNL     1     -17.477  15.504  -1.859  1.00  0.00     0.208 A 
ATOM      3  C   UNL     1     -16.747  16.386  -1.047  1.00  0.00     0.238 A 
ATOM      4  O   UNL     1     -15.773  15.936  -0.389  1.00  0.00    -0.285 OA
ATOM      5  C   UNL     1     -17.142  17.742  -0.947  1.00  0.00     0.111 A 
ATOM      6  C   UNL     1     -16.452  18.733  -0.184  1.00  0.00     0.134 A 
ATOM      7  C   UNL     1     -17.006  20.013  -0.053  1.00  0.00     0.093 A 
ATOM      8  C   UNL     1     -18.191  20.356  -0.710  1.00  0.00     0.123 A 
ATOM      9  C   UNL     1     -18.840  19.413  -1.504  1.00  0.00     0.094 A 
ATOM     10  C   UNL     1     -18.330  18.118  -1.625  1.00  0.00     0.146 A 
ATOM     11  O   UNL     1     -18.986  17.247  -2.384  1.00  0.00    -0.452 OA
ENDROOT
BRANCH   1  12
ATOM     12  C   UNL     1     -19.408  15.125  -3.444  1.00  0.00     0.025 A 
ATOM     13  C   UNL     1     -18.850  14.544  -4.597  1.00  0.00     0.016 A 
ATOM     14  C   UNL     1     -19.636  13.752  -5.440  1.00  0.00     0.051 A 
ATOM     15  C   UNL     1     -20.990  13.541  -5.152  1.00  0.00     0.157 A 
ATOM     16  C   UNL     1     -20.771  14.926  -3.171  1.00  0.00     0.062 A 
ATOM     17  C   UNL     1     -21.561  14.133  -4.013  1.00  0.00     0.158 A 
BRANCH  15  18
ATOM     18  O   UNL     1     -21.770  12.749  -5.994  1.00  0.00    -0.504 OA
ATOM     19  H   UNL     1     -21.380  12.308  -6.818  1.00  0.00     0.293 HD
ENDBRANCH  15  18
BRANCH  17  20
ATOM     20  O   UNL     1     -22.907  13.948  -3.701  1.00  0.00    -0.504 OA
ATOM     21  H   UNL     1     -23.530  14.728  -3.528  1.00  0.00     0.293 HD
ENDBRANCH  17  20
ENDBRANCH   1  12
BRANCH   2  22
ATOM     22  O   UNL     1     -17.118  14.157  -1.955  1.00  0.00    -0.502 OA
ATOM     23  H   UNL     1     -17.586  13.431  -1.425  1.00  0.00     0.293 HD
ENDBRANCH   2  22
BRANCH   6  24
ATOM     24  O   UNL     1     -15.217  18.521   0.435  1.00  0.00    -0.507 OA
ATOM     25  H   UNL     1     -14.928  17.652   0.858  1.00  0.00     0.293 HD
ENDBRANCH   6  24
BRANCH   8  26
ATOM     26  O   UNL     1     -18.726  21.636  -0.585  1.00  0.00    -0.508 OA
ATOM     27  H   UNL     1     -18.455  22.387  -1.209  1.00  0.00     0.293 HD
ENDBRANCH   8  26
TORSDOF 6
ENDMDL
MODEL 5
REMARK VINA RESULT:    -6.232      2.313      6.327
REMARK INTER + INTRA:          -7.725
REMARK INTER:                  -7.590
REMARK INTRA:                  -0.135
REMARK UNBOUND:                -0.219
REMARK SMILES O=c1c(O)c(-c2ccc(O)c(O)c2)oc2cc(O)cc(O)c12
REMARK SMILES IDX 5 1 3 2 2 3 1 4 22 5 20 6 19 7 17 8 16 9 15 10 14 11 6 12
REMARK SMILES IDX 7 13 8 14 9 15 13 16 11 17 10 18 12 20 4 22 21 24 18 26
REMARK H PARENT 10 19 12 21 4 23 21 25 18 27
REMARK Flexibility Score: inf
ROOT
ATOM      1  C   UNL     1     -19.085  17.072  -2.627  1.00  0.00     0.180 A 
ATOM      2  C   UNL     1     -18.018  16.668  -3.449  1.00  0.00     0.208 A 
ATOM      3  C   UNL     1     -18.170  15.521  -4.244  1.00  0.00     0.238 A 
ATOM      4  O   UNL     1     -17.233  15.194  -5.018  1.00  0.00    -0.285 OA
ATOM      5  C   UNL     1     -19.377  14.783  -4.194  1.00  0.00     0.111 A 
ATOM      6  C   UNL     1     -19.625  13.583  -4.927  1.00  0.00     0.134 A 
ATOM      7  C   UNL     1     -20.903  13.010  -4.900  1.00  0.00     0.093 A 
ATOM      8  C   UNL     1     -21.923  13.557  -4.118  1.00  0.00     0.123 A 
ATOM      9  C   UNL     1     -21.674  14.694  -3.354  1.00  0.00     0.094 A 
ATOM     10  C   UNL     1     -20.420  15.309  -3.387  1.00  0.00     0.146 A 
ATOM     11  O   UNL     1     -20.228  16.398  -2.651  1.00  0.00    -0.452 OA
ENDROOT
BRANCH   1  12
ATOM     12  C   UNL     1     -18.992  18.256  -1.742  1.00  0.00     0.025 A 
ATOM     13  C   UNL     1     -19.812  19.382  -1.937  1.00  0.00     0.016 A 
ATOM     14  C   UNL     1     -19.690  20.497  -1.103  1.00  0.00     0.051 A 
ATOM     15  C   UNL     1     -18.740  20.511  -0.075  1.00  0.00     0.157 A 
ATOM     16  C   UNL     1     -18.027  18.284  -0.722  1.00  0.00     0.062 A 
ATOM     17  C   UNL     1     -17.902  19.400   0.114  1.00  0.00     0.158 A 
BRANCH  15  18
ATOM     18  O   UNL     1     -18.623  21.626   0.755  1.00  0.00    -0.504 OA
ATOM     19  H   UNL     1     -18.042  21.610   1.585  1.00  0.00     0.293 HD
ENDBRANCH  15  18
BRANCH  17  20
ATOM     20  O   UNL     1     -16.941  19.385   1.125  1.00  0.00    -0.504 OA
ATOM     21  H   UNL     1     -17.023  19.962   1.952  1.00  0.00     0.293 HD
ENDBRANCH  17  20
ENDBRANCH   1  12
BRANCH   2  22
ATOM     22  O   UNL     1     -16.843  17.422  -3.499  1.00  0.00    -0.502 OA
ATOM     23  H   UNL     1     -16.849  18.435  -3.546  1.00  0.00     0.293 HD
ENDBRANCH   2  22
BRANCH   6  24
ATOM     24  O   UNL     1     -18.651  12.905  -5.665  1.00  0.00    -0.507 OA
ATOM     25  H   UNL     1     -17.690  12.790  -5.381  1.00  0.00     0.293 HD
ENDBRANCH   6  24
BRANCH   8  26
ATOM     26  O   UNL     1     -23.186  12.971  -4.087  1.00  0.00    -0.508 OA
ATOM     27  H   UNL     1     -23.989  13.461  -3.711  1.00  0.00     0.293 HD
ENDBRANCH   8  26
TORSDOF 6
ENDMDL
MODEL 6
REMARK VINA RESULT:    -6.206      1.444      3.313
REMARK INTER + INTRA:          -7.695
REMARK INTER:                  -7.393
REMARK INTRA:                  -0.302
REMARK UNBOUND:                -0.219
REMARK SMILES O=c1c(O)c(-c2ccc(O)c(O)c2)oc2cc(O)cc(O)c12
REMARK SMILES IDX 5 1 3 2 2 3 1 4 22 5 20 6 19 7 17 8 16 9 15 10 14 11 6 12
REMARK SMILES IDX 7 13 8 14 9 15 13 16 11 17 10 18 12 20 4 22 21 24 18 26
REMARK H PARENT 10 19 12 21 4 23 21 25 18 27
REMARK Flexibility Score: inf
ROOT
ATOM      1  C   UNL     1     -19.630  15.894  -2.976  1.00  0.00     0.180 A 
ATOM      2  C   UNL     1     -20.976  15.491  -3.050  1.00  0.00     0.208 A 
ATOM      3  C   UNL     1     -21.966  16.323  -2.504  1.00  0.00     0.238 A 
ATOM      4  O   UNL     1     -23.172  15.983  -2.621  1.00  0.00    -0.285 OA
ATOM      5  C   UNL     1     -21.598  17.538  -1.878  1.00  0.00     0.111 A 
ATOM      6  C   UNL     1     -22.515  18.439  -1.256  1.00  0.00     0.134 A 
ATOM      7  C   UNL     1     -22.055  19.675  -0.783  1.00  0.00     0.093 A 
ATOM      8  C   UNL     1     -20.701  20.014  -0.851  1.00  0.00     0.123 A 
ATOM      9  C   UNL     1     -19.790  19.116  -1.402  1.00  0.00     0.094 A 
ATOM     10  C   UNL     1     -20.224  17.892  -1.915  1.00  0.00     0.146 A 
ATOM     11  O   UNL     1     -19.324  17.069  -2.442  1.00  0.00    -0.452 OA
ENDROOT
BRANCH   1  12
ATOM     12  C   UNL     1     -18.528  15.059  -3.506  1.00  0.00     0.025 A 
ATOM     13  C   UNL     1     -18.199  15.063  -4.873  1.00  0.00     0.016 A 
ATOM     14  C   UNL     1     -17.170  14.249  -5.354  1.00  0.00     0.051 A 
ATOM     15  C   UNL     1     -16.464  13.411  -4.482  1.00  0.00     0.157 A 
ATOM     16  C   UNL     1     -17.831  14.202  -2.640  1.00  0.00     0.062 A 
ATOM     17  C   UNL     1     -16.799  13.385  -3.118  1.00  0.00     0.158 A 
BRANCH  15  18
ATOM     18  O   UNL     1     -15.437  12.602  -4.966  1.00  0.00    -0.504 OA
ATOM     19  H   UNL     1     -14.630  12.993  -5.435  1.00  0.00     0.293 HD
ENDBRANCH  15  18
BRANCH  17  20
ATOM     20  O   UNL     1     -16.121  12.557  -2.224  1.00  0.00    -0.504 OA
ATOM     21  H   UNL     1     -15.191  12.776  -1.889  1.00  0.00     0.293 HD
ENDBRANCH  17  20
ENDBRANCH   1  12
BRANCH   2  22
ATOM     22  O   UNL     1     -21.318  14.297  -3.691  1.00  0.00    -0.502 OA
ATOM     23  H   UNL     1     -20.635  13.723  -4.172  1.00  0.00     0.293 HD
ENDBRANCH   2  22
BRANCH   6  24
ATOM     24  O   UNL     1     -23.869  18.159  -1.056  1.00  0.00    -0.507 OA
ATOM     25  H   UNL     1     -24.497  18.720  -0.500  1.00  0.00     0.293 HD
ENDBRANCH   6  24
BRANCH   8  26
ATOM     26  O   UNL     1     -20.251  21.239  -0.364  1.00  0.00    -0.508 OA
ATOM     27  H   UNL     1     -19.922  21.342   0.588  1.00  0.00     0.293 HD
ENDBRANCH   8  26
TORSDOF 6
ENDMDL
MODEL 7
REMARK VINA RESULT:    -6.156      2.727      4.496
REMARK INTER + INTRA:          -7.634
REMARK INTER:                  -7.602
REMARK INTRA:                  -0.032
REMARK UNBOUND:                -0.219
REMARK SMILES O=c1c(O)c(-c2ccc(O)c(O)c2)oc2cc(O)cc(O)c12
REMARK SMILES IDX 5 1 3 2 2 3 1 4 22 5 20 6 19 7 17 8 16 9 15 10 14 11 6 12
REMARK SMILES IDX 7 13 8 14 9 15 13 16 11 17 10 18 12 20 4 22 21 24 18 26
REMARK H PARENT 10 19 12 21 4 23 21 25 18 27
REMARK Flexibility Score: inf
ROOT
ATOM      1  C   UNL     1     -19.060  16.650  -2.329  1.00  0.00     0.180 A 
ATOM      2  C   UNL     1     -19.606  17.938  -2.192  1.00  0.00     0.208 A 
ATOM      3  C   UNL     1     -18.964  18.865  -1.357  1.00  0.00     0.238 A 
ATOM      4  O   UNL     1     -19.427  20.033  -1.281  1.00  0.00    -0.285 OA
ATOM      5  C   UNL     1     -17.793  18.489  -0.656  1.00  0.00     0.111 A 
ATOM      6  C   UNL     1     -17.082  19.335   0.248  1.00  0.00     0.134 A 
ATOM      7  C   UNL     1     -15.863  18.901   0.785  1.00  0.00     0.093 A 
ATOM      8  C   UNL     1     -15.362  17.628   0.502  1.00  0.00     0.123 A 
ATOM      9  C   UNL     1     -16.078  16.773  -0.333  1.00  0.00     0.094 A 
ATOM     10  C   UNL     1     -17.279  17.191  -0.912  1.00  0.00     0.146 A 
ATOM     11  O   UNL     1     -17.925  16.348  -1.710  1.00  0.00    -0.452 OA
ENDROOT
BRANCH   1  12
ATOM     12  C   UNL     1     -19.693  15.610  -3.171  1.00  0.00     0.025 A 
ATOM     13  C   UNL     1     -18.985  14.975  -4.206  1.00  0.00     0.016 A 
ATOM     14  C   UNL     1     -19.611  14.013  -5.004  1.00  0.00     0.051 A 
ATOM     15  C   UNL     1     -20.955  13.682  -4.789  1.00  0.00     0.157 A 
ATOM     16  C   UNL     1     -21.046  15.290  -2.974  1.00  0.00     0.062 A 
ATOM     17  C   UNL     1     -21.676  14.326  -3.771  1.00  0.00     0.158 A 
BRANCH  15  18
ATOM     18  O   UNL     1     -21.576  12.721  -5.586  1.00  0.00    -0.504 OA
ATOM     19  H   UNL     1     -21.692  12.853  -6.584  1.00  0.00     0.293 HD
ENDBRANCH  15  18
BRANCH  17  20
ATOM     20  O   UNL     1     -23.018  14.025  -3.536  1.00  0.00    -0.504 OA
ATOM     21  H   UNL     1     -23.582  13.524  -4.211  1.00  0.00     0.293 HD
ENDBRANCH  17  20
ENDBRANCH   1  12
BRANCH   2  22
ATOM     22  O   UNL     1     -20.751  18.295  -2.910  1.00  0.00    -0.502 OA
ATOM     23  H   UNL     1     -20.836  18.144  -3.909  1.00  0.00     0.293 HD
ENDBRANCH   2  22
BRANCH   6  24
ATOM     24  O   UNL     1     -17.541  20.586   0.669  1.00  0.00    -0.507 OA
ATOM     25  H   UNL     1     -18.501  20.803   0.888  1.00  0.00     0.293 HD
ENDBRANCH   6  24
BRANCH   8  26
ATOM     26  O   UNL     1     -14.156  17.201   1.053  1.00  0.00    -0.508 OA
ATOM     27  H   UNL     1     -13.517  17.849   1.497  1.00  0.00     0.293 HD
ENDBRANCH   8  26
TORSDOF 6
ENDMDL
MODEL 8
REMARK VINA RESULT:    -6.119      1.977      7.071
REMARK INTER + INTRA:          -7.590
REMARK INTER:                  -7.317
REMARK INTRA:                  -0.273
REMARK UNBOUND:                -0.219
REMARK SMILES O=c1c(O)c(-c2ccc(O)c(O)c2)oc2cc(O)cc(O)c12
REMARK SMILES IDX 5 1 3 2 2 3 1 4 22 5 20 6 19 7 17 8 16 9 15 10 14 11 6 12
REMARK SMILES IDX 7 13 8 14 9 15 13 16 11 17 10 18 12 20 4 22 21 24 18 26
REMARK H PARENT 10 19 12 21 4 23 21 25 18 27
REMARK Flexibility Score: inf
ROOT
ATOM      1  C   UNL     1     -19.910  16.942  -2.568  1.00  0.00     0.180 A 
ATOM      2  C   UNL     1     -21.116  16.219  -2.542  1.00  0.00     0.208 A 
ATOM      3  C   UNL     1     -21.207  15.021  -3.267  1.00  0.00     0.238 A 
ATOM      4  O   UNL     1     -22.270  14.351  -3.196  1.00  0.00    -0.285 OA
ATOM      5  C   UNL     1     -20.097  14.568  -4.021  1.00  0.00     0.111 A 
ATOM      6  C   UNL     1     -20.091  13.387  -4.825  1.00  0.00     0.134 A 
ATOM      7  C   UNL     1     -18.897  12.967  -5.423  1.00  0.00     0.093 A 
ATOM      8  C   UNL     1     -17.725  13.717  -5.300  1.00  0.00     0.123 A 
ATOM      9  C   UNL     1     -17.736  14.901  -4.567  1.00  0.00     0.094 A 
ATOM     10  C   UNL     1     -18.903  15.328  -3.929  1.00  0.00     0.146 A 
ATOM     11  O   UNL     1     -18.867  16.458  -3.231  1.00  0.00    -0.452 OA
ENDROOT
BRANCH   1  12
ATOM     12  C   UNL     1     -19.746  18.227  -1.850  1.00  0.00     0.025 A 
ATOM     13  C   UNL     1     -20.341  19.410  -2.322  1.00  0.00     0.016 A 
ATOM     14  C   UNL     1     -20.153  20.616  -1.640  1.00  0.00     0.051 A 
ATOM     15  C   UNL     1     -19.358  20.660  -0.488  1.00  0.00     0.157 A 
ATOM     16  C   UNL     1     -18.934  18.281  -0.706  1.00  0.00     0.062 A 
ATOM     17  C   UNL     1     -18.743  19.487  -0.021  1.00  0.00     0.158 A 
BRANCH  15  18
ATOM     18  O   UNL     1     -19.174  21.864   0.190  1.00  0.00    -0.504 OA
ATOM     19  H   UNL     1     -19.491  21.990   1.144  1.00  0.00     0.293 HD
ENDBRANCH  15  18
BRANCH  17  20
ATOM     20  O   UNL     1     -17.940  19.498   1.119  1.00  0.00    -0.504 OA
ATOM     21  H   UNL     1     -17.032  19.947   1.132  1.00  0.00     0.293 HD
ENDBRANCH  17  20
ENDBRANCH   1  12
BRANCH   2  22
ATOM     22  O   UNL     1     -22.192  16.674  -1.774  1.00  0.00    -0.502 OA
ATOM     23  H   UNL     1     -22.833  17.386  -2.104  1.00  0.00     0.293 HD
ENDBRANCH   2  22
BRANCH   6  24
ATOM     24  O   UNL     1     -21.227  12.616  -5.087  1.00  0.00    -0.507 OA
ATOM     25  H   UNL     1     -21.350  12.032  -5.899  1.00  0.00     0.293 HD
ENDBRANCH   6  24
BRANCH   8  26
ATOM     26  O   UNL     1     -16.545  13.298  -5.912  1.00  0.00    -0.508 OA
ATOM     27  H   UNL     1     -15.778  12.912  -5.374  1.00  0.00     0.293 HD
ENDBRANCH   8  26
TORSDOF 6
ENDMDL
MODEL 9
REMARK VINA RESULT:    -6.066      1.639      6.924
REMARK INTER + INTRA:          -7.526
REMARK INTER:                  -7.203
REMARK INTRA:                  -0.323
REMARK UNBOUND:                -0.219
REMARK SMILES O=c1c(O)c(-c2ccc(O)c(O)c2)oc2cc(O)cc(O)c12
REMARK SMILES IDX 5 1 3 2 2 3 1 4 22 5 20 6 19 7 17 8 16 9 15 10 14 11 6 12
REMARK SMILES IDX 7 13 8 14 9 15 13 16 11 17 10 18 12 20 4 22 21 24 18 26
REMARK H PARENT 10 19 12 21 4 23 21 25 18 27
REMARK Flexibility Score: inf
ROOT
ATOM      1  C   UNL     1     -18.929  16.538  -2.361  1.00  0.00     0.180 A 
ATOM      2  C   UNL     1     -18.222  15.902  -1.326  1.00  0.00     0.208 A 
ATOM      3  C   UNL     1     -17.437  14.779  -1.628  1.00  0.00     0.238 A 
ATOM      4  O   UNL     1     -16.763  14.247  -0.707  1.00  0.00    -0.285 OA
ATOM      5  C   UNL     1     -17.381  14.296  -2.958  1.00  0.00     0.111 A 
ATOM      6  C   UNL     1     -16.649  13.141  -3.371  1.00  0.00     0.134 A 
ATOM      7  C   UNL     1     -16.560  12.831  -4.733  1.00  0.00     0.093 A 
ATOM      8  C   UNL     1     -17.229  13.596  -5.692  1.00  0.00     0.123 A 
ATOM      9  C   UNL     1     -17.994  14.690  -5.293  1.00  0.00     0.094 A 
ATOM     10  C   UNL     1     -18.073  15.045  -3.944  1.00  0.00     0.146 A 
ATOM     11  O   UNL     1     -18.805  16.101  -3.608  1.00  0.00    -0.452 OA
ENDROOT
BRANCH   1  12
ATOM     12  C   UNL     1     -19.797  17.713  -2.116  1.00  0.00     0.025 A 
ATOM     13  C   UNL     1     -19.285  19.021  -2.150  1.00  0.00     0.016 A 
ATOM     14  C   UNL     1     -20.119  20.113  -1.893  1.00  0.00     0.051 A 
ATOM     15  C   UNL     1     -21.471  19.914  -1.585  1.00  0.00     0.157 A 
ATOM     16  C   UNL     1     -21.149  17.517  -1.787  1.00  0.00     0.062 A 
ATOM     17  C   UNL     1     -21.987  18.609  -1.529  1.00  0.00     0.158 A 
BRANCH  15  18
ATOM     18  O   UNL     1     -22.299  21.006  -1.331  1.00  0.00    -0.504 OA
ATOM     19  H   UNL     1     -23.301  20.899  -1.229  1.00  0.00     0.293 HD
ENDBRANCH  15  18
BRANCH  17  20
ATOM     20  O   UNL     1     -23.326  18.376  -1.219  1.00  0.00    -0.504 OA
ATOM     21  H   UNL     1     -23.606  17.906  -0.367  1.00  0.00     0.293 HD
ENDBRANCH  17  20
ENDBRANCH   1  12
BRANCH   2  22
ATOM     22  O   UNL     1     -18.274  16.409  -0.024  1.00  0.00    -0.502 OA
ATOM     23  H   UNL     1     -18.655  17.324   0.188  1.00  0.00     0.293 HD
ENDBRANCH   2  22
BRANCH   6  24
ATOM     24  O   UNL     1     -16.021  12.259  -2.487  1.00  0.00    -0.507 OA
ATOM     25  H   UNL     1     -15.318  12.522  -1.813  1.00  0.00     0.293 HD
ENDBRANCH   6  24
BRANCH   8  26
ATOM     26  O   UNL     1     -17.147  13.271  -7.044  1.00  0.00    -0.508 OA
ATOM     27  H   UNL     1     -16.256  13.101  -7.495  1.00  0.00     0.293 HD
ENDBRANCH   8  26
TORSDOF 6
ENDMDL
