MODEL 1
REMARK VINA RESULT:    -4.011      0.000      0.000
REMARK INTER + INTRA:         -10.354
REMARK INTER:                  -7.763
REMARK INTRA:                  -2.591
REMARK UNBOUND:                -2.591
REMARK SMILES CCCCCCCCCCCCCCCCCC(=O)[O-]
REMARK SMILES IDX 10 1 11 2 12 3 13 4 14 5 15 6 16 7 17 8 18 9 19 10 20 11
REMARK SMILES IDX 9 12 8 13 7 14 6 15 5 16 4 17 3 18 2 19 1 20
REMARK H PARENT
REMARK Flexibility Score: inf
ROOT
ATOM      1  C   UNL     1      -1.833 -34.166  47.379  1.00  0.00     0.000 C 
ENDROOT
BRANCH   1   2
ATOM      2  C   UNL     1      -1.289 -34.318  45.950  1.00  0.00     0.000 C 
BRANCH   2   3
ATOM      3  C   UNL     1      -1.025 -35.783  45.569  1.00  0.00     0.000 C 
BRANCH   3   4
ATOM      4  C   UNL     1       0.255 -35.910  44.732  1.00  0.00     0.000 C 
BRANCH   4   5
ATOM      5  C   UNL     1       0.846 -34.528  44.419  1.00  0.00     0.000 C 
BRANCH   5   6
ATOM      6  C   UNL     1       2.381 -34.510  44.495  1.00  0.00     0.000 C 
BRANCH   6   7
ATOM      7  C   UNL     1       2.907 -34.791  45.913  1.00  0.00     0.006 C 
BRANCH   7   8
ATOM      8  C   UNL     1       2.456 -33.725  46.920  1.00  0.00     0.053 C 
BRANCH   8   9
ATOM      9  C   UNL     1       1.746 -34.333  48.090  1.00  0.00     0.041 C 
ATOM     10  O   UNL     1       1.587 -35.581  48.158  1.00  0.00    -0.550 OA
ATOM     11  O   UNL     1       1.292 -33.525  49.124  1.00  0.00    -0.550 OA
ENDBRANCH   8   9
ENDBRANCH   7   8
ENDBRANCH   6   7
ENDBRANCH   5   6
ENDBRANCH   4   5
ENDBRANCH   3   4
ENDBRANCH   2   3
ENDBRANCH   1   2
BRANCH   1  12
ATOM     12  C   UNL     1      -3.054 -33.239  47.452  1.00  0.00     0.000 C 
BRANCH  12  13
ATOM     13  C   UNL     1      -4.077 -33.755  48.472  1.00  0.00    -0.000 C 
BRANCH  13  14
ATOM     14  C   UNL     1      -3.986 -35.280  48.620  1.00  0.00    -0.000 C 
BRANCH  14  15
ATOM     15  C   UNL     1      -5.352 -35.976  48.484  1.00  0.00    -0.000 C 
BRANCH  15  16
ATOM     16  C   UNL     1      -5.941 -35.990  47.058  1.00  0.00    -0.000 C 
BRANCH  16  17
ATOM     17  C   UNL     1      -5.073 -36.689  45.998  1.00  0.00    -0.000 C 
BRANCH  17  18
ATOM     18  C   UNL     1      -4.720 -35.773  44.816  1.00  0.00    -0.000 C 
BRANCH  18  19
ATOM     19  C   UNL     1      -5.318 -34.375  45.009  1.00  0.00    -0.003 C 
ATOM     20  C   UNL     1      -6.353 -34.064  43.931  1.00  0.00     0.004 C 
ENDBRANCH  18  19
ENDBRANCH  17  18
ENDBRANCH  16  17
ENDBRANCH  15  16
ENDBRANCH  14  15
ENDBRANCH  13  14
ENDBRANCH  12  13
ENDBRANCH   1  12
TORSDOF 16
ENDMDL
MODEL 2
REMARK VINA RESULT:    -3.960      1.505      1.985
REMARK INTER + INTRA:         -10.254
REMARK INTER:                  -8.174
REMARK INTRA:                  -2.080
REMARK UNBOUND:                -2.591
REMARK SMILES CCCCCCCCCCCCCCCCCC(=O)[O-]
REMARK SMILES IDX 10 1 11 2 12 3 13 4 14 5 15 6 16 7 17 8 18 9 19 10 20 11
REMARK SMILES IDX 9 12 8 13 7 14 6 15 5 16 4 17 3 18 2 19 1 20
REMARK H PARENT
REMARK Flexibility Score: inf
ROOT
ATOM      1  C   UNL     1      -1.261 -34.125  45.846  1.00  0.00     0.000 C 
ENDROOT
BRANCH   1   2
ATOM      2  C   UNL     1      -0.752 -35.573  45.913  1.00  0.00     0.000 C 
BRANCH   2   3
ATOM      3  C   UNL     1       0.286 -35.887  44.824  1.00  0.00     0.000 C 
BRANCH   3   4
ATOM      4  C   UNL     1       0.958 -34.603  44.320  1.00  0.00     0.000 C 
BRANCH   4   5
ATOM      5  C   UNL     1       2.360 -34.443  44.925  1.00  0.00     0.000 C 
BRANCH   5   6
ATOM      6  C   UNL     1       2.900 -35.753  45.522  1.00  0.00     0.000 C 
BRANCH   6   7
ATOM      7  C   UNL     1       3.426 -35.577  46.958  1.00  0.00     0.006 C 
BRANCH   7   8
ATOM      8  C   UNL     1       2.720 -34.434  47.697  1.00  0.00     0.053 C 
BRANCH   8   9
ATOM      9  C   UNL     1       3.698 -33.440  48.244  1.00  0.00     0.041 C 
ATOM     10  O   UNL     1       4.778 -33.831  48.763  1.00  0.00    -0.550 OA
ATOM     11  O   UNL     1       3.434 -32.080  48.148  1.00  0.00    -0.550 OA
ENDBRANCH   8   9
ENDBRANCH   7   8
ENDBRANCH   6   7
ENDBRANCH   5   6
ENDBRANCH   4   5
ENDBRANCH   3   4
ENDBRANCH   2   3
ENDBRANCH   1   2
BRANCH   1  12
ATOM     12  C   UNL     1      -2.310 -33.817  46.925  1.00  0.00     0.000 C 
BRANCH  12  13
ATOM     13  C   UNL     1      -2.408 -34.963  47.940  1.00  0.00    -0.000 C 
BRANCH  13  14
ATOM     14  C   UNL     1      -3.829 -35.542  47.981  1.00  0.00    -0.000 C 
BRANCH  14  15
ATOM     15  C   UNL     1      -4.041 -36.680  46.967  1.00  0.00    -0.000 C 
BRANCH  15  16
ATOM     16  C   UNL     1      -5.203 -36.465  45.975  1.00  0.00    -0.000 C 
BRANCH  16  17
ATOM     17  C   UNL     1      -4.994 -35.327  44.960  1.00  0.00    -0.000 C 
BRANCH  17  18
ATOM     18  C   UNL     1      -6.153 -34.319  44.948  1.00  0.00    -0.000 C 
BRANCH  18  19
ATOM     19  C   UNL     1      -6.926 -34.354  46.271  1.00  0.00    -0.003 C 
ATOM     20  C   UNL     1      -6.571 -33.158  47.149  1.00  0.00     0.004 C 
ENDBRANCH  18  19
ENDBRANCH  17  18
ENDBRANCH  16  17
ENDBRANCH  15  16
ENDBRANCH  14  15
ENDBRANCH  13  14
ENDBRANCH  12  13
ENDBRANCH   1  12
TORSDOF 16
ENDMDL
MODEL 3
REMARK VINA RESULT:    -3.853      1.521      3.268
REMARK INTER + INTRA:         -10.047
REMARK INTER:                  -8.207
REMARK INTRA:                  -1.840
REMARK UNBOUND:                -2.591
REMARK SMILES CCCCCCCCCCCCCCCCCC(=O)[O-]
REMARK SMILES IDX 10 1 11 2 12 3 13 4 14 5 15 6 16 7 17 8 18 9 19 10 20 11
REMARK SMILES IDX 9 12 8 13 7 14 6 15 5 16 4 17 3 18 2 19 1 20
REMARK H PARENT
REMARK Flexibility Score: inf
ROOT
ATOM      1  C   UNL     1      -3.105 -35.748  45.168  1.00  0.00     0.000 C 
ENDROOT
BRANCH   1   2
ATOM      2  C   UNL     1      -2.163 -36.945  45.366  1.00  0.00     0.000 C 
BRANCH   2   3
ATOM      3  C   UNL     1      -0.796 -36.740  44.696  1.00  0.00     0.000 C 
BRANCH   3   4
ATOM      4  C   UNL     1      -0.280 -35.313  44.927  1.00  0.00     0.000 C 
BRANCH   4   5
ATOM      5  C   UNL     1       1.132 -35.140  44.349  1.00  0.00     0.000 C 
BRANCH   5   6
ATOM      6  C   UNL     1       2.108 -34.501  45.350  1.00  0.00     0.000 C 
BRANCH   6   7
ATOM      7  C   UNL     1       1.388 -33.837  46.537  1.00  0.00     0.006 C 
BRANCH   7   8
ATOM      8  C   UNL     1       1.966 -34.281  47.887  1.00  0.00     0.053 C 
BRANCH   8   9
ATOM      9  C   UNL     1       3.457 -34.145  47.922  1.00  0.00     0.041 C 
ATOM     10  O   UNL     1       3.991 -33.004  47.927  1.00  0.00    -0.550 OA
ATOM     11  O   UNL     1       4.257 -35.279  47.986  1.00  0.00    -0.550 OA
ENDBRANCH   8   9
ENDBRANCH   7   8
ENDBRANCH   6   7
ENDBRANCH   5   6
ENDBRANCH   4   5
ENDBRANCH   3   4
ENDBRANCH   2   3
ENDBRANCH   1   2
BRANCH   1  12
ATOM     12  C   UNL     1      -4.581 -36.164  45.080  1.00  0.00     0.000 C 
BRANCH  12  13
ATOM     13  C   UNL     1      -5.326 -35.329  44.032  1.00  0.00    -0.000 C 
BRANCH  13  14
ATOM     14  C   UNL     1      -6.402 -34.453  44.689  1.00  0.00    -0.000 C 
BRANCH  14  15
ATOM     15  C   UNL     1      -6.673 -34.838  46.155  1.00  0.00    -0.000 C 
BRANCH  15  16
ATOM     16  C   UNL     1      -7.009 -33.657  47.090  1.00  0.00    -0.000 C 
BRANCH  16  17
ATOM     17  C   UNL     1      -5.793 -32.890  47.638  1.00  0.00    -0.000 C 
BRANCH  17  18
ATOM     18  C   UNL     1      -4.614 -33.810  47.987  1.00  0.00    -0.000 C 
BRANCH  18  19
ATOM     19  C   UNL     1      -3.289 -33.041  47.952  1.00  0.00    -0.003 C 
ATOM     20  C   UNL     1      -2.101 -33.980  48.141  1.00  0.00     0.004 C 
ENDBRANCH  18  19
ENDBRANCH  17  18
ENDBRANCH  16  17
ENDBRANCH  15  16
ENDBRANCH  14  15
ENDBRANCH  13  14
ENDBRANCH  12  13
ENDBRANCH   1  12
TORSDOF 16
ENDMDL
MODEL 4
REMARK VINA RESULT:    -3.847      2.286      6.528
REMARK INTER + INTRA:         -10.037
REMARK INTER:                  -7.735
REMARK INTRA:                  -2.302
REMARK UNBOUND:                -2.591
REMARK SMILES CCCCCCCCCCCCCCCCCC(=O)[O-]
REMARK SMILES IDX 10 1 11 2 12 3 13 4 14 5 15 6 16 7 17 8 18 9 19 10 20 11
REMARK SMILES IDX 9 12 8 13 7 14 6 15 5 16 4 17 3 18 2 19 1 20
REMARK H PARENT
REMARK Flexibility Score: inf
ROOT
ATOM      1  C   UNL     1      -1.823 -35.094  45.805  1.00  0.00     0.000 C 
ENDROOT
BRANCH   1   2
ATOM      2  C   UNL     1      -2.571 -36.269  45.157  1.00  0.00     0.000 C 
BRANCH   2   3
ATOM      3  C   UNL     1      -3.649 -36.863  46.077  1.00  0.00     0.000 C 
BRANCH   3   4
ATOM      4  C   UNL     1      -5.044 -36.714  45.456  1.00  0.00     0.000 C 
BRANCH   4   5
ATOM      5  C   UNL     1      -5.042 -35.647  44.352  1.00  0.00     0.000 C 
BRANCH   5   6
ATOM      6  C   UNL     1      -5.874 -34.409  44.724  1.00  0.00     0.000 C 
BRANCH   6   7
ATOM      7  C   UNL     1      -6.596 -34.564  46.074  1.00  0.00     0.006 C 
BRANCH   7   8
ATOM      8  C   UNL     1      -6.285 -33.409  47.034  1.00  0.00     0.053 C 
BRANCH   8   9
ATOM      9  C   UNL     1      -5.100 -33.713  47.900  1.00  0.00     0.041 C 
ATOM     10  O   UNL     1      -4.948 -34.864  48.387  1.00  0.00    -0.550 OA
ATOM     11  O   UNL     1      -4.145 -32.733  48.138  1.00  0.00    -0.550 OA
ENDBRANCH   8   9
ENDBRANCH   7   8
ENDBRANCH   6   7
ENDBRANCH   5   6
ENDBRANCH   4   5
ENDBRANCH   3   4
ENDBRANCH   2   3
ENDBRANCH   1   2
BRANCH   1  12
ATOM     12  C   UNL     1      -1.572 -35.307  47.305  1.00  0.00     0.000 C 
BRANCH  12  13
ATOM     13  C   UNL     1      -0.310 -36.147  47.538  1.00  0.00    -0.000 C 
BRANCH  13  14
ATOM     14  C   UNL     1       0.791 -35.314  48.208  1.00  0.00    -0.000 C 
BRANCH  14  15
ATOM     15  C   UNL     1       1.105 -34.015  47.445  1.00  0.00    -0.000 C 
BRANCH  15  16
ATOM     16  C   UNL     1       2.554 -33.894  46.928  1.00  0.00    -0.000 C 
BRANCH  16  17
ATOM     17  C   UNL     1       2.885 -34.757  45.699  1.00  0.00    -0.000 C 
BRANCH  17  18
ATOM     18  C   UNL     1       1.840 -34.627  44.580  1.00  0.00    -0.000 C 
BRANCH  18  19
ATOM     19  C   UNL     1       1.274 -35.999  44.197  1.00  0.00    -0.003 C 
ATOM     20  C   UNL     1       2.042 -37.125  44.884  1.00  0.00     0.004 C 
ENDBRANCH  18  19
ENDBRANCH  17  18
ENDBRANCH  16  17
ENDBRANCH  15  16
ENDBRANCH  14  15
ENDBRANCH  13  14
ENDBRANCH  12  13
ENDBRANCH   1  12
TORSDOF 16
ENDMDL
MODEL 5
REMARK VINA RESULT:    -3.831      3.025      7.504
REMARK INTER + INTRA:         -10.005
REMARK INTER:                  -8.336
REMARK INTRA:                  -1.669
REMARK UNBOUND:                -2.591
REMARK SMILES CCCCCCCCCCCCCCCCCC(=O)[O-]
REMARK SMILES IDX 10 1 11 2 12 3 13 4 14 5 15 6 16 7 17 8 18 9 19 10 20 11
REMARK SMILES IDX 9 12 8 13 7 14 6 15 5 16 4 17 3 18 2 19 1 20
REMARK H PARENT
REMARK Flexibility Score: inf
ROOT
ATOM      1  C   UNL     1      -1.029 -36.124  44.842  1.00  0.00     0.000 C 
ENDROOT
BRANCH   1   2
ATOM      2  C   UNL     1      -2.179 -36.758  45.638  1.00  0.00     0.000 C 
BRANCH   2   3
ATOM      3  C   UNL     1      -2.612 -35.901  46.837  1.00  0.00     0.000 C 
BRANCH   3   4
ATOM      4  C   UNL     1      -2.256 -34.425  46.614  1.00  0.00     0.000 C 
BRANCH   4   5
ATOM      5  C   UNL     1      -3.311 -33.504  47.243  1.00  0.00     0.000 C 
BRANCH   5   6
ATOM      6  C   UNL     1      -4.538 -34.274  47.757  1.00  0.00     0.000 C 
BRANCH   6   7
ATOM      7  C   UNL     1      -5.864 -33.683  47.247  1.00  0.00     0.006 C 
BRANCH   7   8
ATOM      8  C   UNL     1      -6.619 -34.656  46.334  1.00  0.00     0.053 C 
BRANCH   8   9
ATOM      9  C   UNL     1      -6.063 -34.654  44.942  1.00  0.00     0.041 C 
ATOM     10  O   UNL     1      -6.193 -33.639  44.208  1.00  0.00    -0.550 OA
ATOM     11  O   UNL     1      -5.369 -35.761  44.470  1.00  0.00    -0.550 OA
ENDBRANCH   8   9
ENDBRANCH   7   8
ENDBRANCH   6   7
ENDBRANCH   5   6
ENDBRANCH   4   5
ENDBRANCH   3   4
ENDBRANCH   2   3
ENDBRANCH   1   2
BRANCH   1  12
ATOM     12  C   UNL     1       0.093 -37.125  44.524  1.00  0.00     0.000 C 
BRANCH  12  13
ATOM     13  C   UNL     1       1.340 -36.403  43.998  1.00  0.00    -0.000 C 
BRANCH  13  14
ATOM     14  C   UNL     1       1.382 -34.948  44.486  1.00  0.00    -0.000 C 
BRANCH  14  15
ATOM     15  C   UNL     1       2.786 -34.510  44.940  1.00  0.00    -0.000 C 
BRANCH  15  16
ATOM     16  C   UNL     1       2.920 -34.203  46.447  1.00  0.00    -0.000 C 
BRANCH  16  17
ATOM     17  C   UNL     1       1.601 -33.884  47.170  1.00  0.00    -0.000 C 
BRANCH  17  18
ATOM     18  C   UNL     1       1.801 -33.019  48.423  1.00  0.00    -0.000 C 
BRANCH  18  19
ATOM     19  C   UNL     1       3.128 -32.256  48.357  1.00  0.00    -0.003 C 
ATOM     20  C   UNL     1       2.923 -30.769  48.633  1.00  0.00     0.004 C 
ENDBRANCH  18  19
ENDBRANCH  17  18
ENDBRANCH  16  17
ENDBRANCH  15  16
ENDBRANCH  14  15
ENDBRANCH  13  14
ENDBRANCH  12  13
ENDBRANCH   1  12
TORSDOF 16
ENDMDL
MODEL 6
REMARK VINA RESULT:    -3.818      2.418      7.023
REMARK INTER + INTRA:          -9.980
REMARK INTER:                  -8.045
REMARK INTRA:                  -1.934
REMARK UNBOUND:                -2.591
REMARK SMILES CCCCCCCCCCCCCCCCCC(=O)[O-]
REMARK SMILES IDX 10 1 11 2 12 3 13 4 14 5 15 6 16 7 17 8 18 9 19 10 20 11
REMARK SMILES IDX 9 12 8 13 7 14 6 15 5 16 4 17 3 18 2 19 1 20
REMARK H PARENT
REMARK Flexibility Score: inf
ROOT
ATOM      1  C   UNL     1      -1.575 -35.320  46.429  1.00  0.00     0.000 C 
ENDROOT
BRANCH   1   2
ATOM      2  C   UNL     1      -2.909 -35.220  45.672  1.00  0.00     0.000 C 
BRANCH   2   3
ATOM      3  C   UNL     1      -3.596 -36.583  45.502  1.00  0.00     0.000 C 
BRANCH   3   4
ATOM      4  C   UNL     1      -5.055 -36.411  45.060  1.00  0.00     0.000 C 
BRANCH   4   5
ATOM      5  C   UNL     1      -5.205 -35.212  44.112  1.00  0.00     0.000 C 
BRANCH   5   6
ATOM      6  C   UNL     1      -6.176 -34.149  44.651  1.00  0.00     0.000 C 
BRANCH   6   7
ATOM      7  C   UNL     1      -6.943 -34.625  45.896  1.00  0.00     0.006 C 
BRANCH   7   8
ATOM      8  C   UNL     1      -6.752 -33.682  47.091  1.00  0.00     0.053 C 
BRANCH   8   9
ATOM      9  C   UNL     1      -5.469 -33.958  47.814  1.00  0.00     0.041 C 
ATOM     10  O   UNL     1      -5.245 -35.100  48.296  1.00  0.00    -0.550 OA
ATOM     11  O   UNL     1      -4.506 -32.963  47.925  1.00  0.00    -0.550 OA
ENDBRANCH   8   9
ENDBRANCH   7   8
ENDBRANCH   6   7
ENDBRANCH   5   6
ENDBRANCH   4   5
ENDBRANCH   3   4
ENDBRANCH   2   3
ENDBRANCH   1   2
BRANCH   1  12
ATOM     12  C   UNL     1      -1.187 -36.770  46.754  1.00  0.00     0.000 C 
BRANCH  12  13
ATOM     13  C   UNL     1       0.176 -37.124  46.146  1.00  0.00    -0.000 C 
BRANCH  13  14
ATOM     14  C   UNL     1       0.191 -36.854  44.635  1.00  0.00    -0.000 C 
BRANCH  14  15
ATOM     15  C   UNL     1       1.499 -36.197  44.158  1.00  0.00    -0.000 C 
BRANCH  15  16
ATOM     16  C   UNL     1       1.615 -34.685  44.447  1.00  0.00    -0.000 C 
BRANCH  16  17
ATOM     17  C   UNL     1       2.439 -34.319  45.694  1.00  0.00    -0.000 C 
BRANCH  17  18
ATOM     18  C   UNL     1       1.582 -33.722  46.820  1.00  0.00    -0.000 C 
BRANCH  18  19
ATOM     19  C   UNL     1       2.364 -33.676  48.138  1.00  0.00    -0.003 C 
ATOM     20  C   UNL     1       3.830 -33.323  47.898  1.00  0.00     0.004 C 
ENDBRANCH  18  19
ENDBRANCH  17  18
ENDBRANCH  16  17
ENDBRANCH  15  16
ENDBRANCH  14  15
ENDBRANCH  13  14
ENDBRANCH  12  13
ENDBRANCH   1  12
TORSDOF 16
ENDMDL
MODEL 7
REMARK VINA RESULT:    -3.809      2.897      7.354
REMARK INTER + INTRA:          -9.963
REMARK INTER:                  -7.914
REMARK INTRA:                  -2.049
REMARK UNBOUND:                -2.591
REMARK SMILES CCCCCCCCCCCCCCCCCC(=O)[O-]
REMARK SMILES IDX 10 1 11 2 12 3 13 4 14 5 15 6 16 7 17 8 18 9 19 10 20 11
REMARK SMILES IDX 9 12 8 13 7 14 6 15 5 16 4 17 3 18 2 19 1 20
REMARK H PARENT
REMARK Flexibility Score: inf
ROOT
ATOM      1  C   UNL     1      -0.336 -34.323  45.472  1.00  0.00     0.000 C 
ENDROOT
BRANCH   1   2
ATOM      2  C   UNL     1      -1.674 -34.175  46.213  1.00  0.00     0.000 C 
BRANCH   2   3
ATOM      3  C   UNL     1      -1.915 -35.300  47.231  1.00  0.00     0.000 C 
BRANCH   3   4
ATOM      4  C   UNL     1      -3.251 -36.005  46.965  1.00  0.00     0.000 C 
BRANCH   4   5
ATOM      5  C   UNL     1      -3.544 -36.076  45.459  1.00  0.00     0.000 C 
BRANCH   5   6
ATOM      6  C   UNL     1      -5.006 -36.443  45.158  1.00  0.00     0.000 C 
BRANCH   6   7
ATOM      7  C   UNL     1      -5.711 -35.394  44.280  1.00  0.00     0.006 C 
BRANCH   7   8
ATOM      8  C   UNL     1      -5.807 -34.028  44.973  1.00  0.00     0.053 C 
BRANCH   8   9
ATOM      9  C   UNL     1      -6.488 -34.129  46.304  1.00  0.00     0.041 C 
ATOM     10  O   UNL     1      -7.650 -34.608  46.387  1.00  0.00    -0.550 OA
ATOM     11  O   UNL     1      -5.825 -33.728  47.456  1.00  0.00    -0.550 OA
ENDBRANCH   8   9
ENDBRANCH   7   8
ENDBRANCH   6   7
ENDBRANCH   5   6
ENDBRANCH   4   5
ENDBRANCH   3   4
ENDBRANCH   2   3
ENDBRANCH   1   2
BRANCH   1  12
ATOM     12  C   UNL     1      -0.086 -35.758  44.983  1.00  0.00     0.000 C 
BRANCH  12  13
ATOM     13  C   UNL     1       1.273 -35.870  44.281  1.00  0.00    -0.000 C 
BRANCH  13  14
ATOM     14  C   UNL     1       1.997 -34.517  44.263  1.00  0.00    -0.000 C 
BRANCH  14  15
ATOM     15  C   UNL     1       3.273 -34.510  45.125  1.00  0.00    -0.000 C 
BRANCH  15  16
ATOM     16  C   UNL     1       3.336 -35.605  46.210  1.00  0.00    -0.000 C 
BRANCH  16  17
ATOM     17  C   UNL     1       3.424 -35.089  47.656  1.00  0.00    -0.000 C 
BRANCH  17  18
ATOM     18  C   UNL     1       2.046 -34.840  48.286  1.00  0.00    -0.000 C 
BRANCH  18  19
ATOM     19  C   UNL     1       1.742 -33.340  48.365  1.00  0.00    -0.003 C 
ATOM     20  C   UNL     1       3.020 -32.512  48.265  1.00  0.00     0.004 C 
ENDBRANCH  18  19
ENDBRANCH  17  18
ENDBRANCH  16  17
ENDBRANCH  15  16
ENDBRANCH  14  15
ENDBRANCH  13  14
ENDBRANCH  12  13
ENDBRANCH   1  12
TORSDOF 16
ENDMDL
MODEL 8
REMARK VINA RESULT:    -3.663      1.773      2.869
REMARK INTER + INTRA:          -9.680
REMARK INTER:                  -7.367
REMARK INTRA:                  -2.313
REMARK UNBOUND:                -2.591
REMARK SMILES CCCCCCCCCCCCCCCCCC(=O)[O-]
REMARK SMILES IDX 10 1 11 2 12 3 13 4 14 5 15 6 16 7 17 8 18 9 19 10 20 11
REMARK SMILES IDX 9 12 8 13 7 14 6 15 5 16 4 17 3 18 2 19 1 20
REMARK H PARENT
REMARK Flexibility Score: inf
ROOT
ATOM      1  C   UNL     1      -2.255 -33.887  46.615  1.00  0.00     0.000 C 
ENDROOT
BRANCH   1   2
ATOM      2  C   UNL     1      -1.297 -34.867  47.310  1.00  0.00     0.000 C 
BRANCH   2   3
ATOM      3  C   UNL     1      -0.118 -34.158  47.995  1.00  0.00     0.000 C 
BRANCH   3   4
ATOM      4  C   UNL     1       0.970 -35.164  48.394  1.00  0.00     0.000 C 
BRANCH   4   5
ATOM      5  C   UNL     1       2.303 -34.831  47.709  1.00  0.00     0.000 C 
BRANCH   5   6
ATOM      6  C   UNL     1       2.137 -33.856  46.533  1.00  0.00     0.000 C 
BRANCH   6   7
ATOM      7  C   UNL     1       2.579 -34.465  45.191  1.00  0.00     0.006 C 
BRANCH   7   8
ATOM      8  C   UNL     1       1.388 -34.787  44.280  1.00  0.00     0.053 C 
BRANCH   8   9
ATOM      9  C   UNL     1       0.870 -36.174  44.515  1.00  0.00     0.041 C 
ATOM     10  O   UNL     1       1.634 -37.069  44.964  1.00  0.00    -0.550 OA
ATOM     11  O   UNL     1      -0.465 -36.466  44.272  1.00  0.00    -0.550 OA
ENDBRANCH   8   9
ENDBRANCH   7   8
ENDBRANCH   6   7
ENDBRANCH   5   6
ENDBRANCH   4   5
ENDBRANCH   3   4
ENDBRANCH   2   3
ENDBRANCH   1   2
BRANCH   1  12
ATOM     12  C   UNL     1      -3.046 -33.026  47.612  1.00  0.00     0.000 C 
BRANCH  12  13
ATOM     13  C   UNL     1      -3.751 -33.902  48.655  1.00  0.00    -0.000 C 
BRANCH  13  14
ATOM     14  C   UNL     1      -4.962 -34.621  48.043  1.00  0.00    -0.000 C 
BRANCH  14  15
ATOM     15  C   UNL     1      -5.947 -33.657  47.358  1.00  0.00    -0.000 C 
BRANCH  15  16
ATOM     16  C   UNL     1      -6.509 -34.146  46.007  1.00  0.00    -0.000 C 
BRANCH  16  17
ATOM     17  C   UNL     1      -5.500 -34.162  44.846  1.00  0.00    -0.000 C 
BRANCH  17  18
ATOM     18  C   UNL     1      -5.375 -35.542  44.182  1.00  0.00    -0.000 C 
BRANCH  18  19
ATOM     19  C   UNL     1      -5.205 -36.643  45.234  1.00  0.00    -0.003 C 
ATOM     20  C   UNL     1      -3.733 -37.000  45.425  1.00  0.00     0.004 C 
ENDBRANCH  18  19
ENDBRANCH  17  18
ENDBRANCH  16  17
ENDBRANCH  15  16
ENDBRANCH  14  15
ENDBRANCH  13  14
ENDBRANCH  12  13
ENDBRANCH   1  12
TORSDOF 16
ENDMDL
MODEL 9
REMARK VINA RESULT:    -3.619      3.013      6.994
REMARK INTER + INTRA:          -9.594
REMARK INTER:                  -7.441
REMARK INTRA:                  -2.153
REMARK UNBOUND:                -2.591
REMARK SMILES CCCCCCCCCCCCCCCCCC(=O)[O-]
REMARK SMILES IDX 10 1 11 2 12 3 13 4 14 5 15 6 16 7 17 8 18 9 19 10 20 11
REMARK SMILES IDX 9 12 8 13 7 14 6 15 5 16 4 17 3 18 2 19 1 20
REMARK H PARENT
REMARK Flexibility Score: inf
ROOT
ATOM      1  C   UNL     1       0.003 -34.185  48.099  1.00  0.00     0.000 C 
ENDROOT
BRANCH   1   2
ATOM      2  C   UNL     1      -1.509 -34.093  48.351  1.00  0.00     0.000 C 
BRANCH   2   3
ATOM      3  C   UNL     1      -2.169 -35.472  48.505  1.00  0.00     0.000 C 
BRANCH   3   4
ATOM      4  C   UNL     1      -3.329 -35.640  47.515  1.00  0.00     0.000 C 
BRANCH   4   5
ATOM      5  C   UNL     1      -4.610 -34.987  48.054  1.00  0.00     0.000 C 
BRANCH   5   6
ATOM      6  C   UNL     1      -4.960 -33.679  47.327  1.00  0.00     0.000 C 
BRANCH   6   7
ATOM      7  C   UNL     1      -6.451 -33.586  46.958  1.00  0.00     0.006 C 
BRANCH   7   8
ATOM      8  C   UNL     1      -6.887 -34.720  46.021  1.00  0.00     0.053 C 
BRANCH   8   9
ATOM      9  C   UNL     1      -6.109 -34.712  44.741  1.00  0.00     0.041 C 
ATOM     10  O   UNL     1      -5.319 -35.655  44.472  1.00  0.00    -0.550 OA
ATOM     11  O   UNL     1      -6.283 -33.679  43.829  1.00  0.00    -0.550 OA
ENDBRANCH   8   9
ENDBRANCH   7   8
ENDBRANCH   6   7
ENDBRANCH   5   6
ENDBRANCH   4   5
ENDBRANCH   3   4
ENDBRANCH   2   3
ENDBRANCH   1   2
BRANCH   1  12
ATOM     12  C   UNL     1       0.563 -35.591  48.364  1.00  0.00     0.000 C 
BRANCH  12  13
ATOM     13  C   UNL     1       2.093 -35.603  48.254  1.00  0.00    -0.000 C 
BRANCH  13  14
ATOM     14  C   UNL     1       2.565 -36.679  47.266  1.00  0.00    -0.000 C 
BRANCH  14  15
ATOM     15  C   UNL     1       3.299 -36.091  46.048  1.00  0.00    -0.000 C 
BRANCH  15  16
ATOM     16  C   UNL     1       2.897 -34.648  45.675  1.00  0.00    -0.000 C 
BRANCH  16  17
ATOM     17  C   UNL     1       2.108 -34.508  44.362  1.00  0.00    -0.000 C 
BRANCH  17  18
ATOM     18  C   UNL     1       0.605 -34.771  44.538  1.00  0.00    -0.000 C 
BRANCH  18  19
ATOM     19  C   UNL     1       0.263 -36.230  44.218  1.00  0.00    -0.003 C 
ATOM     20  C   UNL     1      -0.837 -36.754  45.137  1.00  0.00     0.004 C 
ENDBRANCH  18  19
ENDBRANCH  17  18
ENDBRANCH  16  17
ENDBRANCH  15  16
ENDBRANCH  14  15
ENDBRANCH  13  14
ENDBRANCH  12  13
ENDBRANCH   1  12
TORSDOF 16
ENDMDL
