MODEL 1
REMARK VINA RESULT:    -4.755      0.000      0.000
REMARK INTER + INTRA:          -5.875
REMARK INTER:                  -5.589
REMARK INTRA:                  -0.286
REMARK UNBOUND:                -0.286
REMARK SMILES O=c1cc(-c2ccc(O)c(O)c2)oc2cc(O)cc(O)c12
REMARK SMILES IDX 4 1 3 2 2 3 1 4 21 5 19 6 18 7 16 8 15 9 14 10 13 11 5 12
REMARK SMILES IDX 6 13 7 14 8 15 12 16 10 17 9 18 11 20 20 22 17 24
REMARK H PARENT 9 19 11 21 20 23 17 25
REMARK Flexibility Score: inf
ROOT
ATOM      1  C   UNL     1      -8.312  15.651  32.431  1.00  0.00     0.138 A 
ATOM      2  C   UNL     1      -9.512  15.237  31.835  1.00  0.00     0.100 A 
ATOM      3  C   UNL     1      -9.624  15.228  30.444  1.00  0.00     0.197 A 
ATOM      4  O   UNL     1     -10.732  14.911  29.939  1.00  0.00    -0.289 OA
ATOM      5  C   UNL     1      -8.517  15.605  29.646  1.00  0.00     0.107 A 
ATOM      6  C   UNL     1      -8.503  15.595  28.219  1.00  0.00     0.134 A 
ATOM      7  C   UNL     1      -7.389  16.099  27.537  1.00  0.00     0.093 A 
ATOM      8  C   UNL     1      -6.265  16.558  28.230  1.00  0.00     0.123 A 
ATOM      9  C   UNL     1      -6.249  16.522  29.622  1.00  0.00     0.094 A 
ATOM     10  C   UNL     1      -7.358  16.056  30.332  1.00  0.00     0.146 A 
ATOM     11  O   UNL     1      -7.307  16.052  31.660  1.00  0.00    -0.456 OA
ENDROOT
BRANCH   1  12
ATOM     12  C   UNL     1      -8.138  15.680  33.905  1.00  0.00     0.021 A 
ATOM     13  C   UNL     1      -7.321  16.664  34.486  1.00  0.00     0.016 A 
ATOM     14  C   UNL     1      -7.135  16.708  35.870  1.00  0.00     0.051 A 
ATOM     15  C   UNL     1      -7.755  15.763  36.697  1.00  0.00     0.157 A 
ATOM     16  C   UNL     1      -8.749  14.725  34.741  1.00  0.00     0.062 A 
ATOM     17  C   UNL     1      -8.563  14.765  36.128  1.00  0.00     0.158 A 
BRANCH  15  18
ATOM     18  O   UNL     1      -7.569  15.811  38.077  1.00  0.00    -0.504 OA
ATOM     19  H   UNL     1      -8.330  15.629  38.722  1.00  0.00     0.293 HD
ENDBRANCH  15  18
BRANCH  17  20
ATOM     20  O   UNL     1      -9.185  13.803  36.923  1.00  0.00    -0.504 OA
ATOM     21  H   UNL     1      -8.693  12.984  37.262  1.00  0.00     0.293 HD
ENDBRANCH  17  20
ENDBRANCH   1  12
BRANCH   6  22
ATOM     22  O   UNL     1      -9.537  15.080  27.431  1.00  0.00    -0.507 OA
ATOM     23  H   UNL     1      -9.814  15.446  26.533  1.00  0.00     0.293 HD
ENDBRANCH   6  22
BRANCH   8  24
ATOM     24  O   UNL     1      -5.156  17.046  27.542  1.00  0.00    -0.508 OA
ATOM     25  H   UNL     1      -4.638  17.851  27.875  1.00  0.00     0.293 HD
ENDBRANCH   8  24
TORSDOF 5
ENDMDL
MODEL 2
REMARK VINA RESULT:    -4.667      1.342      6.823
REMARK INTER + INTRA:          -5.772
REMARK INTER:                  -5.477
REMARK INTRA:                  -0.296
REMARK UNBOUND:                -0.286
REMARK SMILES O=c1cc(-c2ccc(O)c(O)c2)oc2cc(O)cc(O)c12
REMARK SMILES IDX 4 1 3 2 2 3 1 4 21 5 19 6 18 7 16 8 15 9 14 10 13 11 5 12
REMARK SMILES IDX 6 13 7 14 8 15 12 16 10 17 9 18 11 20 20 22 17 24
REMARK H PARENT 9 19 11 21 20 23 17 25
REMARK Flexibility Score: inf
ROOT
ATOM      1  C   UNL     1      -7.974  15.756  32.166  1.00  0.00     0.138 A 
ATOM      2  C   UNL     1      -9.265  15.209  32.188  1.00  0.00     0.100 A 
ATOM      3  C   UNL     1      -9.892  14.972  33.412  1.00  0.00     0.197 A 
ATOM      4  O   UNL     1     -11.024  14.423  33.403  1.00  0.00    -0.289 OA
ATOM      5  C   UNL     1      -9.235  15.315  34.618  1.00  0.00     0.107 A 
ATOM      6  C   UNL     1      -9.793  15.156  35.921  1.00  0.00     0.134 A 
ATOM      7  C   UNL     1      -9.004  15.422  37.047  1.00  0.00     0.093 A 
ATOM      8  C   UNL     1      -7.697  15.898  36.916  1.00  0.00     0.123 A 
ATOM      9  C   UNL     1      -7.161  16.107  35.647  1.00  0.00     0.094 A 
ATOM     10  C   UNL     1      -7.911  15.819  34.505  1.00  0.00     0.146 A 
ATOM     11  O   UNL     1      -7.357  16.018  33.313  1.00  0.00    -0.456 OA
ENDROOT
BRANCH   1  12
ATOM     12  C   UNL     1      -7.261  16.030  30.892  1.00  0.00     0.021 A 
ATOM     13  C   UNL     1      -6.078  16.788  30.912  1.00  0.00     0.016 A 
ATOM     14  C   UNL     1      -5.392  17.065  29.727  1.00  0.00     0.051 A 
ATOM     15  C   UNL     1      -5.881  16.599  28.501  1.00  0.00     0.157 A 
ATOM     16  C   UNL     1      -7.754  15.575  29.654  1.00  0.00     0.062 A 
ATOM     17  C   UNL     1      -7.070  15.853  28.465  1.00  0.00     0.158 A 
BRANCH  15  18
ATOM     18  O   UNL     1      -5.193  16.876  27.321  1.00  0.00    -0.504 OA
ATOM     19  H   UNL     1      -4.803  17.793  27.136  1.00  0.00     0.293 HD
ENDBRANCH  15  18
BRANCH  17  20
ATOM     20  O   UNL     1      -7.591  15.384  27.259  1.00  0.00    -0.504 OA
ATOM     21  H   UNL     1      -8.574  15.467  27.028  1.00  0.00     0.293 HD
ENDBRANCH  17  20
ENDBRANCH   1  12
BRANCH   6  22
ATOM     22  O   UNL     1     -11.114  14.768  36.163  1.00  0.00    -0.507 OA
ATOM     23  H   UNL     1     -11.401  13.846  36.454  1.00  0.00     0.293 HD
ENDBRANCH   6  22
BRANCH   8  24
ATOM     24  O   UNL     1      -6.924  16.173  38.042  1.00  0.00    -0.508 OA
ATOM     25  H   UNL     1      -6.422  17.049  38.138  1.00  0.00     0.293 HD
ENDBRANCH   8  24
TORSDOF 5
ENDMDL
MODEL 3
REMARK VINA RESULT:    -4.588      1.593      7.412
REMARK INTER + INTRA:          -5.679
REMARK INTER:                  -5.404
REMARK INTRA:                  -0.275
REMARK UNBOUND:                -0.286
REMARK SMILES O=c1cc(-c2ccc(O)c(O)c2)oc2cc(O)cc(O)c12
REMARK SMILES IDX 4 1 3 2 2 3 1 4 21 5 19 6 18 7 16 8 15 9 14 10 13 11 5 12
REMARK SMILES IDX 6 13 7 14 8 15 12 16 10 17 9 18 11 20 20 22 17 24
REMARK H PARENT 9 19 11 21 20 23 17 25
REMARK Flexibility Score: inf
ROOT
ATOM      1  C   UNL     1      -7.681  16.168  32.381  1.00  0.00     0.138 A 
ATOM      2  C   UNL     1      -6.543  16.643  33.048  1.00  0.00     0.100 A 
ATOM      3  C   UNL     1      -6.506  16.633  34.443  1.00  0.00     0.197 A 
ATOM      4  O   UNL     1      -5.498  17.123  35.014  1.00  0.00    -0.289 OA
ATOM      5  C   UNL     1      -7.603  16.114  35.172  1.00  0.00     0.107 A 
ATOM      6  C   UNL     1      -7.660  16.017  36.594  1.00  0.00     0.134 A 
ATOM      7  C   UNL     1      -8.844  15.594  37.210  1.00  0.00     0.093 A 
ATOM      8  C   UNL     1      -9.953  15.208  36.453  1.00  0.00     0.123 A 
ATOM      9  C   UNL     1      -9.889  15.249  35.062  1.00  0.00     0.094 A 
ATOM     10  C   UNL     1      -8.733  15.699  34.419  1.00  0.00     0.146 A 
ATOM     11  O   UNL     1      -8.719  15.737  33.090  1.00  0.00    -0.456 OA
ENDROOT
BRANCH   1  12
ATOM     12  C   UNL     1      -7.773  16.154  30.899  1.00  0.00     0.021 A 
ATOM     13  C   UNL     1      -8.908  16.693  30.272  1.00  0.00     0.016 A 
ATOM     14  C   UNL     1      -9.022  16.686  28.879  1.00  0.00     0.051 A 
ATOM     15  C   UNL     1      -8.008  16.131  28.090  1.00  0.00     0.157 A 
ATOM     16  C   UNL     1      -6.762  15.585  30.100  1.00  0.00     0.062 A 
ATOM     17  C   UNL     1      -6.874  15.574  28.704  1.00  0.00     0.158 A 
BRANCH  15  18
ATOM     18  O   UNL     1      -8.123  16.126  26.701  1.00  0.00    -0.504 OA
ATOM     19  H   UNL     1      -8.820  15.563  26.228  1.00  0.00     0.293 HD
ENDBRANCH  15  18
BRANCH  17  20
ATOM     20  O   UNL     1      -5.852  15.002  27.948  1.00  0.00    -0.504 OA
ATOM     21  H   UNL     1      -4.928  15.415  27.891  1.00  0.00     0.293 HD
ENDBRANCH  17  20
ENDBRANCH   1  12
BRANCH   6  22
ATOM     22  O   UNL     1      -6.582  16.296  37.440  1.00  0.00    -0.507 OA
ATOM     23  H   UNL     1      -6.653  16.437  38.437  1.00  0.00     0.293 HD
ENDBRANCH   6  22
BRANCH   8  24
ATOM     24  O   UNL     1     -11.123  14.775  37.073  1.00  0.00    -0.508 OA
ATOM     25  H   UNL     1     -11.108  14.059  37.791  1.00  0.00     0.293 HD
ENDBRANCH   8  24
TORSDOF 5
ENDMDL
MODEL 4
REMARK VINA RESULT:    -4.491      1.437      6.912
REMARK INTER + INTRA:          -5.565
REMARK INTER:                  -5.252
REMARK INTRA:                  -0.313
REMARK UNBOUND:                -0.286
REMARK SMILES O=c1cc(-c2ccc(O)c(O)c2)oc2cc(O)cc(O)c12
REMARK SMILES IDX 4 1 3 2 2 3 1 4 21 5 19 6 18 7 16 8 15 9 14 10 13 11 5 12
REMARK SMILES IDX 6 13 7 14 8 15 12 16 10 17 9 18 11 20 20 22 17 24
REMARK H PARENT 9 19 11 21 20 23 17 25
REMARK Flexibility Score: inf
ROOT
ATOM      1  C   UNL     1      -8.597  15.835  31.265  1.00  0.00     0.138 A 
ATOM      2  C   UNL     1      -9.735  15.124  31.673  1.00  0.00     0.100 A 
ATOM      3  C   UNL     1      -9.913  14.824  33.024  1.00  0.00     0.197 A 
ATOM      4  O   UNL     1     -10.911  14.131  33.352  1.00  0.00    -0.289 OA
ATOM      5  C   UNL     1      -8.963  15.267  33.975  1.00  0.00     0.107 A 
ATOM      6  C   UNL     1      -9.062  15.055  35.383  1.00  0.00     0.134 A 
ATOM      7  C   UNL     1      -8.003  15.438  36.214  1.00  0.00     0.093 A 
ATOM      8  C   UNL     1      -6.875  16.080  35.696  1.00  0.00     0.123 A 
ATOM      9  C   UNL     1      -6.793  16.339  34.331  1.00  0.00     0.094 A 
ATOM     10  C   UNL     1      -7.818  15.938  33.470  1.00  0.00     0.146 A 
ATOM     11  O   UNL     1      -7.693  16.192  32.171  1.00  0.00    -0.456 OA
ENDROOT
BRANCH   1  12
ATOM     12  C   UNL     1      -8.358  16.182  29.841  1.00  0.00     0.021 A 
ATOM     13  C   UNL     1      -9.432  16.168  28.936  1.00  0.00     0.016 A 
ATOM     14  C   UNL     1      -9.232  16.484  27.590  1.00  0.00     0.051 A 
ATOM     15  C   UNL     1      -7.953  16.809  27.123  1.00  0.00     0.157 A 
ATOM     16  C   UNL     1      -7.071  16.497  29.363  1.00  0.00     0.062 A 
ATOM     17  C   UNL     1      -6.867  16.812  28.014  1.00  0.00     0.158 A 
BRANCH  15  18
ATOM     18  O   UNL     1      -7.756  17.125  25.780  1.00  0.00    -0.504 OA
ATOM     19  H   UNL     1      -8.196  17.933  25.355  1.00  0.00     0.293 HD
ENDBRANCH  15  18
BRANCH  17  20
ATOM     20  O   UNL     1      -5.578  17.119  27.578  1.00  0.00    -0.504 OA
ATOM     21  H   UNL     1      -5.406  17.779  26.828  1.00  0.00     0.293 HD
ENDBRANCH  17  20
ENDBRANCH   1  12
BRANCH   6  22
ATOM     22  O   UNL     1     -10.181  14.501  36.012  1.00  0.00    -0.507 OA
ATOM     23  H   UNL     1     -10.742  13.752  35.636  1.00  0.00     0.293 HD
ENDBRANCH   6  22
BRANCH   8  24
ATOM     24  O   UNL     1      -5.832  16.470  36.533  1.00  0.00    -0.508 OA
ATOM     25  H   UNL     1      -4.871  16.484  36.211  1.00  0.00     0.293 HD
ENDBRANCH   8  24
TORSDOF 5
ENDMDL
MODEL 5
REMARK VINA RESULT:    -4.316      1.359      2.986
REMARK INTER + INTRA:          -5.360
REMARK INTER:                  -5.065
REMARK INTRA:                  -0.294
REMARK UNBOUND:                -0.286
REMARK SMILES O=c1cc(-c2ccc(O)c(O)c2)oc2cc(O)cc(O)c12
REMARK SMILES IDX 4 1 3 2 2 3 1 4 21 5 19 6 18 7 16 8 15 9 14 10 13 11 5 12
REMARK SMILES IDX 6 13 7 14 8 15 12 16 10 17 9 18 11 20 20 22 17 24
REMARK H PARENT 9 19 11 21 20 23 17 25
REMARK Flexibility Score: inf
ROOT
ATOM      1  C   UNL     1      -8.345  15.883  32.058  1.00  0.00     0.138 A 
ATOM      2  C   UNL     1      -7.012  16.304  31.949  1.00  0.00     0.100 A 
ATOM      3  C   UNL     1      -6.457  16.517  30.686  1.00  0.00     0.197 A 
ATOM      4  O   UNL     1      -5.242  16.834  30.617  1.00  0.00    -0.289 OA
ATOM      5  C   UNL     1      -7.252  16.338  29.528  1.00  0.00     0.107 A 
ATOM      6  C   UNL     1      -6.805  16.566  28.193  1.00  0.00     0.134 A 
ATOM      7  C   UNL     1      -7.645  16.244  27.120  1.00  0.00     0.093 A 
ATOM      8  C   UNL     1      -8.938  15.759  27.336  1.00  0.00     0.123 A 
ATOM      9  C   UNL     1      -9.402  15.584  28.637  1.00  0.00     0.094 A 
ATOM     10  C   UNL     1      -8.576  15.864  29.728  1.00  0.00     0.146 A 
ATOM     11  O   UNL     1      -9.053  15.670  30.954  1.00  0.00    -0.456 OA
ENDROOT
BRANCH   1  12
ATOM     12  C   UNL     1      -8.986  15.642  33.375  1.00  0.00     0.021 A 
ATOM     13  C   UNL     1     -10.385  15.535  33.454  1.00  0.00     0.016 A 
ATOM     14  C   UNL     1     -11.012  15.316  34.683  1.00  0.00     0.051 A 
ATOM     15  C   UNL     1     -10.255  15.210  35.855  1.00  0.00     0.157 A 
ATOM     16  C   UNL     1      -8.230  15.547  34.560  1.00  0.00     0.062 A 
ATOM     17  C   UNL     1      -8.857  15.330  35.793  1.00  0.00     0.158 A 
BRANCH  15  18
ATOM     18  O   UNL     1     -10.884  14.989  37.079  1.00  0.00    -0.504 OA
ATOM     19  H   UNL     1     -10.422  14.491  37.832  1.00  0.00     0.293 HD
ENDBRANCH  15  18
BRANCH  17  20
ATOM     20  O   UNL     1      -8.074  15.241  36.944  1.00  0.00    -0.504 OA
ATOM     21  H   UNL     1      -8.360  15.656  37.823  1.00  0.00     0.293 HD
ENDBRANCH  17  20
ENDBRANCH   1  12
BRANCH   6  22
ATOM     22  O   UNL     1      -5.565  17.125  27.868  1.00  0.00    -0.507 OA
ATOM     23  H   UNL     1      -5.361  18.113  27.868  1.00  0.00     0.293 HD
ENDBRANCH   6  22
BRANCH   8  24
ATOM     24  O   UNL     1      -9.772  15.455  26.262  1.00  0.00    -0.508 OA
ATOM     25  H   UNL     1      -9.973  14.496  26.003  1.00  0.00     0.293 HD
ENDBRANCH   8  24
TORSDOF 5
ENDMDL
MODEL 6
REMARK VINA RESULT:    -4.241     11.425     14.661
REMARK INTER + INTRA:          -5.271
REMARK INTER:                  -4.974
REMARK INTRA:                  -0.297
REMARK UNBOUND:                -0.286
REMARK SMILES O=c1cc(-c2ccc(O)c(O)c2)oc2cc(O)cc(O)c12
REMARK SMILES IDX 4 1 3 2 2 3 1 4 21 5 19 6 18 7 16 8 15 9 14 10 13 11 5 12
REMARK SMILES IDX 6 13 7 14 8 15 12 16 10 17 9 18 11 20 20 22 17 24
REMARK H PARENT 9 19 11 21 20 23 17 25
REMARK Flexibility Score: inf
ROOT
ATOM      1  C   UNL     1       3.617  17.044  24.241  1.00  0.00     0.138 A 
ATOM      2  C   UNL     1       2.668  17.055  23.210  1.00  0.00     0.100 A 
ATOM      3  C   UNL     1       3.093  17.026  21.881  1.00  0.00     0.197 A 
ATOM      4  O   UNL     1       2.221  17.101  20.977  1.00  0.00    -0.289 OA
ATOM      5  C   UNL     1       4.475  16.953  21.585  1.00  0.00     0.107 A 
ATOM      6  C   UNL     1       5.022  16.877  20.269  1.00  0.00     0.134 A 
ATOM      7  C   UNL     1       6.410  16.925  20.095  1.00  0.00     0.093 A 
ATOM      8  C   UNL     1       7.273  16.986  21.193  1.00  0.00     0.123 A 
ATOM      9  C   UNL     1       6.750  17.006  22.484  1.00  0.00     0.094 A 
ATOM     10  C   UNL     1       5.368  16.994  22.689  1.00  0.00     0.146 A 
ATOM     11  O   UNL     1       4.910  17.029  23.936  1.00  0.00    -0.456 OA
ENDROOT
BRANCH   1  12
ATOM     12  C   UNL     1       3.221  17.072  25.672  1.00  0.00     0.021 A 
ATOM     13  C   UNL     1       4.215  17.105  26.664  1.00  0.00     0.016 A 
ATOM     14  C   UNL     1       3.868  17.125  28.017  1.00  0.00     0.051 A 
ATOM     15  C   UNL     1       2.523  17.102  28.403  1.00  0.00     0.157 A 
ATOM     16  C   UNL     1       1.869  17.036  26.067  1.00  0.00     0.062 A 
ATOM     17  C   UNL     1       1.519  17.054  27.422  1.00  0.00     0.158 A 
BRANCH  15  18
ATOM     18  O   UNL     1       2.180  17.124  29.754  1.00  0.00    -0.504 OA
ATOM     19  H   UNL     1       2.192  17.983  30.291  1.00  0.00     0.293 HD
ENDBRANCH  15  18
BRANCH  17  20
ATOM     20  O   UNL     1       0.170  17.018  27.773  1.00  0.00    -0.504 OA
ATOM     21  H   UNL     1      -0.482  16.373  27.341  1.00  0.00     0.293 HD
ENDBRANCH  17  20
ENDBRANCH   1  12
BRANCH   6  22
ATOM     22  O   UNL     1       4.253  16.729  19.111  1.00  0.00    -0.507 OA
ATOM     23  H   UNL     1       4.624  16.691  18.174  1.00  0.00     0.293 HD
ENDBRANCH   6  22
BRANCH   8  24
ATOM     24  O   UNL     1       8.654  17.019  21.011  1.00  0.00    -0.508 OA
ATOM     25  H   UNL     1       9.267  16.363  21.483  1.00  0.00     0.293 HD
ENDBRANCH   8  24
TORSDOF 5
ENDMDL
MODEL 7
REMARK VINA RESULT:    -4.218     11.024     15.157
REMARK INTER + INTRA:          -5.244
REMARK INTER:                  -4.926
REMARK INTRA:                  -0.317
REMARK UNBOUND:                -0.286
REMARK SMILES O=c1cc(-c2ccc(O)c(O)c2)oc2cc(O)cc(O)c12
REMARK SMILES IDX 4 1 3 2 2 3 1 4 21 5 19 6 18 7 16 8 15 9 14 10 13 11 5 12
REMARK SMILES IDX 6 13 7 14 8 15 12 16 10 17 9 18 11 20 20 22 17 24
REMARK H PARENT 9 19 11 21 20 23 17 25
REMARK Flexibility Score: inf
ROOT
ATOM      1  C   UNL     1       3.630  16.990  25.437  1.00  0.00     0.138 A 
ATOM      2  C   UNL     1       2.275  16.891  25.782  1.00  0.00     0.100 A 
ATOM      3  C   UNL     1       1.905  16.885  27.128  1.00  0.00     0.197 A 
ATOM      4  O   UNL     1       0.688  16.732  27.408  1.00  0.00    -0.289 OA
ATOM      5  C   UNL     1       2.896  17.011  28.131  1.00  0.00     0.107 A 
ATOM      6  C   UNL     1       2.632  17.057  29.532  1.00  0.00     0.134 A 
ATOM      7  C   UNL     1       3.701  17.067  30.436  1.00  0.00     0.093 A 
ATOM      8  C   UNL     1       5.025  17.092  29.987  1.00  0.00     0.123 A 
ATOM      9  C   UNL     1       5.291  17.101  28.620  1.00  0.00     0.094 A 
ATOM     10  C   UNL     1       4.246  17.057  27.693  1.00  0.00     0.146 A 
ATOM     11  O   UNL     1       4.544  17.052  26.398  1.00  0.00    -0.456 OA
ENDROOT
BRANCH   1  12
ATOM     12  C   UNL     1       4.079  17.002  24.021  1.00  0.00     0.021 A 
ATOM     13  C   UNL     1       3.124  17.087  22.993  1.00  0.00     0.016 A 
ATOM     14  C   UNL     1       3.521  17.093  21.654  1.00  0.00     0.051 A 
ATOM     15  C   UNL     1       4.877  17.006  21.317  1.00  0.00     0.157 A 
ATOM     16  C   UNL     1       5.441  16.902  23.676  1.00  0.00     0.062 A 
ATOM     17  C   UNL     1       5.841  16.906  22.334  1.00  0.00     0.158 A 
BRANCH  15  18
ATOM     18  O   UNL     1       5.270  17.014  19.980  1.00  0.00    -0.504 OA
ATOM     19  H   UNL     1       4.939  16.315  19.325  1.00  0.00     0.293 HD
ENDBRANCH  15  18
BRANCH  17  20
ATOM     20  O   UNL     1       7.199  16.805  22.033  1.00  0.00    -0.504 OA
ATOM     21  H   UNL     1       7.870  17.502  22.333  1.00  0.00     0.293 HD
ENDBRANCH  17  20
ENDBRANCH   1  12
BRANCH   6  22
ATOM     22  O   UNL     1       1.349  17.122  30.084  1.00  0.00    -0.507 OA
ATOM     23  H   UNL     1       0.870  16.349  30.523  1.00  0.00     0.293 HD
ENDBRANCH   6  22
BRANCH   8  24
ATOM     24  O   UNL     1       6.083  17.116  30.893  1.00  0.00    -0.508 OA
ATOM     25  H   UNL     1       6.814  17.816  30.836  1.00  0.00     0.293 HD
ENDBRANCH   8  24
TORSDOF 5
ENDMDL
MODEL 8
REMARK VINA RESULT:    -3.585      2.144      2.473
REMARK INTER + INTRA:          -4.500
REMARK INTER:                  -4.207
REMARK INTRA:                  -0.293
REMARK UNBOUND:                -0.286
REMARK SMILES O=c1cc(-c2ccc(O)c(O)c2)oc2cc(O)cc(O)c12
REMARK SMILES IDX 4 1 3 2 2 3 1 4 21 5 19 6 18 7 16 8 15 9 14 10 13 11 5 12
REMARK SMILES IDX 6 13 7 14 8 15 12 16 10 17 9 18 11 20 20 22 17 24
REMARK H PARENT 9 19 11 21 20 23 17 25
REMARK Flexibility Score: inf
ROOT
ATOM      1  C   UNL     1      -9.363  14.860  32.743  1.00  0.00     0.138 A 
ATOM      2  C   UNL     1      -9.867  13.566  32.556  1.00  0.00     0.100 A 
ATOM      3  C   UNL     1     -10.351  13.188  31.303  1.00  0.00     0.197 A 
ATOM      4  O   UNL     1     -10.855  12.042  31.182  1.00  0.00    -0.289 OA
ATOM      5  C   UNL     1     -10.300  14.103  30.224  1.00  0.00     0.107 A 
ATOM      6  C   UNL     1     -10.728  13.814  28.894  1.00  0.00     0.134 A 
ATOM      7  C   UNL     1     -10.738  14.835  27.936  1.00  0.00     0.093 A 
ATOM      8  C   UNL     1     -10.280  16.119  28.244  1.00  0.00     0.123 A 
ATOM      9  C   UNL     1      -9.810  16.396  29.526  1.00  0.00     0.094 A 
ATOM     10  C   UNL     1      -9.819  15.407  30.513  1.00  0.00     0.146 A 
ATOM     11  O   UNL     1      -9.376  15.717  31.728  1.00  0.00    -0.456 OA
ENDROOT
BRANCH   1  12
ATOM     12  C   UNL     1      -8.833  15.314  34.054  1.00  0.00     0.021 A 
ATOM     13  C   UNL     1      -7.996  16.441  34.109  1.00  0.00     0.016 A 
ATOM     14  C   UNL     1      -7.480  16.884  35.329  1.00  0.00     0.051 A 
ATOM     15  C   UNL     1      -7.783  16.204  36.514  1.00  0.00     0.157 A 
ATOM     16  C   UNL     1      -9.124  14.626  35.248  1.00  0.00     0.062 A 
ATOM     17  C   UNL     1      -8.606  15.067  36.472  1.00  0.00     0.158 A 
BRANCH  15  18
ATOM     18  O   UNL     1      -7.267  16.649  37.730  1.00  0.00    -0.504 OA
ATOM     19  H   UNL     1      -7.713  17.393  38.255  1.00  0.00     0.293 HD
ENDBRANCH  15  18
BRANCH  17  20
ATOM     20  O   UNL     1      -8.917  14.359  37.633  1.00  0.00    -0.504 OA
ATOM     21  H   UNL     1      -9.519  14.742  38.352  1.00  0.00     0.293 HD
ENDBRANCH  17  20
ENDBRANCH   1  12
BRANCH   6  22
ATOM     22  O   UNL     1     -11.125  12.546  28.458  1.00  0.00    -0.507 OA
ATOM     23  H   UNL     1     -12.050  12.160  28.575  1.00  0.00     0.293 HD
ENDBRANCH   6  22
BRANCH   8  24
ATOM     24  O   UNL     1     -10.280  17.125  27.281  1.00  0.00    -0.508 OA
ATOM     25  H   UNL     1     -10.194  18.103  27.536  1.00  0.00     0.293 HD
ENDBRANCH   8  24
TORSDOF 5
ENDMDL
MODEL 9
REMARK VINA RESULT:    -3.539      1.916      6.798
REMARK INTER + INTRA:          -4.445
REMARK INTER:                  -4.156
REMARK INTRA:                  -0.289
REMARK UNBOUND:                -0.286
REMARK SMILES O=c1cc(-c2ccc(O)c(O)c2)oc2cc(O)cc(O)c12
REMARK SMILES IDX 4 1 3 2 2 3 1 4 21 5 19 6 18 7 16 8 15 9 14 10 13 11 5 12
REMARK SMILES IDX 6 13 7 14 8 15 12 16 10 17 9 18 11 20 20 22 17 24
REMARK H PARENT 9 19 11 21 20 23 17 25
REMARK Flexibility Score: inf
ROOT
ATOM      1  C   UNL     1      -9.027  15.924  31.106  1.00  0.00     0.138 A 
ATOM      2  C   UNL     1     -10.044  15.402  31.918  1.00  0.00     0.100 A 
ATOM      3  C   UNL     1      -9.854  15.328  33.299  1.00  0.00     0.197 A 
ATOM      4  O   UNL     1     -10.758  14.798  33.995  1.00  0.00    -0.289 OA
ATOM      5  C   UNL     1      -8.652  15.809  33.871  1.00  0.00     0.107 A 
ATOM      6  C   UNL     1      -8.365  15.821  35.268  1.00  0.00     0.134 A 
ATOM      7  C   UNL     1      -7.095  16.214  35.709  1.00  0.00     0.093 A 
ATOM      8  C   UNL     1      -6.122  16.652  34.806  1.00  0.00     0.123 A 
ATOM      9  C   UNL     1      -6.411  16.694  33.444  1.00  0.00     0.094 A 
ATOM     10  C   UNL     1      -7.657  16.276  32.971  1.00  0.00     0.146 A 
ATOM     11  O   UNL     1      -7.887  16.318  31.662  1.00  0.00    -0.456 OA
ENDROOT
BRANCH   1  12
ATOM     12  C   UNL     1      -9.177  16.027  29.632  1.00  0.00     0.021 A 
ATOM     13  C   UNL     1      -8.449  17.003  28.930  1.00  0.00     0.016 A 
ATOM     14  C   UNL     1      -8.578  17.125  27.544  1.00  0.00     0.051 A 
ATOM     15  C   UNL     1      -9.442  16.281  26.837  1.00  0.00     0.157 A 
ATOM     16  C   UNL     1     -10.054  15.189  28.916  1.00  0.00     0.062 A 
ATOM     17  C   UNL     1     -10.186  15.311  27.528  1.00  0.00     0.158 A 
BRANCH  15  18
ATOM     18  O   UNL     1      -9.566  16.404  25.454  1.00  0.00    -0.504 OA
ATOM     19  H   UNL     1      -8.976  17.033  24.922  1.00  0.00     0.293 HD
ENDBRANCH  15  18
BRANCH  17  20
ATOM     20  O   UNL     1     -11.065  14.463  26.855  1.00  0.00    -0.504 OA
ATOM     21  H   UNL     1     -11.479  14.713  25.964  1.00  0.00     0.293 HD
ENDBRANCH  17  20
ENDBRANCH   1  12
BRANCH   6  22
ATOM     22  O   UNL     1      -9.292  15.485  36.259  1.00  0.00    -0.507 OA
ATOM     23  H   UNL     1      -9.520  16.062  37.055  1.00  0.00     0.293 HD
ENDBRANCH   6  22
BRANCH   8  24
ATOM     24  O   UNL     1      -4.866  17.054  35.254  1.00  0.00    -0.508 OA
ATOM     25  H   UNL     1      -4.553  18.014  35.161  1.00  0.00     0.293 HD
ENDBRANCH   8  24
TORSDOF 5
ENDMDL
