MODEL 1
REMARK VINA RESULT:    -4.119      0.000      0.000
REMARK INTER + INTRA:         -11.577
REMARK INTER:                  -8.934
REMARK INTRA:                  -2.643
REMARK UNBOUND:                -2.643
REMARK SMILES CCCCCCCCCCCCCCCCCCCCCC(=O)[O-]
REMARK SMILES IDX 12 1 11 2 10 3 9 4 8 5 7 6 6 7 5 8 4 9 3 10 2 11 1 12 13 13
REMARK SMILES IDX 14 14 15 15 16 16 17 17 18 18 19 19 20 20 21 21 22 22 23 23
REMARK SMILES IDX 24 24
REMARK H PARENT
REMARK Flexibility Score: inf
ROOT
ATOM      1  C   UNL     1      31.471   5.494  43.912  1.00  0.00     0.000 C 
ENDROOT
BRANCH   1   2
ATOM      2  C   UNL     1      31.598   6.224  45.258  1.00  0.00     0.000 C 
BRANCH   2   3
ATOM      3  C   UNL     1      31.282   5.277  46.427  1.00  0.00     0.000 C 
BRANCH   3   4
ATOM      4  C   UNL     1      31.202   6.006  47.778  1.00  0.00    -0.000 C 
BRANCH   4   5
ATOM      5  C   UNL     1      31.402   5.058  48.973  1.00  0.00    -0.000 C 
BRANCH   5   6
ATOM      6  C   UNL     1      30.077   4.474  49.499  1.00  0.00    -0.000 C 
BRANCH   6   7
ATOM      7  C   UNL     1      28.815   5.270  49.111  1.00  0.00    -0.000 C 
BRANCH   7   8
ATOM      8  C   UNL     1      27.793   4.500  48.248  1.00  0.00    -0.000 C 
BRANCH   8   9
ATOM      9  C   UNL     1      27.035   5.359  47.220  1.00  0.00    -0.000 C 
BRANCH   9  10
ATOM     10  C   UNL     1      27.208   4.857  45.779  1.00  0.00    -0.000 C 
BRANCH  10  11
ATOM     11  C   UNL     1      26.680   3.427  45.629  1.00  0.00    -0.003 C 
ATOM     12  C   UNL     1      25.208   3.339  46.021  1.00  0.00     0.004 C 
ENDBRANCH  10  11
ENDBRANCH   9  10
ENDBRANCH   8   9
ENDBRANCH   7   8
ENDBRANCH   6   7
ENDBRANCH   5   6
ENDBRANCH   4   5
ENDBRANCH   3   4
ENDBRANCH   2   3
ENDBRANCH   1   2
BRANCH   1  13
ATOM     13  C   UNL     1      30.509   4.297  43.969  1.00  0.00     0.000 C 
BRANCH  13  14
ATOM     14  C   UNL     1      29.452   4.333  42.851  1.00  0.00     0.000 C 
BRANCH  14  15
ATOM     15  C   UNL     1      28.916   5.751  42.579  1.00  0.00     0.000 C 
BRANCH  15  16
ATOM     16  C   UNL     1      28.523   6.039  41.115  1.00  0.00     0.000 C 
BRANCH  16  17
ATOM     17  C   UNL     1      29.661   6.550  40.213  1.00  0.00     0.000 C 
BRANCH  17  18
ATOM     18  C   UNL     1      30.137   5.501  39.195  1.00  0.00     0.000 C 
BRANCH  18  19
ATOM     19  C   UNL     1      31.525   4.930  39.532  1.00  0.00     0.000 C 
BRANCH  19  20
ATOM     20  C   UNL     1      32.405   5.890  40.363  1.00  0.00     0.006 C 
BRANCH  20  21
ATOM     21  C   UNL     1      33.595   5.169  41.009  1.00  0.00     0.053 C 
BRANCH  21  22
ATOM     22  C   UNL     1      34.761   5.137  40.072  1.00  0.00     0.041 C 
ATOM     23  O   UNL     1      35.084   4.062  39.501  1.00  0.00    -0.550 OA
ATOM     24  O   UNL     1      35.520   6.283  39.866  1.00  0.00    -0.550 OA
ENDBRANCH  21  22
ENDBRANCH  20  21
ENDBRANCH  19  20
ENDBRANCH  18  19
ENDBRANCH  17  18
ENDBRANCH  16  17
ENDBRANCH  15  16
ENDBRANCH  14  15
ENDBRANCH  13  14
ENDBRANCH   1  13
TORSDOF 20
ENDMDL
MODEL 2
REMARK VINA RESULT:    -4.103      8.433     12.699
REMARK INTER + INTRA:         -11.543
REMARK INTER:                  -9.057
REMARK INTRA:                  -2.486
REMARK UNBOUND:                -2.643
REMARK SMILES CCCCCCCCCCCCCCCCCCCCCC(=O)[O-]
REMARK SMILES IDX 12 1 11 2 10 3 9 4 8 5 7 6 6 7 5 8 4 9 3 10 2 11 1 12 13 13
REMARK SMILES IDX 14 14 15 15 16 16 17 17 18 18 19 19 20 20 21 21 22 22 23 23
REMARK SMILES IDX 24 24
REMARK H PARENT
REMARK Flexibility Score: inf
ROOT
ATOM      1  C   UNL     1      19.432   4.057  41.794  1.00  0.00     0.000 C 
ENDROOT
BRANCH   1   2
ATOM      2  C   UNL     1      20.698   3.482  41.139  1.00  0.00     0.000 C 
BRANCH   2   3
ATOM      3  C   UNL     1      21.577   2.770  42.179  1.00  0.00     0.000 C 
BRANCH   3   4
ATOM      4  C   UNL     1      22.661   3.688  42.769  1.00  0.00    -0.000 C 
BRANCH   4   5
ATOM      5  C   UNL     1      24.070   3.077  42.670  1.00  0.00    -0.000 C 
BRANCH   5   6
ATOM      6  C   UNL     1      25.060   3.982  41.914  1.00  0.00    -0.000 C 
BRANCH   6   7
ATOM      7  C   UNL     1      24.681   4.284  40.449  1.00  0.00    -0.000 C 
BRANCH   7   8
ATOM      8  C   UNL     1      24.796   3.087  39.483  1.00  0.00    -0.000 C 
BRANCH   8   9
ATOM      9  C   UNL     1      23.552   2.836  38.611  1.00  0.00    -0.000 C 
BRANCH   9  10
ATOM     10  C   UNL     1      22.967   1.428  38.799  1.00  0.00    -0.000 C 
BRANCH  10  11
ATOM     11  C   UNL     1      23.869   0.575  39.698  1.00  0.00    -0.003 C 
ATOM     12  C   UNL     1      23.800  -0.899  39.309  1.00  0.00     0.004 C 
ENDBRANCH  10  11
ENDBRANCH   9  10
ENDBRANCH   8   9
ENDBRANCH   7   8
ENDBRANCH   6   7
ENDBRANCH   5   6
ENDBRANCH   4   5
ENDBRANCH   3   4
ENDBRANCH   2   3
ENDBRANCH   1   2
BRANCH   1  13
ATOM     13  C   UNL     1      18.137   3.554  41.137  1.00  0.00     0.000 C 
BRANCH  13  14
ATOM     14  C   UNL     1      17.369   2.560  42.026  1.00  0.00     0.000 C 
BRANCH  14  15
ATOM     15  C   UNL     1      17.900   2.516  43.471  1.00  0.00     0.000 C 
BRANCH  15  16
ATOM     16  C   UNL     1      17.400   1.330  44.323  1.00  0.00     0.000 C 
BRANCH  16  17
ATOM     17  C   UNL     1      17.729  -0.068  43.767  1.00  0.00     0.000 C 
BRANCH  17  18
ATOM     18  C   UNL     1      19.220  -0.246  43.435  1.00  0.00     0.000 C 
BRANCH  18  19
ATOM     19  C   UNL     1      19.931  -1.220  44.391  1.00  0.00     0.000 C 
BRANCH  19  20
ATOM     20  C   UNL     1      19.092  -1.595  45.632  1.00  0.00     0.006 C 
BRANCH  20  21
ATOM     21  C   UNL     1      19.058  -3.110  45.868  1.00  0.00     0.053 C 
BRANCH  21  22
ATOM     22  C   UNL     1      20.447  -3.655  45.987  1.00  0.00     0.041 C 
ATOM     23  O   UNL     1      21.166  -3.343  46.972  1.00  0.00    -0.550 OA
ATOM     24  O   UNL     1      20.963  -4.470  44.986  1.00  0.00    -0.550 OA
ENDBRANCH  21  22
ENDBRANCH  20  21
ENDBRANCH  19  20
ENDBRANCH  18  19
ENDBRANCH  17  18
ENDBRANCH  16  17
ENDBRANCH  15  16
ENDBRANCH  14  15
ENDBRANCH  13  14
ENDBRANCH   1  13
TORSDOF 20
ENDMDL
MODEL 3
REMARK VINA RESULT:    -4.090      1.987      3.413
REMARK INTER + INTRA:         -11.514
REMARK INTER:                  -8.553
REMARK INTRA:                  -2.960
REMARK UNBOUND:                -2.643
REMARK SMILES CCCCCCCCCCCCCCCCCCCCCC(=O)[O-]
REMARK SMILES IDX 12 1 11 2 10 3 9 4 8 5 7 6 6 7 5 8 4 9 3 10 2 11 1 12 13 13
REMARK SMILES IDX 14 14 15 15 16 16 17 17 18 18 19 19 20 20 21 21 22 22 23 23
REMARK SMILES IDX 24 24
REMARK H PARENT
REMARK Flexibility Score: inf
ROOT
ATOM      1  C   UNL     1      32.637   6.126  44.545  1.00  0.00     0.000 C 
ENDROOT
BRANCH   1   2
ATOM      2  C   UNL     1      33.160   7.571  44.518  1.00  0.00     0.000 C 
BRANCH   2   3
ATOM      3  C   UNL     1      33.339   8.115  45.944  1.00  0.00     0.000 C 
BRANCH   3   4
ATOM      4  C   UNL     1      32.802   9.547  46.106  1.00  0.00    -0.000 C 
BRANCH   4   5
ATOM      5  C   UNL     1      31.538   9.803  45.266  1.00  0.00    -0.000 C 
BRANCH   5   6
ATOM      6  C   UNL     1      30.239   9.520  46.044  1.00  0.00    -0.000 C 
BRANCH   6   7
ATOM      7  C   UNL     1      29.664   8.101  45.861  1.00  0.00    -0.000 C 
BRANCH   7   8
ATOM      8  C   UNL     1      29.441   7.310  47.166  1.00  0.00    -0.000 C 
BRANCH   8   9
ATOM      9  C   UNL     1      30.069   5.904  47.187  1.00  0.00    -0.000 C 
BRANCH   9  10
ATOM     10  C   UNL     1      31.293   5.811  48.111  1.00  0.00    -0.000 C 
BRANCH  10  11
ATOM     11  C   UNL     1      30.962   5.020  49.381  1.00  0.00    -0.003 C 
ATOM     12  C   UNL     1      29.474   4.688  49.453  1.00  0.00     0.004 C 
ENDBRANCH  10  11
ENDBRANCH   9  10
ENDBRANCH   8   9
ENDBRANCH   7   8
ENDBRANCH   6   7
ENDBRANCH   5   6
ENDBRANCH   4   5
ENDBRANCH   3   4
ENDBRANCH   2   3
ENDBRANCH   1   2
BRANCH   1  13
ATOM     13  C   UNL     1      31.485   5.888  43.556  1.00  0.00     0.000 C 
BRANCH  13  14
ATOM     14  C   UNL     1      30.669   4.627  43.889  1.00  0.00     0.000 C 
BRANCH  14  15
ATOM     15  C   UNL     1      29.497   4.398  42.917  1.00  0.00     0.000 C 
BRANCH  15  16
ATOM     16  C   UNL     1      28.823   5.678  42.382  1.00  0.00     0.000 C 
BRANCH  16  17
ATOM     17  C   UNL     1      28.945   5.905  40.864  1.00  0.00     0.000 C 
BRANCH  17  18
ATOM     18  C   UNL     1      29.245   4.613  40.086  1.00  0.00     0.000 C 
BRANCH  18  19
ATOM     19  C   UNL     1      30.590   4.663  39.341  1.00  0.00     0.000 C 
BRANCH  19  20
ATOM     20  C   UNL     1      31.715   5.356  40.139  1.00  0.00     0.006 C 
BRANCH  20  21
ATOM     21  C   UNL     1      32.445   6.417  39.306  1.00  0.00     0.053 C 
BRANCH  21  22
ATOM     22  C   UNL     1      33.830   6.635  39.829  1.00  0.00     0.041 C 
ATOM     23  O   UNL     1      34.005   7.011  41.018  1.00  0.00    -0.550 OA
ATOM     24  O   UNL     1      34.926   6.467  38.991  1.00  0.00    -0.550 OA
ENDBRANCH  21  22
ENDBRANCH  20  21
ENDBRANCH  19  20
ENDBRANCH  18  19
ENDBRANCH  17  18
ENDBRANCH  16  17
ENDBRANCH  15  16
ENDBRANCH  14  15
ENDBRANCH  13  14
ENDBRANCH   1  13
TORSDOF 20
ENDMDL
MODEL 4
REMARK VINA RESULT:    -4.087      3.609      7.028
REMARK INTER + INTRA:         -11.508
REMARK INTER:                  -8.806
REMARK INTRA:                  -2.703
REMARK UNBOUND:                -2.643
REMARK SMILES CCCCCCCCCCCCCCCCCCCCCC(=O)[O-]
REMARK SMILES IDX 12 1 11 2 10 3 9 4 8 5 7 6 6 7 5 8 4 9 3 10 2 11 1 12 13 13
REMARK SMILES IDX 14 14 15 15 16 16 17 17 18 18 19 19 20 20 21 21 22 22 23 23
REMARK SMILES IDX 24 24
REMARK H PARENT
REMARK Flexibility Score: inf
ROOT
ATOM      1  C   UNL     1      28.159   3.944  44.877  1.00  0.00     0.000 C 
ENDROOT
BRANCH   1   2
ATOM      2  C   UNL     1      29.533   4.283  44.279  1.00  0.00     0.000 C 
BRANCH   2   3
ATOM      3  C   UNL     1      29.485   4.251  42.744  1.00  0.00     0.000 C 
BRANCH   3   4
ATOM      4  C   UNL     1      28.050   4.173  42.195  1.00  0.00    -0.000 C 
BRANCH   4   5
ATOM      5  C   UNL     1      27.540   5.530  41.680  1.00  0.00    -0.000 C 
BRANCH   5   6
ATOM      6  C   UNL     1      26.061   5.781  42.029  1.00  0.00    -0.000 C 
BRANCH   6   7
ATOM      7  C   UNL     1      25.310   4.563  42.604  1.00  0.00    -0.000 C 
BRANCH   7   8
ATOM      8  C   UNL     1      24.266   3.930  41.660  1.00  0.00    -0.000 C 
BRANCH   8   9
ATOM      9  C   UNL     1      24.529   4.155  40.159  1.00  0.00    -0.000 C 
BRANCH   9  10
ATOM     10  C   UNL     1      24.891   2.859  39.417  1.00  0.00    -0.000 C 
BRANCH  10  11
ATOM     11  C   UNL     1      23.631   2.066  39.053  1.00  0.00    -0.003 C 
ATOM     12  C   UNL     1      23.628   0.697  39.726  1.00  0.00     0.004 C 
ENDBRANCH  10  11
ENDBRANCH   9  10
ENDBRANCH   8   9
ENDBRANCH   7   8
ENDBRANCH   6   7
ENDBRANCH   5   6
ENDBRANCH   4   5
ENDBRANCH   3   4
ENDBRANCH   2   3
ENDBRANCH   1   2
BRANCH   1  13
ATOM     13  C   UNL     1      27.742   4.904  46.002  1.00  0.00     0.000 C 
BRANCH  13  14
ATOM     14  C   UNL     1      26.829   4.234  47.045  1.00  0.00     0.000 C 
BRANCH  14  15
ATOM     15  C   UNL     1      27.278   4.502  48.493  1.00  0.00     0.000 C 
BRANCH  15  16
ATOM     16  C   UNL     1      28.463   5.478  48.648  1.00  0.00     0.000 C 
BRANCH  16  17
ATOM     17  C   UNL     1      29.740   4.876  49.264  1.00  0.00     0.000 C 
BRANCH  17  18
ATOM     18  C   UNL     1      31.025   5.559  48.768  1.00  0.00     0.000 C 
BRANCH  18  19
ATOM     19  C   UNL     1      31.229   5.416  47.250  1.00  0.00     0.000 C 
BRANCH  19  20
ATOM     20  C   UNL     1      31.515   6.754  46.534  1.00  0.00     0.006 C 
BRANCH  20  21
ATOM     21  C   UNL     1      30.241   7.584  46.331  1.00  0.00     0.053 C 
BRANCH  21  22
ATOM     22  C   UNL     1      30.207   8.166  44.953  1.00  0.00     0.041 C 
ATOM     23  O   UNL     1      30.986   9.106  44.644  1.00  0.00    -0.550 OA
ATOM     24  O   UNL     1      29.285   7.701  44.023  1.00  0.00    -0.550 OA
ENDBRANCH  21  22
ENDBRANCH  20  21
ENDBRANCH  19  20
ENDBRANCH  18  19
ENDBRANCH  17  18
ENDBRANCH  16  17
ENDBRANCH  15  16
ENDBRANCH  14  15
ENDBRANCH  13  14
ENDBRANCH   1  13
TORSDOF 20
ENDMDL
MODEL 5
REMARK VINA RESULT:    -4.029      3.482      7.915
REMARK INTER + INTRA:         -11.381
REMARK INTER:                  -7.959
REMARK INTRA:                  -3.422
REMARK UNBOUND:                -2.643
REMARK SMILES CCCCCCCCCCCCCCCCCCCCCC(=O)[O-]
REMARK SMILES IDX 12 1 11 2 10 3 9 4 8 5 7 6 6 7 5 8 4 9 3 10 2 11 1 12 13 13
REMARK SMILES IDX 14 14 15 15 16 16 17 17 18 18 19 19 20 20 21 21 22 22 23 23
REMARK SMILES IDX 24 24
REMARK H PARENT
REMARK Flexibility Score: inf
ROOT
ATOM      1  C   UNL     1      31.167   6.884  43.975  1.00  0.00     0.000 C 
ENDROOT
BRANCH   1   2
ATOM      2  C   UNL     1      30.185   8.035  43.707  1.00  0.00     0.000 C 
BRANCH   2   3
ATOM      3  C   UNL     1      28.735   7.582  43.940  1.00  0.00     0.000 C 
BRANCH   3   4
ATOM      4  C   UNL     1      27.953   7.394  42.630  1.00  0.00    -0.000 C 
BRANCH   4   5
ATOM      5  C   UNL     1      27.529   5.932  42.400  1.00  0.00    -0.000 C 
BRANCH   5   6
ATOM      6  C   UNL     1      28.208   5.301  41.171  1.00  0.00    -0.000 C 
BRANCH   6   7
ATOM      7  C   UNL     1      29.579   4.651  41.445  1.00  0.00    -0.000 C 
BRANCH   7   8
ATOM      8  C   UNL     1      30.655   4.911  40.370  1.00  0.00    -0.000 C 
BRANCH   8   9
ATOM      9  C   UNL     1      30.119   5.031  38.932  1.00  0.00    -0.000 C 
BRANCH   9  10
ATOM     10  C   UNL     1      30.486   6.367  38.268  1.00  0.00    -0.000 C 
BRANCH  10  11
ATOM     11  C   UNL     1      30.733   7.453  39.321  1.00  0.00    -0.003 C 
ATOM     12  C   UNL     1      29.545   8.405  39.421  1.00  0.00     0.004 C 
ENDBRANCH  10  11
ENDBRANCH   9  10
ENDBRANCH   8   9
ENDBRANCH   7   8
ENDBRANCH   6   7
ENDBRANCH   5   6
ENDBRANCH   4   5
ENDBRANCH   3   4
ENDBRANCH   2   3
ENDBRANCH   1   2
BRANCH   1  13
ATOM     13  C   UNL     1      30.556   5.762  44.828  1.00  0.00     0.000 C 
BRANCH  13  14
ATOM     14  C   UNL     1      31.431   5.395  46.040  1.00  0.00     0.000 C 
BRANCH  14  15
ATOM     15  C   UNL     1      31.086   6.212  47.298  1.00  0.00     0.000 C 
BRANCH  15  16
ATOM     16  C   UNL     1      31.237   5.461  48.637  1.00  0.00     0.000 C 
BRANCH  16  17
ATOM     17  C   UNL     1      29.931   4.910  49.237  1.00  0.00     0.000 C 
BRANCH  17  18
ATOM     18  C   UNL     1      28.683   5.668  48.756  1.00  0.00     0.000 C 
BRANCH  18  19
ATOM     19  C   UNL     1      27.662   4.755  48.055  1.00  0.00     0.000 C 
BRANCH  19  20
ATOM     20  C   UNL     1      27.343   5.180  46.605  1.00  0.00     0.006 C 
BRANCH  20  21
ATOM     21  C   UNL     1      27.492   4.018  45.616  1.00  0.00     0.053 C 
BRANCH  21  22
ATOM     22  C   UNL     1      26.163   3.383  45.348  1.00  0.00     0.041 C 
ATOM     23  O   UNL     1      25.694   2.534  46.150  1.00  0.00    -0.550 OA
ATOM     24  O   UNL     1      25.465   3.695  44.187  1.00  0.00    -0.550 OA
ENDBRANCH  21  22
ENDBRANCH  20  21
ENDBRANCH  19  20
ENDBRANCH  18  19
ENDBRANCH  17  18
ENDBRANCH  16  17
ENDBRANCH  15  16
ENDBRANCH  14  15
ENDBRANCH  13  14
ENDBRANCH   1  13
TORSDOF 20
ENDMDL
MODEL 6
REMARK VINA RESULT:    -3.997      4.103      5.988
REMARK INTER + INTRA:         -11.313
REMARK INTER:                  -8.071
REMARK INTRA:                  -3.243
REMARK UNBOUND:                -2.643
REMARK SMILES CCCCCCCCCCCCCCCCCCCCCC(=O)[O-]
REMARK SMILES IDX 12 1 11 2 10 3 9 4 8 5 7 6 6 7 5 8 4 9 3 10 2 11 1 12 13 13
REMARK SMILES IDX 14 14 15 15 16 16 17 17 18 18 19 19 20 20 21 21 22 22 23 23
REMARK SMILES IDX 24 24
REMARK H PARENT
REMARK Flexibility Score: inf
ROOT
ATOM      1  C   UNL     1      31.020   6.062  47.632  1.00  0.00     0.000 C 
ENDROOT
BRANCH   1   2
ATOM      2  C   UNL     1      30.824   5.397  49.004  1.00  0.00     0.000 C 
BRANCH   2   3
ATOM      3  C   UNL     1      29.444   4.729  49.095  1.00  0.00     0.000 C 
BRANCH   3   4
ATOM      4  C   UNL     1      28.299   5.666  48.675  1.00  0.00    -0.000 C 
BRANCH   4   5
ATOM      5  C   UNL     1      27.204   4.939  47.875  1.00  0.00    -0.000 C 
BRANCH   5   6
ATOM      6  C   UNL     1      27.693   4.459  46.496  1.00  0.00    -0.000 C 
BRANCH   6   7
ATOM      7  C   UNL     1      26.597   4.343  45.418  1.00  0.00    -0.000 C 
BRANCH   7   8
ATOM      8  C   UNL     1      26.206   5.670  44.735  1.00  0.00    -0.000 C 
BRANCH   8   9
ATOM      9  C   UNL     1      27.347   6.697  44.612  1.00  0.00    -0.000 C 
BRANCH   9  10
ATOM     10  C   UNL     1      26.979   7.895  43.725  1.00  0.00    -0.000 C 
BRANCH  10  11
ATOM     11  C   UNL     1      28.235   8.555  43.144  1.00  0.00    -0.003 C 
ATOM     12  C   UNL     1      28.697   7.841  41.877  1.00  0.00     0.004 C 
ENDBRANCH  10  11
ENDBRANCH   9  10
ENDBRANCH   8   9
ENDBRANCH   7   8
ENDBRANCH   6   7
ENDBRANCH   5   6
ENDBRANCH   4   5
ENDBRANCH   3   4
ENDBRANCH   2   3
ENDBRANCH   1   2
BRANCH   1  13
ATOM     13  C   UNL     1      31.414   5.062  46.533  1.00  0.00     0.000 C 
BRANCH  13  14
ATOM     14  C   UNL     1      30.920   5.489  45.139  1.00  0.00     0.000 C 
BRANCH  14  15
ATOM     15  C   UNL     1      30.474   4.298  44.272  1.00  0.00     0.000 C 
BRANCH  15  16
ATOM     16  C   UNL     1      29.938   4.664  42.872  1.00  0.00     0.000 C 
BRANCH  16  17
ATOM     17  C   UNL     1      28.676   3.904  42.427  1.00  0.00     0.000 C 
BRANCH  17  18
ATOM     18  C   UNL     1      28.109   4.411  41.091  1.00  0.00     0.000 C 
BRANCH  18  19
ATOM     19  C   UNL     1      26.669   4.938  41.214  1.00  0.00     0.000 C 
BRANCH  19  20
ATOM     20  C   UNL     1      25.601   3.822  41.239  1.00  0.00     0.006 C 
BRANCH  20  21
ATOM     21  C   UNL     1      25.137   3.437  39.829  1.00  0.00     0.053 C 
BRANCH  21  22
ATOM     22  C   UNL     1      23.979   2.490  39.898  1.00  0.00     0.041 C 
ATOM     23  O   UNL     1      23.675   1.941  40.990  1.00  0.00    -0.550 OA
ATOM     24  O   UNL     1      23.266   2.178  38.747  1.00  0.00    -0.550 OA
ENDBRANCH  21  22
ENDBRANCH  20  21
ENDBRANCH  19  20
ENDBRANCH  18  19
ENDBRANCH  17  18
ENDBRANCH  16  17
ENDBRANCH  15  16
ENDBRANCH  14  15
ENDBRANCH  13  14
ENDBRANCH   1  13
TORSDOF 20
ENDMDL
MODEL 7
REMARK VINA RESULT:    -3.993     11.354     14.487
REMARK INTER + INTRA:         -11.305
REMARK INTER:                  -8.717
REMARK INTRA:                  -2.589
REMARK UNBOUND:                -2.643
REMARK SMILES CCCCCCCCCCCCCCCCCCCCCC(=O)[O-]
REMARK SMILES IDX 12 1 11 2 10 3 9 4 8 5 7 6 6 7 5 8 4 9 3 10 2 11 1 12 13 13
REMARK SMILES IDX 14 14 15 15 16 16 17 17 18 18 19 19 20 20 21 21 22 22 23 23
REMARK SMILES IDX 24 24
REMARK H PARENT
REMARK Flexibility Score: inf
ROOT
ATOM      1  C   UNL     1      22.884  -6.190  52.452  1.00  0.00     0.000 C 
ENDROOT
BRANCH   1   2
ATOM      2  C   UNL     1      22.550  -5.428  53.744  1.00  0.00     0.000 C 
BRANCH   2   3
ATOM      3  C   UNL     1      23.583  -4.323  54.010  1.00  0.00     0.000 C 
BRANCH   3   4
ATOM      4  C   UNL     1      22.939  -2.941  54.206  1.00  0.00    -0.000 C 
BRANCH   4   5
ATOM      5  C   UNL     1      23.621  -2.123  55.317  1.00  0.00    -0.000 C 
BRANCH   5   6
ATOM      6  C   UNL     1      24.323  -3.009  56.363  1.00  0.00    -0.000 C 
BRANCH   6   7
ATOM      7  C   UNL     1      23.565  -3.172  57.696  1.00  0.00    -0.000 C 
BRANCH   7   8
ATOM      8  C   UNL     1      22.273  -4.011  57.617  1.00  0.00    -0.000 C 
BRANCH   8   9
ATOM      9  C   UNL     1      20.980  -3.195  57.427  1.00  0.00    -0.000 C 
BRANCH   9  10
ATOM     10  C   UNL     1      21.102  -1.756  57.949  1.00  0.00    -0.000 C 
BRANCH  10  11
ATOM     11  C   UNL     1      20.468  -0.762  56.970  1.00  0.00    -0.003 C 
ATOM     12  C   UNL     1      19.980  -1.467  55.708  1.00  0.00     0.004 C 
ENDBRANCH  10  11
ENDBRANCH   9  10
ENDBRANCH   8   9
ENDBRANCH   7   8
ENDBRANCH   6   7
ENDBRANCH   5   6
ENDBRANCH   4   5
ENDBRANCH   3   4
ENDBRANCH   2   3
ENDBRANCH   1   2
BRANCH   1  13
ATOM     13  C   UNL     1      24.009  -5.528  51.641  1.00  0.00     0.000 C 
BRANCH  13  14
ATOM     14  C   UNL     1      23.528  -5.003  50.277  1.00  0.00     0.000 C 
BRANCH  14  15
ATOM     15  C   UNL     1      22.700  -3.710  50.392  1.00  0.00     0.000 C 
BRANCH  15  16
ATOM     16  C   UNL     1      23.517  -2.420  50.613  1.00  0.00     0.000 C 
BRANCH  16  17
ATOM     17  C   UNL     1      23.942  -1.678  49.333  1.00  0.00     0.000 C 
BRANCH  17  18
ATOM     18  C   UNL     1      23.117  -0.406  49.075  1.00  0.00     0.000 C 
BRANCH  18  19
ATOM     19  C   UNL     1      22.352  -0.452  47.740  1.00  0.00     0.000 C 
BRANCH  19  20
ATOM     20  C   UNL     1      21.607  -1.782  47.498  1.00  0.00     0.006 C 
BRANCH  20  21
ATOM     21  C   UNL     1      22.252  -2.610  46.379  1.00  0.00     0.053 C 
BRANCH  21  22
ATOM     22  C   UNL     1      21.243  -2.947  45.326  1.00  0.00     0.041 C 
ATOM     23  O   UNL     1      20.723  -2.034  44.634  1.00  0.00    -0.550 OA
ATOM     24  O   UNL     1      20.845  -4.266  45.142  1.00  0.00    -0.550 OA
ENDBRANCH  21  22
ENDBRANCH  20  21
ENDBRANCH  19  20
ENDBRANCH  18  19
ENDBRANCH  17  18
ENDBRANCH  16  17
ENDBRANCH  15  16
ENDBRANCH  14  15
ENDBRANCH  13  14
ENDBRANCH   1  13
TORSDOF 20
ENDMDL
MODEL 8
REMARK VINA RESULT:    -3.919      7.820     11.874
REMARK INTER + INTRA:         -11.143
REMARK INTER:                  -8.364
REMARK INTRA:                  -2.779
REMARK UNBOUND:                -2.643
REMARK SMILES CCCCCCCCCCCCCCCCCCCCCC(=O)[O-]
REMARK SMILES IDX 12 1 11 2 10 3 9 4 8 5 7 6 6 7 5 8 4 9 3 10 2 11 1 12 13 13
REMARK SMILES IDX 14 14 15 15 16 16 17 17 18 18 19 19 20 20 21 21 22 22 23 23
REMARK SMILES IDX 24 24
REMARK H PARENT
REMARK Flexibility Score: inf
ROOT
ATOM      1  C   UNL     1      21.013   3.474  40.944  1.00  0.00     0.000 C 
ENDROOT
BRANCH   1   2
ATOM      2  C   UNL     1      21.872   2.730  41.978  1.00  0.00     0.000 C 
BRANCH   2   3
ATOM      3  C   UNL     1      22.829   1.746  41.288  1.00  0.00     0.000 C 
BRANCH   3   4
ATOM      4  C   UNL     1      22.958   2.002  39.777  1.00  0.00    -0.000 C 
BRANCH   4   5
ATOM      5  C   UNL     1      24.422   2.136  39.323  1.00  0.00    -0.000 C 
BRANCH   5   6
ATOM      6  C   UNL     1      24.921   3.593  39.344  1.00  0.00    -0.000 C 
BRANCH   6   7
ATOM      7  C   UNL     1      25.916   3.926  40.475  1.00  0.00    -0.000 C 
BRANCH   7   8
ATOM      8  C   UNL     1      25.276   4.432  41.784  1.00  0.00    -0.000 C 
BRANCH   8   9
ATOM      9  C   UNL     1      25.684   5.858  42.196  1.00  0.00    -0.000 C 
BRANCH   9  10
ATOM     10  C   UNL     1      24.493   6.827  42.254  1.00  0.00    -0.000 C 
BRANCH  10  11
ATOM     11  C   UNL     1      23.260   6.219  41.576  1.00  0.00    -0.003 C 
ATOM     12  C   UNL     1      21.989   6.962  41.977  1.00  0.00     0.004 C 
ENDBRANCH  10  11
ENDBRANCH   9  10
ENDBRANCH   8   9
ENDBRANCH   7   8
ENDBRANCH   6   7
ENDBRANCH   5   6
ENDBRANCH   4   5
ENDBRANCH   3   4
ENDBRANCH   2   3
ENDBRANCH   1   2
BRANCH   1  13
ATOM     13  C   UNL     1      19.714   4.040  41.541  1.00  0.00     0.000 C 
BRANCH  13  14
ATOM     14  C   UNL     1      18.454   3.443  40.890  1.00  0.00     0.000 C 
BRANCH  14  15
ATOM     15  C   UNL     1      17.335   3.153  41.907  1.00  0.00     0.000 C 
BRANCH  15  16
ATOM     16  C   UNL     1      17.717   2.194  43.054  1.00  0.00     0.000 C 
BRANCH  16  17
ATOM     17  C   UNL     1      17.595   0.693  42.731  1.00  0.00     0.000 C 
BRANCH  17  18
ATOM     18  C   UNL     1      18.605  -0.171  43.503  1.00  0.00     0.000 C 
BRANCH  18  19
ATOM     19  C   UNL     1      19.679   0.664  44.220  1.00  0.00     0.000 C 
BRANCH  19  20
ATOM     20  C   UNL     1      21.052  -0.038  44.311  1.00  0.00     0.006 C 
BRANCH  20  21
ATOM     21  C   UNL     1      20.974  -1.514  43.900  1.00  0.00     0.053 C 
BRANCH  21  22
ATOM     22  C   UNL     1      20.991  -2.397  45.108  1.00  0.00     0.041 C 
ATOM     23  O   UNL     1      20.051  -3.210  45.311  1.00  0.00    -0.550 OA
ATOM     24  O   UNL     1      22.022  -2.290  46.034  1.00  0.00    -0.550 OA
ENDBRANCH  21  22
ENDBRANCH  20  21
ENDBRANCH  19  20
ENDBRANCH  18  19
ENDBRANCH  17  18
ENDBRANCH  16  17
ENDBRANCH  15  16
ENDBRANCH  14  15
ENDBRANCH  13  14
ENDBRANCH   1  13
TORSDOF 20
ENDMDL
MODEL 9
REMARK VINA RESULT:    -3.867      3.488      5.402
REMARK INTER + INTRA:         -11.030
REMARK INTER:                  -8.394
REMARK INTRA:                  -2.637
REMARK UNBOUND:                -2.643
REMARK SMILES CCCCCCCCCCCCCCCCCCCCCC(=O)[O-]
REMARK SMILES IDX 12 1 11 2 10 3 9 4 8 5 7 6 6 7 5 8 4 9 3 10 2 11 1 12 13 13
REMARK SMILES IDX 14 14 15 15 16 16 17 17 18 18 19 19 20 20 21 21 22 22 23 23
REMARK SMILES IDX 24 24
REMARK H PARENT
REMARK Flexibility Score: inf
ROOT
ATOM      1  C   UNL     1      30.010   7.908  42.005  1.00  0.00     0.000 C 
ENDROOT
BRANCH   1   2
ATOM      2  C   UNL     1      29.801   8.453  43.427  1.00  0.00     0.000 C 
BRANCH   2   3
ATOM      3  C   UNL     1      30.847   9.528  43.760  1.00  0.00     0.000 C 
BRANCH   3   4
ATOM      4  C   UNL     1      31.173   9.595  45.261  1.00  0.00    -0.000 C 
BRANCH   4   5
ATOM      5  C   UNL     1      32.671   9.394  45.550  1.00  0.00    -0.000 C 
BRANCH   5   6
ATOM      6  C   UNL     1      32.974   8.032  46.201  1.00  0.00    -0.000 C 
BRANCH   6   7
ATOM      7  C   UNL     1      32.571   6.803  45.361  1.00  0.00    -0.000 C 
BRANCH   7   8
ATOM      8  C   UNL     1      31.386   5.988  45.918  1.00  0.00    -0.000 C 
BRANCH   8   9
ATOM      9  C   UNL     1      31.018   6.295  47.382  1.00  0.00    -0.000 C 
BRANCH   9  10
ATOM     10  C   UNL     1      31.501   5.212  48.358  1.00  0.00    -0.000 C 
BRANCH  10  11
ATOM     11  C   UNL     1      30.519   5.046  49.523  1.00  0.00    -0.003 C 
ATOM     12  C   UNL     1      29.074   5.081  49.035  1.00  0.00     0.004 C 
ENDBRANCH  10  11
ENDBRANCH   9  10
ENDBRANCH   8   9
ENDBRANCH   7   8
ENDBRANCH   6   7
ENDBRANCH   5   6
ENDBRANCH   4   5
ENDBRANCH   3   4
ENDBRANCH   2   3
ENDBRANCH   1   2
BRANCH   1  13
ATOM     13  C   UNL     1      31.482   7.600  41.693  1.00  0.00     0.000 C 
BRANCH  13  14
ATOM     14  C   UNL     1      31.819   6.105  41.839  1.00  0.00     0.000 C 
BRANCH  14  15
ATOM     15  C   UNL     1      32.156   5.433  40.496  1.00  0.00     0.000 C 
BRANCH  15  16
ATOM     16  C   UNL     1      31.691   6.198  39.239  1.00  0.00     0.000 C 
BRANCH  16  17
ATOM     17  C   UNL     1      30.332   5.759  38.663  1.00  0.00     0.000 C 
BRANCH  17  18
ATOM     18  C   UNL     1      29.957   4.317  39.043  1.00  0.00     0.000 C 
BRANCH  18  19
ATOM     19  C   UNL     1      28.565   4.213  39.689  1.00  0.00     0.000 C 
BRANCH  19  20
ATOM     20  C   UNL     1      28.495   4.811  41.112  1.00  0.00     0.006 C 
BRANCH  20  21
ATOM     21  C   UNL     1      27.390   4.164  41.956  1.00  0.00     0.053 C 
BRANCH  21  22
ATOM     22  C   UNL     1      26.042   4.485  41.391  1.00  0.00     0.041 C 
ATOM     23  O   UNL     1      25.690   5.684  41.235  1.00  0.00    -0.550 OA
ATOM     24  O   UNL     1      25.156   3.460  41.081  1.00  0.00    -0.550 OA
ENDBRANCH  21  22
ENDBRANCH  20  21
ENDBRANCH  19  20
ENDBRANCH  18  19
ENDBRANCH  17  18
ENDBRANCH  16  17
ENDBRANCH  15  16
ENDBRANCH  14  15
ENDBRANCH  13  14
ENDBRANCH   1  13
TORSDOF 20
ENDMDL
