MODEL 1
REMARK VINA RESULT:    -4.385      0.000      0.000
REMARK INTER + INTRA:          -8.683
REMARK INTER:                  -7.461
REMARK INTRA:                  -1.222
REMARK UNBOUND:                -1.222
REMARK SMILES CCCCCCCCCCCCCC(=O)[O-]
REMARK SMILES IDX 8 1 9 2 10 3 11 4 12 5 13 6 14 7 15 8 16 9 7 10 6 11 5 12
REMARK SMILES IDX 4 13 3 14 2 15 1 16
REMARK H PARENT
REMARK Flexibility Score: inf
ROOT
ATOM      1  C   UNL     1      -3.811  12.916  -3.568  1.00  0.00     0.000 C 
ENDROOT
BRANCH   1   2
ATOM      2  C   UNL     1      -3.002  13.997  -4.300  1.00  0.00     0.000 C 
BRANCH   2   3
ATOM      3  C   UNL     1      -3.157  13.928  -5.829  1.00  0.00     0.000 C 
BRANCH   3   4
ATOM      4  C   UNL     1      -4.053  12.782  -6.345  1.00  0.00     0.000 C 
BRANCH   4   5
ATOM      5  C   UNL     1      -3.296  11.557  -6.895  1.00  0.00     0.006 C 
BRANCH   5   6
ATOM      6  C   UNL     1      -2.813  11.710  -8.346  1.00  0.00     0.053 C 
BRANCH   6   7
ATOM      7  C   UNL     1      -1.502  11.023  -8.576  1.00  0.00     0.041 C 
ATOM      8  O   UNL     1      -1.440   9.766  -8.585  1.00  0.00    -0.550 OA
ATOM      9  O   UNL     1      -0.357  11.771  -8.815  1.00  0.00    -0.550 OA
ENDBRANCH   6   7
ENDBRANCH   5   6
ENDBRANCH   4   5
ENDBRANCH   3   4
ENDBRANCH   2   3
ENDBRANCH   1   2
BRANCH   1  10
ATOM     10  C   UNL     1      -4.882  13.548  -2.665  1.00  0.00     0.000 C 
BRANCH  10  11
ATOM     11  C   UNL     1      -6.068  14.116  -3.462  1.00  0.00    -0.000 C 
BRANCH  11  12
ATOM     12  C   UNL     1      -7.424  13.781  -2.823  1.00  0.00    -0.000 C 
BRANCH  12  13
ATOM     13  C   UNL     1      -8.112  12.627  -3.566  1.00  0.00    -0.000 C 
BRANCH  13  14
ATOM     14  C   UNL     1      -7.455  12.312  -4.920  1.00  0.00    -0.000 C 
BRANCH  14  15
ATOM     15  C   UNL     1      -7.001  10.844  -5.062  1.00  0.00    -0.003 C 
ATOM     16  C   UNL     1      -8.051   9.974  -5.752  1.00  0.00     0.004 C 
ENDBRANCH  14  15
ENDBRANCH  13  14
ENDBRANCH  12  13
ENDBRANCH  11  12
ENDBRANCH  10  11
ENDBRANCH   1  10
TORSDOF 12
ENDMDL
MODEL 2
REMARK VINA RESULT:    -4.370      0.965      1.958
REMARK INTER + INTRA:          -8.658
REMARK INTER:                  -7.278
REMARK INTRA:                  -1.380
REMARK UNBOUND:                -1.222
REMARK SMILES CCCCCCCCCCCCCC(=O)[O-]
REMARK SMILES IDX 8 1 9 2 10 3 11 4 12 5 13 6 14 7 15 8 16 9 7 10 6 11 5 12
REMARK SMILES IDX 4 13 3 14 2 15 1 16
REMARK H PARENT
REMARK Flexibility Score: inf
ROOT
ATOM      1  C   UNL     1      -4.853  13.348  -3.146  1.00  0.00     0.000 C 
ENDROOT
BRANCH   1   2
ATOM      2  C   UNL     1      -3.747  12.742  -4.023  1.00  0.00     0.000 C 
BRANCH   2   3
ATOM      3  C   UNL     1      -2.988  13.799  -4.845  1.00  0.00     0.000 C 
BRANCH   3   4
ATOM      4  C   UNL     1      -2.532  13.335  -6.244  1.00  0.00     0.000 C 
BRANCH   4   5
ATOM      5  C   UNL     1      -3.130  11.995  -6.717  1.00  0.00     0.006 C 
BRANCH   5   6
ATOM      6  C   UNL     1      -2.948  11.714  -8.217  1.00  0.00     0.053 C 
BRANCH   6   7
ATOM      7  C   UNL     1      -1.632  11.062  -8.509  1.00  0.00     0.041 C 
ATOM      8  O   UNL     1      -0.648  11.757  -8.874  1.00  0.00    -0.550 OA
ATOM      9  O   UNL     1      -1.483   9.690  -8.347  1.00  0.00    -0.550 OA
ENDBRANCH   6   7
ENDBRANCH   5   6
ENDBRANCH   4   5
ENDBRANCH   3   4
ENDBRANCH   2   3
ENDBRANCH   1   2
BRANCH   1  10
ATOM     10  C   UNL     1      -6.243  13.005  -3.701  1.00  0.00     0.000 C 
BRANCH  10  11
ATOM     11  C   UNL     1      -6.477  13.576  -5.109  1.00  0.00    -0.000 C 
BRANCH  11  12
ATOM     12  C   UNL     1      -6.914  12.503  -6.118  1.00  0.00    -0.000 C 
BRANCH  12  13
ATOM     13  C   UNL     1      -6.846  11.101  -5.494  1.00  0.00    -0.000 C 
BRANCH  13  14
ATOM     14  C   UNL     1      -7.919  10.149  -6.045  1.00  0.00    -0.000 C 
BRANCH  14  15
ATOM     15  C   UNL     1      -9.140   9.985  -5.116  1.00  0.00    -0.003 C 
ATOM     16  C   UNL     1      -8.772  10.133  -3.640  1.00  0.00     0.004 C 
ENDBRANCH  14  15
ENDBRANCH  13  14
ENDBRANCH  12  13
ENDBRANCH  11  12
ENDBRANCH  10  11
ENDBRANCH   1  10
TORSDOF 12
ENDMDL
MODEL 3
REMARK VINA RESULT:    -4.226     13.652     15.705
REMARK INTER + INTRA:          -8.413
REMARK INTER:                  -6.537
REMARK INTRA:                  -1.876
REMARK UNBOUND:                -1.222
REMARK SMILES CCCCCCCCCCCCCC(=O)[O-]
REMARK SMILES IDX 8 1 9 2 10 3 11 4 12 5 13 6 14 7 15 8 16 9 7 10 6 11 5 12
REMARK SMILES IDX 4 13 3 14 2 15 1 16
REMARK H PARENT
REMARK Flexibility Score: inf
ROOT
ATOM      1  C   UNL     1       4.839   3.149  -9.257  1.00  0.00     0.000 C 
ENDROOT
BRANCH   1   2
ATOM      2  C   UNL     1       5.865   2.056  -9.590  1.00  0.00     0.000 C 
BRANCH   2   3
ATOM      3  C   UNL     1       6.675   1.601  -8.364  1.00  0.00     0.000 C 
BRANCH   3   4
ATOM      4  C   UNL     1       8.189   1.891  -8.435  1.00  0.00     0.000 C 
BRANCH   4   5
ATOM      5  C   UNL     1       8.851   2.253  -7.091  1.00  0.00     0.006 C 
BRANCH   5   6
ATOM      6  C   UNL     1       9.608   1.093  -6.425  1.00  0.00     0.053 C 
BRANCH   6   7
ATOM      7  C   UNL     1       8.994   0.699  -5.118  1.00  0.00     0.041 C 
ATOM      8  O   UNL     1       8.826  -0.517  -4.839  1.00  0.00    -0.550 OA
ATOM      9  O   UNL     1       8.638   1.673  -4.194  1.00  0.00    -0.550 OA
ENDBRANCH   6   7
ENDBRANCH   5   6
ENDBRANCH   4   5
ENDBRANCH   3   4
ENDBRANCH   2   3
ENDBRANCH   1   2
BRANCH   1  10
ATOM     10  C   UNL     1       5.143   4.442 -10.031  1.00  0.00     0.000 C 
BRANCH  10  11
ATOM     11  C   UNL     1       5.703   5.553  -9.129  1.00  0.00    -0.000 C 
BRANCH  11  12
ATOM     12  C   UNL     1       7.213   5.413  -8.883  1.00  0.00    -0.000 C 
BRANCH  12  13
ATOM     13  C   UNL     1       7.604   6.003  -7.521  1.00  0.00    -0.000 C 
BRANCH  13  14
ATOM     14  C   UNL     1       6.493   5.865  -6.468  1.00  0.00    -0.000 C 
BRANCH  14  15
ATOM     15  C   UNL     1       6.738   4.730  -5.451  1.00  0.00    -0.003 C 
ATOM     16  C   UNL     1       5.706   3.609  -5.569  1.00  0.00     0.004 C 
ENDBRANCH  14  15
ENDBRANCH  13  14
ENDBRANCH  12  13
ENDBRANCH  11  12
ENDBRANCH  10  11
ENDBRANCH   1  10
TORSDOF 12
ENDMDL
MODEL 4
REMARK VINA RESULT:    -4.162     14.330     16.396
REMARK INTER + INTRA:          -8.304
REMARK INTER:                  -6.522
REMARK INTRA:                  -1.782
REMARK UNBOUND:                -1.222
REMARK SMILES CCCCCCCCCCCCCC(=O)[O-]
REMARK SMILES IDX 8 1 9 2 10 3 11 4 12 5 13 6 14 7 15 8 16 9 7 10 6 11 5 12
REMARK SMILES IDX 4 13 3 14 2 15 1 16
REMARK H PARENT
REMARK Flexibility Score: inf
ROOT
ATOM      1  C   UNL     1       5.471   1.455 -10.295  1.00  0.00     0.000 C 
ENDROOT
BRANCH   1   2
ATOM      2  C   UNL     1       6.435   0.769  -9.316  1.00  0.00     0.000 C 
BRANCH   2   3
ATOM      3  C   UNL     1       7.906   0.863  -9.760  1.00  0.00     0.000 C 
BRANCH   3   4
ATOM      4  C   UNL     1       8.831   1.635  -8.797  1.00  0.00     0.000 C 
BRANCH   4   5
ATOM      5  C   UNL     1       8.512   1.459  -7.299  1.00  0.00     0.006 C 
BRANCH   5   6
ATOM      6  C   UNL     1       9.657   0.851  -6.474  1.00  0.00     0.053 C 
BRANCH   6   7
ATOM      7  C   UNL     1       9.202   0.421  -5.114  1.00  0.00     0.041 C 
ATOM      8  O   UNL     1       8.678   1.254  -4.329  1.00  0.00    -0.550 OA
ATOM      9  O   UNL     1       9.325  -0.907  -4.725  1.00  0.00    -0.550 OA
ENDBRANCH   6   7
ENDBRANCH   5   6
ENDBRANCH   4   5
ENDBRANCH   3   4
ENDBRANCH   2   3
ENDBRANCH   1   2
BRANCH   1  10
ATOM     10  C   UNL     1       5.047   2.836  -9.772  1.00  0.00     0.000 C 
BRANCH  10  11
ATOM     11  C   UNL     1       5.895   3.976 -10.357  1.00  0.00    -0.000 C 
BRANCH  11  12
ATOM     12  C   UNL     1       6.828   4.614  -9.317  1.00  0.00    -0.000 C 
BRANCH  12  13
ATOM     13  C   UNL     1       6.206   4.559  -7.914  1.00  0.00    -0.000 C 
BRANCH  13  14
ATOM     14  C   UNL     1       7.207   4.915  -6.802  1.00  0.00    -0.000 C 
BRANCH  14  15
ATOM     15  C   UNL     1       6.932   4.193  -5.466  1.00  0.00    -0.003 C 
ATOM     16  C   UNL     1       5.734   3.247  -5.551  1.00  0.00     0.004 C 
ENDBRANCH  14  15
ENDBRANCH  13  14
ENDBRANCH  12  13
ENDBRANCH  11  12
ENDBRANCH  10  11
ENDBRANCH   1  10
TORSDOF 12
ENDMDL
MODEL 5
REMARK VINA RESULT:    -4.119      3.003      5.666
REMARK INTER + INTRA:          -8.231
REMARK INTER:                  -7.066
REMARK INTRA:                  -1.165
REMARK UNBOUND:                -1.222
REMARK SMILES CCCCCCCCCCCCCC(=O)[O-]
REMARK SMILES IDX 8 1 9 2 10 3 11 4 12 5 13 6 14 7 15 8 16 9 7 10 6 11 5 12
REMARK SMILES IDX 4 13 3 14 2 15 1 16
REMARK H PARENT
REMARK Flexibility Score: inf
ROOT
ATOM      1  C   UNL     1      -4.764  12.590  -3.274  1.00  0.00     0.000 C 
ENDROOT
BRANCH   1   2
ATOM      2  C   UNL     1      -5.323  13.748  -2.435  1.00  0.00     0.000 C 
BRANCH   2   3
ATOM      3  C   UNL     1      -6.846  13.914  -2.582  1.00  0.00     0.000 C 
BRANCH   3   4
ATOM      4  C   UNL     1      -7.400  13.644  -3.996  1.00  0.00     0.000 C 
BRANCH   4   5
ATOM      5  C   UNL     1      -8.310  12.406  -4.117  1.00  0.00     0.006 C 
BRANCH   5   6
ATOM      6  C   UNL     1      -7.887  11.412  -5.210  1.00  0.00     0.053 C 
BRANCH   6   7
ATOM      7  C   UNL     1      -8.222   9.999  -4.844  1.00  0.00     0.041 C 
ATOM      8  O   UNL     1      -8.505   9.704  -3.653  1.00  0.00    -0.550 OA
ATOM      9  O   UNL     1      -8.256   9.015  -5.824  1.00  0.00    -0.550 OA
ENDBRANCH   6   7
ENDBRANCH   5   6
ENDBRANCH   4   5
ENDBRANCH   3   4
ENDBRANCH   2   3
ENDBRANCH   1   2
BRANCH   1  10
ATOM     10  C   UNL     1      -3.483  13.012  -4.009  1.00  0.00     0.000 C 
BRANCH  10  11
ATOM     11  C   UNL     1      -3.764  13.929  -5.210  1.00  0.00    -0.000 C 
BRANCH  11  12
ATOM     12  C   UNL     1      -4.503  13.206  -6.347  1.00  0.00    -0.000 C 
BRANCH  12  13
ATOM     13  C   UNL     1      -3.816  11.877  -6.691  1.00  0.00    -0.000 C 
BRANCH  13  14
ATOM     14  C   UNL     1      -2.661  12.042  -7.692  1.00  0.00    -0.000 C 
BRANCH  14  15
ATOM     15  C   UNL     1      -2.981  11.503  -9.102  1.00  0.00    -0.003 C 
ATOM     16  C   UNL     1      -1.897  10.561  -9.626  1.00  0.00     0.004 C 
ENDBRANCH  14  15
ENDBRANCH  13  14
ENDBRANCH  12  13
ENDBRANCH  11  12
ENDBRANCH  10  11
ENDBRANCH   1  10
TORSDOF 12
ENDMDL
MODEL 6
REMARK VINA RESULT:    -4.107      1.539      3.608
REMARK INTER + INTRA:          -8.211
REMARK INTER:                  -7.071
REMARK INTRA:                  -1.140
REMARK UNBOUND:                -1.222
REMARK SMILES CCCCCCCCCCCCCC(=O)[O-]
REMARK SMILES IDX 8 1 9 2 10 3 11 4 12 5 13 6 14 7 15 8 16 9 7 10 6 11 5 12
REMARK SMILES IDX 4 13 3 14 2 15 1 16
REMARK H PARENT
REMARK Flexibility Score: inf
ROOT
ATOM      1  C   UNL     1      -7.908  12.169  -7.047  1.00  0.00     0.000 C 
ENDROOT
BRANCH   1   2
ATOM      2  C   UNL     1      -6.560  12.451  -7.726  1.00  0.00     0.000 C 
BRANCH   2   3
ATOM      3  C   UNL     1      -5.512  13.031  -6.760  1.00  0.00     0.000 C 
BRANCH   3   4
ATOM      4  C   UNL     1      -4.420  12.039  -6.307  1.00  0.00     0.000 C 
BRANCH   4   5
ATOM      5  C   UNL     1      -3.026  12.275  -6.921  1.00  0.00     0.006 C 
BRANCH   5   6
ATOM      6  C   UNL     1      -2.871  11.757  -8.359  1.00  0.00     0.053 C 
BRANCH   6   7
ATOM      7  C   UNL     1      -1.546  11.094  -8.577  1.00  0.00     0.041 C 
ATOM      8  O   UNL     1      -0.535  11.782  -8.876  1.00  0.00    -0.550 OA
ATOM      9  O   UNL     1      -1.420   9.720  -8.416  1.00  0.00    -0.550 OA
ENDBRANCH   6   7
ENDBRANCH   5   6
ENDBRANCH   4   5
ENDBRANCH   3   4
ENDBRANCH   2   3
ENDBRANCH   1   2
BRANCH   1  10
ATOM     10  C   UNL     1      -8.413  10.760  -7.392  1.00  0.00     0.000 C 
BRANCH  10  11
ATOM     11  C   UNL     1      -8.325   9.792  -6.202  1.00  0.00    -0.000 C 
BRANCH  11  12
ATOM     12  C   UNL     1      -7.680  10.432  -4.963  1.00  0.00    -0.000 C 
BRANCH  12  13
ATOM     13  C   UNL     1      -8.676  10.497  -3.796  1.00  0.00    -0.000 C 
BRANCH  13  14
ATOM     14  C   UNL     1      -8.961  11.934  -3.332  1.00  0.00    -0.000 C 
BRANCH  14  15
ATOM     15  C   UNL     1      -7.797  12.913  -3.593  1.00  0.00    -0.003 C 
ATOM     16  C   UNL     1      -7.534  13.836  -2.403  1.00  0.00     0.004 C 
ENDBRANCH  14  15
ENDBRANCH  13  14
ENDBRANCH  12  13
ENDBRANCH  11  12
ENDBRANCH  10  11
ENDBRANCH   1  10
TORSDOF 12
ENDMDL
MODEL 7
REMARK VINA RESULT:    -4.049     13.111     14.856
REMARK INTER + INTRA:          -8.112
REMARK INTER:                  -6.722
REMARK INTRA:                  -1.390
REMARK UNBOUND:                -1.222
REMARK SMILES CCCCCCCCCCCCCC(=O)[O-]
REMARK SMILES IDX 8 1 9 2 10 3 11 4 12 5 13 6 14 7 15 8 16 9 7 10 6 11 5 12
REMARK SMILES IDX 4 13 3 14 2 15 1 16
REMARK H PARENT
REMARK Flexibility Score: inf
ROOT
ATOM      1  C   UNL     1       7.193   6.829  -8.066  1.00  0.00     0.000 C 
ENDROOT
BRANCH   1   2
ATOM      2  C   UNL     1       7.226   5.437  -7.421  1.00  0.00     0.000 C 
BRANCH   2   3
ATOM      3  C   UNL     1       6.615   5.416  -6.008  1.00  0.00     0.000 C 
BRANCH   3   4
ATOM      4  C   UNL     1       6.343   4.011  -5.433  1.00  0.00     0.000 C 
BRANCH   4   5
ATOM      5  C   UNL     1       7.491   3.413  -4.596  1.00  0.00     0.006 C 
BRANCH   5   6
ATOM      6  C   UNL     1       8.462   2.527  -5.392  1.00  0.00     0.053 C 
BRANCH   6   7
ATOM      7  C   UNL     1       8.173   1.069  -5.205  1.00  0.00     0.041 C 
ATOM      8  O   UNL     1       9.035   0.316  -4.681  1.00  0.00    -0.550 OA
ATOM      9  O   UNL     1       6.940   0.550  -5.578  1.00  0.00    -0.550 OA
ENDBRANCH   6   7
ENDBRANCH   5   6
ENDBRANCH   4   5
ENDBRANCH   3   4
ENDBRANCH   2   3
ENDBRANCH   1   2
BRANCH   1  10
ATOM     10  C   UNL     1       6.766   6.742  -9.540  1.00  0.00     0.000 C 
BRANCH  10  11
ATOM     11  C   UNL     1       5.245   6.607  -9.708  1.00  0.00    -0.000 C 
BRANCH  11  12
ATOM     12  C   UNL     1       4.853   5.919 -11.025  1.00  0.00    -0.000 C 
BRANCH  12  13
ATOM     13  C   UNL     1       4.315   4.504 -10.766  1.00  0.00    -0.000 C 
BRANCH  13  14
ATOM     14  C   UNL     1       5.427   3.490 -10.452  1.00  0.00    -0.000 C 
BRANCH  14  15
ATOM     15  C   UNL     1       5.330   2.880  -9.038  1.00  0.00    -0.003 C 
ATOM     16  C   UNL     1       6.520   1.979  -8.709  1.00  0.00     0.004 C 
ENDBRANCH  14  15
ENDBRANCH  13  14
ENDBRANCH  12  13
ENDBRANCH  11  12
ENDBRANCH  10  11
ENDBRANCH   1  10
TORSDOF 12
ENDMDL
MODEL 8
REMARK VINA RESULT:    -3.932     13.070     15.400
REMARK INTER + INTRA:          -7.913
REMARK INTER:                  -6.480
REMARK INTRA:                  -1.433
REMARK UNBOUND:                -1.222
REMARK SMILES CCCCCCCCCCCCCC(=O)[O-]
REMARK SMILES IDX 8 1 9 2 10 3 11 4 12 5 13 6 14 7 15 8 16 9 7 10 6 11 5 12
REMARK SMILES IDX 4 13 3 14 2 15 1 16
REMARK H PARENT
REMARK Flexibility Score: inf
ROOT
ATOM      1  C   UNL     1       6.574   3.221  -7.837  1.00  0.00     0.000 C 
ENDROOT
BRANCH   1   2
ATOM      2  C   UNL     1       5.780   3.543  -6.563  1.00  0.00     0.000 C 
BRANCH   2   3
ATOM      3  C   UNL     1       6.362   2.867  -5.308  1.00  0.00     0.000 C 
BRANCH   3   4
ATOM      4  C   UNL     1       7.590   3.572  -4.696  1.00  0.00     0.000 C 
BRANCH   4   5
ATOM      5  C   UNL     1       8.813   2.665  -4.456  1.00  0.00     0.006 C 
BRANCH   5   6
ATOM      6  C   UNL     1       9.447   2.104  -5.739  1.00  0.00     0.053 C 
BRANCH   6   7
ATOM      7  C   UNL     1       9.284   0.618  -5.841  1.00  0.00     0.041 C 
ATOM      8  O   UNL     1       9.765  -0.004  -6.824  1.00  0.00    -0.550 OA
ATOM      9  O   UNL     1       8.632  -0.082  -4.835  1.00  0.00    -0.550 OA
ENDBRANCH   6   7
ENDBRANCH   5   6
ENDBRANCH   4   5
ENDBRANCH   3   4
ENDBRANCH   2   3
ENDBRANCH   1   2
BRANCH   1  10
ATOM     10  C   UNL     1       5.630   2.951  -9.019  1.00  0.00     0.000 C 
BRANCH  10  11
ATOM     11  C   UNL     1       5.730   4.024 -10.114  1.00  0.00    -0.000 C 
BRANCH  11  12
ATOM     12  C   UNL     1       4.651   5.110  -9.980  1.00  0.00    -0.000 C 
BRANCH  12  13
ATOM     13  C   UNL     1       5.287   6.496  -9.803  1.00  0.00    -0.000 C 
BRANCH  13  14
ATOM     14  C   UNL     1       6.805   6.432  -9.569  1.00  0.00    -0.000 C 
BRANCH  14  15
ATOM     15  C   UNL     1       7.234   6.890  -8.159  1.00  0.00    -0.003 C 
ATOM     16  C   UNL     1       6.049   7.352  -7.311  1.00  0.00     0.004 C 
ENDBRANCH  14  15
ENDBRANCH  13  14
ENDBRANCH  12  13
ENDBRANCH  11  12
ENDBRANCH  10  11
ENDBRANCH   1  10
TORSDOF 12
ENDMDL
MODEL 9
REMARK VINA RESULT:    -3.907      3.229      5.237
REMARK INTER + INTRA:          -7.870
REMARK INTER:                  -6.407
REMARK INTRA:                  -1.463
REMARK UNBOUND:                -1.222
REMARK SMILES CCCCCCCCCCCCCC(=O)[O-]
REMARK SMILES IDX 8 1 9 2 10 3 11 4 12 5 13 6 14 7 15 8 16 9 7 10 6 11 5 12
REMARK SMILES IDX 4 13 3 14 2 15 1 16
REMARK H PARENT
REMARK Flexibility Score: inf
ROOT
ATOM      1  C   UNL     1      -4.509  12.703  -3.247  1.00  0.00     0.000 C 
ENDROOT
BRANCH   1   2
ATOM      2  C   UNL     1      -5.140  13.792  -2.368  1.00  0.00     0.000 C 
BRANCH   2   3
ATOM      3  C   UNL     1      -6.668  13.884  -2.532  1.00  0.00     0.000 C 
BRANCH   3   4
ATOM      4  C   UNL     1      -7.222  13.287  -3.842  1.00  0.00     0.000 C 
BRANCH   4   5
ATOM      5  C   UNL     1      -8.430  12.343  -3.673  1.00  0.00     0.006 C 
BRANCH   5   6
ATOM      6  C   UNL     1      -8.734  11.477  -4.905  1.00  0.00     0.053 C 
BRANCH   6   7
ATOM      7  C   UNL     1      -8.390  10.038  -4.678  1.00  0.00     0.041 C 
ATOM      8  O   UNL     1      -8.288   9.589  -3.506  1.00  0.00    -0.550 OA
ATOM      9  O   UNL     1      -8.217   9.184  -5.759  1.00  0.00    -0.550 OA
ENDBRANCH   6   7
ENDBRANCH   5   6
ENDBRANCH   4   5
ENDBRANCH   3   4
ENDBRANCH   2   3
ENDBRANCH   1   2
BRANCH   1  10
ATOM     10  C   UNL     1      -3.397  13.287  -4.132  1.00  0.00     0.000 C 
BRANCH  10  11
ATOM     11  C   UNL     1      -3.821  13.428  -5.602  1.00  0.00    -0.000 C 
BRANCH  11  12
ATOM     12  C   UNL     1      -4.000  12.070  -6.299  1.00  0.00    -0.000 C 
BRANCH  12  13
ATOM     13  C   UNL     1      -5.480  11.803  -6.610  1.00  0.00    -0.000 C 
BRANCH  13  14
ATOM     14  C   UNL     1      -6.151  12.962  -7.364  1.00  0.00    -0.000 C 
BRANCH  14  15
ATOM     15  C   UNL     1      -6.849  12.530  -8.671  1.00  0.00    -0.003 C 
ATOM     16  C   UNL     1      -7.977  11.529  -8.426  1.00  0.00     0.004 C 
ENDBRANCH  14  15
ENDBRANCH  13  14
ENDBRANCH  12  13
ENDBRANCH  11  12
ENDBRANCH  10  11
ENDBRANCH   1  10
TORSDOF 12
ENDMDL
