MODEL 1
REMARK VINA RESULT:    -4.702      0.000      0.000
REMARK INTER + INTRA:         -12.243
REMARK INTER:                 -10.200
REMARK INTRA:                  -2.043
REMARK UNBOUND:                -2.043
REMARK SMILES CCCCCCCCCCCCCCCCCCCCCC(=O)[O-]
REMARK SMILES IDX 12 1 11 2 10 3 9 4 8 5 7 6 6 7 5 8 4 9 3 10 2 11 1 12 13 13
REMARK SMILES IDX 14 14 15 15 16 16 17 17 18 18 19 19 20 20 21 21 22 22 23 23
REMARK SMILES IDX 24 24
REMARK H PARENT
REMARK Flexibility Score: inf
ROOT
ATOM      1  C   UNL     1      14.041  -0.292  40.352  1.00  0.00     0.000 C 
ENDROOT
BRANCH   1   2
ATOM      2  C   UNL     1      13.115  -0.900  41.419  1.00  0.00     0.000 C 
BRANCH   2   3
ATOM      3  C   UNL     1      11.872  -0.037  41.682  1.00  0.00     0.000 C 
BRANCH   3   4
ATOM      4  C   UNL     1      12.103   1.412  41.228  1.00  0.00    -0.000 C 
BRANCH   4   5
ATOM      5  C   UNL     1      10.948   1.957  40.370  1.00  0.00    -0.000 C 
BRANCH   5   6
ATOM      6  C   UNL     1      10.561   1.002  39.226  1.00  0.00    -0.000 C 
BRANCH   6   7
ATOM      7  C   UNL     1       9.045   0.757  39.153  1.00  0.00    -0.000 C 
BRANCH   7   8
ATOM      8  C   UNL     1       8.699  -0.694  38.774  1.00  0.00    -0.000 C 
BRANCH   8   9
ATOM      9  C   UNL     1       8.220  -1.527  39.977  1.00  0.00    -0.000 C 
BRANCH   9  10
ATOM     10  C   UNL     1       9.144  -2.696  40.376  1.00  0.00    -0.000 C 
BRANCH  10  11
ATOM     11  C   UNL     1      10.410  -2.847  39.514  1.00  0.00    -0.003 C 
ATOM     12  C   UNL     1      10.857  -4.301  39.364  1.00  0.00     0.004 C 
ENDBRANCH  10  11
ENDBRANCH   9  10
ENDBRANCH   8   9
ENDBRANCH   7   8
ENDBRANCH   6   7
ENDBRANCH   5   6
ENDBRANCH   4   5
ENDBRANCH   3   4
ENDBRANCH   2   3
ENDBRANCH   1   2
BRANCH   1  13
ATOM     13  C   UNL     1      15.459  -0.020  40.885  1.00  0.00     0.000 C 
BRANCH  13  14
ATOM     14  C   UNL     1      15.810   1.475  40.893  1.00  0.00     0.000 C 
BRANCH  14  15
ATOM     15  C   UNL     1      17.297   1.734  40.610  1.00  0.00     0.000 C 
BRANCH  15  16
ATOM     16  C   UNL     1      17.537   3.198  40.221  1.00  0.00     0.000 C 
BRANCH  16  17
ATOM     17  C   UNL     1      16.408   4.100  40.748  1.00  0.00     0.000 C 
BRANCH  17  18
ATOM     18  C   UNL     1      16.817   4.856  42.028  1.00  0.00     0.000 C 
BRANCH  18  19
ATOM     19  C   UNL     1      15.822   5.957  42.438  1.00  0.00     0.000 C 
BRANCH  19  20
ATOM     20  C   UNL     1      15.422   6.865  41.264  1.00  0.00     0.006 C 
BRANCH  20  21
ATOM     21  C   UNL     1      15.899   8.310  41.460  1.00  0.00     0.053 C 
BRANCH  21  22
ATOM     22  C   UNL     1      17.345   8.471  41.099  1.00  0.00     0.041 C 
ATOM     23  O   UNL     1      18.210   8.616  42.001  1.00  0.00    -0.550 OA
ATOM     24  O   UNL     1      17.731   8.495  39.764  1.00  0.00    -0.550 OA
ENDBRANCH  21  22
ENDBRANCH  20  21
ENDBRANCH  19  20
ENDBRANCH  18  19
ENDBRANCH  17  18
ENDBRANCH  16  17
ENDBRANCH  15  16
ENDBRANCH  14  15
ENDBRANCH  13  14
ENDBRANCH   1  13
TORSDOF 20
ENDMDL
MODEL 2
REMARK VINA RESULT:    -4.688      4.494      9.720
REMARK INTER + INTRA:         -12.213
REMARK INTER:                 -10.184
REMARK INTRA:                  -2.029
REMARK UNBOUND:                -2.043
REMARK SMILES CCCCCCCCCCCCCCCCCCCCCC(=O)[O-]
REMARK SMILES IDX 12 1 11 2 10 3 9 4 8 5 7 6 6 7 5 8 4 9 3 10 2 11 1 12 13 13
REMARK SMILES IDX 14 14 15 15 16 16 17 17 18 18 19 19 20 20 21 21 22 22 23 23
REMARK SMILES IDX 24 24
REMARK H PARENT
REMARK Flexibility Score: inf
ROOT
ATOM      1  C   UNL     1      16.614   4.965  40.809  1.00  0.00     0.000 C 
ENDROOT
BRANCH   1   2
ATOM      2  C   UNL     1      15.106   4.737  41.002  1.00  0.00     0.000 C 
BRANCH   2   3
ATOM      3  C   UNL     1      14.539   5.517  42.197  1.00  0.00     0.000 C 
BRANCH   3   4
ATOM      4  C   UNL     1      15.536   5.534  43.365  1.00  0.00    -0.000 C 
BRANCH   4   5
ATOM      5  C   UNL     1      15.388   6.780  44.255  1.00  0.00    -0.000 C 
BRANCH   5   6
ATOM      6  C   UNL     1      14.227   7.689  43.811  1.00  0.00    -0.000 C 
BRANCH   6   7
ATOM      7  C   UNL     1      14.377   9.129  44.328  1.00  0.00    -0.000 C 
BRANCH   7   8
ATOM      8  C   UNL     1      14.172  10.178  43.220  1.00  0.00    -0.000 C 
BRANCH   8   9
ATOM      9  C   UNL     1      14.869   9.798  41.902  1.00  0.00    -0.000 C 
BRANCH   9  10
ATOM     10  C   UNL     1      16.377  10.117  41.840  1.00  0.00    -0.000 C 
BRANCH  10  11
ATOM     11  C   UNL     1      17.293   8.896  41.639  1.00  0.00    -0.003 C 
ATOM     12  C   UNL     1      17.351   8.428  40.186  1.00  0.00     0.004 C 
ENDBRANCH  10  11
ENDBRANCH   9  10
ENDBRANCH   8   9
ENDBRANCH   7   8
ENDBRANCH   6   7
ENDBRANCH   5   6
ENDBRANCH   4   5
ENDBRANCH   3   4
ENDBRANCH   2   3
ENDBRANCH   1   2
BRANCH   1  13
ATOM     13  C   UNL     1      17.372   3.665  40.488  1.00  0.00     0.000 C 
BRANCH  13  14
ATOM     14  C   UNL     1      16.965   2.502  41.406  1.00  0.00     0.000 C 
BRANCH  14  15
ATOM     15  C   UNL     1      16.526   1.257  40.622  1.00  0.00     0.000 C 
BRANCH  15  16
ATOM     16  C   UNL     1      15.128   0.797  41.056  1.00  0.00     0.000 C 
BRANCH  16  17
ATOM     17  C   UNL     1      14.981  -0.727  40.918  1.00  0.00     0.000 C 
BRANCH  17  18
ATOM     18  C   UNL     1      13.583  -1.218  41.347  1.00  0.00     0.000 C 
BRANCH  18  19
ATOM     19  C   UNL     1      12.536  -0.094  41.436  1.00  0.00     0.000 C 
BRANCH  19  20
ATOM     20  C   UNL     1      11.124  -0.562  41.050  1.00  0.00     0.006 C 
BRANCH  20  21
ATOM     21  C   UNL     1      10.126  -0.410  42.206  1.00  0.00     0.053 C 
BRANCH  21  22
ATOM     22  C   UNL     1       9.035  -1.435  42.136  1.00  0.00     0.041 C 
ATOM     23  O   UNL     1       8.333  -1.683  43.151  1.00  0.00    -0.550 OA
ATOM     24  O   UNL     1       8.819  -2.142  40.959  1.00  0.00    -0.550 OA
ENDBRANCH  21  22
ENDBRANCH  20  21
ENDBRANCH  19  20
ENDBRANCH  18  19
ENDBRANCH  17  18
ENDBRANCH  16  17
ENDBRANCH  15  16
ENDBRANCH  14  15
ENDBRANCH  13  14
ENDBRANCH   1  13
TORSDOF 20
ENDMDL
MODEL 3
REMARK VINA RESULT:    -4.679      3.403      6.288
REMARK INTER + INTRA:         -12.193
REMARK INTER:                  -9.730
REMARK INTRA:                  -2.462
REMARK UNBOUND:                -2.043
REMARK SMILES CCCCCCCCCCCCCCCCCCCCCC(=O)[O-]
REMARK SMILES IDX 12 1 11 2 10 3 9 4 8 5 7 6 6 7 5 8 4 9 3 10 2 11 1 12 13 13
REMARK SMILES IDX 14 14 15 15 16 16 17 17 18 18 19 19 20 20 21 21 22 22 23 23
REMARK SMILES IDX 24 24
REMARK H PARENT
REMARK Flexibility Score: inf
ROOT
ATOM      1  C   UNL     1      11.960   3.687  41.061  1.00  0.00     0.000 C 
ENDROOT
BRANCH   1   2
ATOM      2  C   UNL     1      11.648   2.410  41.857  1.00  0.00     0.000 C 
BRANCH   2   3
ATOM      3  C   UNL     1      11.467   1.180  40.954  1.00  0.00     0.000 C 
BRANCH   3   4
ATOM      4  C   UNL     1      11.846  -0.108  41.699  1.00  0.00    -0.000 C 
BRANCH   4   5
ATOM      5  C   UNL     1      12.476  -1.165  40.776  1.00  0.00    -0.000 C 
BRANCH   5   6
ATOM      6  C   UNL     1      14.003  -1.263  40.945  1.00  0.00    -0.000 C 
BRANCH   6   7
ATOM      7  C   UNL     1      14.749  -0.145  40.199  1.00  0.00    -0.000 C 
BRANCH   7   8
ATOM      8  C   UNL     1      15.273   0.949  41.146  1.00  0.00    -0.000 C 
BRANCH   8   9
ATOM      9  C   UNL     1      16.590   1.578  40.659  1.00  0.00    -0.000 C 
BRANCH   9  10
ATOM     10  C   UNL     1      17.373   2.373  41.725  1.00  0.00    -0.000 C 
BRANCH  10  11
ATOM     11  C   UNL     1      18.661   3.045  41.219  1.00  0.00    -0.003 C 
ATOM     12  C   UNL     1      19.275   2.327  40.018  1.00  0.00     0.004 C 
ENDBRANCH  10  11
ENDBRANCH   9  10
ENDBRANCH   8   9
ENDBRANCH   7   8
ENDBRANCH   6   7
ENDBRANCH   5   6
ENDBRANCH   4   5
ENDBRANCH   3   4
ENDBRANCH   2   3
ENDBRANCH   1   2
BRANCH   1  13
ATOM     13  C   UNL     1      12.770   4.710  41.877  1.00  0.00     0.000 C 
BRANCH  13  14
ATOM     14  C   UNL     1      14.283   4.586  41.641  1.00  0.00     0.000 C 
BRANCH  14  15
ATOM     15  C   UNL     1      14.912   5.895  41.141  1.00  0.00     0.000 C 
BRANCH  15  16
ATOM     16  C   UNL     1      16.122   6.287  41.998  1.00  0.00     0.000 C 
BRANCH  16  17
ATOM     17  C   UNL     1      16.326   5.291  43.152  1.00  0.00     0.000 C 
BRANCH  17  18
ATOM     18  C   UNL     1      16.039   5.928  44.527  1.00  0.00     0.000 C 
BRANCH  18  19
ATOM     19  C   UNL     1      15.794   4.897  45.643  1.00  0.00     0.000 C 
BRANCH  19  20
ATOM     20  C   UNL     1      14.431   5.076  46.332  1.00  0.00     0.006 C 
BRANCH  20  21
ATOM     21  C   UNL     1      13.349   5.562  45.359  1.00  0.00     0.053 C 
BRANCH  21  22
ATOM     22  C   UNL     1      11.979   5.140  45.797  1.00  0.00     0.041 C 
ATOM     23  O   UNL     1      11.404   5.740  46.742  1.00  0.00    -0.550 OA
ATOM     24  O   UNL     1      11.353   4.061  45.185  1.00  0.00    -0.550 OA
ENDBRANCH  21  22
ENDBRANCH  20  21
ENDBRANCH  19  20
ENDBRANCH  18  19
ENDBRANCH  17  18
ENDBRANCH  16  17
ENDBRANCH  15  16
ENDBRANCH  14  15
ENDBRANCH  13  14
ENDBRANCH   1  13
TORSDOF 20
ENDMDL
MODEL 4
REMARK VINA RESULT:    -4.661      3.939      7.948
REMARK INTER + INTRA:         -12.154
REMARK INTER:                  -9.281
REMARK INTRA:                  -2.874
REMARK UNBOUND:                -2.043
REMARK SMILES CCCCCCCCCCCCCCCCCCCCCC(=O)[O-]
REMARK SMILES IDX 12 1 11 2 10 3 9 4 8 5 7 6 6 7 5 8 4 9 3 10 2 11 1 12 13 13
REMARK SMILES IDX 14 14 15 15 16 16 17 17 18 18 19 19 20 20 21 21 22 22 23 23
REMARK SMILES IDX 24 24
REMARK H PARENT
REMARK Flexibility Score: inf
ROOT
ATOM      1  C   UNL     1      16.440   4.656  40.593  1.00  0.00     0.000 C 
ENDROOT
BRANCH   1   2
ATOM      2  C   UNL     1      16.696   6.095  41.068  1.00  0.00     0.000 C 
BRANCH   2   3
ATOM      3  C   UNL     1      17.483   6.151  42.386  1.00  0.00     0.000 C 
BRANCH   3   4
ATOM      4  C   UNL     1      16.536   6.312  43.584  1.00  0.00    -0.000 C 
BRANCH   4   5
ATOM      5  C   UNL     1      15.656   7.570  43.481  1.00  0.00    -0.000 C 
BRANCH   5   6
ATOM      6  C   UNL     1      14.152   7.242  43.510  1.00  0.00    -0.000 C 
BRANCH   6   7
ATOM      7  C   UNL     1      13.446   7.609  42.195  1.00  0.00    -0.000 C 
BRANCH   7   8
ATOM      8  C   UNL     1      12.957   6.372  41.421  1.00  0.00    -0.000 C 
BRANCH   8   9
ATOM      9  C   UNL     1      13.134   5.065  42.214  1.00  0.00    -0.000 C 
BRANCH   9  10
ATOM     10  C   UNL     1      12.797   3.775  41.439  1.00  0.00    -0.000 C 
BRANCH  10  11
ATOM     11  C   UNL     1      11.310   3.376  41.456  1.00  0.00    -0.003 C 
ATOM     12  C   UNL     1      10.663   3.431  40.073  1.00  0.00     0.004 C 
ENDBRANCH  10  11
ENDBRANCH   9  10
ENDBRANCH   8   9
ENDBRANCH   7   8
ENDBRANCH   6   7
ENDBRANCH   5   6
ENDBRANCH   4   5
ENDBRANCH   3   4
ENDBRANCH   2   3
ENDBRANCH   1   2
BRANCH   1  13
ATOM     13  C   UNL     1      17.571   3.692  40.991  1.00  0.00     0.000 C 
BRANCH  13  14
ATOM     14  C   UNL     1      17.046   2.397  41.629  1.00  0.00     0.000 C 
BRANCH  14  15
ATOM     15  C   UNL     1      16.591   1.367  40.585  1.00  0.00     0.000 C 
BRANCH  15  16
ATOM     16  C   UNL     1      15.176   0.859  40.892  1.00  0.00     0.000 C 
BRANCH  16  17
ATOM     17  C   UNL     1      15.155  -0.672  41.019  1.00  0.00     0.000 C 
BRANCH  17  18
ATOM     18  C   UNL     1      13.722  -1.224  41.171  1.00  0.00     0.000 C 
BRANCH  18  19
ATOM     19  C   UNL     1      12.660  -0.130  41.378  1.00  0.00     0.000 C 
BRANCH  19  20
ATOM     20  C   UNL     1      11.625  -0.082  40.242  1.00  0.00     0.006 C 
BRANCH  20  21
ATOM     21  C   UNL     1      10.389  -0.938  40.547  1.00  0.00     0.053 C 
BRANCH  21  22
ATOM     22  C   UNL     1       9.561  -0.345  41.647  1.00  0.00     0.041 C 
ATOM     23  O   UNL     1       8.890   0.700  41.443  1.00  0.00    -0.550 OA
ATOM     24  O   UNL     1       9.560  -0.928  42.909  1.00  0.00    -0.550 OA
ENDBRANCH  21  22
ENDBRANCH  20  21
ENDBRANCH  19  20
ENDBRANCH  18  19
ENDBRANCH  17  18
ENDBRANCH  16  17
ENDBRANCH  15  16
ENDBRANCH  14  15
ENDBRANCH  13  14
ENDBRANCH   1  13
TORSDOF 20
ENDMDL
MODEL 5
REMARK VINA RESULT:    -4.605      2.874      5.573
REMARK INTER + INTRA:         -12.032
REMARK INTER:                  -9.297
REMARK INTRA:                  -2.734
REMARK UNBOUND:                -2.043
REMARK SMILES CCCCCCCCCCCCCCCCCCCCCC(=O)[O-]
REMARK SMILES IDX 12 1 11 2 10 3 9 4 8 5 7 6 6 7 5 8 4 9 3 10 2 11 1 12 13 13
REMARK SMILES IDX 14 14 15 15 16 16 17 17 18 18 19 19 20 20 21 21 22 22 23 23
REMARK SMILES IDX 24 24
REMARK H PARENT
REMARK Flexibility Score: inf
ROOT
ATOM      1  C   UNL     1      15.824   4.693  42.213  1.00  0.00     0.000 C 
ENDROOT
BRANCH   1   2
ATOM      2  C   UNL     1      17.063   3.788  42.112  1.00  0.00     0.000 C 
BRANCH   2   3
ATOM      3  C   UNL     1      17.266   3.219  40.700  1.00  0.00     0.000 C 
BRANCH   3   4
ATOM      4  C   UNL     1      17.039   1.700  40.683  1.00  0.00    -0.000 C 
BRANCH   4   5
ATOM      5  C   UNL     1      15.548   1.322  40.660  1.00  0.00    -0.000 C 
BRANCH   5   6
ATOM      6  C   UNL     1      15.299  -0.126  41.118  1.00  0.00    -0.000 C 
BRANCH   6   7
ATOM      7  C   UNL     1      13.993  -0.705  40.548  1.00  0.00    -0.000 C 
BRANCH   7   8
ATOM      8  C   UNL     1      12.817  -0.590  41.534  1.00  0.00    -0.000 C 
BRANCH   8   9
ATOM      9  C   UNL     1      11.753   0.423  41.077  1.00  0.00    -0.000 C 
BRANCH   9  10
ATOM     10  C   UNL     1      11.824   1.805  41.758  1.00  0.00    -0.000 C 
BRANCH  10  11
ATOM     11  C   UNL     1      11.331   2.981  40.897  1.00  0.00    -0.003 C 
ATOM     12  C   UNL     1      11.959   4.316  41.297  1.00  0.00     0.004 C 
ENDBRANCH  10  11
ENDBRANCH   9  10
ENDBRANCH   8   9
ENDBRANCH   7   8
ENDBRANCH   6   7
ENDBRANCH   5   6
ENDBRANCH   4   5
ENDBRANCH   3   4
ENDBRANCH   2   3
ENDBRANCH   1   2
BRANCH   1  13
ATOM     13  C   UNL     1      15.480   5.374  40.876  1.00  0.00     0.000 C 
BRANCH  13  14
ATOM     14  C   UNL     1      15.524   6.907  40.968  1.00  0.00     0.000 C 
BRANCH  14  15
ATOM     15  C   UNL     1      16.825   7.495  40.399  1.00  0.00     0.000 C 
BRANCH  15  16
ATOM     16  C   UNL     1      17.608   8.247  41.482  1.00  0.00     0.000 C 
BRANCH  16  17
ATOM     17  C   UNL     1      18.543   7.296  42.246  1.00  0.00     0.000 C 
BRANCH  17  18
ATOM     18  C   UNL     1      18.148   7.159  43.731  1.00  0.00     0.000 C 
BRANCH  18  19
ATOM     19  C   UNL     1      16.830   7.870  44.085  1.00  0.00     0.000 C 
BRANCH  19  20
ATOM     20  C   UNL     1      16.354   7.568  45.515  1.00  0.00     0.006 C 
BRANCH  20  21
ATOM     21  C   UNL     1      16.557   6.095  45.895  1.00  0.00     0.053 C 
BRANCH  21  22
ATOM     22  C   UNL     1      15.255   5.358  45.977  1.00  0.00     0.041 C 
ATOM     23  O   UNL     1      14.303   5.666  45.214  1.00  0.00    -0.550 OA
ATOM     24  O   UNL     1      15.082   4.354  46.923  1.00  0.00    -0.550 OA
ENDBRANCH  21  22
ENDBRANCH  20  21
ENDBRANCH  19  20
ENDBRANCH  18  19
ENDBRANCH  17  18
ENDBRANCH  16  17
ENDBRANCH  15  16
ENDBRANCH  14  15
ENDBRANCH  13  14
ENDBRANCH   1  13
TORSDOF 20
ENDMDL
MODEL 6
REMARK VINA RESULT:    -4.601      2.262      5.023
REMARK INTER + INTRA:         -12.023
REMARK INTER:                 -10.108
REMARK INTRA:                  -1.915
REMARK UNBOUND:                -2.043
REMARK SMILES CCCCCCCCCCCCCCCCCCCCCC(=O)[O-]
REMARK SMILES IDX 12 1 11 2 10 3 9 4 8 5 7 6 6 7 5 8 4 9 3 10 2 11 1 12 13 13
REMARK SMILES IDX 14 14 15 15 16 16 17 17 18 18 19 19 20 20 21 21 22 22 23 23
REMARK SMILES IDX 24 24
REMARK H PARENT
REMARK Flexibility Score: inf
ROOT
ATOM      1  C   UNL     1      16.804   3.822  41.951  1.00  0.00     0.000 C 
ENDROOT
BRANCH   1   2
ATOM      2  C   UNL     1      17.800   2.714  41.572  1.00  0.00     0.000 C 
BRANCH   2   3
ATOM      3  C   UNL     1      17.201   1.691  40.595  1.00  0.00     0.000 C 
BRANCH   3   4
ATOM      4  C   UNL     1      15.731   1.403  40.935  1.00  0.00    -0.000 C 
BRANCH   4   5
ATOM      5  C   UNL     1      15.409  -0.101  40.956  1.00  0.00    -0.000 C 
BRANCH   5   6
ATOM      6  C   UNL     1      14.064  -0.427  40.281  1.00  0.00    -0.000 C 
BRANCH   6   7
ATOM      7  C   UNL     1      12.952  -0.722  41.300  1.00  0.00    -0.000 C 
BRANCH   7   8
ATOM      8  C   UNL     1      11.544  -0.533  40.707  1.00  0.00    -0.000 C 
BRANCH   8   9
ATOM      9  C   UNL     1      10.864   0.762  41.186  1.00  0.00    -0.000 C 
BRANCH   9  10
ATOM     10  C   UNL     1      10.822   1.904  40.150  1.00  0.00    -0.000 C 
BRANCH  10  11
ATOM     11  C   UNL     1      11.070   3.311  40.722  1.00  0.00    -0.003 C 
ATOM     12  C   UNL     1      12.389   3.418  41.487  1.00  0.00     0.004 C 
ENDBRANCH  10  11
ENDBRANCH   9  10
ENDBRANCH   8   9
ENDBRANCH   7   8
ENDBRANCH   6   7
ENDBRANCH   5   6
ENDBRANCH   4   5
ENDBRANCH   3   4
ENDBRANCH   2   3
ENDBRANCH   1   2
BRANCH   1  13
ATOM     13  C   UNL     1      16.548   4.807  40.797  1.00  0.00     0.000 C 
BRANCH  13  14
ATOM     14  C   UNL     1      15.226   5.573  40.958  1.00  0.00     0.000 C 
BRANCH  14  15
ATOM     15  C   UNL     1      15.420   7.097  40.931  1.00  0.00     0.000 C 
BRANCH  15  16
ATOM     16  C   UNL     1      16.701   7.475  40.177  1.00  0.00     0.000 C 
BRANCH  16  17
ATOM     17  C   UNL     1      17.352   8.726  40.789  1.00  0.00     0.000 C 
BRANCH  17  18
ATOM     18  C   UNL     1      17.147   8.801  42.316  1.00  0.00     0.000 C 
BRANCH  18  19
ATOM     19  C   UNL     1      18.453   8.678  43.120  1.00  0.00     0.000 C 
BRANCH  19  20
ATOM     20  C   UNL     1      19.044   7.259  43.086  1.00  0.00     0.006 C 
BRANCH  20  21
ATOM     21  C   UNL     1      20.214   7.094  44.064  1.00  0.00     0.053 C 
BRANCH  21  22
ATOM     22  C   UNL     1      21.377   6.398  43.425  1.00  0.00     0.041 C 
ATOM     23  O   UNL     1      21.364   6.142  42.192  1.00  0.00    -0.550 OA
ATOM     24  O   UNL     1      22.461   5.999  44.198  1.00  0.00    -0.550 OA
ENDBRANCH  21  22
ENDBRANCH  20  21
ENDBRANCH  19  20
ENDBRANCH  18  19
ENDBRANCH  17  18
ENDBRANCH  16  17
ENDBRANCH  15  16
ENDBRANCH  14  15
ENDBRANCH  13  14
ENDBRANCH   1  13
TORSDOF 20
ENDMDL
MODEL 7
REMARK VINA RESULT:    -4.539      1.323      1.973
REMARK INTER + INTRA:         -11.890
REMARK INTER:                  -9.752
REMARK INTRA:                  -2.138
REMARK UNBOUND:                -2.043
REMARK SMILES CCCCCCCCCCCCCCCCCCCCCC(=O)[O-]
REMARK SMILES IDX 12 1 11 2 10 3 9 4 8 5 7 6 6 7 5 8 4 9 3 10 2 11 1 12 13 13
REMARK SMILES IDX 14 14 15 15 16 16 17 17 18 18 19 19 20 20 21 21 22 22 23 23
REMARK SMILES IDX 24 24
REMARK H PARENT
REMARK Flexibility Score: inf
ROOT
ATOM      1  C   UNL     1      13.150  -0.560  39.980  1.00  0.00     0.000 C 
ENDROOT
BRANCH   1   2
ATOM      2  C   UNL     1      11.685  -0.248  40.326  1.00  0.00     0.000 C 
BRANCH   2   3
ATOM      3  C   UNL     1      11.524   0.342  41.735  1.00  0.00     0.000 C 
BRANCH   3   4
ATOM      4  C   UNL     1      11.364   1.868  41.675  1.00  0.00    -0.000 C 
BRANCH   4   5
ATOM      5  C   UNL     1      10.734   2.349  40.356  1.00  0.00    -0.000 C 
BRANCH   5   6
ATOM      6  C   UNL     1       9.331   2.949  40.556  1.00  0.00    -0.000 C 
BRANCH   6   7
ATOM      7  C   UNL     1       8.217   1.898  40.417  1.00  0.00    -0.000 C 
BRANCH   7   8
ATOM      8  C   UNL     1       7.727   1.374  41.778  1.00  0.00    -0.000 C 
BRANCH   8   9
ATOM      9  C   UNL     1       7.109  -0.032  41.689  1.00  0.00    -0.000 C 
BRANCH   9  10
ATOM     10  C   UNL     1       7.958  -1.164  42.304  1.00  0.00    -0.000 C 
BRANCH  10  11
ATOM     11  C   UNL     1       8.685  -2.059  41.285  1.00  0.00    -0.003 C 
ATOM     12  C   UNL     1       8.220  -1.824  39.848  1.00  0.00     0.004 C 
ENDBRANCH  10  11
ENDBRANCH   9  10
ENDBRANCH   8   9
ENDBRANCH   7   8
ENDBRANCH   6   7
ENDBRANCH   5   6
ENDBRANCH   4   5
ENDBRANCH   3   4
ENDBRANCH   2   3
ENDBRANCH   1   2
BRANCH   1  13
ATOM     13  C   UNL     1      14.066  -0.545  41.216  1.00  0.00     0.000 C 
BRANCH  13  14
ATOM     14  C   UNL     1      15.510  -0.147  40.876  1.00  0.00     0.000 C 
BRANCH  14  15
ATOM     15  C   UNL     1      15.744   1.368  40.975  1.00  0.00     0.000 C 
BRANCH  15  16
ATOM     16  C   UNL     1      17.181   1.730  40.579  1.00  0.00     0.000 C 
BRANCH  16  17
ATOM     17  C   UNL     1      17.311   3.234  40.288  1.00  0.00     0.000 C 
BRANCH  17  18
ATOM     18  C   UNL     1      16.244   4.065  41.031  1.00  0.00     0.000 C 
BRANCH  18  19
ATOM     19  C   UNL     1      16.830   5.233  41.844  1.00  0.00     0.000 C 
BRANCH  19  20
ATOM     20  C   UNL     1      15.998   6.520  41.724  1.00  0.00     0.006 C 
BRANCH  20  21
ATOM     21  C   UNL     1      16.170   7.197  40.358  1.00  0.00     0.053 C 
BRANCH  21  22
ATOM     22  C   UNL     1      17.072   8.390  40.439  1.00  0.00     0.041 C 
ATOM     23  O   UNL     1      18.154   8.412  39.795  1.00  0.00    -0.550 OA
ATOM     24  O   UNL     1      16.736   9.463  41.256  1.00  0.00    -0.550 OA
ENDBRANCH  21  22
ENDBRANCH  20  21
ENDBRANCH  19  20
ENDBRANCH  18  19
ENDBRANCH  17  18
ENDBRANCH  16  17
ENDBRANCH  15  16
ENDBRANCH  14  15
ENDBRANCH  13  14
ENDBRANCH   1  13
TORSDOF 20
ENDMDL
MODEL 8
REMARK VINA RESULT:    -4.509      2.781      7.301
REMARK INTER + INTRA:         -11.824
REMARK INTER:                  -9.348
REMARK INTRA:                  -2.477
REMARK UNBOUND:                -2.043
REMARK SMILES CCCCCCCCCCCCCCCCCCCCCC(=O)[O-]
REMARK SMILES IDX 12 1 11 2 10 3 9 4 8 5 7 6 6 7 5 8 4 9 3 10 2 11 1 12 13 13
REMARK SMILES IDX 14 14 15 15 16 16 17 17 18 18 19 19 20 20 21 21 22 22 23 23
REMARK SMILES IDX 24 24
REMARK H PARENT
REMARK Flexibility Score: inf
ROOT
ATOM      1  C   UNL     1      15.261   0.918  40.962  1.00  0.00     0.000 C 
ENDROOT
BRANCH   1   2
ATOM      2  C   UNL     1      16.687   1.379  40.619  1.00  0.00     0.000 C 
BRANCH   2   3
ATOM      3  C   UNL     1      17.130   2.592  41.451  1.00  0.00     0.000 C 
BRANCH   3   4
ATOM      4  C   UNL     1      16.908   3.900  40.676  1.00  0.00    -0.000 C 
BRANCH   4   5
ATOM      5  C   UNL     1      15.580   4.587  41.038  1.00  0.00    -0.000 C 
BRANCH   5   6
ATOM      6  C   UNL     1      15.701   6.121  41.080  1.00  0.00    -0.000 C 
BRANCH   6   7
ATOM      7  C   UNL     1      15.378   6.698  42.468  1.00  0.00    -0.000 C 
BRANCH   7   8
ATOM      8  C   UNL     1      14.214   5.962  43.156  1.00  0.00    -0.000 C 
BRANCH   8   9
ATOM      9  C   UNL     1      14.194   6.171  44.681  1.00  0.00    -0.000 C 
BRANCH   9  10
ATOM     10  C   UNL     1      15.508   6.704  45.288  1.00  0.00    -0.000 C 
BRANCH  10  11
ATOM     11  C   UNL     1      16.373   5.646  45.995  1.00  0.00    -0.003 C 
ATOM     12  C   UNL     1      15.545   4.548  46.662  1.00  0.00     0.004 C 
ENDBRANCH  10  11
ENDBRANCH   9  10
ENDBRANCH   8   9
ENDBRANCH   7   8
ENDBRANCH   6   7
ENDBRANCH   5   6
ENDBRANCH   4   5
ENDBRANCH   3   4
ENDBRANCH   2   3
ENDBRANCH   1   2
BRANCH   1  13
ATOM     13  C   UNL     1      15.126  -0.615  40.988  1.00  0.00     0.000 C 
BRANCH  13  14
ATOM     14  C   UNL     1      13.693  -1.075  41.295  1.00  0.00     0.000 C 
BRANCH  14  15
ATOM     15  C   UNL     1      12.631  -0.127  40.717  1.00  0.00     0.000 C 
BRANCH  15  16
ATOM     16  C   UNL     1      11.347  -0.164  41.555  1.00  0.00     0.000 C 
BRANCH  16  17
ATOM     17  C   UNL     1      10.763   1.247  41.731  1.00  0.00     0.000 C 
BRANCH  17  18
ATOM     18  C   UNL     1      11.860   2.333  41.748  1.00  0.00     0.000 C 
BRANCH  18  19
ATOM     19  C   UNL     1      11.450   3.610  42.503  1.00  0.00     0.000 C 
BRANCH  19  20
ATOM     20  C   UNL     1      11.111   4.776  41.561  1.00  0.00     0.006 C 
BRANCH  20  21
ATOM     21  C   UNL     1      12.028   4.814  40.331  1.00  0.00     0.053 C 
BRANCH  21  22
ATOM     22  C   UNL     1      12.038   6.168  39.688  1.00  0.00     0.041 C 
ATOM     23  O   UNL     1      12.443   7.172  40.330  1.00  0.00    -0.550 OA
ATOM     24  O   UNL     1      11.567   6.326  38.390  1.00  0.00    -0.550 OA
ENDBRANCH  21  22
ENDBRANCH  20  21
ENDBRANCH  19  20
ENDBRANCH  18  19
ENDBRANCH  17  18
ENDBRANCH  16  17
ENDBRANCH  15  16
ENDBRANCH  14  15
ENDBRANCH  13  14
ENDBRANCH   1  13
TORSDOF 20
ENDMDL
MODEL 9
REMARK VINA RESULT:    -4.460      3.733      8.437
REMARK INTER + INTRA:         -11.717
REMARK INTER:                  -9.653
REMARK INTRA:                  -2.064
REMARK UNBOUND:                -2.043
REMARK SMILES CCCCCCCCCCCCCCCCCCCCCC(=O)[O-]
REMARK SMILES IDX 12 1 11 2 10 3 9 4 8 5 7 6 6 7 5 8 4 9 3 10 2 11 1 12 13 13
REMARK SMILES IDX 14 14 15 15 16 16 17 17 18 18 19 19 20 20 21 21 22 22 23 23
REMARK SMILES IDX 24 24
REMARK H PARENT
REMARK Flexibility Score: inf
ROOT
ATOM      1  C   UNL     1      11.050   5.103  38.020  1.00  0.00     0.000 C 
ENDROOT
BRANCH   1   2
ATOM      2  C   UNL     1      10.442   5.218  39.427  1.00  0.00     0.000 C 
BRANCH   2   3
ATOM      3  C   UNL     1      10.890   4.082  40.359  1.00  0.00     0.000 C 
BRANCH   3   4
ATOM      4  C   UNL     1      11.934   4.580  41.369  1.00  0.00    -0.000 C 
BRANCH   4   5
ATOM      5  C   UNL     1      13.347   4.047  41.075  1.00  0.00    -0.000 C 
BRANCH   5   6
ATOM      6  C   UNL     1      14.452   4.981  41.601  1.00  0.00    -0.000 C 
BRANCH   6   7
ATOM      7  C   UNL     1      15.779   4.806  40.844  1.00  0.00    -0.000 C 
BRANCH   7   8
ATOM      8  C   UNL     1      16.976   4.605  41.791  1.00  0.00    -0.000 C 
BRANCH   8   9
ATOM      9  C   UNL     1      17.452   3.143  41.849  1.00  0.00    -0.000 C 
BRANCH   9  10
ATOM     10  C   UNL     1      17.713   2.481  40.481  1.00  0.00    -0.000 C 
BRANCH  10  11
ATOM     11  C   UNL     1      19.186   2.474  40.033  1.00  0.00    -0.003 C 
ATOM     12  C   UNL     1      20.139   2.986  41.112  1.00  0.00     0.004 C 
ENDBRANCH  10  11
ENDBRANCH   9  10
ENDBRANCH   8   9
ENDBRANCH   7   8
ENDBRANCH   6   7
ENDBRANCH   5   6
ENDBRANCH   4   5
ENDBRANCH   3   4
ENDBRANCH   2   3
ENDBRANCH   1   2
BRANCH   1  13
ATOM     13  C   UNL     1      10.061   4.524  36.994  1.00  0.00     0.000 C 
BRANCH  13  14
ATOM     14  C   UNL     1      10.729   3.542  36.019  1.00  0.00     0.000 C 
BRANCH  14  15
ATOM     15  C   UNL     1      10.702   2.093  36.529  1.00  0.00     0.000 C 
BRANCH  15  16
ATOM     16  C   UNL     1       9.297   1.705  37.008  1.00  0.00     0.000 C 
BRANCH  16  17
ATOM     17  C   UNL     1       9.278   1.468  38.526  1.00  0.00     0.000 C 
BRANCH  17  18
ATOM     18  C   UNL     1      10.222   0.323  38.949  1.00  0.00     0.000 C 
BRANCH  18  19
ATOM     19  C   UNL     1      10.602   0.356  40.440  1.00  0.00     0.000 C 
BRANCH  19  20
ATOM     20  C   UNL     1      12.101   0.606  40.668  1.00  0.00     0.006 C 
BRANCH  20  21
ATOM     21  C   UNL     1      12.731  -0.445  41.592  1.00  0.00     0.053 C 
BRANCH  21  22
ATOM     22  C   UNL     1      14.037  -0.945  41.055  1.00  0.00     0.041 C 
ATOM     23  O   UNL     1      15.106  -0.335  41.320  1.00  0.00    -0.550 OA
ATOM     24  O   UNL     1      14.069  -2.064  40.231  1.00  0.00    -0.550 OA
ENDBRANCH  21  22
ENDBRANCH  20  21
ENDBRANCH  19  20
ENDBRANCH  18  19
ENDBRANCH  17  18
ENDBRANCH  16  17
ENDBRANCH  15  16
ENDBRANCH  14  15
ENDBRANCH  13  14
ENDBRANCH   1  13
TORSDOF 20
ENDMDL
