MODEL 1
REMARK VINA RESULT:    -4.945      0.000      0.000
REMARK INTER + INTRA:         -14.967
REMARK INTER:                 -11.305
REMARK INTRA:                  -3.662
REMARK UNBOUND:                -3.662
REMARK SMILES CCCCCCCCCCCCCCCCCCCCCCCC(=O)[O-]
REMARK SMILES IDX 13 1 14 2 15 3 16 4 17 5 18 6 19 7 20 8 21 9 22 10 23 11
REMARK SMILES IDX 24 12 25 13 26 14 12 15 11 16 10 17 9 18 8 19 7 20 6 21 5 22
REMARK SMILES IDX 4 23 3 24 2 25 1 26
REMARK H PARENT
REMARK Flexibility Score: inf
ROOT
ATOM      1  C   UNL     1      59.652  28.303  12.017  1.00  0.00     0.000 C 
ENDROOT
BRANCH   1   2
ATOM      2  C   UNL     1      60.383  28.400  13.370  1.00  0.00     0.000 C 
BRANCH   2   3
ATOM      3  C   UNL     1      61.914  28.229  13.298  1.00  0.00     0.000 C 
BRANCH   3   4
ATOM      4  C   UNL     1      62.727  29.478  13.683  1.00  0.00     0.000 C 
BRANCH   4   5
ATOM      5  C   UNL     1      61.844  30.637  14.180  1.00  0.00     0.000 C 
BRANCH   5   6
ATOM      6  C   UNL     1      61.702  31.757  13.126  1.00  0.00     0.000 C 
BRANCH   6   7
ATOM      7  C   UNL     1      60.513  32.699  13.376  1.00  0.00     0.000 C 
BRANCH   7   8
ATOM      8  C   UNL     1      59.913  32.543  14.782  1.00  0.00     0.000 C 
BRANCH   8   9
ATOM      9  C   UNL     1      60.435  33.597  15.770  1.00  0.00     0.000 C 
BRANCH   9  10
ATOM     10  C   UNL     1      61.647  33.105  16.581  1.00  0.00     0.006 C 
BRANCH  10  11
ATOM     11  C   UNL     1      62.122  34.145  17.604  1.00  0.00     0.053 C 
BRANCH  11  12
ATOM     12  C   UNL     1      61.776  33.745  19.006  1.00  0.00     0.041 C 
ATOM     13  O   UNL     1      62.639  33.824  19.919  1.00  0.00    -0.550 OA
ATOM     14  O   UNL     1      60.509  33.255  19.297  1.00  0.00    -0.550 OA
ENDBRANCH  11  12
ENDBRANCH  10  11
ENDBRANCH   9  10
ENDBRANCH   8   9
ENDBRANCH   7   8
ENDBRANCH   6   7
ENDBRANCH   5   6
ENDBRANCH   4   5
ENDBRANCH   3   4
ENDBRANCH   2   3
ENDBRANCH   1   2
BRANCH   1  15
ATOM     15  C   UNL     1      59.570  29.621  11.220  1.00  0.00     0.000 C 
BRANCH  15  16
ATOM     16  C   UNL     1      60.534  29.725  10.024  1.00  0.00     0.000 C 
BRANCH  16  17
ATOM     17  C   UNL     1      61.287  28.413   9.747  1.00  0.00     0.000 C 
BRANCH  17  18
ATOM     18  C   UNL     1      62.816  28.589   9.756  1.00  0.00    -0.000 C 
BRANCH  18  19
ATOM     19  C   UNL     1      63.277  30.001  10.175  1.00  0.00    -0.000 C 
BRANCH  19  20
ATOM     20  C   UNL     1      64.522  30.457   9.401  1.00  0.00    -0.000 C 
BRANCH  20  21
ATOM     21  C   UNL     1      64.952  31.867   9.829  1.00  0.00    -0.000 C 
BRANCH  21  22
ATOM     22  C   UNL     1      64.446  32.252  11.232  1.00  0.00    -0.000 C 
BRANCH  22  23
ATOM     23  C   UNL     1      65.256  33.351  11.943  1.00  0.00    -0.000 C 
BRANCH  23  24
ATOM     24  C   UNL     1      64.796  33.596  13.391  1.00  0.00    -0.000 C 
BRANCH  24  25
ATOM     25  C   UNL     1      65.743  32.963  14.424  1.00  0.00    -0.003 C 
ATOM     26  C   UNL     1      65.036  31.972  15.348  1.00  0.00     0.004 C 
ENDBRANCH  24  25
ENDBRANCH  23  24
ENDBRANCH  22  23
ENDBRANCH  21  22
ENDBRANCH  20  21
ENDBRANCH  19  20
ENDBRANCH  18  19
ENDBRANCH  17  18
ENDBRANCH  16  17
ENDBRANCH  15  16
ENDBRANCH   1  15
TORSDOF 22
ENDMDL
MODEL 2
REMARK VINA RESULT:    -4.542      1.626      4.178
REMARK INTER + INTRA:         -14.047
REMARK INTER:                 -10.673
REMARK INTRA:                  -3.373
REMARK UNBOUND:                -3.662
REMARK SMILES CCCCCCCCCCCCCCCCCCCCCCCC(=O)[O-]
REMARK SMILES IDX 13 1 14 2 15 3 16 4 17 5 18 6 19 7 20 8 21 9 22 10 23 11
REMARK SMILES IDX 24 12 25 13 26 14 12 15 11 16 10 17 9 18 8 19 7 20 6 21 5 22
REMARK SMILES IDX 4 23 3 24 2 25 1 26
REMARK H PARENT
REMARK Flexibility Score: inf
ROOT
ATOM      1  C   UNL     1      62.001  29.255   8.932  1.00  0.00     0.000 C 
ENDROOT
BRANCH   1   2
ATOM      2  C   UNL     1      60.935  28.229   9.363  1.00  0.00     0.000 C 
BRANCH   2   3
ATOM      3  C   UNL     1      59.558  28.827   9.716  1.00  0.00     0.000 C 
BRANCH   3   4
ATOM      4  C   UNL     1      59.278  28.970  11.223  1.00  0.00     0.000 C 
BRANCH   4   5
ATOM      5  C   UNL     1      60.062  27.957  12.076  1.00  0.00     0.000 C 
BRANCH   5   6
ATOM      6  C   UNL     1      60.700  28.610  13.321  1.00  0.00     0.000 C 
BRANCH   6   7
ATOM      7  C   UNL     1      62.238  28.576  13.322  1.00  0.00     0.000 C 
BRANCH   7   8
ATOM      8  C   UNL     1      62.866  29.979  13.360  1.00  0.00     0.000 C 
BRANCH   8   9
ATOM      9  C   UNL     1      62.202  30.953  12.374  1.00  0.00     0.000 C 
BRANCH   9  10
ATOM     10  C   UNL     1      61.665  32.222  13.061  1.00  0.00     0.006 C 
BRANCH  10  11
ATOM     11  C   UNL     1      60.132  32.278  13.060  1.00  0.00     0.053 C 
BRANCH  11  12
ATOM     12  C   UNL     1      59.566  32.030  14.426  1.00  0.00     0.041 C 
ATOM     13  O   UNL     1      58.450  31.462  14.555  1.00  0.00    -0.550 OA
ATOM     14  O   UNL     1      60.256  32.458  15.553  1.00  0.00    -0.550 OA
ENDBRANCH  11  12
ENDBRANCH  10  11
ENDBRANCH   9  10
ENDBRANCH   8   9
ENDBRANCH   7   8
ENDBRANCH   6   7
ENDBRANCH   5   6
ENDBRANCH   4   5
ENDBRANCH   3   4
ENDBRANCH   2   3
ENDBRANCH   1   2
BRANCH   1  15
ATOM     15  C   UNL     1      63.375  29.099   9.616  1.00  0.00     0.000 C 
BRANCH  15  16
ATOM     16  C   UNL     1      64.553  29.763   8.879  1.00  0.00     0.000 C 
BRANCH  16  17
ATOM     17  C   UNL     1      64.473  31.298   8.885  1.00  0.00     0.000 C 
BRANCH  17  18
ATOM     18  C   UNL     1      64.741  31.905  10.273  1.00  0.00    -0.000 C 
BRANCH  18  19
ATOM     19  C   UNL     1      66.092  32.644  10.379  1.00  0.00    -0.000 C 
BRANCH  19  20
ATOM     20  C   UNL     1      66.060  33.761  11.433  1.00  0.00    -0.000 C 
BRANCH  20  21
ATOM     21  C   UNL     1      64.910  33.549  12.427  1.00  0.00    -0.000 C 
BRANCH  21  22
ATOM     22  C   UNL     1      65.362  32.879  13.739  1.00  0.00    -0.000 C 
BRANCH  22  23
ATOM     23  C   UNL     1      65.200  33.740  15.005  1.00  0.00    -0.000 C 
BRANCH  23  24
ATOM     24  C   UNL     1      63.752  33.776  15.525  1.00  0.00    -0.000 C 
BRANCH  24  25
ATOM     25  C   UNL     1      63.679  33.768  17.061  1.00  0.00    -0.003 C 
ATOM     26  C   UNL     1      62.352  34.308  17.595  1.00  0.00     0.004 C 
ENDBRANCH  24  25
ENDBRANCH  23  24
ENDBRANCH  22  23
ENDBRANCH  21  22
ENDBRANCH  20  21
ENDBRANCH  19  20
ENDBRANCH  18  19
ENDBRANCH  17  18
ENDBRANCH  16  17
ENDBRANCH  15  16
ENDBRANCH   1  15
TORSDOF 22
ENDMDL
MODEL 3
REMARK VINA RESULT:    -4.522      2.761      6.742
REMARK INTER + INTRA:         -14.000
REMARK INTER:                 -10.375
REMARK INTRA:                  -3.625
REMARK UNBOUND:                -3.662
REMARK SMILES CCCCCCCCCCCCCCCCCCCCCCCC(=O)[O-]
REMARK SMILES IDX 13 1 14 2 15 3 16 4 17 5 18 6 19 7 20 8 21 9 22 10 23 11
REMARK SMILES IDX 24 12 25 13 26 14 12 15 11 16 10 17 9 18 8 19 7 20 6 21 5 22
REMARK SMILES IDX 4 23 3 24 2 25 1 26
REMARK H PARENT
REMARK Flexibility Score: inf
ROOT
ATOM      1  C   UNL     1      59.965  31.523  14.254  1.00  0.00     0.000 C 
ENDROOT
BRANCH   1   2
ATOM      2  C   UNL     1      60.673  32.214  13.072  1.00  0.00     0.000 C 
BRANCH   2   3
ATOM      3  C   UNL     1      61.870  31.439  12.485  1.00  0.00     0.000 C 
BRANCH   3   4
ATOM      4  C   UNL     1      62.299  30.197  13.288  1.00  0.00     0.000 C 
BRANCH   4   5
ATOM      5  C   UNL     1      63.089  29.182  12.442  1.00  0.00     0.000 C 
BRANCH   5   6
ATOM      6  C   UNL     1      63.412  29.722  11.032  1.00  0.00     0.000 C 
BRANCH   6   7
ATOM      7  C   UNL     1      63.099  28.730   9.900  1.00  0.00     0.000 C 
BRANCH   7   8
ATOM      8  C   UNL     1      61.728  28.977   9.251  1.00  0.00     0.000 C 
BRANCH   8   9
ATOM      9  C   UNL     1      60.677  27.940   9.674  1.00  0.00     0.000 C 
BRANCH   9  10
ATOM     10  C   UNL     1      59.327  28.578  10.048  1.00  0.00     0.006 C 
BRANCH  10  11
ATOM     11  C   UNL     1      59.319  29.120  11.483  1.00  0.00     0.053 C 
BRANCH  11  12
ATOM     12  C   UNL     1      59.028  28.043  12.483  1.00  0.00     0.041 C 
ATOM     13  O   UNL     1      57.864  27.577  12.592  1.00  0.00    -0.550 OA
ATOM     14  O   UNL     1      60.037  27.579  13.319  1.00  0.00    -0.550 OA
ENDBRANCH  11  12
ENDBRANCH  10  11
ENDBRANCH   9  10
ENDBRANCH   8   9
ENDBRANCH   7   8
ENDBRANCH   6   7
ENDBRANCH   5   6
ENDBRANCH   4   5
ENDBRANCH   3   4
ENDBRANCH   2   3
ENDBRANCH   1   2
BRANCH   1  15
ATOM     15  C   UNL     1      59.977  32.314  15.578  1.00  0.00     0.000 C 
BRANCH  15  16
ATOM     16  C   UNL     1      61.374  32.633  16.139  1.00  0.00     0.000 C 
BRANCH  16  17
ATOM     17  C   UNL     1      61.391  33.885  17.030  1.00  0.00     0.000 C 
BRANCH  17  18
ATOM     18  C   UNL     1      62.811  34.299  17.453  1.00  0.00    -0.000 C 
BRANCH  18  19
ATOM     19  C   UNL     1      63.454  33.352  18.488  1.00  0.00    -0.000 C 
BRANCH  19  20
ATOM     20  C   UNL     1      64.899  33.751  18.819  1.00  0.00    -0.000 C 
BRANCH  20  21
ATOM     21  C   UNL     1      65.901  32.776  18.184  1.00  0.00    -0.000 C 
BRANCH  21  22
ATOM     22  C   UNL     1      66.290  33.165  16.745  1.00  0.00    -0.000 C 
BRANCH  22  23
ATOM     23  C   UNL     1      66.210  32.025  15.713  1.00  0.00    -0.000 C 
BRANCH  23  24
ATOM     24  C   UNL     1      64.863  31.981  14.970  1.00  0.00    -0.000 C 
BRANCH  24  25
ATOM     25  C   UNL     1      64.521  33.319  14.293  1.00  0.00    -0.003 C 
ATOM     26  C   UNL     1      64.931  33.360  12.821  1.00  0.00     0.004 C 
ENDBRANCH  24  25
ENDBRANCH  23  24
ENDBRANCH  22  23
ENDBRANCH  21  22
ENDBRANCH  20  21
ENDBRANCH  19  20
ENDBRANCH  18  19
ENDBRANCH  17  18
ENDBRANCH  16  17
ENDBRANCH  15  16
ENDBRANCH   1  15
TORSDOF 22
ENDMDL
MODEL 4
REMARK VINA RESULT:    -4.484      1.460      3.515
REMARK INTER + INTRA:         -13.914
REMARK INTER:                 -10.373
REMARK INTRA:                  -3.541
REMARK UNBOUND:                -3.662
REMARK SMILES CCCCCCCCCCCCCCCCCCCCCCCC(=O)[O-]
REMARK SMILES IDX 13 1 14 2 15 3 16 4 17 5 18 6 19 7 20 8 21 9 22 10 23 11
REMARK SMILES IDX 24 12 25 13 26 14 12 15 11 16 10 17 9 18 8 19 7 20 6 21 5 22
REMARK SMILES IDX 4 23 3 24 2 25 1 26
REMARK H PARENT
REMARK Flexibility Score: inf
ROOT
ATOM      1  C   UNL     1      63.317  29.271  13.317  1.00  0.00     0.000 C 
ENDROOT
BRANCH   1   2
ATOM      2  C   UNL     1      63.064  30.486  14.231  1.00  0.00     0.000 C 
BRANCH   2   3
ATOM      3  C   UNL     1      62.847  31.824  13.494  1.00  0.00     0.000 C 
BRANCH   3   4
ATOM      4  C   UNL     1      61.702  31.822  12.465  1.00  0.00     0.000 C 
BRANCH   4   5
ATOM      5  C   UNL     1      60.394  32.407  13.026  1.00  0.00     0.000 C 
BRANCH   5   6
ATOM      6  C   UNL     1      60.593  33.065  14.408  1.00  0.00     0.000 C 
BRANCH   6   7
ATOM      7  C   UNL     1      60.270  32.137  15.591  1.00  0.00     0.000 C 
BRANCH   7   8
ATOM      8  C   UNL     1      60.742  32.703  16.940  1.00  0.00     0.000 C 
BRANCH   8   9
ATOM      9  C   UNL     1      61.772  33.831  16.782  1.00  0.00     0.000 C 
BRANCH   9  10
ATOM     10  C   UNL     1      63.224  33.327  16.869  1.00  0.00     0.006 C 
BRANCH  10  11
ATOM     11  C   UNL     1      64.105  34.242  17.731  1.00  0.00     0.053 C 
BRANCH  11  12
ATOM     12  C   UNL     1      64.189  33.760  19.147  1.00  0.00     0.041 C 
ATOM     13  O   UNL     1      65.131  33.006  19.505  1.00  0.00    -0.550 OA
ATOM     14  O   UNL     1      63.207  34.117  20.063  1.00  0.00    -0.550 OA
ENDBRANCH  11  12
ENDBRANCH  10  11
ENDBRANCH   9  10
ENDBRANCH   8   9
ENDBRANCH   7   8
ENDBRANCH   6   7
ENDBRANCH   5   6
ENDBRANCH   4   5
ENDBRANCH   3   4
ENDBRANCH   2   3
ENDBRANCH   1   2
BRANCH   1  15
ATOM     15  C   UNL     1      62.125  28.304  13.167  1.00  0.00     0.000 C 
BRANCH  15  16
ATOM     16  C   UNL     1      60.860  28.698  13.951  1.00  0.00     0.000 C 
BRANCH  16  17
ATOM     17  C   UNL     1      59.613  28.808  13.058  1.00  0.00     0.000 C 
BRANCH  17  18
ATOM     18  C   UNL     1      59.884  28.397  11.601  1.00  0.00    -0.000 C 
BRANCH  18  19
ATOM     19  C   UNL     1      59.482  29.470  10.567  1.00  0.00    -0.000 C 
BRANCH  19  20
ATOM     20  C   UNL     1      60.310  29.371   9.277  1.00  0.00    -0.000 C 
BRANCH  20  21
ATOM     21  C   UNL     1      61.527  28.456   9.471  1.00  0.00    -0.000 C 
BRANCH  21  22
ATOM     22  C   UNL     1      62.832  29.065   8.922  1.00  0.00    -0.000 C 
BRANCH  22  23
ATOM     23  C   UNL     1      63.659  29.872   9.939  1.00  0.00    -0.000 C 
BRANCH  23  24
ATOM     24  C   UNL     1      64.203  31.190   9.361  1.00  0.00    -0.000 C 
BRANCH  24  25
ATOM     25  C   UNL     1      64.846  32.082  10.435  1.00  0.00    -0.003 C 
ATOM     26  C   UNL     1      66.262  32.527  10.067  1.00  0.00     0.004 C 
ENDBRANCH  24  25
ENDBRANCH  23  24
ENDBRANCH  22  23
ENDBRANCH  21  22
ENDBRANCH  20  21
ENDBRANCH  19  20
ENDBRANCH  18  19
ENDBRANCH  17  18
ENDBRANCH  16  17
ENDBRANCH  15  16
ENDBRANCH   1  15
TORSDOF 22
ENDMDL
MODEL 5
REMARK VINA RESULT:    -4.483      1.470      2.481
REMARK INTER + INTRA:         -13.911
REMARK INTER:                 -10.115
REMARK INTRA:                  -3.796
REMARK UNBOUND:                -3.662
REMARK SMILES CCCCCCCCCCCCCCCCCCCCCCCC(=O)[O-]
REMARK SMILES IDX 13 1 14 2 15 3 16 4 17 5 18 6 19 7 20 8 21 9 22 10 23 11
REMARK SMILES IDX 24 12 25 13 26 14 12 15 11 16 10 17 9 18 8 19 7 20 6 21 5 22
REMARK SMILES IDX 4 23 3 24 2 25 1 26
REMARK H PARENT
REMARK Flexibility Score: inf
ROOT
ATOM      1  C   UNL     1      60.057  28.107  11.955  1.00  0.00     0.000 C 
ENDROOT
BRANCH   1   2
ATOM      2  C   UNL     1      60.289  28.910  13.250  1.00  0.00     0.000 C 
BRANCH   2   3
ATOM      3  C   UNL     1      59.660  30.318  13.267  1.00  0.00     0.000 C 
BRANCH   3   4
ATOM      4  C   UNL     1      60.100  31.213  14.439  1.00  0.00     0.000 C 
BRANCH   4   5
ATOM      5  C   UNL     1      59.946  32.714  14.136  1.00  0.00     0.000 C 
BRANCH   5   6
ATOM      6  C   UNL     1      60.647  33.599  15.189  1.00  0.00     0.000 C 
BRANCH   6   7
ATOM      7  C   UNL     1      60.981  32.862  16.497  1.00  0.00     0.000 C 
BRANCH   7   8
ATOM      8  C   UNL     1      61.369  33.817  17.638  1.00  0.00     0.000 C 
BRANCH   8   9
ATOM      9  C   UNL     1      62.792  34.376  17.485  1.00  0.00     0.000 C 
BRANCH   9  10
ATOM     10  C   UNL     1      63.865  33.442  18.075  1.00  0.00     0.006 C 
BRANCH  10  11
ATOM     11  C   UNL     1      64.713  34.138  19.147  1.00  0.00     0.053 C 
BRANCH  11  12
ATOM     12  C   UNL     1      64.257  33.789  20.531  1.00  0.00     0.041 C 
ATOM     13  O   UNL     1      63.088  34.073  20.904  1.00  0.00    -0.550 OA
ATOM     14  O   UNL     1      65.134  33.181  21.420  1.00  0.00    -0.550 OA
ENDBRANCH  11  12
ENDBRANCH  10  11
ENDBRANCH   9  10
ENDBRANCH   8   9
ENDBRANCH   7   8
ENDBRANCH   6   7
ENDBRANCH   5   6
ENDBRANCH   4   5
ENDBRANCH   3   4
ENDBRANCH   2   3
ENDBRANCH   1   2
BRANCH   1  15
ATOM     15  C   UNL     1      59.478  28.917  10.777  1.00  0.00     0.000 C 
BRANCH  15  16
ATOM     16  C   UNL     1      60.505  29.358   9.717  1.00  0.00     0.000 C 
BRANCH  16  17
ATOM     17  C   UNL     1      61.605  28.312   9.478  1.00  0.00     0.000 C 
BRANCH  17  18
ATOM     18  C   UNL     1      63.023  28.895   9.612  1.00  0.00    -0.000 C 
BRANCH  18  19
ATOM     19  C   UNL     1      63.347  29.426  11.024  1.00  0.00    -0.000 C 
BRANCH  19  20
ATOM     20  C   UNL     1      63.707  30.919  11.014  1.00  0.00    -0.000 C 
BRANCH  20  21
ATOM     21  C   UNL     1      63.088  31.644  12.217  1.00  0.00    -0.000 C 
BRANCH  21  22
ATOM     22  C   UNL     1      63.515  31.041  13.569  1.00  0.00    -0.000 C 
BRANCH  22  23
ATOM     23  C   UNL     1      64.187  32.026  14.544  1.00  0.00    -0.000 C 
BRANCH  23  24
ATOM     24  C   UNL     1      64.129  33.485  14.058  1.00  0.00    -0.000 C 
BRANCH  24  25
ATOM     25  C   UNL     1      65.224  34.358  14.692  1.00  0.00    -0.003 C 
ATOM     26  C   UNL     1      66.379  33.538  15.267  1.00  0.00     0.004 C 
ENDBRANCH  24  25
ENDBRANCH  23  24
ENDBRANCH  22  23
ENDBRANCH  21  22
ENDBRANCH  20  21
ENDBRANCH  19  20
ENDBRANCH  18  19
ENDBRANCH  17  18
ENDBRANCH  16  17
ENDBRANCH  15  16
ENDBRANCH   1  15
TORSDOF 22
ENDMDL
MODEL 6
REMARK VINA RESULT:    -4.428      1.224      3.555
REMARK INTER + INTRA:         -13.785
REMARK INTER:                 -10.207
REMARK INTRA:                  -3.578
REMARK UNBOUND:                -3.662
REMARK SMILES CCCCCCCCCCCCCCCCCCCCCCCC(=O)[O-]
REMARK SMILES IDX 13 1 14 2 15 3 16 4 17 5 18 6 19 7 20 8 21 9 22 10 23 11
REMARK SMILES IDX 24 12 25 13 26 14 12 15 11 16 10 17 9 18 8 19 7 20 6 21 5 22
REMARK SMILES IDX 4 23 3 24 2 25 1 26
REMARK H PARENT
REMARK Flexibility Score: inf
ROOT
ATOM      1  C   UNL     1      62.402  29.728  10.143  1.00  0.00     0.000 C 
ENDROOT
BRANCH   1   2
ATOM      2  C   UNL     1      61.761  28.330  10.048  1.00  0.00     0.000 C 
BRANCH   2   3
ATOM      3  C   UNL     1      60.219  28.317  10.053  1.00  0.00     0.000 C 
BRANCH   3   4
ATOM      4  C   UNL     1      59.561  29.470  10.833  1.00  0.00     0.000 C 
BRANCH   4   5
ATOM      5  C   UNL     1      59.400  29.162  12.332  1.00  0.00     0.000 C 
BRANCH   5   6
ATOM      6  C   UNL     1      59.430  30.441  13.198  1.00  0.00     0.000 C 
BRANCH   6   7
ATOM      7  C   UNL     1      60.207  31.605  12.561  1.00  0.00     0.000 C 
BRANCH   7   8
ATOM      8  C   UNL     1      60.306  32.831  13.482  1.00  0.00     0.000 C 
BRANCH   8   9
ATOM      9  C   UNL     1      60.427  32.450  14.966  1.00  0.00     0.000 C 
BRANCH   9  10
ATOM     10  C   UNL     1      61.316  33.424  15.760  1.00  0.00     0.006 C 
BRANCH  10  11
ATOM     11  C   UNL     1      61.759  32.838  17.107  1.00  0.00     0.053 C 
BRANCH  11  12
ATOM     12  C   UNL     1      61.892  33.897  18.158  1.00  0.00     0.041 C 
ATOM     13  O   UNL     1      60.972  34.740  18.328  1.00  0.00    -0.550 OA
ATOM     14  O   UNL     1      63.047  33.973  18.927  1.00  0.00    -0.550 OA
ENDBRANCH  11  12
ENDBRANCH  10  11
ENDBRANCH   9  10
ENDBRANCH   8   9
ENDBRANCH   7   8
ENDBRANCH   6   7
ENDBRANCH   5   6
ENDBRANCH   4   5
ENDBRANCH   3   4
ENDBRANCH   2   3
ENDBRANCH   1   2
BRANCH   1  15
ATOM     15  C   UNL     1      63.417  29.908  11.289  1.00  0.00     0.000 C 
BRANCH  15  16
ATOM     16  C   UNL     1      63.185  29.008  12.517  1.00  0.00     0.000 C 
BRANCH  16  17
ATOM     17  C   UNL     1      62.869  29.806  13.793  1.00  0.00     0.000 C 
BRANCH  17  18
ATOM     18  C   UNL     1      64.127  30.151  14.608  1.00  0.00    -0.000 C 
BRANCH  18  19
ATOM     19  C   UNL     1      64.444  31.661  14.656  1.00  0.00    -0.000 C 
BRANCH  19  20
ATOM     20  C   UNL     1      63.933  32.399  13.410  1.00  0.00    -0.000 C 
BRANCH  20  21
ATOM     21  C   UNL     1      64.926  33.482  12.964  1.00  0.00    -0.000 C 
BRANCH  21  22
ATOM     22  C   UNL     1      65.300  33.380  11.473  1.00  0.00    -0.000 C 
BRANCH  22  23
ATOM     23  C   UNL     1      66.809  33.309  11.179  1.00  0.00    -0.000 C 
BRANCH  23  24
ATOM     24  C   UNL     1      67.125  32.704   9.800  1.00  0.00    -0.000 C 
BRANCH  24  25
ATOM     25  C   UNL     1      65.913  31.990   9.180  1.00  0.00    -0.003 C 
ATOM     26  C   UNL     1      66.114  30.479   9.057  1.00  0.00     0.004 C 
ENDBRANCH  24  25
ENDBRANCH  23  24
ENDBRANCH  22  23
ENDBRANCH  21  22
ENDBRANCH  20  21
ENDBRANCH  19  20
ENDBRANCH  18  19
ENDBRANCH  17  18
ENDBRANCH  16  17
ENDBRANCH  15  16
ENDBRANCH   1  15
TORSDOF 22
ENDMDL
MODEL 7
REMARK VINA RESULT:    -4.426      1.674      5.326
REMARK INTER + INTRA:         -13.780
REMARK INTER:                 -10.114
REMARK INTRA:                  -3.666
REMARK UNBOUND:                -3.662
REMARK SMILES CCCCCCCCCCCCCCCCCCCCCCCC(=O)[O-]
REMARK SMILES IDX 13 1 14 2 15 3 16 4 17 5 18 6 19 7 20 8 21 9 22 10 23 11
REMARK SMILES IDX 24 12 25 13 26 14 12 15 11 16 10 17 9 18 8 19 7 20 6 21 5 22
REMARK SMILES IDX 4 23 3 24 2 25 1 26
REMARK H PARENT
REMARK Flexibility Score: inf
ROOT
ATOM      1  C   UNL     1      60.079  32.664  15.349  1.00  0.00     0.000 C 
ENDROOT
BRANCH   1   2
ATOM      2  C   UNL     1      61.320  32.516  16.252  1.00  0.00     0.000 C 
BRANCH   2   3
ATOM      3  C   UNL     1      62.283  33.721  16.239  1.00  0.00     0.000 C 
BRANCH   3   4
ATOM      4  C   UNL     1      63.589  33.502  15.454  1.00  0.00     0.000 C 
BRANCH   4   5
ATOM      5  C   UNL     1      64.160  32.083  15.629  1.00  0.00     0.000 C 
BRANCH   5   6
ATOM      6  C   UNL     1      65.672  32.020  15.321  1.00  0.00     0.000 C 
BRANCH   6   7
ATOM      7  C   UNL     1      66.461  33.240  15.825  1.00  0.00     0.000 C 
BRANCH   7   8
ATOM      8  C   UNL     1      66.898  33.104  17.293  1.00  0.00     0.000 C 
BRANCH   8   9
ATOM      9  C   UNL     1      66.178  34.095  18.220  1.00  0.00     0.000 C 
BRANCH   9  10
ATOM     10  C   UNL     1      64.998  33.456  18.974  1.00  0.00     0.006 C 
BRANCH  10  11
ATOM     11  C   UNL     1      64.621  34.245  20.235  1.00  0.00     0.053 C 
BRANCH  11  12
ATOM     12  C   UNL     1      63.341  33.750  20.838  1.00  0.00     0.041 C 
ATOM     13  O   UNL     1      63.325  33.309  22.017  1.00  0.00    -0.550 OA
ATOM     14  O   UNL     1      62.173  33.746  20.085  1.00  0.00    -0.550 OA
ENDBRANCH  11  12
ENDBRANCH  10  11
ENDBRANCH   9  10
ENDBRANCH   8   9
ENDBRANCH   7   8
ENDBRANCH   6   7
ENDBRANCH   5   6
ENDBRANCH   4   5
ENDBRANCH   3   4
ENDBRANCH   2   3
ENDBRANCH   1   2
BRANCH   1  15
ATOM     15  C   UNL     1      60.375  33.058  13.888  1.00  0.00     0.000 C 
BRANCH  15  16
ATOM     16  C   UNL     1      60.644  31.881  12.933  1.00  0.00     0.000 C 
BRANCH  16  17
ATOM     17  C   UNL     1      62.131  31.729  12.574  1.00  0.00     0.000 C 
BRANCH  17  18
ATOM     18  C   UNL     1      62.674  30.319  12.863  1.00  0.00    -0.000 C 
BRANCH  18  19
ATOM     19  C   UNL     1      61.790  29.496  13.823  1.00  0.00    -0.000 C 
BRANCH  19  20
ATOM     20  C   UNL     1      61.210  28.244  13.147  1.00  0.00    -0.000 C 
BRANCH  20  21
ATOM     21  C   UNL     1      59.685  28.352  13.001  1.00  0.00    -0.000 C 
BRANCH  21  22
ATOM     22  C   UNL     1      59.214  28.279  11.535  1.00  0.00    -0.000 C 
BRANCH  22  23
ATOM     23  C   UNL     1      59.912  29.255  10.572  1.00  0.00    -0.000 C 
BRANCH  23  24
ATOM     24  C   UNL     1      60.723  28.541   9.476  1.00  0.00    -0.000 C 
BRANCH  24  25
ATOM     25  C   UNL     1      61.974  29.333   9.061  1.00  0.00    -0.003 C 
ATOM     26  C   UNL     1      63.261  28.769   9.665  1.00  0.00     0.004 C 
ENDBRANCH  24  25
ENDBRANCH  23  24
ENDBRANCH  22  23
ENDBRANCH  21  22
ENDBRANCH  20  21
ENDBRANCH  19  20
ENDBRANCH  18  19
ENDBRANCH  17  18
ENDBRANCH  16  17
ENDBRANCH  15  16
ENDBRANCH   1  15
TORSDOF 22
ENDMDL
MODEL 8
REMARK VINA RESULT:    -4.360      2.201      5.838
REMARK INTER + INTRA:         -13.629
REMARK INTER:                 -10.130
REMARK INTRA:                  -3.499
REMARK UNBOUND:                -3.662
REMARK SMILES CCCCCCCCCCCCCCCCCCCCCCCC(=O)[O-]
REMARK SMILES IDX 13 1 14 2 15 3 16 4 17 5 18 6 19 7 20 8 21 9 22 10 23 11
REMARK SMILES IDX 24 12 25 13 26 14 12 15 11 16 10 17 9 18 8 19 7 20 6 21 5 22
REMARK SMILES IDX 4 23 3 24 2 25 1 26
REMARK H PARENT
REMARK Flexibility Score: inf
ROOT
ATOM      1  C   UNL     1      59.975  32.809  14.726  1.00  0.00     0.000 C 
ENDROOT
BRANCH   1   2
ATOM      2  C   UNL     1      60.836  32.555  15.978  1.00  0.00     0.000 C 
BRANCH   2   3
ATOM      3  C   UNL     1      61.292  33.825  16.726  1.00  0.00     0.000 C 
BRANCH   3   4
ATOM      4  C   UNL     1      60.789  33.942  18.176  1.00  0.00     0.000 C 
BRANCH   4   5
ATOM      5  C   UNL     1      61.835  33.487  19.210  1.00  0.00     0.000 C 
BRANCH   5   6
ATOM      6  C   UNL     1      63.250  33.379  18.602  1.00  0.00     0.000 C 
BRANCH   6   7
ATOM      7  C   UNL     1      64.335  34.098  19.420  1.00  0.00     0.000 C 
BRANCH   7   8
ATOM      8  C   UNL     1      65.240  34.992  18.556  1.00  0.00     0.000 C 
BRANCH   8   9
ATOM      9  C   UNL     1      64.508  35.574  17.337  1.00  0.00     0.000 C 
BRANCH   9  10
ATOM     10  C   UNL     1      65.276  35.355  16.021  1.00  0.00     0.006 C 
BRANCH  10  11
ATOM     11  C   UNL     1      66.145  34.090  16.060  1.00  0.00     0.053 C 
BRANCH  11  12
ATOM     12  C   UNL     1      65.557  32.986  15.234  1.00  0.00     0.041 C 
ATOM     13  O   UNL     1      64.899  32.065  15.784  1.00  0.00    -0.550 OA
ATOM     14  O   UNL     1      65.766  32.959  13.861  1.00  0.00    -0.550 OA
ENDBRANCH  11  12
ENDBRANCH  10  11
ENDBRANCH   9  10
ENDBRANCH   8   9
ENDBRANCH   7   8
ENDBRANCH   6   7
ENDBRANCH   5   6
ENDBRANCH   4   5
ENDBRANCH   3   4
ENDBRANCH   2   3
ENDBRANCH   1   2
BRANCH   1  15
ATOM     15  C   UNL     1      60.735  32.753  13.385  1.00  0.00     0.000 C 
BRANCH  15  16
ATOM     16  C   UNL     1      62.250  32.507  13.501  1.00  0.00     0.000 C 
BRANCH  16  17
ATOM     17  C   UNL     1      62.782  31.533  12.436  1.00  0.00     0.000 C 
BRANCH  17  18
ATOM     18  C   UNL     1      63.372  30.248  13.043  1.00  0.00    -0.000 C 
BRANCH  18  19
ATOM     19  C   UNL     1      62.400  29.501  13.981  1.00  0.00    -0.000 C 
BRANCH  19  20
ATOM     20  C   UNL     1      61.770  28.274  13.304  1.00  0.00    -0.000 C 
BRANCH  20  21
ATOM     21  C   UNL     1      60.246  28.423  13.201  1.00  0.00    -0.000 C 
BRANCH  21  22
ATOM     22  C   UNL     1      59.810  29.441  12.129  1.00  0.00    -0.000 C 
BRANCH  22  23
ATOM     23  C   UNL     1      59.339  28.829  10.797  1.00  0.00    -0.000 C 
BRANCH  23  24
ATOM     24  C   UNL     1      60.495  28.269   9.950  1.00  0.00    -0.000 C 
BRANCH  24  25
ATOM     25  C   UNL     1      61.571  29.326   9.653  1.00  0.00    -0.003 C 
ATOM     26  C   UNL     1      62.992  28.770   9.752  1.00  0.00     0.004 C 
ENDBRANCH  24  25
ENDBRANCH  23  24
ENDBRANCH  22  23
ENDBRANCH  21  22
ENDBRANCH  20  21
ENDBRANCH  19  20
ENDBRANCH  18  19
ENDBRANCH  17  18
ENDBRANCH  16  17
ENDBRANCH  15  16
ENDBRANCH   1  15
TORSDOF 22
ENDMDL
MODEL 9
REMARK VINA RESULT:    -4.326      2.816      6.461
REMARK INTER + INTRA:         -13.553
REMARK INTER:                  -9.618
REMARK INTRA:                  -3.935
REMARK UNBOUND:                -3.662
REMARK SMILES CCCCCCCCCCCCCCCCCCCCCCCC(=O)[O-]
REMARK SMILES IDX 13 1 14 2 15 3 16 4 17 5 18 6 19 7 20 8 21 9 22 10 23 11
REMARK SMILES IDX 24 12 25 13 26 14 12 15 11 16 10 17 9 18 8 19 7 20 6 21 5 22
REMARK SMILES IDX 4 23 3 24 2 25 1 26
REMARK H PARENT
REMARK Flexibility Score: inf
ROOT
ATOM      1  C   UNL     1      60.418  30.771  15.354  1.00  0.00     0.000 C 
ENDROOT
BRANCH   1   2
ATOM      2  C   UNL     1      61.490  29.781  14.859  1.00  0.00     0.000 C 
BRANCH   2   3
ATOM      3  C   UNL     1      62.873  30.404  14.575  1.00  0.00     0.000 C 
BRANCH   3   4
ATOM      4  C   UNL     1      63.366  30.259  13.124  1.00  0.00     0.000 C 
BRANCH   4   5
ATOM      5  C   UNL     1      63.090  31.511  12.271  1.00  0.00     0.000 C 
BRANCH   5   6
ATOM      6  C   UNL     1      64.127  31.689  11.141  1.00  0.00     0.000 C 
BRANCH   6   7
ATOM      7  C   UNL     1      63.682  31.104   9.790  1.00  0.00     0.000 C 
BRANCH   7   8
ATOM      8  C   UNL     1      64.132  29.647   9.594  1.00  0.00     0.000 C 
BRANCH   8   9
ATOM      9  C   UNL     1      62.965  28.707   9.255  1.00  0.00     0.000 C 
BRANCH   9  10
ATOM     10  C   UNL     1      61.627  29.180   9.850  1.00  0.00     0.006 C 
BRANCH  10  11
ATOM     11  C   UNL     1      61.170  28.302  11.022  1.00  0.00     0.053 C 
BRANCH  11  12
ATOM     12  C   UNL     1      59.865  28.768  11.591  1.00  0.00     0.041 C 
ATOM     13  O   UNL     1      59.302  29.794  11.128  1.00  0.00    -0.550 OA
ATOM     14  O   UNL     1      59.287  28.086  12.656  1.00  0.00    -0.550 OA
ENDBRANCH  11  12
ENDBRANCH  10  11
ENDBRANCH   9  10
ENDBRANCH   8   9
ENDBRANCH   7   8
ENDBRANCH   6   7
ENDBRANCH   5   6
ENDBRANCH   4   5
ENDBRANCH   3   4
ENDBRANCH   2   3
ENDBRANCH   1   2
BRANCH   1  15
ATOM     15  C   UNL     1      59.677  31.544  14.245  1.00  0.00     0.000 C 
BRANCH  15  16
ATOM     16  C   UNL     1      60.015  33.043  14.152  1.00  0.00     0.000 C 
BRANCH  16  17
ATOM     17  C   UNL     1      61.052  33.489  15.197  1.00  0.00     0.000 C 
BRANCH  17  18
ATOM     18  C   UNL     1      60.418  34.226  16.390  1.00  0.00    -0.000 C 
BRANCH  18  19
ATOM     19  C   UNL     1      61.098  33.921  17.741  1.00  0.00    -0.000 C 
BRANCH  19  20
ATOM     20  C   UNL     1      62.385  33.100  17.570  1.00  0.00    -0.000 C 
BRANCH  20  21
ATOM     21  C   UNL     1      63.593  33.837  18.166  1.00  0.00    -0.000 C 
BRANCH  21  22
ATOM     22  C   UNL     1      64.767  33.968  17.176  1.00  0.00    -0.000 C 
BRANCH  22  23
ATOM     23  C   UNL     1      65.172  32.666  16.462  1.00  0.00    -0.000 C 
BRANCH  23  24
ATOM     24  C   UNL     1      65.557  32.883  14.988  1.00  0.00    -0.000 C 
BRANCH  24  25
ATOM     25  C   UNL     1      64.752  34.016  14.332  1.00  0.00    -0.003 C 
ATOM     26  C   UNL     1      65.639  35.140  13.796  1.00  0.00     0.004 C 
ENDBRANCH  24  25
ENDBRANCH  23  24
ENDBRANCH  22  23
ENDBRANCH  21  22
ENDBRANCH  20  21
ENDBRANCH  19  20
ENDBRANCH  18  19
ENDBRANCH  17  18
ENDBRANCH  16  17
ENDBRANCH  15  16
ENDBRANCH   1  15
TORSDOF 22
ENDMDL
