MODEL 1
REMARK VINA RESULT:    -4.259      0.000      0.000
REMARK INTER + INTRA:          -9.422
REMARK INTER:                  -7.745
REMARK INTRA:                  -1.676
REMARK UNBOUND:                -1.676
REMARK SMILES CCCCCCCCCCCCCCCC(=O)[O-]
REMARK SMILES IDX 9 1 10 2 11 3 12 4 13 5 14 6 15 7 16 8 17 9 18 10 8 11 7 12
REMARK SMILES IDX 6 13 5 14 4 15 3 16 2 17 1 18
REMARK H PARENT
REMARK Flexibility Score: inf
ROOT
ATOM      1  C   UNL     1      26.004  -0.322 102.459  1.00  0.00     0.000 C 
ENDROOT
BRANCH   1   2
ATOM      2  C   UNL     1      26.255   0.909 103.341  1.00  0.00     0.000 C 
BRANCH   2   3
ATOM      3  C   UNL     1      26.239   2.230 102.549  1.00  0.00     0.000 C 
BRANCH   3   4
ATOM      4  C   UNL     1      25.487   3.387 103.233  1.00  0.00     0.000 C 
BRANCH   4   5
ATOM      5  C   UNL     1      25.174   4.546 102.271  1.00  0.00     0.000 C 
BRANCH   5   6
ATOM      6  C   UNL     1      23.715   5.027 102.376  1.00  0.00     0.006 C 
BRANCH   6   7
ATOM      7  C   UNL     1      23.018   5.224 101.020  1.00  0.00     0.053 C 
BRANCH   7   8
ATOM      8  C   UNL     1      21.527   5.287 101.158  1.00  0.00     0.041 C 
ATOM      9  O   UNL     1      20.788   5.011 100.177  1.00  0.00    -0.550 OA
ATOM     10  O   UNL     1      20.955   5.680 102.362  1.00  0.00    -0.550 OA
ENDBRANCH   7   8
ENDBRANCH   6   7
ENDBRANCH   5   6
ENDBRANCH   4   5
ENDBRANCH   3   4
ENDBRANCH   2   3
ENDBRANCH   1   2
BRANCH   1  11
ATOM     11  C   UNL     1      24.684  -1.009 102.837  1.00  0.00     0.000 C 
BRANCH  11  12
ATOM     12  C   UNL     1      23.633  -0.023 103.372  1.00  0.00    -0.000 C 
BRANCH  12  13
ATOM     13  C   UNL     1      22.667   0.462 102.278  1.00  0.00    -0.000 C 
BRANCH  13  14
ATOM     14  C   UNL     1      21.907   1.742 102.673  1.00  0.00    -0.000 C 
BRANCH  14  15
ATOM     15  C   UNL     1      21.496   1.828 104.155  1.00  0.00    -0.000 C 
BRANCH  15  16
ATOM     16  C   UNL     1      21.479   3.267 104.690  1.00  0.00    -0.000 C 
BRANCH  16  17
ATOM     17  C   UNL     1      20.364   3.453 105.726  1.00  0.00    -0.003 C 
ATOM     18  C   UNL     1      19.547   2.175 105.892  1.00  0.00     0.004 C 
ENDBRANCH  16  17
ENDBRANCH  15  16
ENDBRANCH  14  15
ENDBRANCH  13  14
ENDBRANCH  12  13
ENDBRANCH  11  12
ENDBRANCH   1  11
TORSDOF 14
ENDMDL
MODEL 2
REMARK VINA RESULT:    -4.163      1.456      4.400
REMARK INTER + INTRA:          -9.246
REMARK INTER:                  -7.856
REMARK INTRA:                  -1.390
REMARK UNBOUND:                -1.676
REMARK SMILES CCCCCCCCCCCCCCCC(=O)[O-]
REMARK SMILES IDX 9 1 10 2 11 3 12 4 13 5 14 6 15 7 16 8 17 9 18 10 8 11 7 12
REMARK SMILES IDX 6 13 5 14 4 15 3 16 2 17 1 18
REMARK H PARENT
REMARK Flexibility Score: inf
ROOT
ATOM      1  C   UNL     1      22.722   0.267 103.262  1.00  0.00     0.000 C 
ENDROOT
BRANCH   1   2
ATOM      2  C   UNL     1      22.155   1.664 102.971  1.00  0.00     0.000 C 
BRANCH   2   3
ATOM      3  C   UNL     1      21.314   2.226 104.133  1.00  0.00     0.000 C 
BRANCH   3   4
ATOM      4  C   UNL     1      21.702   3.645 104.587  1.00  0.00     0.000 C 
BRANCH   4   5
ATOM      5  C   UNL     1      22.403   4.455 103.482  1.00  0.00     0.000 C 
BRANCH   5   6
ATOM      6  C   UNL     1      21.412   5.212 102.580  1.00  0.00     0.006 C 
BRANCH   6   7
ATOM      7  C   UNL     1      21.675   5.044 101.075  1.00  0.00     0.053 C 
BRANCH   7   8
ATOM      8  C   UNL     1      22.428   6.206 100.502  1.00  0.00     0.041 C 
ATOM      9  O   UNL     1      21.850   7.020  99.736  1.00  0.00    -0.550 OA
ATOM     10  O   UNL     1      23.777   6.372 100.790  1.00  0.00    -0.550 OA
ENDBRANCH   7   8
ENDBRANCH   6   7
ENDBRANCH   5   6
ENDBRANCH   4   5
ENDBRANCH   3   4
ENDBRANCH   2   3
ENDBRANCH   1   2
BRANCH   1  11
ATOM     11  C   UNL     1      24.247   0.244 103.078  1.00  0.00     0.000 C 
BRANCH  11  12
ATOM     12  C   UNL     1      24.911  -0.959 103.768  1.00  0.00    -0.000 C 
BRANCH  12  13
ATOM     13  C   UNL     1      26.395  -1.109 103.394  1.00  0.00    -0.000 C 
BRANCH  13  14
ATOM     14  C   UNL     1      27.241   0.114 103.793  1.00  0.00    -0.000 C 
BRANCH  14  15
ATOM     15  C   UNL     1      28.011   0.783 102.639  1.00  0.00    -0.000 C 
BRANCH  15  16
ATOM     16  C   UNL     1      27.280   2.001 102.057  1.00  0.00    -0.000 C 
BRANCH  16  17
ATOM     17  C   UNL     1      26.641   2.840 103.170  1.00  0.00    -0.003 C 
ATOM     18  C   UNL     1      25.767   3.949 102.590  1.00  0.00     0.004 C 
ENDBRANCH  16  17
ENDBRANCH  15  16
ENDBRANCH  14  15
ENDBRANCH  13  14
ENDBRANCH  12  13
ENDBRANCH  11  12
ENDBRANCH   1  11
TORSDOF 14
ENDMDL
MODEL 3
REMARK VINA RESULT:    -4.049      2.175      5.166
REMARK INTER + INTRA:          -9.038
REMARK INTER:                  -7.264
REMARK INTRA:                  -1.774
REMARK UNBOUND:                -1.676
REMARK SMILES CCCCCCCCCCCCCCCC(=O)[O-]
REMARK SMILES IDX 9 1 10 2 11 3 12 4 13 5 14 6 15 7 16 8 17 9 18 10 8 11 7 12
REMARK SMILES IDX 6 13 5 14 4 15 3 16 2 17 1 18
REMARK H PARENT
REMARK Flexibility Score: inf
ROOT
ATOM      1  C   UNL     1      24.852  -1.758 103.966  1.00  0.00     0.000 C 
ENDROOT
BRANCH   1   2
ATOM      2  C   UNL     1      24.108  -2.081 102.662  1.00  0.00     0.000 C 
BRANCH   2   3
ATOM      3  C   UNL     1      23.368  -0.866 102.074  1.00  0.00     0.000 C 
BRANCH   3   4
ATOM      4  C   UNL     1      23.247   0.341 103.022  1.00  0.00     0.000 C 
BRANCH   4   5
ATOM      5  C   UNL     1      22.055   1.252 102.681  1.00  0.00     0.000 C 
BRANCH   5   6
ATOM      6  C   UNL     1      22.200   2.666 103.271  1.00  0.00     0.006 C 
BRANCH   6   7
ATOM      7  C   UNL     1      21.360   2.910 104.535  1.00  0.00     0.053 C 
BRANCH   7   8
ATOM      8  C   UNL     1      21.295   4.364 104.895  1.00  0.00     0.041 C 
ATOM      9  O   UNL     1      21.027   5.223 104.015  1.00  0.00    -0.550 OA
ATOM     10  O   UNL     1      21.562   4.772 106.196  1.00  0.00    -0.550 OA
ENDBRANCH   7   8
ENDBRANCH   6   7
ENDBRANCH   5   6
ENDBRANCH   4   5
ENDBRANCH   3   4
ENDBRANCH   2   3
ENDBRANCH   1   2
BRANCH   1  11
ATOM     11  C   UNL     1      26.195  -2.499 104.032  1.00  0.00     0.000 C 
BRANCH  11  12
ATOM     12  C   UNL     1      27.335  -1.618 104.568  1.00  0.00    -0.000 C 
BRANCH  12  13
ATOM     13  C   UNL     1      26.878  -0.181 104.872  1.00  0.00    -0.000 C 
BRANCH  13  14
ATOM     14  C   UNL     1      27.733   0.884 104.161  1.00  0.00    -0.000 C 
BRANCH  14  15
ATOM     15  C   UNL     1      26.949   1.857 103.260  1.00  0.00    -0.000 C 
BRANCH  15  16
ATOM     16  C   UNL     1      27.426   1.839 101.800  1.00  0.00    -0.000 C 
BRANCH  16  17
ATOM     17  C   UNL     1      27.941   0.449 101.409  1.00  0.00    -0.003 C 
ATOM     18  C   UNL     1      26.841  -0.382 100.754  1.00  0.00     0.004 C 
ENDBRANCH  16  17
ENDBRANCH  15  16
ENDBRANCH  14  15
ENDBRANCH  13  14
ENDBRANCH  12  13
ENDBRANCH  11  12
ENDBRANCH   1  11
TORSDOF 14
ENDMDL
MODEL 4
REMARK VINA RESULT:    -3.929      3.135      6.349
REMARK INTER + INTRA:          -8.821
REMARK INTER:                  -7.380
REMARK INTRA:                  -1.441
REMARK UNBOUND:                -1.676
REMARK SMILES CCCCCCCCCCCCCCCC(=O)[O-]
REMARK SMILES IDX 9 1 10 2 11 3 12 4 13 5 14 6 15 7 16 8 17 9 18 10 8 11 7 12
REMARK SMILES IDX 6 13 5 14 4 15 3 16 2 17 1 18
REMARK H PARENT
REMARK Flexibility Score: inf
ROOT
ATOM      1  C   UNL     1      23.821   4.885 102.139  1.00  0.00     0.000 C 
ENDROOT
BRANCH   1   2
ATOM      2  C   UNL     1      22.362   4.503 102.429  1.00  0.00     0.000 C 
BRANCH   2   3
ATOM      3  C   UNL     1      22.124   4.103 103.897  1.00  0.00     0.000 C 
BRANCH   3   4
ATOM      4  C   UNL     1      21.646   2.655 104.105  1.00  0.00     0.000 C 
BRANCH   4   5
ATOM      5  C   UNL     1      21.820   1.782 102.850  1.00  0.00     0.000 C 
BRANCH   5   6
ATOM      6  C   UNL     1      22.880   0.681 103.034  1.00  0.00     0.006 C 
BRANCH   6   7
ATOM      7  C   UNL     1      22.867  -0.395 101.937  1.00  0.00     0.053 C 
BRANCH   7   8
ATOM      8  C   UNL     1      23.638  -1.617 102.338  1.00  0.00     0.041 C 
ATOM      9  O   UNL     1      24.424  -1.575 103.320  1.00  0.00    -0.550 OA
ATOM     10  O   UNL     1      23.510  -2.792 101.607  1.00  0.00    -0.550 OA
ENDBRANCH   7   8
ENDBRANCH   6   7
ENDBRANCH   5   6
ENDBRANCH   4   5
ENDBRANCH   3   4
ENDBRANCH   2   3
ENDBRANCH   1   2
BRANCH   1  11
ATOM     11  C   UNL     1      24.729   4.521 103.323  1.00  0.00     0.000 C 
BRANCH  11  12
ATOM     12  C   UNL     1      25.782   3.460 102.961  1.00  0.00    -0.000 C 
BRANCH  12  13
ATOM     13  C   UNL     1      27.076   3.610 103.779  1.00  0.00    -0.000 C 
BRANCH  13  14
ATOM     14  C   UNL     1      27.951   2.343 103.755  1.00  0.00    -0.000 C 
BRANCH  14  15
ATOM     15  C   UNL     1      27.384   1.172 102.931  1.00  0.00    -0.000 C 
BRANCH  15  16
ATOM     16  C   UNL     1      27.651  -0.198 103.573  1.00  0.00    -0.000 C 
BRANCH  16  17
ATOM     17  C   UNL     1      27.332  -0.172 105.072  1.00  0.00    -0.003 C 
ATOM     18  C   UNL     1      28.458  -0.803 105.886  1.00  0.00     0.004 C 
ENDBRANCH  16  17
ENDBRANCH  15  16
ENDBRANCH  14  15
ENDBRANCH  13  14
ENDBRANCH  12  13
ENDBRANCH  11  12
ENDBRANCH   1  11
TORSDOF 14
ENDMDL
MODEL 5
REMARK VINA RESULT:    -3.886      5.660      6.992
REMARK INTER + INTRA:          -8.743
REMARK INTER:                  -7.935
REMARK INTRA:                  -0.808
REMARK UNBOUND:                -1.676
REMARK SMILES CCCCCCCCCCCCCCCC(=O)[O-]
REMARK SMILES IDX 9 1 10 2 11 3 12 4 13 5 14 6 15 7 16 8 17 9 18 10 8 11 7 12
REMARK SMILES IDX 6 13 5 14 4 15 3 16 2 17 1 18
REMARK H PARENT
REMARK Flexibility Score: inf
ROOT
ATOM      1  C   UNL     1      29.446   2.956 104.084  1.00  0.00     0.000 C 
ENDROOT
BRANCH   1   2
ATOM      2  C   UNL     1      29.592   4.445 104.435  1.00  0.00     0.000 C 
BRANCH   2   3
ATOM      3  C   UNL     1      30.958   5.028 104.028  1.00  0.00     0.000 C 
BRANCH   3   4
ATOM      4  C   UNL     1      32.156   4.085 104.244  1.00  0.00     0.000 C 
BRANCH   4   5
ATOM      5  C   UNL     1      33.141   4.091 103.062  1.00  0.00     0.000 C 
BRANCH   5   6
ATOM      6  C   UNL     1      32.556   4.760 101.805  1.00  0.00     0.006 C 
BRANCH   6   7
ATOM      7  C   UNL     1      33.145   4.240 100.483  1.00  0.00     0.053 C 
BRANCH   7   8
ATOM      8  C   UNL     1      32.183   3.355  99.749  1.00  0.00     0.041 C 
ATOM      9  O   UNL     1      31.433   2.570 100.385  1.00  0.00    -0.550 OA
ATOM     10  O   UNL     1      32.138   3.377  98.360  1.00  0.00    -0.550 OA
ENDBRANCH   7   8
ENDBRANCH   6   7
ENDBRANCH   5   6
ENDBRANCH   4   5
ENDBRANCH   3   4
ENDBRANCH   2   3
ENDBRANCH   1   2
BRANCH   1  11
ATOM     11  C   UNL     1      28.086   2.677 103.429  1.00  0.00     0.000 C 
BRANCH  11  12
ATOM     12  C   UNL     1      27.025   3.730 103.791  1.00  0.00    -0.000 C 
BRANCH  12  13
ATOM     13  C   UNL     1      25.705   3.525 103.028  1.00  0.00    -0.000 C 
BRANCH  13  14
ATOM     14  C   UNL     1      24.727   4.702 103.195  1.00  0.00    -0.000 C 
BRANCH  14  15
ATOM     15  C   UNL     1      23.325   4.478 102.597  1.00  0.00    -0.000 C 
BRANCH  15  16
ATOM     16  C   UNL     1      22.359   3.791 103.573  1.00  0.00    -0.000 C 
BRANCH  16  17
ATOM     17  C   UNL     1      21.407   4.811 104.210  1.00  0.00    -0.003 C 
ATOM     18  C   UNL     1      21.680   4.960 105.704  1.00  0.00     0.004 C 
ENDBRANCH  16  17
ENDBRANCH  15  16
ENDBRANCH  14  15
ENDBRANCH  13  14
ENDBRANCH  12  13
ENDBRANCH  11  12
ENDBRANCH   1  11
TORSDOF 14
ENDMDL
MODEL 6
REMARK VINA RESULT:    -3.885      3.939      6.149
REMARK INTER + INTRA:          -8.741
REMARK INTER:                  -7.621
REMARK INTRA:                  -1.120
REMARK UNBOUND:                -1.676
REMARK SMILES CCCCCCCCCCCCCCCC(=O)[O-]
REMARK SMILES IDX 9 1 10 2 11 3 12 4 13 5 14 6 15 7 16 8 17 9 18 10 8 11 7 12
REMARK SMILES IDX 6 13 5 14 4 15 3 16 2 17 1 18
REMARK H PARENT
REMARK Flexibility Score: inf
ROOT
ATOM      1  C   UNL     1      25.205  -2.246 102.759  1.00  0.00     0.000 C 
ENDROOT
BRANCH   1   2
ATOM      2  C   UNL     1      24.495  -1.150 103.569  1.00  0.00     0.000 C 
BRANCH   2   3
ATOM      3  C   UNL     1      23.980   0.007 102.693  1.00  0.00     0.000 C 
BRANCH   3   4
ATOM      4  C   UNL     1      22.500   0.374 102.908  1.00  0.00     0.000 C 
BRANCH   4   5
ATOM      5  C   UNL     1      22.249   1.891 102.867  1.00  0.00     0.000 C 
BRANCH   5   6
ATOM      6  C   UNL     1      21.505   2.404 104.114  1.00  0.00     0.006 C 
BRANCH   6   7
ATOM      7  C   UNL     1      21.747   3.890 104.425  1.00  0.00     0.053 C 
BRANCH   7   8
ATOM      8  C   UNL     1      21.002   4.337 105.646  1.00  0.00     0.041 C 
ATOM      9  O   UNL     1      21.467   5.256 106.371  1.00  0.00    -0.550 OA
ATOM     10  O   UNL     1      19.810   3.718 106.000  1.00  0.00    -0.550 OA
ENDBRANCH   7   8
ENDBRANCH   6   7
ENDBRANCH   5   6
ENDBRANCH   4   5
ENDBRANCH   3   4
ENDBRANCH   2   3
ENDBRANCH   1   2
BRANCH   1  11
ATOM     11  C   UNL     1      24.386  -3.544 102.755  1.00  0.00     0.000 C 
BRANCH  11  12
ATOM     12  C   UNL     1      23.719  -3.821 101.397  1.00  0.00    -0.000 C 
BRANCH  12  13
ATOM     13  C   UNL     1      22.256  -3.350 101.351  1.00  0.00    -0.000 C 
BRANCH  13  14
ATOM     14  C   UNL     1      21.268  -4.407 101.879  1.00  0.00    -0.000 C 
BRANCH  14  15
ATOM     15  C   UNL     1      21.683  -5.870 101.637  1.00  0.00    -0.000 C 
BRANCH  15  16
ATOM     16  C   UNL     1      21.014  -6.486 100.400  1.00  0.00    -0.000 C 
BRANCH  16  17
ATOM     17  C   UNL     1      21.886  -6.298  99.153  1.00  0.00    -0.003 C 
ATOM     18  C   UNL     1      21.296  -5.243  98.222  1.00  0.00     0.004 C 
ENDBRANCH  16  17
ENDBRANCH  15  16
ENDBRANCH  14  15
ENDBRANCH  13  14
ENDBRANCH  12  13
ENDBRANCH  11  12
ENDBRANCH   1  11
TORSDOF 14
ENDMDL
MODEL 7
REMARK VINA RESULT:    -3.876      3.718      5.770
REMARK INTER + INTRA:          -8.724
REMARK INTER:                  -7.568
REMARK INTRA:                  -1.156
REMARK UNBOUND:                -1.676
REMARK SMILES CCCCCCCCCCCCCCCC(=O)[O-]
REMARK SMILES IDX 9 1 10 2 11 3 12 4 13 5 14 6 15 7 16 8 17 9 18 10 8 11 7 12
REMARK SMILES IDX 6 13 5 14 4 15 3 16 2 17 1 18
REMARK H PARENT
REMARK Flexibility Score: inf
ROOT
ATOM      1  C   UNL     1      24.529  -2.004 102.838  1.00  0.00     0.000 C 
ENDROOT
BRANCH   1   2
ATOM      2  C   UNL     1      23.916  -0.772 102.157  1.00  0.00     0.000 C 
BRANCH   2   3
ATOM      3  C   UNL     1      23.359   0.256 103.160  1.00  0.00     0.000 C 
BRANCH   3   4
ATOM      4  C   UNL     1      22.143   1.057 102.660  1.00  0.00     0.000 C 
BRANCH   4   5
ATOM      5  C   UNL     1      21.825   2.274 103.545  1.00  0.00     0.000 C 
BRANCH   5   6
ATOM      6  C   UNL     1      22.551   3.551 103.083  1.00  0.00     0.006 C 
BRANCH   6   7
ATOM      7  C   UNL     1      21.861   4.282 101.920  1.00  0.00     0.053 C 
BRANCH   7   8
ATOM      8  C   UNL     1      22.734   5.348 101.329  1.00  0.00     0.041 C 
ATOM      9  O   UNL     1      23.971   5.355 101.562  1.00  0.00    -0.550 OA
ATOM     10  O   UNL     1      22.175   6.352 100.549  1.00  0.00    -0.550 OA
ENDBRANCH   7   8
ENDBRANCH   6   7
ENDBRANCH   5   6
ENDBRANCH   4   5
ENDBRANCH   3   4
ENDBRANCH   2   3
ENDBRANCH   1   2
BRANCH   1  11
ATOM     11  C   UNL     1      23.942  -3.300 102.261  1.00  0.00     0.000 C 
BRANCH  11  12
ATOM     12  C   UNL     1      22.960  -3.045 101.105  1.00  0.00    -0.000 C 
BRANCH  12  13
ATOM     13  C   UNL     1      21.521  -3.465 101.449  1.00  0.00    -0.000 C 
BRANCH  13  14
ATOM     14  C   UNL     1      20.949  -4.504 100.467  1.00  0.00    -0.000 C 
BRANCH  14  15
ATOM     15  C   UNL     1      21.627  -5.886 100.508  1.00  0.00    -0.000 C 
BRANCH  15  16
ATOM     16  C   UNL     1      21.366  -6.644 101.818  1.00  0.00    -0.000 C 
BRANCH  16  17
ATOM     17  C   UNL     1      22.681  -7.116 102.450  1.00  0.00    -0.003 C 
ATOM     18  C   UNL     1      23.853  -6.925 101.491  1.00  0.00     0.004 C 
ENDBRANCH  16  17
ENDBRANCH  15  16
ENDBRANCH  14  15
ENDBRANCH  13  14
ENDBRANCH  12  13
ENDBRANCH  11  12
ENDBRANCH   1  11
TORSDOF 14
ENDMDL
MODEL 8
REMARK VINA RESULT:    -3.871      1.566      2.972
REMARK INTER + INTRA:          -8.716
REMARK INTER:                  -7.086
REMARK INTRA:                  -1.629
REMARK UNBOUND:                -1.676
REMARK SMILES CCCCCCCCCCCCCCCC(=O)[O-]
REMARK SMILES IDX 9 1 10 2 11 3 12 4 13 5 14 6 15 7 16 8 17 9 18 10 8 11 7 12
REMARK SMILES IDX 6 13 5 14 4 15 3 16 2 17 1 18
REMARK H PARENT
REMARK Flexibility Score: inf
ROOT
ATOM      1  C   UNL     1      27.492  -1.055 103.165  1.00  0.00     0.000 C 
ENDROOT
BRANCH   1   2
ATOM      2  C   UNL     1      27.310   0.217 102.324  1.00  0.00     0.000 C 
BRANCH   2   3
ATOM      3  C   UNL     1      26.429   1.274 103.015  1.00  0.00     0.000 C 
BRANCH   3   4
ATOM      4  C   UNL     1      26.549   2.697 102.437  1.00  0.00     0.000 C 
BRANCH   4   5
ATOM      5  C   UNL     1      25.868   3.759 103.318  1.00  0.00     0.000 C 
BRANCH   5   6
ATOM      6  C   UNL     1      24.953   4.699 102.514  1.00  0.00     0.006 C 
BRANCH   6   7
ATOM      7  C   UNL     1      23.453   4.393 102.657  1.00  0.00     0.053 C 
BRANCH   7   8
ATOM      8  C   UNL     1      22.618   5.219 101.725  1.00  0.00     0.041 C 
ATOM      9  O   UNL     1      23.154   5.808 100.750  1.00  0.00    -0.550 OA
ATOM     10  O   UNL     1      21.256   5.363 101.953  1.00  0.00    -0.550 OA
ENDBRANCH   7   8
ENDBRANCH   6   7
ENDBRANCH   5   6
ENDBRANCH   4   5
ENDBRANCH   3   4
ENDBRANCH   2   3
ENDBRANCH   1   2
BRANCH   1  11
ATOM     11  C   UNL     1      26.509  -1.080 104.344  1.00  0.00     0.000 C 
BRANCH  11  12
ATOM     12  C   UNL     1      25.381  -2.108 104.157  1.00  0.00    -0.000 C 
BRANCH  12  13
ATOM     13  C   UNL     1      25.403  -2.762 102.765  1.00  0.00    -0.000 C 
BRANCH  13  14
ATOM     14  C   UNL     1      24.105  -2.527 101.971  1.00  0.00    -0.000 C 
BRANCH  14  15
ATOM     15  C   UNL     1      23.909  -1.093 101.445  1.00  0.00    -0.000 C 
BRANCH  15  16
ATOM     16  C   UNL     1      22.618  -0.437 101.958  1.00  0.00    -0.000 C 
BRANCH  16  17
ATOM     17  C   UNL     1      22.893   0.410 103.207  1.00  0.00    -0.003 C 
ATOM     18  C   UNL     1      21.875   1.539 103.342  1.00  0.00     0.004 C 
ENDBRANCH  16  17
ENDBRANCH  15  16
ENDBRANCH  14  15
ENDBRANCH  13  14
ENDBRANCH  12  13
ENDBRANCH  11  12
ENDBRANCH   1  11
TORSDOF 14
ENDMDL
MODEL 9
REMARK VINA RESULT:    -3.839      4.572      6.585
REMARK INTER + INTRA:          -8.657
REMARK INTER:                  -7.226
REMARK INTRA:                  -1.430
REMARK UNBOUND:                -1.676
REMARK SMILES CCCCCCCCCCCCCCCC(=O)[O-]
REMARK SMILES IDX 9 1 10 2 11 3 12 4 13 5 14 6 15 7 16 8 17 9 18 10 8 11 7 12
REMARK SMILES IDX 6 13 5 14 4 15 3 16 2 17 1 18
REMARK H PARENT
REMARK Flexibility Score: inf
ROOT
ATOM      1  C   UNL     1      22.122  -3.525 101.290  1.00  0.00     0.000 C 
ENDROOT
BRANCH   1   2
ATOM      2  C   UNL     1      23.535  -3.404 100.700  1.00  0.00     0.000 C 
BRANCH   2   3
ATOM      3  C   UNL     1      24.633  -3.334 101.777  1.00  0.00     0.000 C 
BRANCH   3   4
ATOM      4  C   UNL     1      24.361  -2.336 102.917  1.00  0.00     0.000 C 
BRANCH   4   5
ATOM      5  C   UNL     1      24.474  -0.869 102.466  1.00  0.00     0.000 C 
BRANCH   5   6
ATOM      6  C   UNL     1      23.627   0.085 103.328  1.00  0.00     0.006 C 
BRANCH   6   7
ATOM      7  C   UNL     1      22.424   0.697 102.593  1.00  0.00     0.053 C 
BRANCH   7   8
ATOM      8  C   UNL     1      21.930   1.944 103.262  1.00  0.00     0.041 C 
ATOM      9  O   UNL     1      22.330   3.072 102.874  1.00  0.00    -0.550 OA
ATOM     10  O   UNL     1      21.052   1.856 104.336  1.00  0.00    -0.550 OA
ENDBRANCH   7   8
ENDBRANCH   6   7
ENDBRANCH   5   6
ENDBRANCH   4   5
ENDBRANCH   3   4
ENDBRANCH   2   3
ENDBRANCH   1   2
BRANCH   1  11
ATOM     11  C   UNL     1      21.407  -4.772 100.750  1.00  0.00     0.000 C 
BRANCH  11  12
ATOM     12  C   UNL     1      21.385  -5.930 101.761  1.00  0.00    -0.000 C 
BRANCH  12  13
ATOM     13  C   UNL     1      22.679  -6.762 101.734  1.00  0.00    -0.000 C 
BRANCH  13  14
ATOM     14  C   UNL     1      23.453  -6.711 103.064  1.00  0.00    -0.000 C 
BRANCH  14  15
ATOM     15  C   UNL     1      22.761  -5.926 104.194  1.00  0.00    -0.000 C 
BRANCH  15  16
ATOM     16  C   UNL     1      22.326  -6.820 105.366  1.00  0.00    -0.000 C 
BRANCH  16  17
ATOM     17  C   UNL     1      21.423  -6.049 106.337  1.00  0.00    -0.003 C 
ATOM     18  C   UNL     1      22.174  -5.683 107.614  1.00  0.00     0.004 C 
ENDBRANCH  16  17
ENDBRANCH  15  16
ENDBRANCH  14  15
ENDBRANCH  13  14
ENDBRANCH  12  13
ENDBRANCH  11  12
ENDBRANCH   1  11
TORSDOF 14
ENDMDL
