MODEL 1
REMARK VINA RESULT:    16.061      0.000      0.000
REMARK INTER + INTRA:          19.265
REMARK INTER:                  17.470
REMARK INTRA:                   1.796
REMARK UNBOUND:                 1.796
REMARK SMILES CC1(C)CC[C@@]2(C(=O)[O-])CC[C@@]3(C)C(=CC[C@H]4[C@]5(C)CC[C@@H](O)C(C)(C)[C@@H]5CC[C@]43C)[C@H]2C1
REMARK SMILES IDX 6 1 5 2 10 3 32 4 4 5 11 6 14 7 33 8 2 9 12 10 15 11 1 12
REMARK SMILES IDX 3 13 13 14 30 15 16 16 17 17 29 18 31 19 18 20 28 21 27 22
REMARK SMILES IDX 20 23 19 24 24 25 21 26 22 27 25 28 26 29 7 30 8 31 9 32
REMARK SMILES IDX 23 33
REMARK H PARENT 23 34
REMARK Flexibility Score: inf
ROOT
ATOM      1  C   UNL     1     -24.988   0.934  25.527  1.00  0.00     0.017 C 
ATOM      2  C   UNL     1     -26.474   1.287  25.212  1.00  0.00     0.014 C 
ATOM      3  C   UNL     1     -24.694   1.092  27.049  1.00  0.00     0.014 C 
ATOM      4  C   UNL     1     -24.706  -0.519  25.088  1.00  0.00     0.028 C 
ATOM      5  C   UNL     1     -27.507   0.275  25.749  1.00  0.00     0.007 C 
ATOM      6  C   UNL     1     -23.482   0.316  27.648  1.00  0.00     0.013 C 
ATOM      7  C   UNL     1     -23.252  -0.878  25.376  1.00  0.00    -0.064 C 
ATOM      8  C   UNL     1     -25.703  -1.518  25.720  1.00  0.00     0.015 C 
ATOM      9  C   UNL     1     -27.185  -1.197  25.385  1.00  0.00    -0.035 C 
ATOM     10  C   UNL     1     -22.643  -0.712  26.764  1.00  0.00    -0.006 C 
ATOM     11  C   UNL     1     -22.533  -1.415  24.379  1.00  0.00    -0.027 C 
ATOM     12  C   UNL     1     -28.088  -2.119  26.232  1.00  0.00     0.011 C 
ATOM     13  C   UNL     1     -27.498  -1.469  23.895  1.00  0.00     0.011 C 
ATOM     14  C   UNL     1     -22.757  -2.124  27.427  1.00  0.00     0.017 C 
ATOM     15  C   UNL     1     -21.090  -0.274  26.682  1.00  0.00    -0.020 C 
ATOM     16  C   UNL     1     -21.044  -1.545  24.372  1.00  0.00     0.032 C 
ATOM     17  C   UNL     1     -20.268  -1.223  25.689  1.00  0.00     0.006 C 
ATOM     18  C   UNL     1     -20.954   1.231  26.257  1.00  0.00     0.008 C 
ATOM     19  C   UNL     1     -20.493  -0.385  28.125  1.00  0.00     0.012 C 
ATOM     20  C   UNL     1     -18.750  -0.766  25.384  1.00  0.00    -0.025 C 
ATOM     21  C   UNL     1     -20.041   1.509  25.069  1.00  0.00     0.005 C 
ATOM     22  C   UNL     1     -18.650   0.814  25.117  1.00  0.00     0.003 C 
ATOM     23  C   UNL     1     -17.821  -1.308  26.530  1.00  0.00     0.010 C 
ATOM     24  C   UNL     1     -18.198  -1.504  24.111  1.00  0.00     0.012 C 
ATOM     25  C   UNL     1     -17.441   1.642  25.792  1.00  0.00    -0.006 C 
ATOM     26  C   UNL     1     -16.516  -0.557  26.700  1.00  0.00     0.033 C 
ATOM     27  C   UNL     1     -16.811   0.908  27.016  1.00  0.00     0.120 C 
ATOM     28  C   UNL     1     -16.337   1.888  24.717  1.00  0.00     0.014 C 
ATOM     29  C   UNL     1     -17.866   3.052  26.294  1.00  0.00     0.014 C 
ENDROOT
BRANCH   1  30
ATOM     30  C   UNL     1     -24.149   1.931  24.730  1.00  0.00     0.048 C 
ATOM     31  O   UNL     1     -24.591   3.075  24.444  1.00  0.00    -0.550 OA
ATOM     32  O   UNL     1     -22.840   1.612  24.377  1.00  0.00    -0.550 OA
ENDBRANCH   1  30
BRANCH  27  33
ATOM     33  O   UNL     1     -15.633   1.556  27.430  1.00  0.00    -0.393 OA
ATOM     34  H   UNL     1     -15.894   2.346  27.970  1.00  0.00     0.210 HD
ENDBRANCH  27  33
TORSDOF 2
ENDMDL
MODEL 2
REMARK VINA RESULT:    16.341      1.658      7.594
REMARK INTER + INTRA:          19.570
REMARK INTER:                  18.665
REMARK INTRA:                   0.905
REMARK UNBOUND:                 1.796
REMARK SMILES CC1(C)CC[C@@]2(C(=O)[O-])CC[C@@]3(C)C(=CC[C@H]4[C@]5(C)CC[C@@H](O)C(C)(C)[C@@H]5CC[C@]43C)[C@H]2C1
REMARK SMILES IDX 6 1 5 2 10 3 32 4 4 5 11 6 14 7 33 8 2 9 12 10 15 11 1 12
REMARK SMILES IDX 3 13 13 14 30 15 16 16 17 17 29 18 31 19 18 20 28 21 27 22
REMARK SMILES IDX 20 23 19 24 24 25 21 26 22 27 25 28 26 29 7 30 8 31 9 32
REMARK SMILES IDX 23 33
REMARK H PARENT 23 34
REMARK Flexibility Score: inf
ROOT
ATOM      1  C   UNL     1     -18.980   1.891  25.516  1.00  0.00     0.017 C 
ATOM      2  C   UNL     1     -17.641   2.686  25.573  1.00  0.00     0.014 C 
ATOM      3  C   UNL     1     -19.137   1.169  24.145  1.00  0.00     0.014 C 
ATOM      4  C   UNL     1     -19.005   0.855  26.660  1.00  0.00     0.028 C 
ATOM      5  C   UNL     1     -16.372   1.811  25.630  1.00  0.00     0.007 C 
ATOM      6  C   UNL     1     -20.095  -0.059  24.066  1.00  0.00     0.013 C 
ATOM      7  C   UNL     1     -20.316   0.076  26.630  1.00  0.00    -0.064 C 
ATOM      8  C   UNL     1     -17.764  -0.068  26.631  1.00  0.00     0.015 C 
ATOM      9  C   UNL     1     -16.423   0.710  26.721  1.00  0.00    -0.035 C 
ATOM     10  C   UNL     1     -20.795  -0.643  25.373  1.00  0.00    -0.006 C 
ATOM     11  C   UNL     1     -21.013  -0.018  27.773  1.00  0.00    -0.027 C 
ATOM     12  C   UNL     1     -15.266  -0.281  26.471  1.00  0.00     0.011 C 
ATOM     13  C   UNL     1     -16.221   1.327  28.125  1.00  0.00     0.011 C 
ATOM     14  C   UNL     1     -20.326  -2.125  25.552  1.00  0.00     0.017 C 
ATOM     15  C   UNL     1     -22.405  -0.596  25.240  1.00  0.00    -0.020 C 
ATOM     16  C   UNL     1     -22.436  -0.463  27.874  1.00  0.00     0.032 C 
ATOM     17  C   UNL     1     -23.116  -1.055  26.599  1.00  0.00     0.006 C 
ATOM     18  C   UNL     1     -22.890   0.835  24.811  1.00  0.00     0.008 C 
ATOM     19  C   UNL     1     -22.810  -1.570  24.083  1.00  0.00     0.012 C 
ATOM     20  C   UNL     1     -24.720  -0.869  26.644  1.00  0.00    -0.025 C 
ATOM     21  C   UNL     1     -23.961   1.467  25.691  1.00  0.00     0.005 C 
ATOM     22  C   UNL     1     -25.168   0.550  26.040  1.00  0.00     0.003 C 
ATOM     23  C   UNL     1     -25.391  -2.121  25.971  1.00  0.00     0.010 C 
ATOM     24  C   UNL     1     -25.241  -0.948  28.124  1.00  0.00     0.012 C 
ATOM     25  C   UNL     1     -26.442   0.607  25.052  1.00  0.00    -0.006 C 
ATOM     26  C   UNL     1     -26.797  -1.888  25.455  1.00  0.00     0.033 C 
ATOM     27  C   UNL     1     -26.775  -0.775  24.410  1.00  0.00     0.120 C 
ATOM     28  C   UNL     1     -27.681   1.112  25.856  1.00  0.00     0.014 C 
ATOM     29  C   UNL     1     -26.263   1.609  23.876  1.00  0.00     0.014 C 
ENDROOT
BRANCH   1  30
ATOM     30  C   UNL     1     -20.086   2.932  25.684  1.00  0.00     0.048 C 
ATOM     31  O   UNL     1     -21.198   2.802  25.106  1.00  0.00    -0.550 OA
ATOM     32  O   UNL     1     -19.904   4.007  26.549  1.00  0.00    -0.550 OA
ENDBRANCH   1  30
BRANCH  27  33
ATOM     33  O   UNL     1     -28.010  -0.724  23.737  1.00  0.00    -0.393 OA
ATOM     34  H   UNL     1     -28.690  -0.384  24.375  1.00  0.00     0.210 HD
ENDBRANCH  27  33
TORSDOF 2
ENDMDL
