MODEL 1
REMARK VINA RESULT:    -4.099      0.000      0.000
REMARK INTER + INTRA:         -16.626
REMARK INTER:                 -10.330
REMARK INTRA:                  -6.296
REMARK UNBOUND:                -6.296
REMARK SMILES CCCCCCCCCCCCCCCCCCCCCCCCCCCC(=O)[O-]
REMARK SMILES IDX 15 1 16 2 17 3 18 4 19 5 20 6 21 7 22 8 23 9 24 10 25 11
REMARK SMILES IDX 26 12 27 13 28 14 29 15 30 16 14 17 13 18 12 19 11 20 10 21
REMARK SMILES IDX 9 22 8 23 7 24 6 25 5 26 4 27 3 28 2 29 1 30
REMARK H PARENT
REMARK Flexibility Score: inf
ROOT
ATOM      1  C   UNL     1       6.770 -19.079  23.540  1.00  0.00     0.000 C 
ENDROOT
BRANCH   1   2
ATOM      2  C   UNL     1       7.506 -17.892  22.900  1.00  0.00     0.000 C 
BRANCH   2   3
ATOM      3  C   UNL     1       7.459 -16.628  23.774  1.00  0.00     0.000 C 
BRANCH   3   4
ATOM      4  C   UNL     1       7.010 -16.967  25.203  1.00  0.00     0.000 C 
BRANCH   4   5
ATOM      5  C   UNL     1       8.033 -16.539  26.268  1.00  0.00     0.000 C 
BRANCH   5   6
ATOM      6  C   UNL     1       9.436 -16.249  25.688  1.00  0.00     0.000 C 
BRANCH   6   7
ATOM      7  C   UNL     1      10.376 -17.460  25.827  1.00  0.00     0.000 C 
BRANCH   7   8
ATOM      8  C   UNL     1      11.026 -17.868  24.488  1.00  0.00     0.000 C 
BRANCH   8   9
ATOM      9  C   UNL     1      10.914 -19.368  24.164  1.00  0.00     0.000 C 
BRANCH   9  10
ATOM     10  C   UNL     1      11.474 -19.725  22.780  1.00  0.00     0.000 C 
BRANCH  10  11
ATOM     11  C   UNL     1      10.919 -18.791  21.697  1.00  0.00     0.000 C 
BRANCH  11  12
ATOM     12  C   UNL     1      10.063 -19.569  20.687  1.00  0.00     0.006 C 
BRANCH  12  13
ATOM     13  C   UNL     1      10.524 -21.024  20.529  1.00  0.00     0.053 C 
BRANCH  13  14
ATOM     14  C   UNL     1       9.381 -21.990  20.594  1.00  0.00     0.041 C 
ATOM     15  O   UNL     1       9.427 -22.980  21.374  1.00  0.00    -0.550 OA
ATOM     16  O   UNL     1       8.267 -21.804  19.784  1.00  0.00    -0.550 OA
ENDBRANCH  13  14
ENDBRANCH  12  13
ENDBRANCH  11  12
ENDBRANCH  10  11
ENDBRANCH   9  10
ENDBRANCH   8   9
ENDBRANCH   7   8
ENDBRANCH   6   7
ENDBRANCH   5   6
ENDBRANCH   4   5
ENDBRANCH   3   4
ENDBRANCH   2   3
ENDBRANCH   1   2
BRANCH   1  17
ATOM     17  C   UNL     1       7.480 -20.420  23.290  1.00  0.00     0.000 C 
BRANCH  17  18
ATOM     18  C   UNL     1       7.885 -21.133  24.594  1.00  0.00     0.000 C 
BRANCH  18  19
ATOM     19  C   UNL     1       7.162 -20.596  25.847  1.00  0.00     0.000 C 
BRANCH  19  20
ATOM     20  C   UNL     1       8.141 -20.259  26.987  1.00  0.00     0.000 C 
BRANCH  20  21
ATOM     21  C   UNL     1       9.496 -20.976  26.848  1.00  0.00     0.000 C 
BRANCH  21  22
ATOM     22  C   UNL     1      10.316 -21.085  28.148  1.00  0.00    -0.000 C 
BRANCH  22  23
ATOM     23  C   UNL     1      11.114 -19.807  28.462  1.00  0.00    -0.000 C 
BRANCH  23  24
ATOM     24  C   UNL     1      12.636 -19.999  28.319  1.00  0.00    -0.000 C 
BRANCH  24  25
ATOM     25  C   UNL     1      13.251 -19.404  27.040  1.00  0.00    -0.000 C 
BRANCH  25  26
ATOM     26  C   UNL     1      13.926 -20.463  26.152  1.00  0.00    -0.000 C 
BRANCH  26  27
ATOM     27  C   UNL     1      13.652 -21.902  26.622  1.00  0.00    -0.000 C 
BRANCH  27  28
ATOM     28  C   UNL     1      13.329 -22.900  25.495  1.00  0.00    -0.000 C 
BRANCH  28  29
ATOM     29  C   UNL     1      11.926 -23.511  25.621  1.00  0.00    -0.003 C 
ATOM     30  C   UNL     1      11.053 -23.138  24.427  1.00  0.00     0.004 C 
ENDBRANCH  28  29
ENDBRANCH  27  28
ENDBRANCH  26  27
ENDBRANCH  25  26
ENDBRANCH  24  25
ENDBRANCH  23  24
ENDBRANCH  22  23
ENDBRANCH  21  22
ENDBRANCH  20  21
ENDBRANCH  19  20
ENDBRANCH  18  19
ENDBRANCH  17  18
ENDBRANCH   1  17
TORSDOF 26
ENDMDL
MODEL 2
REMARK VINA RESULT:    -4.074      2.529      6.562
REMARK INTER + INTRA:         -16.562
REMARK INTER:                 -10.422
REMARK INTRA:                  -6.140
REMARK UNBOUND:                -6.296
REMARK SMILES CCCCCCCCCCCCCCCCCCCCCCCCCCCC(=O)[O-]
REMARK SMILES IDX 15 1 16 2 17 3 18 4 19 5 20 6 21 7 22 8 23 9 24 10 25 11
REMARK SMILES IDX 26 12 27 13 28 14 29 15 30 16 14 17 13 18 12 19 11 20 10 21
REMARK SMILES IDX 9 22 8 23 7 24 6 25 5 26 4 27 3 28 2 29 1 30
REMARK H PARENT
REMARK Flexibility Score: inf
ROOT
ATOM      1  C   UNL     1      10.836 -22.625  23.113  1.00  0.00     0.000 C 
ENDROOT
BRANCH   1   2
ATOM      2  C   UNL     1       9.372 -22.685  22.651  1.00  0.00     0.000 C 
BRANCH   2   3
ATOM      3  C   UNL     1       9.241 -22.906  21.135  1.00  0.00     0.000 C 
BRANCH   3   4
ATOM      4  C   UNL     1       8.363 -21.819  20.498  1.00  0.00     0.000 C 
BRANCH   4   5
ATOM      5  C   UNL     1       8.555 -20.439  21.147  1.00  0.00     0.000 C 
BRANCH   5   6
ATOM      6  C   UNL     1       7.225 -19.716  21.454  1.00  0.00     0.000 C 
BRANCH   6   7
ATOM      7  C   UNL     1       6.665 -20.103  22.834  1.00  0.00     0.000 C 
BRANCH   7   8
ATOM      8  C   UNL     1       7.604 -19.703  23.992  1.00  0.00     0.000 C 
BRANCH   8   9
ATOM      9  C   UNL     1       7.641 -20.715  25.152  1.00  0.00     0.000 C 
BRANCH   9  10
ATOM     10  C   UNL     1       7.685 -20.043  26.531  1.00  0.00     0.000 C 
BRANCH  10  11
ATOM     11  C   UNL     1       8.419 -20.919  27.554  1.00  0.00     0.000 C 
BRANCH  11  12
ATOM     12  C   UNL     1       9.932 -20.921  27.290  1.00  0.00     0.006 C 
BRANCH  12  13
ATOM     13  C   UNL     1      10.676 -19.892  28.151  1.00  0.00     0.053 C 
BRANCH  13  14
ATOM     14  C   UNL     1      12.163 -20.068  28.085  1.00  0.00     0.041 C 
ATOM     15  O   UNL     1      12.693 -20.635  27.092  1.00  0.00    -0.550 OA
ATOM     16  O   UNL     1      12.962 -19.614  29.126  1.00  0.00    -0.550 OA
ENDBRANCH  13  14
ENDBRANCH  12  13
ENDBRANCH  11  12
ENDBRANCH  10  11
ENDBRANCH   9  10
ENDBRANCH   8   9
ENDBRANCH   7   8
ENDBRANCH   6   7
ENDBRANCH   5   6
ENDBRANCH   4   5
ENDBRANCH   3   4
ENDBRANCH   2   3
ENDBRANCH   1   2
BRANCH   1  17
ATOM     17  C   UNL     1      11.176 -21.311  23.833  1.00  0.00     0.000 C 
BRANCH  17  18
ATOM     18  C   UNL     1      11.747 -20.240  22.885  1.00  0.00     0.000 C 
BRANCH  18  19
ATOM     19  C   UNL     1      12.116 -18.918  23.590  1.00  0.00     0.000 C 
BRANCH  19  20
ATOM     20  C   UNL     1      11.154 -18.583  24.745  1.00  0.00     0.000 C 
BRANCH  20  21
ATOM     21  C   UNL     1      11.565 -17.318  25.522  1.00  0.00     0.000 C 
BRANCH  21  22
ATOM     22  C   UNL     1      10.449 -16.272  25.708  1.00  0.00    -0.000 C 
BRANCH  22  23
ATOM     23  C   UNL     1       9.266 -16.798  26.539  1.00  0.00    -0.000 C 
BRANCH  23  24
ATOM     24  C   UNL     1       7.910 -16.229  26.080  1.00  0.00    -0.000 C 
BRANCH  24  25
ATOM     25  C   UNL     1       7.956 -15.392  24.790  1.00  0.00    -0.000 C 
BRANCH  25  26
ATOM     26  C   UNL     1       7.169 -16.030  23.633  1.00  0.00    -0.000 C 
BRANCH  26  27
ATOM     27  C   UNL     1       7.946 -16.024  22.305  1.00  0.00    -0.000 C 
BRANCH  27  28
ATOM     28  C   UNL     1       9.244 -16.851  22.311  1.00  0.00    -0.000 C 
BRANCH  28  29
ATOM     29  C   UNL     1      10.334 -16.261  21.404  1.00  0.00    -0.003 C 
ATOM     30  C   UNL     1      11.395 -15.532  22.222  1.00  0.00     0.004 C 
ENDBRANCH  28  29
ENDBRANCH  27  28
ENDBRANCH  26  27
ENDBRANCH  25  26
ENDBRANCH  24  25
ENDBRANCH  23  24
ENDBRANCH  22  23
ENDBRANCH  21  22
ENDBRANCH  20  21
ENDBRANCH  19  20
ENDBRANCH  18  19
ENDBRANCH  17  18
ENDBRANCH   1  17
TORSDOF 26
ENDMDL
MODEL 3
REMARK VINA RESULT:    -4.046      2.829      7.053
REMARK INTER + INTRA:         -16.492
REMARK INTER:                 -11.481
REMARK INTRA:                  -5.011
REMARK UNBOUND:                -6.296
REMARK SMILES CCCCCCCCCCCCCCCCCCCCCCCCCCCC(=O)[O-]
REMARK SMILES IDX 15 1 16 2 17 3 18 4 19 5 20 6 21 7 22 8 23 9 24 10 25 11
REMARK SMILES IDX 26 12 27 13 28 14 29 15 30 16 14 17 13 18 12 19 11 20 10 21
REMARK SMILES IDX 9 22 8 23 7 24 6 25 5 26 4 27 3 28 2 29 1 30
REMARK H PARENT
REMARK Flexibility Score: inf
ROOT
ATOM      1  C   UNL     1       9.976 -20.266  19.775  1.00  0.00     0.000 C 
ENDROOT
BRANCH   1   2
ATOM      2  C   UNL     1      10.429 -20.999  21.048  1.00  0.00     0.000 C 
BRANCH   2   3
ATOM      3  C   UNL     1       9.819 -22.404  21.169  1.00  0.00     0.000 C 
BRANCH   3   4
ATOM      4  C   UNL     1       8.565 -22.382  22.055  1.00  0.00     0.000 C 
BRANCH   4   5
ATOM      5  C   UNL     1       8.769 -21.593  23.359  1.00  0.00     0.000 C 
BRANCH   5   6
ATOM      6  C   UNL     1       7.496 -20.857  23.835  1.00  0.00     0.000 C 
BRANCH   6   7
ATOM      7  C   UNL     1       7.328 -20.931  25.364  1.00  0.00     0.000 C 
BRANCH   7   8
ATOM      8  C   UNL     1       7.426 -19.548  26.042  1.00  0.00     0.000 C 
BRANCH   8   9
ATOM      9  C   UNL     1       8.791 -19.262  26.694  1.00  0.00     0.000 C 
BRANCH   9  10
ATOM     10  C   UNL     1       9.816 -18.686  25.706  1.00  0.00     0.000 C 
BRANCH  10  11
ATOM     11  C   UNL     1      10.910 -19.711  25.379  1.00  0.00     0.000 C 
BRANCH  11  12
ATOM     12  C   UNL     1      11.742 -19.258  24.171  1.00  0.00     0.006 C 
BRANCH  12  13
ATOM     13  C   UNL     1      12.898 -18.333  24.572  1.00  0.00     0.053 C 
BRANCH  13  14
ATOM     14  C   UNL     1      14.111 -19.099  25.006  1.00  0.00     0.041 C 
ATOM     15  O   UNL     1      14.774 -19.769  24.168  1.00  0.00    -0.550 OA
ATOM     16  O   UNL     1      14.504 -19.082  26.338  1.00  0.00    -0.550 OA
ENDBRANCH  13  14
ENDBRANCH  12  13
ENDBRANCH  11  12
ENDBRANCH  10  11
ENDBRANCH   9  10
ENDBRANCH   8   9
ENDBRANCH   7   8
ENDBRANCH   6   7
ENDBRANCH   5   6
ENDBRANCH   4   5
ENDBRANCH   3   4
ENDBRANCH   2   3
ENDBRANCH   1   2
BRANCH   1  17
ATOM     17  C   UNL     1       9.592 -18.802  20.040  1.00  0.00     0.000 C 
BRANCH  17  18
ATOM     18  C   UNL     1       8.447 -18.659  21.059  1.00  0.00     0.000 C 
BRANCH  18  19
ATOM     19  C   UNL     1       8.798 -17.765  22.267  1.00  0.00     0.000 C 
BRANCH  19  20
ATOM     20  C   UNL     1       9.431 -16.427  21.841  1.00  0.00     0.000 C 
BRANCH  20  21
ATOM     21  C   UNL     1      10.648 -16.037  22.701  1.00  0.00     0.000 C 
BRANCH  21  22
ATOM     22  C   UNL     1      10.398 -14.901  23.711  1.00  0.00    -0.000 C 
BRANCH  22  23
ATOM     23  C   UNL     1       9.728 -15.387  25.008  1.00  0.00    -0.000 C 
BRANCH  23  24
ATOM     24  C   UNL     1       8.292 -14.858  25.177  1.00  0.00    -0.000 C 
BRANCH  24  25
ATOM     25  C   UNL     1       7.181 -15.886  24.902  1.00  0.00    -0.000 C 
BRANCH  25  26
ATOM     26  C   UNL     1       6.147 -15.389  23.877  1.00  0.00    -0.000 C 
BRANCH  26  27
ATOM     27  C   UNL     1       6.714 -14.325  22.921  1.00  0.00    -0.000 C 
BRANCH  27  28
ATOM     28  C   UNL     1       5.832 -14.020  21.697  1.00  0.00    -0.000 C 
BRANCH  28  29
ATOM     29  C   UNL     1       6.430 -14.546  20.383  1.00  0.00    -0.003 C 
ATOM     30  C   UNL     1       6.141 -13.594  19.227  1.00  0.00     0.004 C 
ENDBRANCH  28  29
ENDBRANCH  27  28
ENDBRANCH  26  27
ENDBRANCH  25  26
ENDBRANCH  24  25
ENDBRANCH  23  24
ENDBRANCH  22  23
ENDBRANCH  21  22
ENDBRANCH  20  21
ENDBRANCH  19  20
ENDBRANCH  18  19
ENDBRANCH  17  18
ENDBRANCH   1  17
TORSDOF 26
ENDMDL
MODEL 4
REMARK VINA RESULT:    -3.989      2.563      5.719
REMARK INTER + INTRA:         -16.349
REMARK INTER:                 -10.376
REMARK INTRA:                  -5.973
REMARK UNBOUND:                -6.296
REMARK SMILES CCCCCCCCCCCCCCCCCCCCCCCCCCCC(=O)[O-]
REMARK SMILES IDX 15 1 16 2 17 3 18 4 19 5 20 6 21 7 22 8 23 9 24 10 25 11
REMARK SMILES IDX 26 12 27 13 28 14 29 15 30 16 14 17 13 18 12 19 11 20 10 21
REMARK SMILES IDX 9 22 8 23 7 24 6 25 5 26 4 27 3 28 2 29 1 30
REMARK H PARENT
REMARK Flexibility Score: inf
ROOT
ATOM      1  C   UNL     1       7.785 -19.290  20.193  1.00  0.00     0.000 C 
ENDROOT
BRANCH   1   2
ATOM      2  C   UNL     1       7.233 -20.191  21.309  1.00  0.00     0.000 C 
BRANCH   2   3
ATOM      3  C   UNL     1       7.987 -21.526  21.416  1.00  0.00     0.000 C 
BRANCH   3   4
ATOM      4  C   UNL     1       8.475 -21.765  22.853  1.00  0.00     0.000 C 
BRANCH   4   5
ATOM      5  C   UNL     1       9.430 -20.668  23.350  1.00  0.00     0.000 C 
BRANCH   5   6
ATOM      6  C   UNL     1       8.871 -19.864  24.545  1.00  0.00     0.000 C 
BRANCH   6   7
ATOM      7  C   UNL     1       7.751 -20.627  25.277  1.00  0.00     0.000 C 
BRANCH   7   8
ATOM      8  C   UNL     1       8.056 -20.842  26.774  1.00  0.00     0.000 C 
BRANCH   8   9
ATOM      9  C   UNL     1       9.357 -20.174  27.255  1.00  0.00     0.000 C 
BRANCH   9  10
ATOM     10  C   UNL     1      10.300 -21.148  27.975  1.00  0.00     0.000 C 
BRANCH  10  11
ATOM     11  C   UNL     1      11.753 -20.952  27.524  1.00  0.00     0.000 C 
BRANCH  11  12
ATOM     12  C   UNL     1      11.896 -19.686  26.668  1.00  0.00     0.006 C 
BRANCH  12  13
ATOM     13  C   UNL     1      12.574 -19.965  25.321  1.00  0.00     0.053 C 
BRANCH  13  14
ATOM     14  C   UNL     1      14.062 -20.093  25.453  1.00  0.00     0.041 C 
ATOM     15  O   UNL     1      14.692 -19.378  26.278  1.00  0.00    -0.550 OA
ATOM     16  O   UNL     1      14.754 -20.998  24.658  1.00  0.00    -0.550 OA
ENDBRANCH  13  14
ENDBRANCH  12  13
ENDBRANCH  11  12
ENDBRANCH  10  11
ENDBRANCH   9  10
ENDBRANCH   8   9
ENDBRANCH   7   8
ENDBRANCH   6   7
ENDBRANCH   5   6
ENDBRANCH   4   5
ENDBRANCH   3   4
ENDBRANCH   2   3
ENDBRANCH   1   2
BRANCH   1  17
ATOM     17  C   UNL     1       8.275 -17.931  20.717  1.00  0.00     0.000 C 
BRANCH  17  18
ATOM     18  C   UNL     1       7.666 -17.562  22.082  1.00  0.00     0.000 C 
BRANCH  18  19
ATOM     19  C   UNL     1       7.482 -16.045  22.291  1.00  0.00     0.000 C 
BRANCH  19  20
ATOM     20  C   UNL     1       6.780 -15.718  23.623  1.00  0.00     0.000 C 
BRANCH  20  21
ATOM     21  C   UNL     1       6.436 -16.974  24.445  1.00  0.00     0.000 C 
BRANCH  21  22
ATOM     22  C   UNL     1       6.969 -16.976  25.891  1.00  0.00    -0.000 C 
BRANCH  22  23
ATOM     23  C   UNL     1       8.057 -15.916  26.132  1.00  0.00    -0.000 C 
BRANCH  23  24
ATOM     24  C   UNL     1       9.381 -16.519  26.638  1.00  0.00    -0.000 C 
BRANCH  24  25
ATOM     25  C   UNL     1      10.528 -16.530  25.613  1.00  0.00    -0.000 C 
BRANCH  25  26
ATOM     26  C   UNL     1      10.370 -15.454  24.526  1.00  0.00    -0.000 C 
BRANCH  26  27
ATOM     27  C   UNL     1      11.137 -15.789  23.235  1.00  0.00    -0.000 C 
BRANCH  27  28
ATOM     28  C   UNL     1      11.272 -17.293  22.936  1.00  0.00    -0.000 C 
BRANCH  28  29
ATOM     29  C   UNL     1      11.796 -17.577  21.520  1.00  0.00    -0.003 C 
ATOM     30  C   UNL     1      11.680 -16.343  20.632  1.00  0.00     0.004 C 
ENDBRANCH  28  29
ENDBRANCH  27  28
ENDBRANCH  26  27
ENDBRANCH  25  26
ENDBRANCH  24  25
ENDBRANCH  23  24
ENDBRANCH  22  23
ENDBRANCH  21  22
ENDBRANCH  20  21
ENDBRANCH  19  20
ENDBRANCH  18  19
ENDBRANCH  17  18
ENDBRANCH   1  17
TORSDOF 26
ENDMDL
MODEL 5
REMARK VINA RESULT:    -3.979      1.905      3.940
REMARK INTER + INTRA:         -16.324
REMARK INTER:                 -10.336
REMARK INTRA:                  -5.987
REMARK UNBOUND:                -6.296
REMARK SMILES CCCCCCCCCCCCCCCCCCCCCCCCCCCC(=O)[O-]
REMARK SMILES IDX 15 1 16 2 17 3 18 4 19 5 20 6 21 7 22 8 23 9 24 10 25 11
REMARK SMILES IDX 26 12 27 13 28 14 29 15 30 16 14 17 13 18 12 19 11 20 10 21
REMARK SMILES IDX 9 22 8 23 7 24 6 25 5 26 4 27 3 28 2 29 1 30
REMARK H PARENT
REMARK Flexibility Score: inf
ROOT
ATOM      1  C   UNL     1       8.598 -15.920  22.479  1.00  0.00     0.000 C 
ENDROOT
BRANCH   1   2
ATOM      2  C   UNL     1       7.088 -15.636  22.486  1.00  0.00     0.000 C 
BRANCH   2   3
ATOM      3  C   UNL     1       6.431 -15.968  23.836  1.00  0.00     0.000 C 
BRANCH   3   4
ATOM      4  C   UNL     1       6.885 -17.344  24.343  1.00  0.00     0.000 C 
BRANCH   4   5
ATOM      5  C   UNL     1       7.337 -17.321  25.813  1.00  0.00     0.000 C 
BRANCH   5   6
ATOM      6  C   UNL     1       7.705 -15.909  26.318  1.00  0.00     0.000 C 
BRANCH   6   7
ATOM      7  C   UNL     1       9.195 -15.591  26.098  1.00  0.00     0.000 C 
BRANCH   7   8
ATOM      8  C   UNL     1      10.099 -16.834  26.244  1.00  0.00     0.000 C 
BRANCH   8   9
ATOM      9  C   UNL     1      11.471 -16.698  25.561  1.00  0.00     0.000 C 
BRANCH   9  10
ATOM     10  C   UNL     1      11.517 -17.355  24.174  1.00  0.00     0.000 C 
BRANCH  10  11
ATOM     11  C   UNL     1      10.684 -18.643  24.140  1.00  0.00     0.000 C 
BRANCH  11  12
ATOM     12  C   UNL     1      11.107 -19.539  22.967  1.00  0.00     0.006 C 
BRANCH  12  13
ATOM     13  C   UNL     1      11.816 -20.816  23.435  1.00  0.00     0.053 C 
BRANCH  13  14
ATOM     14  C   UNL     1      13.151 -20.995  22.777  1.00  0.00     0.041 C 
ATOM     15  O   UNL     1      14.210 -20.925  23.457  1.00  0.00    -0.550 OA
ATOM     16  O   UNL     1      13.225 -21.231  21.410  1.00  0.00    -0.550 OA
ENDBRANCH  13  14
ENDBRANCH  12  13
ENDBRANCH  11  12
ENDBRANCH  10  11
ENDBRANCH   9  10
ENDBRANCH   8   9
ENDBRANCH   7   8
ENDBRANCH   6   7
ENDBRANCH   5   6
ENDBRANCH   4   5
ENDBRANCH   3   4
ENDBRANCH   2   3
ENDBRANCH   1   2
BRANCH   1  17
ATOM     17  C   UNL     1       9.023 -16.834  21.319  1.00  0.00     0.000 C 
BRANCH  17  18
ATOM     18  C   UNL     1       7.889 -17.759  20.840  1.00  0.00     0.000 C 
BRANCH  18  19
ATOM     19  C   UNL     1       8.284 -19.249  20.784  1.00  0.00     0.000 C 
BRANCH  19  20
ATOM     20  C   UNL     1       7.087 -20.182  21.048  1.00  0.00     0.000 C 
BRANCH  20  21
ATOM     21  C   UNL     1       6.763 -20.336  22.545  1.00  0.00     0.000 C 
BRANCH  21  22
ATOM     22  C   UNL     1       7.864 -21.006  23.389  1.00  0.00    -0.000 C 
BRANCH  22  23
ATOM     23  C   UNL     1       7.562 -20.984  24.897  1.00  0.00    -0.000 C 
BRANCH  23  24
ATOM     24  C   UNL     1       8.823 -21.145  25.765  1.00  0.00    -0.000 C 
BRANCH  24  25
ATOM     25  C   UNL     1       8.859 -20.272  27.032  1.00  0.00    -0.000 C 
BRANCH  25  26
ATOM     26  C   UNL     1      10.004 -20.650  27.987  1.00  0.00    -0.000 C 
BRANCH  26  27
ATOM     27  C   UNL     1      11.364 -20.083  27.546  1.00  0.00    -0.000 C 
BRANCH  27  28
ATOM     28  C   UNL     1      12.351 -21.127  26.992  1.00  0.00    -0.000 C 
BRANCH  28  29
ATOM     29  C   UNL     1      13.799 -20.617  26.948  1.00  0.00    -0.003 C 
ATOM     30  C   UNL     1      13.855 -19.149  26.541  1.00  0.00     0.004 C 
ENDBRANCH  28  29
ENDBRANCH  27  28
ENDBRANCH  26  27
ENDBRANCH  25  26
ENDBRANCH  24  25
ENDBRANCH  23  24
ENDBRANCH  22  23
ENDBRANCH  21  22
ENDBRANCH  20  21
ENDBRANCH  19  20
ENDBRANCH  18  19
ENDBRANCH  17  18
ENDBRANCH   1  17
TORSDOF 26
ENDMDL
MODEL 6
REMARK VINA RESULT:    -3.940      2.855      6.842
REMARK INTER + INTRA:         -16.225
REMARK INTER:                 -11.160
REMARK INTRA:                  -5.065
REMARK UNBOUND:                -6.296
REMARK SMILES CCCCCCCCCCCCCCCCCCCCCCCCCCCC(=O)[O-]
REMARK SMILES IDX 15 1 16 2 17 3 18 4 19 5 20 6 21 7 22 8 23 9 24 10 25 11
REMARK SMILES IDX 26 12 27 13 28 14 29 15 30 16 14 17 13 18 12 19 11 20 10 21
REMARK SMILES IDX 9 22 8 23 7 24 6 25 5 26 4 27 3 28 2 29 1 30
REMARK H PARENT
REMARK Flexibility Score: inf
ROOT
ATOM      1  C   UNL     1       7.035 -17.319  23.513  1.00  0.00     0.000 C 
ENDROOT
BRANCH   1   2
ATOM      2  C   UNL     1       7.166 -18.764  24.019  1.00  0.00     0.000 C 
BRANCH   2   3
ATOM      3  C   UNL     1       7.176 -19.792  22.875  1.00  0.00     0.000 C 
BRANCH   3   4
ATOM      4  C   UNL     1       8.100 -19.335  21.737  1.00  0.00     0.000 C 
BRANCH   4   5
ATOM      5  C   UNL     1       8.456 -20.472  20.764  1.00  0.00     0.000 C 
BRANCH   5   6
ATOM      6  C   UNL     1       7.729 -21.798  21.079  1.00  0.00     0.000 C 
BRANCH   6   7
ATOM      7  C   UNL     1       8.719 -22.955  21.305  1.00  0.00     0.000 C 
BRANCH   7   8
ATOM      8  C   UNL     1      10.192 -22.496  21.268  1.00  0.00     0.000 C 
BRANCH   8   9
ATOM      9  C   UNL     1      11.010 -22.902  22.507  1.00  0.00     0.000 C 
BRANCH   9  10
ATOM     10  C   UNL     1      11.210 -21.746  23.497  1.00  0.00     0.000 C 
BRANCH  10  11
ATOM     11  C   UNL     1      10.635 -22.088  24.877  1.00  0.00     0.000 C 
BRANCH  11  12
ATOM     12  C   UNL     1       9.810 -20.919  25.433  1.00  0.00     0.006 C 
BRANCH  12  13
ATOM     13  C   UNL     1      10.554 -19.581  25.335  1.00  0.00     0.053 C 
BRANCH  13  14
ATOM     14  C   UNL     1      11.436 -19.334  26.521  1.00  0.00     0.041 C 
ATOM     15  O   UNL     1      10.934 -19.001  27.628  1.00  0.00    -0.550 OA
ATOM     16  O   UNL     1      12.814 -19.464  26.401  1.00  0.00    -0.550 OA
ENDBRANCH  13  14
ENDBRANCH  12  13
ENDBRANCH  11  12
ENDBRANCH  10  11
ENDBRANCH   9  10
ENDBRANCH   8   9
ENDBRANCH   7   8
ENDBRANCH   6   7
ENDBRANCH   5   6
ENDBRANCH   4   5
ENDBRANCH   3   4
ENDBRANCH   2   3
ENDBRANCH   1   2
BRANCH   1  17
ATOM     17  C   UNL     1       5.992 -16.510  24.298  1.00  0.00     0.000 C 
BRANCH  17  18
ATOM     18  C   UNL     1       5.696 -15.139  23.661  1.00  0.00     0.000 C 
BRANCH  18  19
ATOM     19  C   UNL     1       6.685 -14.747  22.543  1.00  0.00     0.000 C 
BRANCH  19  20
ATOM     20  C   UNL     1       5.970 -14.180  21.302  1.00  0.00     0.000 C 
BRANCH  20  21
ATOM     21  C   UNL     1       6.543 -14.719  19.979  1.00  0.00     0.000 C 
BRANCH  21  22
ATOM     22  C   UNL     1       7.315 -16.048  20.093  1.00  0.00    -0.000 C 
BRANCH  22  23
ATOM     23  C   UNL     1       8.636 -16.045  19.304  1.00  0.00    -0.000 C 
BRANCH  23  24
ATOM     24  C   UNL     1       9.847 -16.459  20.160  1.00  0.00    -0.000 C 
BRANCH  24  25
ATOM     25  C   UNL     1       9.702 -16.193  21.669  1.00  0.00    -0.000 C 
BRANCH  25  26
ATOM     26  C   UNL     1      10.951 -16.598  22.471  1.00  0.00    -0.000 C 
BRANCH  26  27
ATOM     27  C   UNL     1      10.971 -16.001  23.889  1.00  0.00    -0.000 C 
BRANCH  27  28
ATOM     28  C   UNL     1      10.072 -14.767  24.084  1.00  0.00    -0.000 C 
BRANCH  28  29
ATOM     29  C   UNL     1       9.106 -14.912  25.270  1.00  0.00    -0.003 C 
ATOM     30  C   UNL     1       9.431 -16.151  26.096  1.00  0.00     0.004 C 
ENDBRANCH  28  29
ENDBRANCH  27  28
ENDBRANCH  26  27
ENDBRANCH  25  26
ENDBRANCH  24  25
ENDBRANCH  23  24
ENDBRANCH  22  23
ENDBRANCH  21  22
ENDBRANCH  20  21
ENDBRANCH  19  20
ENDBRANCH  18  19
ENDBRANCH  17  18
ENDBRANCH   1  17
TORSDOF 26
ENDMDL
MODEL 7
REMARK VINA RESULT:    -3.936      2.695      5.893
REMARK INTER + INTRA:         -16.216
REMARK INTER:                 -10.082
REMARK INTRA:                  -6.134
REMARK UNBOUND:                -6.296
REMARK SMILES CCCCCCCCCCCCCCCCCCCCCCCCCCCC(=O)[O-]
REMARK SMILES IDX 15 1 16 2 17 3 18 4 19 5 20 6 21 7 22 8 23 9 24 10 25 11
REMARK SMILES IDX 26 12 27 13 28 14 29 15 30 16 14 17 13 18 12 19 11 20 10 21
REMARK SMILES IDX 9 22 8 23 7 24 6 25 5 26 4 27 3 28 2 29 1 30
REMARK H PARENT
REMARK Flexibility Score: inf
ROOT
ATOM      1  C   UNL     1       9.837 -21.210  24.472  1.00  0.00     0.000 C 
ENDROOT
BRANCH   1   2
ATOM      2  C   UNL     1       8.453 -21.100  25.131  1.00  0.00     0.000 C 
BRANCH   2   3
ATOM      3  C   UNL     1       7.492 -20.200  24.338  1.00  0.00     0.000 C 
BRANCH   3   4
ATOM      4  C   UNL     1       7.636 -18.733  24.766  1.00  0.00     0.000 C 
BRANCH   4   5
ATOM      5  C   UNL     1       6.729 -17.784  23.965  1.00  0.00     0.000 C 
BRANCH   5   6
ATOM      6  C   UNL     1       7.345 -16.383  23.751  1.00  0.00     0.000 C 
BRANCH   6   7
ATOM      7  C   UNL     1       8.503 -16.110  24.728  1.00  0.00     0.000 C 
BRANCH   7   8
ATOM      8  C   UNL     1       9.715 -15.442  24.045  1.00  0.00     0.000 C 
BRANCH   8   9
ATOM      9  C   UNL     1      11.077 -16.009  24.483  1.00  0.00     0.000 C 
BRANCH   9  10
ATOM     10  C   UNL     1      10.951 -17.133  25.522  1.00  0.00     0.000 C 
BRANCH  10  11
ATOM     11  C   UNL     1      12.005 -18.223  25.292  1.00  0.00     0.000 C 
BRANCH  11  12
ATOM     12  C   UNL     1      12.123 -19.138  26.519  1.00  0.00     0.006 C 
BRANCH  12  13
ATOM     13  C   UNL     1      10.903 -19.037  27.444  1.00  0.00     0.053 C 
BRANCH  13  14
ATOM     14  C   UNL     1      10.861 -20.147  28.449  1.00  0.00     0.041 C 
ATOM     15  O   UNL     1      11.684 -20.173  29.404  1.00  0.00    -0.550 OA
ATOM     16  O   UNL     1       9.918 -21.160  28.327  1.00  0.00    -0.550 OA
ENDBRANCH  13  14
ENDBRANCH  12  13
ENDBRANCH  11  12
ENDBRANCH  10  11
ENDBRANCH   9  10
ENDBRANCH   8   9
ENDBRANCH   7   8
ENDBRANCH   6   7
ENDBRANCH   5   6
ENDBRANCH   4   5
ENDBRANCH   3   4
ENDBRANCH   2   3
ENDBRANCH   1   2
BRANCH   1  17
ATOM     17  C   UNL     1      10.116 -22.613  23.911  1.00  0.00     0.000 C 
BRANCH  17  18
ATOM     18  C   UNL     1      11.087 -22.597  22.715  1.00  0.00     0.000 C 
BRANCH  18  19
ATOM     19  C   UNL     1      10.387 -22.439  21.349  1.00  0.00     0.000 C 
BRANCH  19  20
ATOM     20  C   UNL     1       8.930 -22.938  21.376  1.00  0.00     0.000 C 
BRANCH  20  21
ATOM     21  C   UNL     1       7.915 -21.854  20.971  1.00  0.00     0.000 C 
BRANCH  21  22
ATOM     22  C   UNL     1       8.514 -20.635  20.243  1.00  0.00    -0.000 C 
BRANCH  22  23
ATOM     23  C   UNL     1       7.993 -19.295  20.789  1.00  0.00    -0.000 C 
BRANCH  23  24
ATOM     24  C   UNL     1       9.122 -18.296  21.105  1.00  0.00    -0.000 C 
BRANCH  24  25
ATOM     25  C   UNL     1      10.158 -18.784  22.132  1.00  0.00    -0.000 C 
BRANCH  25  26
ATOM     26  C   UNL     1      11.600 -18.732  21.599  1.00  0.00    -0.000 C 
BRANCH  26  27
ATOM     27  C   UNL     1      11.997 -17.338  21.080  1.00  0.00    -0.000 C 
BRANCH  27  28
ATOM     28  C   UNL     1      13.505 -17.035  21.130  1.00  0.00    -0.000 C 
BRANCH  28  29
ATOM     29  C   UNL     1      14.078 -17.083  22.555  1.00  0.00    -0.003 C 
ATOM     30  C   UNL     1      15.112 -18.195  22.696  1.00  0.00     0.004 C 
ENDBRANCH  28  29
ENDBRANCH  27  28
ENDBRANCH  26  27
ENDBRANCH  25  26
ENDBRANCH  24  25
ENDBRANCH  23  24
ENDBRANCH  22  23
ENDBRANCH  21  22
ENDBRANCH  20  21
ENDBRANCH  19  20
ENDBRANCH  18  19
ENDBRANCH  17  18
ENDBRANCH   1  17
TORSDOF 26
ENDMDL
MODEL 8
REMARK VINA RESULT:    -3.916      2.416      5.946
REMARK INTER + INTRA:         -16.163
REMARK INTER:                 -10.223
REMARK INTRA:                  -5.940
REMARK UNBOUND:                -6.296
REMARK SMILES CCCCCCCCCCCCCCCCCCCCCCCCCCCC(=O)[O-]
REMARK SMILES IDX 15 1 16 2 17 3 18 4 19 5 20 6 21 7 22 8 23 9 24 10 25 11
REMARK SMILES IDX 26 12 27 13 28 14 29 15 30 16 14 17 13 18 12 19 11 20 10 21
REMARK SMILES IDX 9 22 8 23 7 24 6 25 5 26 4 27 3 28 2 29 1 30
REMARK H PARENT
REMARK Flexibility Score: inf
ROOT
ATOM      1  C   UNL     1       6.148 -16.287  24.683  1.00  0.00     0.000 C 
ENDROOT
BRANCH   1   2
ATOM      2  C   UNL     1       6.908 -16.845  25.896  1.00  0.00     0.000 C 
BRANCH   2   3
ATOM      3  C   UNL     1       8.152 -16.012  26.247  1.00  0.00     0.000 C 
BRANCH   3   4
ATOM      4  C   UNL     1       9.412 -16.889  26.257  1.00  0.00     0.000 C 
BRANCH   4   5
ATOM      5  C   UNL     1      10.295 -16.680  25.015  1.00  0.00     0.000 C 
BRANCH   5   6
ATOM      6  C   UNL     1      10.974 -17.977  24.522  1.00  0.00     0.000 C 
BRANCH   6   7
ATOM      7  C   UNL     1      11.197 -17.965  22.998  1.00  0.00     0.000 C 
BRANCH   7   8
ATOM      8  C   UNL     1      10.833 -19.308  22.331  1.00  0.00     0.000 C 
BRANCH   8   9
ATOM      9  C   UNL     1      11.957 -20.358  22.374  1.00  0.00     0.000 C 
BRANCH   9  10
ATOM     10  C   UNL     1      11.622 -21.627  21.577  1.00  0.00     0.000 C 
BRANCH  10  11
ATOM     11  C   UNL     1      10.929 -22.672  22.460  1.00  0.00     0.000 C 
BRANCH  11  12
ATOM     12  C   UNL     1      11.690 -22.866  23.780  1.00  0.00     0.006 C 
BRANCH  12  13
ATOM     13  C   UNL     1      10.830 -22.526  25.004  1.00  0.00     0.053 C 
BRANCH  13  14
ATOM     14  C   UNL     1      11.488 -21.516  25.895  1.00  0.00     0.041 C 
ATOM     15  O   UNL     1      12.730 -21.314  25.819  1.00  0.00    -0.550 OA
ATOM     16  O   UNL     1      10.730 -20.804  26.816  1.00  0.00    -0.550 OA
ENDBRANCH  13  14
ENDBRANCH  12  13
ENDBRANCH  11  12
ENDBRANCH  10  11
ENDBRANCH   9  10
ENDBRANCH   8   9
ENDBRANCH   7   8
ENDBRANCH   6   7
ENDBRANCH   5   6
ENDBRANCH   4   5
ENDBRANCH   3   4
ENDBRANCH   2   3
ENDBRANCH   1   2
BRANCH   1  17
ATOM     17  C   UNL     1       6.881 -15.115  24.013  1.00  0.00     0.000 C 
BRANCH  17  18
ATOM     18  C   UNL     1       7.144 -15.352  22.514  1.00  0.00     0.000 C 
BRANCH  18  19
ATOM     19  C   UNL     1       7.918 -16.654  22.218  1.00  0.00     0.000 C 
BRANCH  19  20
ATOM     20  C   UNL     1       7.842 -17.054  20.732  1.00  0.00     0.000 C 
BRANCH  20  21
ATOM     21  C   UNL     1       9.176 -16.859  19.988  1.00  0.00     0.000 C 
BRANCH  21  22
ATOM     22  C   UNL     1       9.598 -18.030  19.081  1.00  0.00    -0.000 C 
BRANCH  22  23
ATOM     23  C   UNL     1       8.501 -19.098  18.929  1.00  0.00    -0.000 C 
BRANCH  23  24
ATOM     24  C   UNL     1       9.051 -20.535  18.960  1.00  0.00    -0.000 C 
BRANCH  24  25
ATOM     25  C   UNL     1       8.381 -21.469  19.983  1.00  0.00    -0.000 C 
BRANCH  25  26
ATOM     26  C   UNL     1       7.402 -20.733  20.914  1.00  0.00    -0.000 C 
BRANCH  26  27
ATOM     27  C   UNL     1       7.594 -21.099  22.396  1.00  0.00    -0.000 C 
BRANCH  27  28
ATOM     28  C   UNL     1       7.212 -19.988  23.390  1.00  0.00    -0.000 C 
BRANCH  28  29
ATOM     29  C   UNL     1       8.021 -20.050  24.696  1.00  0.00    -0.003 C 
ATOM     30  C   UNL     1       7.300 -20.882  25.751  1.00  0.00     0.004 C 
ENDBRANCH  28  29
ENDBRANCH  27  28
ENDBRANCH  26  27
ENDBRANCH  25  26
ENDBRANCH  24  25
ENDBRANCH  23  24
ENDBRANCH  22  23
ENDBRANCH  21  22
ENDBRANCH  20  21
ENDBRANCH  19  20
ENDBRANCH  18  19
ENDBRANCH  17  18
ENDBRANCH   1  17
TORSDOF 26
ENDMDL
MODEL 9
REMARK VINA RESULT:    -3.872      2.938      7.068
REMARK INTER + INTRA:         -16.054
REMARK INTER:                 -11.014
REMARK INTRA:                  -5.040
REMARK UNBOUND:                -6.296
REMARK SMILES CCCCCCCCCCCCCCCCCCCCCCCCCCCC(=O)[O-]
REMARK SMILES IDX 15 1 16 2 17 3 18 4 19 5 20 6 21 7 22 8 23 9 24 10 25 11
REMARK SMILES IDX 26 12 27 13 28 14 29 15 30 16 14 17 13 18 12 19 11 20 10 21
REMARK SMILES IDX 9 22 8 23 7 24 6 25 5 26 4 27 3 28 2 29 1 30
REMARK H PARENT
REMARK Flexibility Score: inf
ROOT
ATOM      1  C   UNL     1       8.100 -18.329  20.980  1.00  0.00     0.000 C 
ENDROOT
BRANCH   1   2
ATOM      2  C   UNL     1       8.308 -19.506  20.015  1.00  0.00     0.000 C 
BRANCH   2   3
ATOM      3  C   UNL     1       7.898 -20.854  20.630  1.00  0.00     0.000 C 
BRANCH   3   4
ATOM      4  C   UNL     1       7.460 -20.678  22.091  1.00  0.00     0.000 C 
BRANCH   4   5
ATOM      5  C   UNL     1       8.226 -21.595  23.059  1.00  0.00     0.000 C 
BRANCH   5   6
ATOM      6  C   UNL     1       9.120 -22.632  22.343  1.00  0.00     0.000 C 
BRANCH   6   7
ATOM      7  C   UNL     1      10.558 -22.627  22.892  1.00  0.00     0.000 C 
BRANCH   7   8
ATOM      8  C   UNL     1      11.267 -21.270  22.693  1.00  0.00     0.000 C 
BRANCH   8   9
ATOM      9  C   UNL     1      11.994 -20.750  23.946  1.00  0.00     0.000 C 
BRANCH   9  10
ATOM     10  C   UNL     1      11.925 -21.728  25.127  1.00  0.00     0.000 C 
BRANCH  10  11
ATOM     11  C   UNL     1      11.222 -21.093  26.334  1.00  0.00     0.000 C 
BRANCH  11  12
ATOM     12  C   UNL     1       9.705 -21.018  26.109  1.00  0.00     0.006 C 
BRANCH  12  13
ATOM     13  C   UNL     1       9.025 -20.013  27.047  1.00  0.00     0.053 C 
BRANCH  13  14
ATOM     14  C   UNL     1       7.588 -19.784  26.685  1.00  0.00     0.041 C 
ATOM     15  O   UNL     1       6.817 -20.762  26.491  1.00  0.00    -0.550 OA
ATOM     16  O   UNL     1       7.103 -18.489  26.553  1.00  0.00    -0.550 OA
ENDBRANCH  13  14
ENDBRANCH  12  13
ENDBRANCH  11  12
ENDBRANCH  10  11
ENDBRANCH   9  10
ENDBRANCH   8   9
ENDBRANCH   7   8
ENDBRANCH   6   7
ENDBRANCH   5   6
ENDBRANCH   4   5
ENDBRANCH   3   4
ENDBRANCH   2   3
ENDBRANCH   1   2
BRANCH   1  17
ATOM     17  C   UNL     1       9.360 -17.463  21.139  1.00  0.00     0.000 C 
BRANCH  17  18
ATOM     18  C   UNL     1      10.196 -17.845  22.374  1.00  0.00     0.000 C 
BRANCH  18  19
ATOM     19  C   UNL     1       9.376 -17.931  23.678  1.00  0.00     0.000 C 
BRANCH  19  20
ATOM     20  C   UNL     1      10.034 -17.158  24.836  1.00  0.00     0.000 C 
BRANCH  20  21
ATOM     21  C   UNL     1      10.570 -15.779  24.410  1.00  0.00     0.000 C 
BRANCH  21  22
ATOM     22  C   UNL     1       9.493 -14.746  24.028  1.00  0.00    -0.000 C 
BRANCH  22  23
ATOM     23  C   UNL     1       8.268 -14.784  24.958  1.00  0.00    -0.000 C 
BRANCH  23  24
ATOM     24  C   UNL     1       6.960 -15.114  24.215  1.00  0.00    -0.000 C 
BRANCH  24  25
ATOM     25  C   UNL     1       7.027 -14.979  22.684  1.00  0.00    -0.000 C 
BRANCH  25  26
ATOM     26  C   UNL     1       5.997 -13.982  22.125  1.00  0.00    -0.000 C 
BRANCH  26  27
ATOM     27  C   UNL     1       5.903 -14.016  20.590  1.00  0.00    -0.000 C 
BRANCH  27  28
ATOM     28  C   UNL     1       6.759 -15.102  19.914  1.00  0.00    -0.000 C 
BRANCH  28  29
ATOM     29  C   UNL     1       7.338 -14.654  18.563  1.00  0.00    -0.003 C 
ATOM     30  C   UNL     1       8.099 -15.788  17.886  1.00  0.00     0.004 C 
ENDBRANCH  28  29
ENDBRANCH  27  28
ENDBRANCH  26  27
ENDBRANCH  25  26
ENDBRANCH  24  25
ENDBRANCH  23  24
ENDBRANCH  22  23
ENDBRANCH  21  22
ENDBRANCH  20  21
ENDBRANCH  19  20
ENDBRANCH  18  19
ENDBRANCH  17  18
ENDBRANCH   1  17
TORSDOF 26
ENDMDL
