MODEL 1
REMARK VINA RESULT:    -3.360      0.000      0.000
REMARK INTER + INTRA:          -6.307
REMARK INTER:                  -5.717
REMARK INTRA:                  -0.590
REMARK UNBOUND:                -0.590
REMARK SMILES CCCCCCCCCCCCCC(=O)[O-]
REMARK SMILES IDX 8 1 9 2 10 3 11 4 12 5 13 6 14 7 15 8 16 9 7 10 6 11 5 12
REMARK SMILES IDX 4 13 3 14 2 15 1 16
REMARK H PARENT
REMARK Flexibility Score: inf
ROOT
ATOM      1  C   UNL     1      -3.437   8.469   3.842  1.00  0.00     0.000 C 
ENDROOT
BRANCH   1   2
ATOM      2  C   UNL     1      -2.800   9.127   5.076  1.00  0.00     0.000 C 
BRANCH   2   3
ATOM      3  C   UNL     1      -3.128   8.380   6.379  1.00  0.00     0.000 C 
BRANCH   3   4
ATOM      4  C   UNL     1      -1.976   8.437   7.397  1.00  0.00     0.000 C 
BRANCH   4   5
ATOM      5  C   UNL     1      -2.207   7.508   8.600  1.00  0.00     0.006 C 
BRANCH   5   6
ATOM      6  C   UNL     1      -1.312   6.263   8.564  1.00  0.00     0.053 C 
BRANCH   6   7
ATOM      7  C   UNL     1      -2.049   5.074   9.096  1.00  0.00     0.041 C 
ATOM      8  O   UNL     1      -2.001   4.796  10.322  1.00  0.00    -0.550 OA
ATOM      9  O   UNL     1      -2.829   4.301   8.244  1.00  0.00    -0.550 OA
ENDBRANCH   6   7
ENDBRANCH   5   6
ENDBRANCH   4   5
ENDBRANCH   3   4
ENDBRANCH   2   3
ENDBRANCH   1   2
BRANCH   1  10
ATOM     10  C   UNL     1      -2.447   8.435   2.668  1.00  0.00     0.000 C 
BRANCH  10  11
ATOM     11  C   UNL     1      -2.796   7.360   1.623  1.00  0.00    -0.000 C 
BRANCH  11  12
ATOM     12  C   UNL     1      -3.927   6.395   2.035  1.00  0.00    -0.000 C 
BRANCH  12  13
ATOM     13  C   UNL     1      -3.622   4.899   1.824  1.00  0.00    -0.000 C 
BRANCH  13  14
ATOM     14  C   UNL     1      -3.318   4.111   3.111  1.00  0.00    -0.000 C 
BRANCH  14  15
ATOM     15  C   UNL     1      -3.622   2.611   2.976  1.00  0.00    -0.003 C 
ATOM     16  C   UNL     1      -3.307   1.869   4.271  1.00  0.00     0.004 C 
ENDBRANCH  14  15
ENDBRANCH  13  14
ENDBRANCH  12  13
ENDBRANCH  11  12
ENDBRANCH  10  11
ENDBRANCH   1  10
TORSDOF 12
ENDMDL
MODEL 2
REMARK VINA RESULT:    -3.108      8.094     10.703
REMARK INTER + INTRA:          -5.878
REMARK INTER:                  -4.089
REMARK INTRA:                  -1.789
REMARK UNBOUND:                -0.590
REMARK SMILES CCCCCCCCCCCCCC(=O)[O-]
REMARK SMILES IDX 8 1 9 2 10 3 11 4 12 5 13 6 14 7 15 8 16 9 7 10 6 11 5 12
REMARK SMILES IDX 4 13 3 14 2 15 1 16
REMARK H PARENT
REMARK Flexibility Score: inf
ROOT
ATOM      1  C   UNL     1      -4.306  -2.225  10.823  1.00  0.00     0.000 C 
ENDROOT
BRANCH   1   2
ATOM      2  C   UNL     1      -5.349  -1.172  11.233  1.00  0.00     0.000 C 
BRANCH   2   3
ATOM      3  C   UNL     1      -6.687  -1.799  11.654  1.00  0.00     0.000 C 
BRANCH   3   4
ATOM      4  C   UNL     1      -7.890  -0.896  11.329  1.00  0.00     0.000 C 
BRANCH   4   5
ATOM      5  C   UNL     1      -7.691  -0.092  10.036  1.00  0.00     0.006 C 
BRANCH   5   6
ATOM      6  C   UNL     1      -7.808   1.422  10.258  1.00  0.00     0.053 C 
BRANCH   6   7
ATOM      7  C   UNL     1      -7.752   2.148   8.951  1.00  0.00     0.041 C 
ATOM      8  O   UNL     1      -7.264   3.307   8.891  1.00  0.00    -0.550 OA
ATOM      9  O   UNL     1      -8.193   1.525   7.790  1.00  0.00    -0.550 OA
ENDBRANCH   6   7
ENDBRANCH   5   6
ENDBRANCH   4   5
ENDBRANCH   3   4
ENDBRANCH   2   3
ENDBRANCH   1   2
BRANCH   1  10
ATOM     10  C   UNL     1      -4.990  -3.518  10.354  1.00  0.00     0.000 C 
BRANCH  10  11
ATOM     11  C   UNL     1      -4.581  -3.926   8.927  1.00  0.00    -0.000 C 
BRANCH  11  12
ATOM     12  C   UNL     1      -5.746  -4.027   7.921  1.00  0.00    -0.000 C 
BRANCH  12  13
ATOM     13  C   UNL     1      -6.764  -2.870   7.979  1.00  0.00    -0.000 C 
BRANCH  13  14
ATOM     14  C   UNL     1      -8.235  -3.307   8.100  1.00  0.00    -0.000 C 
BRANCH  14  15
ATOM     15  C   UNL     1      -8.523  -4.073   9.400  1.00  0.00    -0.003 C 
ATOM     16  C   UNL     1      -9.941  -3.804   9.893  1.00  0.00     0.004 C 
ENDBRANCH  14  15
ENDBRANCH  13  14
ENDBRANCH  12  13
ENDBRANCH  11  12
ENDBRANCH  10  11
ENDBRANCH   1  10
TORSDOF 12
ENDMDL
MODEL 3
REMARK VINA RESULT:    -3.100      4.133      7.709
REMARK INTER + INTRA:          -5.864
REMARK INTER:                  -4.244
REMARK INTRA:                  -1.620
REMARK UNBOUND:                -0.590
REMARK SMILES CCCCCCCCCCCCCC(=O)[O-]
REMARK SMILES IDX 8 1 9 2 10 3 11 4 12 5 13 6 14 7 15 8 16 9 7 10 6 11 5 12
REMARK SMILES IDX 4 13 3 14 2 15 1 16
REMARK H PARENT
REMARK Flexibility Score: inf
ROOT
ATOM      1  C   UNL     1       0.571   5.088  11.035  1.00  0.00     0.000 C 
ENDROOT
BRANCH   1   2
ATOM      2  C   UNL     1       0.078   5.218   9.586  1.00  0.00     0.000 C 
BRANCH   2   3
ATOM      3  C   UNL     1      -1.291   4.556   9.365  1.00  0.00     0.000 C 
BRANCH   3   4
ATOM      4  C   UNL     1      -2.237   5.424   8.518  1.00  0.00     0.000 C 
BRANCH   4   5
ATOM      5  C   UNL     1      -2.096   6.923   8.825  1.00  0.00     0.006 C 
BRANCH   5   6
ATOM      6  C   UNL     1      -2.348   7.803   7.594  1.00  0.00     0.053 C 
BRANCH   6   7
ATOM      7  C   UNL     1      -3.718   7.556   7.046  1.00  0.00     0.041 C 
ATOM      8  O   UNL     1      -4.735   7.817   7.739  1.00  0.00    -0.550 OA
ATOM      9  O   UNL     1      -3.873   7.083   5.748  1.00  0.00    -0.550 OA
ENDBRANCH   6   7
ENDBRANCH   5   6
ENDBRANCH   4   5
ENDBRANCH   3   4
ENDBRANCH   2   3
ENDBRANCH   1   2
BRANCH   1  10
ATOM     10  C   UNL     1      -0.453   4.333  11.896  1.00  0.00     0.000 C 
BRANCH  10  11
ATOM     11  C   UNL     1       0.126   3.056  12.530  1.00  0.00    -0.000 C 
BRANCH  11  12
ATOM     12  C   UNL     1      -0.341   1.737  11.880  1.00  0.00    -0.000 C 
BRANCH  12  13
ATOM     13  C   UNL     1       0.735   0.991  11.065  1.00  0.00    -0.000 C 
BRANCH  13  14
ATOM     14  C   UNL     1       0.981   1.550   9.652  1.00  0.00    -0.000 C 
BRANCH  14  15
ATOM     15  C   UNL     1       2.381   2.160   9.488  1.00  0.00    -0.003 C 
ATOM     16  C   UNL     1       3.237   1.911  10.726  1.00  0.00     0.004 C 
ENDBRANCH  14  15
ENDBRANCH  13  14
ENDBRANCH  12  13
ENDBRANCH  11  12
ENDBRANCH  10  11
ENDBRANCH   1  10
TORSDOF 12
ENDMDL
MODEL 4
REMARK VINA RESULT:    -3.085      5.187      7.782
REMARK INTER + INTRA:          -5.839
REMARK INTER:                  -4.167
REMARK INTRA:                  -1.671
REMARK UNBOUND:                -0.590
REMARK SMILES CCCCCCCCCCCCCC(=O)[O-]
REMARK SMILES IDX 8 1 9 2 10 3 11 4 12 5 13 6 14 7 15 8 16 9 7 10 6 11 5 12
REMARK SMILES IDX 4 13 3 14 2 15 1 16
REMARK H PARENT
REMARK Flexibility Score: inf
ROOT
ATOM      1  C   UNL     1      -2.261   3.446  12.028  1.00  0.00     0.000 C 
ENDROOT
BRANCH   1   2
ATOM      2  C   UNL     1      -0.731   3.419  12.168  1.00  0.00     0.000 C 
BRANCH   2   3
ATOM      3  C   UNL     1      -0.091   2.228  11.438  1.00  0.00     0.000 C 
BRANCH   3   4
ATOM      4  C   UNL     1       0.362   2.585  10.011  1.00  0.00     0.000 C 
BRANCH   4   5
ATOM      5  C   UNL     1       1.820   3.066   9.959  1.00  0.00     0.006 C 
BRANCH   5   6
ATOM      6  C   UNL     1       2.712   2.158   9.103  1.00  0.00     0.053 C 
BRANCH   6   7
ATOM      7  C   UNL     1       3.307   1.070   9.940  1.00  0.00     0.041 C 
ATOM      8  O   UNL     1       4.241   1.328  10.743  1.00  0.00    -0.550 OA
ATOM      9  O   UNL     1       2.796  -0.220   9.870  1.00  0.00    -0.550 OA
ENDBRANCH   6   7
ENDBRANCH   5   6
ENDBRANCH   4   5
ENDBRANCH   3   4
ENDBRANCH   2   3
ENDBRANCH   1   2
BRANCH   1  10
ATOM     10  C   UNL     1      -2.727   4.751  11.366  1.00  0.00     0.000 C 
BRANCH  10  11
ATOM     11  C   UNL     1      -3.336   4.528   9.969  1.00  0.00    -0.000 C 
BRANCH  11  12
ATOM     12  C   UNL     1      -2.372   4.779   8.791  1.00  0.00    -0.000 C 
BRANCH  12  13
ATOM     13  C   UNL     1      -2.374   6.218   8.238  1.00  0.00    -0.000 C 
BRANCH  13  14
ATOM     14  C   UNL     1      -1.068   7.001   8.462  1.00  0.00    -0.000 C 
BRANCH  14  15
ATOM     15  C   UNL     1      -0.011   6.190   9.227  1.00  0.00    -0.003 C 
ATOM     16  C   UNL     1       0.254   6.792  10.603  1.00  0.00     0.004 C 
ENDBRANCH  14  15
ENDBRANCH  13  14
ENDBRANCH  12  13
ENDBRANCH  11  12
ENDBRANCH  10  11
ENDBRANCH   1  10
TORSDOF 12
ENDMDL
MODEL 5
REMARK VINA RESULT:    -3.074      5.179      7.109
REMARK INTER + INTRA:          -5.820
REMARK INTER:                  -3.847
REMARK INTRA:                  -1.973
REMARK UNBOUND:                -0.590
REMARK SMILES CCCCCCCCCCCCCC(=O)[O-]
REMARK SMILES IDX 8 1 9 2 10 3 11 4 12 5 13 6 14 7 15 8 16 9 7 10 6 11 5 12
REMARK SMILES IDX 4 13 3 14 2 15 1 16
REMARK H PARENT
REMARK Flexibility Score: inf
ROOT
ATOM      1  C   UNL     1       0.730   6.595  10.727  1.00  0.00     0.000 C 
ENDROOT
BRANCH   1   2
ATOM      2  C   UNL     1       1.503   5.831   9.641  1.00  0.00     0.000 C 
BRANCH   2   3
ATOM      3  C   UNL     1       1.376   4.306   9.787  1.00  0.00     0.000 C 
BRANCH   3   4
ATOM      4  C   UNL     1       1.150   3.870  11.245  1.00  0.00     0.000 C 
BRANCH   4   5
ATOM      5  C   UNL     1       0.676   2.413  11.358  1.00  0.00     0.006 C 
BRANCH   5   6
ATOM      6  C   UNL     1       0.740   1.666  10.020  1.00  0.00     0.053 C 
BRANCH   6   7
ATOM      7  C   UNL     1       1.822   0.633  10.049  1.00  0.00     0.041 C 
ATOM      8  O   UNL     1       1.554  -0.557  10.360  1.00  0.00    -0.550 OA
ATOM      9  O   UNL     1       3.119   0.974   9.682  1.00  0.00    -0.550 OA
ENDBRANCH   6   7
ENDBRANCH   5   6
ENDBRANCH   4   5
ENDBRANCH   3   4
ENDBRANCH   2   3
ENDBRANCH   1   2
BRANCH   1  10
ATOM     10  C   UNL     1      -0.524   7.261  10.140  1.00  0.00     0.000 C 
BRANCH  10  11
ATOM     11  C   UNL     1      -0.725   6.943   8.647  1.00  0.00    -0.000 C 
BRANCH  11  12
ATOM     12  C   UNL     1      -2.055   6.240   8.305  1.00  0.00    -0.000 C 
BRANCH  12  13
ATOM     13  C   UNL     1      -2.186   4.796   8.831  1.00  0.00    -0.000 C 
BRANCH  13  14
ATOM     14  C   UNL     1      -3.206   4.609   9.968  1.00  0.00    -0.000 C 
BRANCH  14  15
ATOM     15  C   UNL     1      -2.602   3.920  11.201  1.00  0.00    -0.003 C 
ATOM     16  C   UNL     1      -2.336   4.926  12.317  1.00  0.00     0.004 C 
ENDBRANCH  14  15
ENDBRANCH  13  14
ENDBRANCH  12  13
ENDBRANCH  11  12
ENDBRANCH  10  11
ENDBRANCH   1  10
TORSDOF 12
ENDMDL
MODEL 6
REMARK VINA RESULT:    -3.057      5.207      7.615
REMARK INTER + INTRA:          -5.791
REMARK INTER:                  -3.882
REMARK INTRA:                  -1.909
REMARK UNBOUND:                -0.590
REMARK SMILES CCCCCCCCCCCCCC(=O)[O-]
REMARK SMILES IDX 8 1 9 2 10 3 11 4 12 5 13 6 14 7 15 8 16 9 7 10 6 11 5 12
REMARK SMILES IDX 4 13 3 14 2 15 1 16
REMARK H PARENT
REMARK Flexibility Score: inf
ROOT
ATOM      1  C   UNL     1      -0.194   5.171  12.091  1.00  0.00     0.000 C 
ENDROOT
BRANCH   1   2
ATOM      2  C   UNL     1       0.279   3.752  12.444  1.00  0.00     0.000 C 
BRANCH   2   3
ATOM      3  C   UNL     1      -0.642   2.662  11.873  1.00  0.00     0.000 C 
BRANCH   3   4
ATOM      4  C   UNL     1       0.141   1.471  11.293  1.00  0.00     0.000 C 
BRANCH   4   5
ATOM      5  C   UNL     1       0.757   1.782   9.921  1.00  0.00     0.006 C 
BRANCH   5   6
ATOM      6  C   UNL     1       2.261   1.489   9.868  1.00  0.00     0.053 C 
BRANCH   6   7
ATOM      7  C   UNL     1       3.019   2.711   9.457  1.00  0.00     0.041 C 
ATOM      8  O   UNL     1       3.234   2.943   8.239  1.00  0.00    -0.550 OA
ATOM      9  O   UNL     1       3.444   3.622  10.417  1.00  0.00    -0.550 OA
ENDBRANCH   6   7
ENDBRANCH   5   6
ENDBRANCH   4   5
ENDBRANCH   3   4
ENDBRANCH   2   3
ENDBRANCH   1   2
BRANCH   1  10
ATOM     10  C   UNL     1       0.760   5.830  11.084  1.00  0.00     0.000 C 
BRANCH  10  11
ATOM     11  C   UNL     1       0.418   5.485   9.623  1.00  0.00    -0.000 C 
BRANCH  11  12
ATOM     12  C   UNL     1      -0.404   6.556   8.876  1.00  0.00    -0.000 C 
BRANCH  12  13
ATOM     13  C   UNL     1      -1.859   6.161   8.556  1.00  0.00    -0.000 C 
BRANCH  13  14
ATOM     14  C   UNL     1      -2.203   4.684   8.820  1.00  0.00    -0.000 C 
BRANCH  14  15
ATOM     15  C   UNL     1      -3.213   4.503   9.964  1.00  0.00    -0.003 C 
ATOM     16  C   UNL     1      -3.664   5.852  10.516  1.00  0.00     0.004 C 
ENDBRANCH  14  15
ENDBRANCH  13  14
ENDBRANCH  12  13
ENDBRANCH  11  12
ENDBRANCH  10  11
ENDBRANCH   1  10
TORSDOF 12
ENDMDL
MODEL 7
REMARK VINA RESULT:    -3.018      4.029      7.438
REMARK INTER + INTRA:          -5.726
REMARK INTER:                  -4.149
REMARK INTRA:                  -1.577
REMARK UNBOUND:                -0.590
REMARK SMILES CCCCCCCCCCCCCC(=O)[O-]
REMARK SMILES IDX 8 1 9 2 10 3 11 4 12 5 13 6 14 7 15 8 16 9 7 10 6 11 5 12
REMARK SMILES IDX 4 13 3 14 2 15 1 16
REMARK H PARENT
REMARK Flexibility Score: inf
ROOT
ATOM      1  C   UNL     1      -2.307   5.609  11.352  1.00  0.00     0.000 C 
ENDROOT
BRANCH   1   2
ATOM      2  C   UNL     1      -2.763   4.629  10.260  1.00  0.00     0.000 C 
BRANCH   2   3
ATOM      3  C   UNL     1      -2.213   4.992   8.872  1.00  0.00     0.000 C 
BRANCH   3   4
ATOM      4  C   UNL     1      -1.109   6.063   8.935  1.00  0.00     0.000 C 
BRANCH   4   5
ATOM      5  C   UNL     1      -1.462   7.322   8.129  1.00  0.00     0.006 C 
BRANCH   5   6
ATOM      6  C   UNL     1      -2.976   7.519   7.975  1.00  0.00     0.053 C 
BRANCH   6   7
ATOM      7  C   UNL     1      -3.306   7.973   6.588  1.00  0.00     0.041 C 
ATOM      8  O   UNL     1      -4.016   7.253   5.838  1.00  0.00    -0.550 OA
ATOM      9  O   UNL     1      -2.871   9.214   6.140  1.00  0.00    -0.550 OA
ENDBRANCH   6   7
ENDBRANCH   5   6
ENDBRANCH   4   5
ENDBRANCH   3   4
ENDBRANCH   2   3
ENDBRANCH   1   2
BRANCH   1  10
ATOM     10  C   UNL     1      -1.812   4.854  12.594  1.00  0.00     0.000 C 
BRANCH  10  11
ATOM     11  C   UNL     1      -0.717   3.822  12.268  1.00  0.00    -0.000 C 
BRANCH  11  12
ATOM     12  C   UNL     1       0.631   4.423  11.818  1.00  0.00    -0.000 C 
BRANCH  12  13
ATOM     13  C   UNL     1       1.301   3.711  10.626  1.00  0.00    -0.000 C 
BRANCH  13  14
ATOM     14  C   UNL     1       0.434   2.641   9.939  1.00  0.00    -0.000 C 
BRANCH  14  15
ATOM     15  C   UNL     1       1.134   1.277   9.848  1.00  0.00    -0.003 C 
ATOM     16  C   UNL     1       0.763   0.389  11.031  1.00  0.00     0.004 C 
ENDBRANCH  14  15
ENDBRANCH  13  14
ENDBRANCH  12  13
ENDBRANCH  11  12
ENDBRANCH  10  11
ENDBRANCH   1  10
TORSDOF 12
ENDMDL
MODEL 8
REMARK VINA RESULT:    -3.008      4.739      7.392
REMARK INTER + INTRA:          -5.708
REMARK INTER:                  -4.233
REMARK INTRA:                  -1.475
REMARK UNBOUND:                -0.590
REMARK SMILES CCCCCCCCCCCCCC(=O)[O-]
REMARK SMILES IDX 8 1 9 2 10 3 11 4 12 5 13 6 14 7 15 8 16 9 7 10 6 11 5 12
REMARK SMILES IDX 4 13 3 14 2 15 1 16
REMARK H PARENT
REMARK Flexibility Score: inf
ROOT
ATOM      1  C   UNL     1       2.046   5.014  10.790  1.00  0.00     0.000 C 
ENDROOT
BRANCH   1   2
ATOM      2  C   UNL     1       1.235   5.457   9.562  1.00  0.00     0.000 C 
BRANCH   2   3
ATOM      3  C   UNL     1      -0.216   5.823   9.913  1.00  0.00     0.000 C 
BRANCH   3   4
ATOM      4  C   UNL     1      -0.921   6.591   8.782  1.00  0.00     0.000 C 
BRANCH   4   5
ATOM      5  C   UNL     1      -2.209   5.897   8.312  1.00  0.00     0.006 C 
BRANCH   5   6
ATOM      6  C   UNL     1      -2.570   4.679   9.171  1.00  0.00     0.053 C 
BRANCH   6   7
ATOM      7  C   UNL     1      -3.761   4.976  10.027  1.00  0.00     0.041 C 
ATOM      8  O   UNL     1      -4.850   4.379   9.827  1.00  0.00    -0.550 OA
ATOM      9  O   UNL     1      -3.653   5.878  11.080  1.00  0.00    -0.550 OA
ENDBRANCH   6   7
ENDBRANCH   5   6
ENDBRANCH   4   5
ENDBRANCH   3   4
ENDBRANCH   2   3
ENDBRANCH   1   2
BRANCH   1  10
ATOM     10  C   UNL     1       3.162   4.039  10.386  1.00  0.00     0.000 C 
BRANCH  10  11
ATOM     11  C   UNL     1       2.782   3.165   9.177  1.00  0.00    -0.000 C 
BRANCH  11  12
ATOM     12  C   UNL     1       2.309   1.739   9.528  1.00  0.00    -0.000 C 
BRANCH  12  13
ATOM     13  C   UNL     1       0.800   1.601   9.816  1.00  0.00    -0.000 C 
BRANCH  13  14
ATOM     14  C   UNL     1       0.423   1.602  11.308  1.00  0.00    -0.000 C 
BRANCH  14  15
ATOM     15  C   UNL     1      -0.669   2.629  11.645  1.00  0.00    -0.003 C 
ATOM     16  C   UNL     1      -1.738   2.019  12.546  1.00  0.00     0.004 C 
ENDBRANCH  14  15
ENDBRANCH  13  14
ENDBRANCH  12  13
ENDBRANCH  11  12
ENDBRANCH  10  11
ENDBRANCH   1  10
TORSDOF 12
ENDMDL
MODEL 9
REMARK VINA RESULT:    -3.000      5.248      7.455
REMARK INTER + INTRA:          -5.695
REMARK INTER:                  -4.000
REMARK INTRA:                  -1.696
REMARK UNBOUND:                -0.590
REMARK SMILES CCCCCCCCCCCCCC(=O)[O-]
REMARK SMILES IDX 8 1 9 2 10 3 11 4 12 5 13 6 14 7 15 8 16 9 7 10 6 11 5 12
REMARK SMILES IDX 4 13 3 14 2 15 1 16
REMARK H PARENT
REMARK Flexibility Score: inf
ROOT
ATOM      1  C   UNL     1      -2.120   4.639   8.972  1.00  0.00     0.000 C 
ENDROOT
BRANCH   1   2
ATOM      2  C   UNL     1      -1.941   6.067   8.435  1.00  0.00     0.000 C 
BRANCH   2   3
ATOM      3  C   UNL     1      -0.581   6.675   8.814  1.00  0.00     0.000 C 
BRANCH   3   4
ATOM      4  C   UNL     1       0.321   5.680   9.565  1.00  0.00     0.000 C 
BRANCH   4   5
ATOM      5  C   UNL     1       1.800   6.096   9.548  1.00  0.00     0.006 C 
BRANCH   5   6
ATOM      6  C   UNL     1       2.733   4.979  10.034  1.00  0.00     0.053 C 
BRANCH   6   7
ATOM      7  C   UNL     1       3.701   4.601   8.958  1.00  0.00     0.041 C 
ATOM      8  O   UNL     1       4.573   5.423   8.572  1.00  0.00    -0.550 OA
ATOM      9  O   UNL     1       3.673   3.321   8.416  1.00  0.00    -0.550 OA
ENDBRANCH   6   7
ENDBRANCH   5   6
ENDBRANCH   4   5
ENDBRANCH   3   4
ENDBRANCH   2   3
ENDBRANCH   1   2
BRANCH   1  10
ATOM     10  C   UNL     1      -3.380   4.537   9.845  1.00  0.00     0.000 C 
BRANCH  10  11
ATOM     11  C   UNL     1      -3.064   4.538  11.352  1.00  0.00    -0.000 C 
BRANCH  11  12
ATOM     12  C   UNL     1      -2.114   3.416  11.818  1.00  0.00    -0.000 C 
BRANCH  12  13
ATOM     13  C   UNL     1      -0.790   3.897  12.445  1.00  0.00    -0.000 C 
BRANCH  13  14
ATOM     14  C   UNL     1       0.419   2.979  12.191  1.00  0.00    -0.000 C 
BRANCH  14  15
ATOM     15  C   UNL     1       0.080   1.784  11.288  1.00  0.00    -0.003 C 
ATOM     16  C   UNL     1       0.765   1.909   9.931  1.00  0.00     0.004 C 
ENDBRANCH  14  15
ENDBRANCH  13  14
ENDBRANCH  12  13
ENDBRANCH  11  12
ENDBRANCH  10  11
ENDBRANCH   1  10
TORSDOF 12
ENDMDL
