MODEL 1
REMARK VINA RESULT:    -4.786      0.000      0.000
REMARK INTER + INTRA:         -10.023
REMARK INTER:                  -9.263
REMARK INTRA:                  -0.760
REMARK UNBOUND:                -0.760
REMARK SMILES CCCCCCCCCCCCCCCCCC(=O)[O-]
REMARK SMILES IDX 10 1 11 2 12 3 13 4 14 5 15 6 16 7 17 8 18 9 19 10 20 11
REMARK SMILES IDX 9 12 8 13 7 14 6 15 5 16 4 17 3 18 2 19 1 20
REMARK H PARENT
REMARK Flexibility Score: inf
ROOT
ATOM      1  C   UNL     1     128.782 130.930 124.055  1.00  0.00     0.000 C 
ENDROOT
BRANCH   1   2
ATOM      2  C   UNL     1     128.231 130.643 125.464  1.00  0.00     0.000 C 
BRANCH   2   3
ATOM      3  C   UNL     1     129.063 131.306 126.577  1.00  0.00     0.000 C 
BRANCH   3   4
ATOM      4  C   UNL     1     128.207 132.138 127.549  1.00  0.00     0.000 C 
BRANCH   4   5
ATOM      5  C   UNL     1     128.940 133.306 128.235  1.00  0.00     0.000 C 
BRANCH   5   6
ATOM      6  C   UNL     1     130.441 133.042 128.429  1.00  0.00     0.000 C 
BRANCH   6   7
ATOM      7  C   UNL     1     131.001 133.878 129.586  1.00  0.00     0.006 C 
BRANCH   7   8
ATOM      8  C   UNL     1     129.964 134.889 130.086  1.00  0.00     0.053 C 
BRANCH   8   9
ATOM      9  C   UNL     1     130.626 136.176 130.465  1.00  0.00     0.041 C 
ATOM     10  O   UNL     1     131.740 136.166 131.052  1.00  0.00    -0.550 OA
ATOM     11  O   UNL     1     130.036 137.388 130.129  1.00  0.00    -0.550 OA
ENDBRANCH   8   9
ENDBRANCH   7   8
ENDBRANCH   6   7
ENDBRANCH   5   6
ENDBRANCH   4   5
ENDBRANCH   3   4
ENDBRANCH   2   3
ENDBRANCH   1   2
BRANCH   1  12
ATOM     12  C   UNL     1     129.341 129.706 123.302  1.00  0.00     0.000 C 
BRANCH  12  13
ATOM     13  C   UNL     1     128.297 128.864 122.546  1.00  0.00    -0.000 C 
BRANCH  13  14
ATOM     14  C   UNL     1     127.832 127.635 123.344  1.00  0.00    -0.000 C 
BRANCH  14  15
ATOM     15  C   UNL     1     127.186 126.562 122.453  1.00  0.00    -0.000 C 
BRANCH  15  16
ATOM     16  C   UNL     1     126.855 125.272 123.224  1.00  0.00    -0.000 C 
BRANCH  16  17
ATOM     17  C   UNL     1     127.574 125.195 124.580  1.00  0.00    -0.000 C 
BRANCH  17  18
ATOM     18  C   UNL     1     126.607 124.977 125.754  1.00  0.00    -0.000 C 
BRANCH  18  19
ATOM     19  C   UNL     1     127.312 124.276 126.921  1.00  0.00    -0.003 C 
ATOM     20  C   UNL     1     126.898 124.881 128.259  1.00  0.00     0.004 C 
ENDBRANCH  18  19
ENDBRANCH  17  18
ENDBRANCH  16  17
ENDBRANCH  15  16
ENDBRANCH  14  15
ENDBRANCH  13  14
ENDBRANCH  12  13
ENDBRANCH   1  12
TORSDOF 16
ENDMDL
MODEL 2
REMARK VINA RESULT:    -4.677      7.657     11.581
REMARK INTER + INTRA:          -9.812
REMARK INTER:                  -8.011
REMARK INTRA:                  -1.801
REMARK UNBOUND:                -0.760
REMARK SMILES CCCCCCCCCCCCCCCCCC(=O)[O-]
REMARK SMILES IDX 10 1 11 2 12 3 13 4 14 5 15 6 16 7 17 8 18 9 19 10 20 11
REMARK SMILES IDX 9 12 8 13 7 14 6 15 5 16 4 17 3 18 2 19 1 20
REMARK H PARENT
REMARK Flexibility Score: inf
ROOT
ATOM      1  C   UNL     1     123.874 118.228 132.259  1.00  0.00     0.000 C 
ENDROOT
BRANCH   1   2
ATOM      2  C   UNL     1     122.506 118.777 132.706  1.00  0.00     0.000 C 
BRANCH   2   3
ATOM      3  C   UNL     1     122.449 120.315 132.700  1.00  0.00     0.000 C 
BRANCH   3   4
ATOM      4  C   UNL     1     123.148 120.945 133.918  1.00  0.00     0.000 C 
BRANCH   4   5
ATOM      5  C   UNL     1     123.521 122.432 133.765  1.00  0.00     0.000 C 
BRANCH   5   6
ATOM      6  C   UNL     1     125.038 122.675 133.773  1.00  0.00     0.000 C 
BRANCH   6   7
ATOM      7  C   UNL     1     125.463 123.455 135.023  1.00  0.00     0.006 C 
BRANCH   7   8
ATOM      8  C   UNL     1     124.499 124.611 135.303  1.00  0.00     0.053 C 
BRANCH   8   9
ATOM      9  C   UNL     1     125.168 125.925 135.049  1.00  0.00     0.041 C 
ATOM     10  O   UNL     1     126.419 125.985 134.929  1.00  0.00    -0.550 OA
ATOM     11  O   UNL     1     124.406 127.078 134.899  1.00  0.00    -0.550 OA
ENDBRANCH   8   9
ENDBRANCH   7   8
ENDBRANCH   6   7
ENDBRANCH   5   6
ENDBRANCH   4   5
ENDBRANCH   3   4
ENDBRANCH   2   3
ENDBRANCH   1   2
BRANCH   1  12
ATOM     12  C   UNL     1     124.325 118.650 130.846  1.00  0.00     0.000 C 
BRANCH  12  13
ATOM     13  C   UNL     1     125.816 119.010 130.711  1.00  0.00    -0.000 C 
BRANCH  13  14
ATOM     14  C   UNL     1     126.041 120.483 130.330  1.00  0.00    -0.000 C 
BRANCH  14  15
ATOM     15  C   UNL     1     124.806 121.118 129.670  1.00  0.00    -0.000 C 
BRANCH  15  16
ATOM     16  C   UNL     1     124.457 122.493 130.267  1.00  0.00    -0.000 C 
BRANCH  16  17
ATOM     17  C   UNL     1     124.797 123.652 129.317  1.00  0.00    -0.000 C 
BRANCH  17  18
ATOM     18  C   UNL     1     125.494 123.181 128.030  1.00  0.00    -0.000 C 
BRANCH  18  19
ATOM     19  C   UNL     1     126.460 124.250 127.509  1.00  0.00    -0.003 C 
ATOM     20  C   UNL     1     126.669 125.355 128.541  1.00  0.00     0.004 C 
ENDBRANCH  18  19
ENDBRANCH  17  18
ENDBRANCH  16  17
ENDBRANCH  15  16
ENDBRANCH  14  15
ENDBRANCH  13  14
ENDBRANCH  12  13
ENDBRANCH   1  12
TORSDOF 16
ENDMDL
MODEL 3
REMARK VINA RESULT:    -4.660      4.763      9.120
REMARK INTER + INTRA:          -9.779
REMARK INTER:                  -7.886
REMARK INTRA:                  -1.893
REMARK UNBOUND:                -0.760
REMARK SMILES CCCCCCCCCCCCCCCCCC(=O)[O-]
REMARK SMILES IDX 10 1 11 2 12 3 13 4 14 5 15 6 16 7 17 8 18 9 19 10 20 11
REMARK SMILES IDX 9 12 8 13 7 14 6 15 5 16 4 17 3 18 2 19 1 20
REMARK H PARENT
REMARK Flexibility Score: inf
ROOT
ATOM      1  C   UNL     1     133.115 137.904 132.931  1.00  0.00     0.000 C 
ENDROOT
BRANCH   1   2
ATOM      2  C   UNL     1     134.569 137.984 132.428  1.00  0.00     0.000 C 
BRANCH   2   3
ATOM      3  C   UNL     1     135.382 136.717 132.747  1.00  0.00     0.000 C 
BRANCH   3   4
ATOM      4  C   UNL     1     135.193 135.605 131.700  1.00  0.00     0.000 C 
BRANCH   4   5
ATOM      5  C   UNL     1     135.044 134.182 132.272  1.00  0.00     0.000 C 
BRANCH   5   6
ATOM      6  C   UNL     1     133.642 133.592 132.058  1.00  0.00     0.000 C 
BRANCH   6   7
ATOM      7  C   UNL     1     132.821 133.643 133.352  1.00  0.00     0.006 C 
BRANCH   7   8
ATOM      8  C   UNL     1     131.365 133.245 133.094  1.00  0.00     0.053 C 
BRANCH   8   9
ATOM      9  C   UNL     1     130.744 132.688 134.336  1.00  0.00     0.041 C 
ATOM     10  O   UNL     1     130.244 131.533 134.331  1.00  0.00    -0.550 OA
ATOM     11  O   UNL     1     130.760 133.426 135.514  1.00  0.00    -0.550 OA
ENDBRANCH   8   9
ENDBRANCH   7   8
ENDBRANCH   6   7
ENDBRANCH   5   6
ENDBRANCH   4   5
ENDBRANCH   3   4
ENDBRANCH   2   3
ENDBRANCH   1   2
BRANCH   1  12
ATOM     12  C   UNL     1     132.035 137.895 131.830  1.00  0.00     0.000 C 
BRANCH  12  13
ATOM     13  C   UNL     1     131.694 136.509 131.255  1.00  0.00    -0.000 C 
BRANCH  13  14
ATOM     14  C   UNL     1     130.423 136.520 130.388  1.00  0.00    -0.000 C 
BRANCH  14  15
ATOM     15  C   UNL     1     129.869 135.108 130.133  1.00  0.00    -0.000 C 
BRANCH  15  16
ATOM     16  C   UNL     1     130.885 134.191 129.430  1.00  0.00    -0.000 C 
BRANCH  16  17
ATOM     17  C   UNL     1     130.212 133.030 128.682  1.00  0.00    -0.000 C 
BRANCH  17  18
ATOM     18  C   UNL     1     128.766 133.347 128.269  1.00  0.00    -0.000 C 
BRANCH  18  19
ATOM     19  C   UNL     1     128.106 132.131 127.610  1.00  0.00    -0.003 C 
ATOM     20  C   UNL     1     129.094 130.977 127.466  1.00  0.00     0.004 C 
ENDBRANCH  18  19
ENDBRANCH  17  18
ENDBRANCH  16  17
ENDBRANCH  15  16
ENDBRANCH  14  15
ENDBRANCH  13  14
ENDBRANCH  12  13
ENDBRANCH   1  12
TORSDOF 16
ENDMDL
MODEL 4
REMARK VINA RESULT:    -4.619      5.214     10.235
REMARK INTER + INTRA:          -9.699
REMARK INTER:                  -7.497
REMARK INTRA:                  -2.202
REMARK UNBOUND:                -0.760
REMARK SMILES CCCCCCCCCCCCCCCCCC(=O)[O-]
REMARK SMILES IDX 10 1 11 2 12 3 13 4 14 5 15 6 16 7 17 8 18 9 19 10 20 11
REMARK SMILES IDX 9 12 8 13 7 14 6 15 5 16 4 17 3 18 2 19 1 20
REMARK H PARENT
REMARK Flexibility Score: inf
ROOT
ATOM      1  C   UNL     1     132.489 137.407 132.578  1.00  0.00     0.000 C 
ENDROOT
BRANCH   1   2
ATOM      2  C   UNL     1     131.693 137.633 131.279  1.00  0.00     0.000 C 
BRANCH   2   3
ATOM      3  C   UNL     1     130.703 136.493 130.979  1.00  0.00     0.000 C 
BRANCH   3   4
ATOM      4  C   UNL     1     131.350 135.323 130.217  1.00  0.00     0.000 C 
BRANCH   4   5
ATOM      5  C   UNL     1     130.994 133.919 130.743  1.00  0.00     0.000 C 
BRANCH   5   6
ATOM      6  C   UNL     1     131.461 132.792 129.811  1.00  0.00     0.000 C 
BRANCH   6   7
ATOM      7  C   UNL     1     130.985 133.035 128.373  1.00  0.00     0.006 C 
BRANCH   7   8
ATOM      8  C   UNL     1     129.480 132.781 128.243  1.00  0.00     0.053 C 
BRANCH   8   9
ATOM      9  C   UNL     1     129.223 131.390 127.756  1.00  0.00     0.041 C 
ATOM     10  O   UNL     1     129.122 130.440 128.576  1.00  0.00    -0.550 OA
ATOM     11  O   UNL     1     129.050 131.148 126.398  1.00  0.00    -0.550 OA
ENDBRANCH   8   9
ENDBRANCH   7   8
ENDBRANCH   6   7
ENDBRANCH   5   6
ENDBRANCH   4   5
ENDBRANCH   3   4
ENDBRANCH   2   3
ENDBRANCH   1   2
BRANCH   1  12
ATOM     12  C   UNL     1     134.009 137.650 132.472  1.00  0.00     0.000 C 
BRANCH  12  13
ATOM     13  C   UNL     1     134.893 136.427 132.770  1.00  0.00    -0.000 C 
BRANCH  13  14
ATOM     14  C   UNL     1     134.878 135.390 131.635  1.00  0.00    -0.000 C 
BRANCH  14  15
ATOM     15  C   UNL     1     134.575 133.968 132.137  1.00  0.00    -0.000 C 
BRANCH  15  16
ATOM     16  C   UNL     1     134.644 133.855 133.670  1.00  0.00    -0.000 C 
BRANCH  16  17
ATOM     17  C   UNL     1     133.435 133.112 134.261  1.00  0.00    -0.000 C 
BRANCH  17  18
ATOM     18  C   UNL     1     132.153 133.961 134.252  1.00  0.00    -0.000 C 
BRANCH  18  19
ATOM     19  C   UNL     1     131.068 133.322 135.126  1.00  0.00    -0.003 C 
ATOM     20  C   UNL     1     130.385 132.166 134.400  1.00  0.00     0.004 C 
ENDBRANCH  18  19
ENDBRANCH  17  18
ENDBRANCH  16  17
ENDBRANCH  15  16
ENDBRANCH  14  15
ENDBRANCH  13  14
ENDBRANCH  12  13
ENDBRANCH   1  12
TORSDOF 16
ENDMDL
MODEL 5
REMARK VINA RESULT:    -4.593      5.219      9.345
REMARK INTER + INTRA:          -9.649
REMARK INTER:                  -7.838
REMARK INTRA:                  -1.811
REMARK UNBOUND:                -0.760
REMARK SMILES CCCCCCCCCCCCCCCCCC(=O)[O-]
REMARK SMILES IDX 10 1 11 2 12 3 13 4 14 5 15 6 16 7 17 8 18 9 19 10 20 11
REMARK SMILES IDX 9 12 8 13 7 14 6 15 5 16 4 17 3 18 2 19 1 20
REMARK H PARENT
REMARK Flexibility Score: inf
ROOT
ATOM      1  C   UNL     1     133.594 135.120 133.760  1.00  0.00     0.000 C 
ENDROOT
BRANCH   1   2
ATOM      2  C   UNL     1     132.825 136.095 132.849  1.00  0.00     0.000 C 
BRANCH   2   3
ATOM      3  C   UNL     1     132.616 135.545 131.427  1.00  0.00     0.000 C 
BRANCH   3   4
ATOM      4  C   UNL     1     131.156 135.658 130.950  1.00  0.00     0.000 C 
BRANCH   4   5
ATOM      5  C   UNL     1     130.701 134.566 129.963  1.00  0.00     0.000 C 
BRANCH   5   6
ATOM      6  C   UNL     1     131.350 133.201 130.237  1.00  0.00     0.000 C 
BRANCH   6   7
ATOM      7  C   UNL     1     131.210 132.273 129.024  1.00  0.00     0.006 C 
BRANCH   7   8
ATOM      8  C   UNL     1     129.997 132.662 128.172  1.00  0.00     0.053 C 
BRANCH   8   9
ATOM      9  C   UNL     1     129.271 131.440 127.705  1.00  0.00     0.041 C 
ATOM     10  O   UNL     1     129.390 130.355 128.332  1.00  0.00    -0.550 OA
ATOM     11  O   UNL     1     128.425 131.510 126.604  1.00  0.00    -0.550 OA
ENDBRANCH   8   9
ENDBRANCH   7   8
ENDBRANCH   6   7
ENDBRANCH   5   6
ENDBRANCH   4   5
ENDBRANCH   3   4
ENDBRANCH   2   3
ENDBRANCH   1   2
BRANCH   1  12
ATOM     12  C   UNL     1     133.355 133.623 133.477  1.00  0.00     0.000 C 
BRANCH  12  13
ATOM     13  C   UNL     1     132.347 132.929 134.410  1.00  0.00    -0.000 C 
BRANCH  13  14
ATOM     14  C   UNL     1     130.924 132.893 133.829  1.00  0.00    -0.000 C 
BRANCH  14  15
ATOM     15  C   UNL     1     129.885 132.380 134.840  1.00  0.00    -0.000 C 
BRANCH  15  16
ATOM     16  C   UNL     1     130.508 131.485 135.926  1.00  0.00    -0.000 C 
BRANCH  16  17
ATOM     17  C   UNL     1     129.989 130.040 135.868  1.00  0.00    -0.000 C 
BRANCH  17  18
ATOM     18  C   UNL     1     130.921 129.104 135.082  1.00  0.00    -0.000 C 
BRANCH  18  19
ATOM     19  C   UNL     1     130.177 128.444 133.916  1.00  0.00    -0.003 C 
ATOM     20  C   UNL     1     128.670 128.426 134.162  1.00  0.00     0.004 C 
ENDBRANCH  18  19
ENDBRANCH  17  18
ENDBRANCH  16  17
ENDBRANCH  15  16
ENDBRANCH  14  15
ENDBRANCH  13  14
ENDBRANCH  12  13
ENDBRANCH   1  12
TORSDOF 16
ENDMDL
MODEL 6
REMARK VINA RESULT:    -4.578      4.857      9.209
REMARK INTER + INTRA:          -9.621
REMARK INTER:                  -8.159
REMARK INTRA:                  -1.462
REMARK UNBOUND:                -0.760
REMARK SMILES CCCCCCCCCCCCCCCCCC(=O)[O-]
REMARK SMILES IDX 10 1 11 2 12 3 13 4 14 5 15 6 16 7 17 8 18 9 19 10 20 11
REMARK SMILES IDX 9 12 8 13 7 14 6 15 5 16 4 17 3 18 2 19 1 20
REMARK H PARENT
REMARK Flexibility Score: inf
ROOT
ATOM      1  C   UNL     1     133.262 135.868 133.293  1.00  0.00     0.000 C 
ENDROOT
BRANCH   1   2
ATOM      2  C   UNL     1     132.551 134.827 134.177  1.00  0.00     0.000 C 
BRANCH   2   3
ATOM      3  C   UNL     1     132.486 133.434 133.525  1.00  0.00     0.000 C 
BRANCH   3   4
ATOM      4  C   UNL     1     131.085 132.801 133.604  1.00  0.00     0.000 C 
BRANCH   4   5
ATOM      5  C   UNL     1     130.588 132.481 135.027  1.00  0.00     0.000 C 
BRANCH   5   6
ATOM      6  C   UNL     1     130.440 130.975 135.287  1.00  0.00     0.000 C 
BRANCH   6   7
ATOM      7  C   UNL     1     128.974 130.539 135.173  1.00  0.00     0.006 C 
BRANCH   7   8
ATOM      8  C   UNL     1     128.857 129.013 135.127  1.00  0.00     0.053 C 
BRANCH   8   9
ATOM      9  C   UNL     1     129.520 128.472 133.900  1.00  0.00     0.041 C 
ATOM     10  O   UNL     1     129.053 128.733 132.761  1.00  0.00    -0.550 OA
ATOM     11  O   UNL     1     130.683 127.719 134.011  1.00  0.00    -0.550 OA
ENDBRANCH   8   9
ENDBRANCH   7   8
ENDBRANCH   6   7
ENDBRANCH   5   6
ENDBRANCH   4   5
ENDBRANCH   3   4
ENDBRANCH   2   3
ENDBRANCH   1   2
BRANCH   1  12
ATOM     12  C   UNL     1     132.990 135.747 131.780  1.00  0.00     0.000 C 
BRANCH  12  13
ATOM     13  C   UNL     1     131.681 136.392 131.293  1.00  0.00    -0.000 C 
BRANCH  13  14
ATOM     14  C   UNL     1     130.628 135.355 130.867  1.00  0.00    -0.000 C 
BRANCH  14  15
ATOM     15  C   UNL     1     131.062 134.544 129.634  1.00  0.00    -0.000 C 
BRANCH  15  16
ATOM     16  C   UNL     1     131.331 133.065 129.963  1.00  0.00    -0.000 C 
BRANCH  16  17
ATOM     17  C   UNL     1     131.005 132.131 128.787  1.00  0.00    -0.000 C 
BRANCH  17  18
ATOM     18  C   UNL     1     129.552 132.267 128.305  1.00  0.00    -0.000 C 
BRANCH  18  19
ATOM     19  C   UNL     1     129.076 130.974 127.633  1.00  0.00    -0.003 C 
ATOM     20  C   UNL     1     128.778 131.199 126.153  1.00  0.00     0.004 C 
ENDBRANCH  18  19
ENDBRANCH  17  18
ENDBRANCH  16  17
ENDBRANCH  15  16
ENDBRANCH  14  15
ENDBRANCH  13  14
ENDBRANCH  12  13
ENDBRANCH   1  12
TORSDOF 16
ENDMDL
MODEL 7
REMARK VINA RESULT:    -4.576      5.345      9.358
REMARK INTER + INTRA:          -9.616
REMARK INTER:                  -7.992
REMARK INTRA:                  -1.624
REMARK UNBOUND:                -0.760
REMARK SMILES CCCCCCCCCCCCCCCCCC(=O)[O-]
REMARK SMILES IDX 10 1 11 2 12 3 13 4 14 5 15 6 16 7 17 8 18 9 19 10 20 11
REMARK SMILES IDX 9 12 8 13 7 14 6 15 5 16 4 17 3 18 2 19 1 20
REMARK H PARENT
REMARK Flexibility Score: inf
ROOT
ATOM      1  C   UNL     1     132.913 137.045 132.109  1.00  0.00     0.000 C 
ENDROOT
BRANCH   1   2
ATOM      2  C   UNL     1     133.210 137.081 133.619  1.00  0.00     0.000 C 
BRANCH   2   3
ATOM      3  C   UNL     1     133.667 135.719 134.171  1.00  0.00     0.000 C 
BRANCH   3   4
ATOM      4  C   UNL     1     132.492 134.786 134.513  1.00  0.00     0.000 C 
BRANCH   4   5
ATOM      5  C   UNL     1     132.429 133.482 133.696  1.00  0.00     0.000 C 
BRANCH   5   6
ATOM      6  C   UNL     1     131.027 132.854 133.672  1.00  0.00     0.000 C 
BRANCH   6   7
ATOM      7  C   UNL     1     130.539 132.548 135.094  1.00  0.00     0.006 C 
BRANCH   7   8
ATOM      8  C   UNL     1     129.163 131.875 135.068  1.00  0.00     0.053 C 
BRANCH   8   9
ATOM      9  C   UNL     1     128.899 131.171 136.362  1.00  0.00     0.041 C 
ATOM     10  O   UNL     1     129.683 131.321 137.335  1.00  0.00    -0.550 OA
ATOM     11  O   UNL     1     127.762 130.386 136.508  1.00  0.00    -0.550 OA
ENDBRANCH   8   9
ENDBRANCH   7   8
ENDBRANCH   6   7
ENDBRANCH   5   6
ENDBRANCH   4   5
ENDBRANCH   3   4
ENDBRANCH   2   3
ENDBRANCH   1   2
BRANCH   1  12
ATOM     12  C   UNL     1     131.758 137.954 131.641  1.00  0.00     0.000 C 
BRANCH  12  13
ATOM     13  C   UNL     1     130.675 137.260 130.796  1.00  0.00    -0.000 C 
BRANCH  13  14
ATOM     14  C   UNL     1     130.491 135.778 131.164  1.00  0.00    -0.000 C 
BRANCH  14  15
ATOM     15  C   UNL     1     130.568 134.851 129.939  1.00  0.00    -0.000 C 
BRANCH  15  16
ATOM     16  C   UNL     1     131.547 133.681 130.142  1.00  0.00    -0.000 C 
BRANCH  16  17
ATOM     17  C   UNL     1     131.077 132.392 129.449  1.00  0.00    -0.000 C 
BRANCH  17  18
ATOM     18  C   UNL     1     130.459 132.652 128.066  1.00  0.00    -0.000 C 
BRANCH  18  19
ATOM     19  C   UNL     1     129.105 131.945 127.931  1.00  0.00    -0.003 C 
ATOM     20  C   UNL     1     129.196 130.490 128.381  1.00  0.00     0.004 C 
ENDBRANCH  18  19
ENDBRANCH  17  18
ENDBRANCH  16  17
ENDBRANCH  15  16
ENDBRANCH  14  15
ENDBRANCH  13  14
ENDBRANCH  12  13
ENDBRANCH   1  12
TORSDOF 16
ENDMDL
MODEL 8
REMARK VINA RESULT:    -4.489      7.266     12.278
REMARK INTER + INTRA:          -9.447
REMARK INTER:                  -8.254
REMARK INTRA:                  -1.193
REMARK UNBOUND:                -0.760
REMARK SMILES CCCCCCCCCCCCCCCCCC(=O)[O-]
REMARK SMILES IDX 10 1 11 2 12 3 13 4 14 5 15 6 16 7 17 8 18 9 19 10 20 11
REMARK SMILES IDX 9 12 8 13 7 14 6 15 5 16 4 17 3 18 2 19 1 20
REMARK H PARENT
REMARK Flexibility Score: inf
ROOT
ATOM      1  C   UNL     1     123.235 122.277 133.315  1.00  0.00     0.000 C 
ENDROOT
BRANCH   1   2
ATOM      2  C   UNL     1     123.168 120.782 132.950  1.00  0.00     0.000 C 
BRANCH   2   3
ATOM      3  C   UNL     1     123.240 120.534 131.433  1.00  0.00     0.000 C 
BRANCH   3   4
ATOM      4  C   UNL     1     124.608 119.995 130.978  1.00  0.00     0.000 C 
BRANCH   4   5
ATOM      5  C   UNL     1     125.387 120.911 130.015  1.00  0.00     0.000 C 
BRANCH   5   6
ATOM      6  C   UNL     1     124.642 122.215 129.691  1.00  0.00     0.000 C 
BRANCH   6   7
ATOM      7  C   UNL     1     124.999 122.716 128.286  1.00  0.00     0.006 C 
BRANCH   7   8
ATOM      8  C   UNL     1     126.484 123.079 128.193  1.00  0.00     0.053 C 
BRANCH   8   9
ATOM      9  C   UNL     1     126.654 124.455 127.631  1.00  0.00     0.041 C 
ATOM     10  O   UNL     1     126.665 125.454 128.396  1.00  0.00    -0.550 OA
ATOM     11  O   UNL     1     126.847 124.631 126.266  1.00  0.00    -0.550 OA
ENDBRANCH   8   9
ENDBRANCH   7   8
ENDBRANCH   6   7
ENDBRANCH   5   6
ENDBRANCH   4   5
ENDBRANCH   3   4
ENDBRANCH   2   3
ENDBRANCH   1   2
BRANCH   1  12
ATOM     12  C   UNL     1     124.651 122.889 133.335  1.00  0.00     0.000 C 
BRANCH  12  13
ATOM     13  C   UNL     1     125.245 123.130 134.734  1.00  0.00    -0.000 C 
BRANCH  13  14
ATOM     14  C   UNL     1     125.103 124.589 135.199  1.00  0.00    -0.000 C 
BRANCH  14  15
ATOM     15  C   UNL     1     126.353 125.430 134.895  1.00  0.00    -0.000 C 
BRANCH  15  16
ATOM     16  C   UNL     1     126.203 126.277 133.619  1.00  0.00    -0.000 C 
BRANCH  16  17
ATOM     17  C   UNL     1     126.492 127.766 133.862  1.00  0.00    -0.000 C 
BRANCH  17  18
ATOM     18  C   UNL     1     127.633 127.994 134.867  1.00  0.00    -0.000 C 
BRANCH  18  19
ATOM     19  C   UNL     1     127.182 128.914 136.007  1.00  0.00    -0.003 C 
ATOM     20  C   UNL     1     127.824 130.294 135.889  1.00  0.00     0.004 C 
ENDBRANCH  18  19
ENDBRANCH  17  18
ENDBRANCH  16  17
ENDBRANCH  15  16
ENDBRANCH  14  15
ENDBRANCH  13  14
ENDBRANCH  12  13
ENDBRANCH   1  12
TORSDOF 16
ENDMDL
MODEL 9
REMARK VINA RESULT:    -4.461      5.588      9.880
REMARK INTER + INTRA:          -9.393
REMARK INTER:                  -7.451
REMARK INTRA:                  -1.942
REMARK UNBOUND:                -0.760
REMARK SMILES CCCCCCCCCCCCCCCCCC(=O)[O-]
REMARK SMILES IDX 10 1 11 2 12 3 13 4 14 5 15 6 16 7 17 8 18 9 19 10 20 11
REMARK SMILES IDX 9 12 8 13 7 14 6 15 5 16 4 17 3 18 2 19 1 20
REMARK H PARENT
REMARK Flexibility Score: inf
ROOT
ATOM      1  C   UNL     1     133.506 136.912 132.383  1.00  0.00     0.000 C 
ENDROOT
BRANCH   1   2
ATOM      2  C   UNL     1     132.170 137.628 132.113  1.00  0.00     0.000 C 
BRANCH   2   3
ATOM      3  C   UNL     1     131.232 136.819 131.199  1.00  0.00     0.000 C 
BRANCH   3   4
ATOM      4  C   UNL     1     131.841 135.478 130.752  1.00  0.00     0.000 C 
BRANCH   4   5
ATOM      5  C   UNL     1     130.850 134.302 130.667  1.00  0.00     0.000 C 
BRANCH   5   6
ATOM      6  C   UNL     1     131.545 132.935 130.583  1.00  0.00     0.000 C 
BRANCH   6   7
ATOM      7  C   UNL     1     131.038 132.133 129.378  1.00  0.00     0.006 C 
BRANCH   7   8
ATOM      8  C   UNL     1     130.396 133.054 128.336  1.00  0.00     0.053 C 
BRANCH   8   9
ATOM      9  C   UNL     1     129.103 132.479 127.853  1.00  0.00     0.041 C 
ATOM     10  O   UNL     1     129.043 131.276 127.486  1.00  0.00    -0.550 OA
ATOM     11  O   UNL     1     127.952 133.258 127.850  1.00  0.00    -0.550 OA
ENDBRANCH   8   9
ENDBRANCH   7   8
ENDBRANCH   6   7
ENDBRANCH   5   6
ENDBRANCH   4   5
ENDBRANCH   3   4
ENDBRANCH   2   3
ENDBRANCH   1   2
BRANCH   1  12
ATOM     12  C   UNL     1     133.749 136.496 133.848  1.00  0.00     0.000 C 
BRANCH  12  13
ATOM     13  C   UNL     1     132.879 135.332 134.354  1.00  0.00    -0.000 C 
BRANCH  13  14
ATOM     14  C   UNL     1     133.293 133.976 133.758  1.00  0.00    -0.000 C 
BRANCH  14  15
ATOM     15  C   UNL     1     132.408 132.819 134.250  1.00  0.00    -0.000 C 
BRANCH  15  16
ATOM     16  C   UNL     1     130.918 133.197 134.310  1.00  0.00    -0.000 C 
BRANCH  16  17
ATOM     17  C   UNL     1     130.001 131.969 134.415  1.00  0.00    -0.000 C 
BRANCH  17  18
ATOM     18  C   UNL     1     130.566 130.883 135.346  1.00  0.00    -0.000 C 
BRANCH  18  19
ATOM     19  C   UNL     1     129.466 130.309 136.246  1.00  0.00    -0.003 C 
ATOM     20  C   UNL     1     128.695 131.420 136.953  1.00  0.00     0.004 C 
ENDBRANCH  18  19
ENDBRANCH  17  18
ENDBRANCH  16  17
ENDBRANCH  15  16
ENDBRANCH  14  15
ENDBRANCH  13  14
ENDBRANCH  12  13
ENDBRANCH   1  12
TORSDOF 16
ENDMDL
