MODEL 1
REMARK VINA RESULT:     7.239      0.000      0.000
REMARK INTER + INTRA:          12.348
REMARK INTER:                  13.164
REMARK INTRA:                  -0.816
REMARK UNBOUND:                -0.816
REMARK SMILES CCCCCCCCCCCCCCCC(=O)[O-]
REMARK SMILES IDX 9 1 10 2 11 3 12 4 13 5 14 6 15 7 16 8 17 9 18 10 8 11 7 12
REMARK SMILES IDX 6 13 5 14 4 15 3 16 2 17 1 18
REMARK H PARENT
REMARK Flexibility Score: inf
ROOT
ATOM      1  C   UNL     1     -29.303  17.664 -11.052  1.00  0.00     0.000 C 
ENDROOT
BRANCH   1   2
ATOM      2  C   UNL     1     -28.916  17.614 -12.540  1.00  0.00     0.000 C 
BRANCH   2   3
ATOM      3  C   UNL     1     -28.838  16.177 -13.079  1.00  0.00     0.000 C 
BRANCH   3   4
ATOM      4  C   UNL     1     -29.237  16.081 -14.562  1.00  0.00     0.000 C 
BRANCH   4   5
ATOM      5  C   UNL     1     -29.573  17.451 -15.179  1.00  0.00     0.000 C 
BRANCH   5   6
ATOM      6  C   UNL     1     -30.341  17.391 -16.517  1.00  0.00     0.006 C 
BRANCH   6   7
ATOM      7  C   UNL     1     -29.678  18.165 -17.668  1.00  0.00     0.053 C 
BRANCH   7   8
ATOM      8  C   UNL     1     -30.178  19.574 -17.758  1.00  0.00     0.041 C 
ATOM      9  O   UNL     1     -31.398  19.826 -17.579  1.00  0.00    -0.550 OA
ATOM     10  O   UNL     1     -29.302  20.605 -18.074  1.00  0.00    -0.550 OA
ENDBRANCH   7   8
ENDBRANCH   6   7
ENDBRANCH   5   6
ENDBRANCH   4   5
ENDBRANCH   3   4
ENDBRANCH   2   3
ENDBRANCH   1   2
BRANCH   1  11
ATOM     11  C   UNL     1     -30.649  16.978 -10.770  1.00  0.00     0.000 C 
BRANCH  11  12
ATOM     12  C   UNL     1     -31.734  17.970 -10.317  1.00  0.00    -0.000 C 
BRANCH  12  13
ATOM     13  C   UNL     1     -31.284  19.437 -10.426  1.00  0.00    -0.000 C 
BRANCH  13  14
ATOM     14  C   UNL     1     -32.406  20.449 -10.112  1.00  0.00    -0.000 C 
BRANCH  14  15
ATOM     15  C   UNL     1     -32.185  21.797 -10.822  1.00  0.00    -0.000 C 
BRANCH  15  16
ATOM     16  C   UNL     1     -31.209  22.710 -10.062  1.00  0.00    -0.000 C 
BRANCH  16  17
ATOM     17  C   UNL     1     -31.876  24.004  -9.572  1.00  0.00    -0.003 C 
ATOM     18  C   UNL     1     -33.322  24.090 -10.050  1.00  0.00     0.004 C 
ENDBRANCH  16  17
ENDBRANCH  15  16
ENDBRANCH  14  15
ENDBRANCH  13  14
ENDBRANCH  12  13
ENDBRANCH  11  12
ENDBRANCH   1  11
TORSDOF 14
ENDMDL
MODEL 2
REMARK VINA RESULT:     7.720      3.153      7.080
REMARK INTER + INTRA:          13.222
REMARK INTER:                  14.115
REMARK INTRA:                  -0.893
REMARK UNBOUND:                -0.816
REMARK SMILES CCCCCCCCCCCCCCCC(=O)[O-]
REMARK SMILES IDX 9 1 10 2 11 3 12 4 13 5 14 6 15 7 16 8 17 9 18 10 8 11 7 12
REMARK SMILES IDX 6 13 5 14 4 15 3 16 2 17 1 18
REMARK H PARENT
REMARK Flexibility Score: inf
ROOT
ATOM      1  C   UNL     1     -29.890  16.288 -11.131  1.00  0.00     0.000 C 
ENDROOT
BRANCH   1   2
ATOM      2  C   UNL     1     -31.174  16.820 -10.472  1.00  0.00     0.000 C 
BRANCH   2   3
ATOM      3  C   UNL     1     -31.239  18.356 -10.467  1.00  0.00     0.000 C 
BRANCH   3   4
ATOM      4  C   UNL     1     -32.646  18.884 -10.137  1.00  0.00     0.000 C 
BRANCH   4   5
ATOM      5  C   UNL     1     -32.748  20.417 -10.243  1.00  0.00     0.000 C 
BRANCH   5   6
ATOM      6  C   UNL     1     -31.402  21.166 -10.149  1.00  0.00     0.006 C 
BRANCH   6   7
ATOM      7  C   UNL     1     -31.412  22.576 -10.762  1.00  0.00     0.053 C 
BRANCH   7   8
ATOM      8  C   UNL     1     -32.154  23.555  -9.907  1.00  0.00     0.041 C 
ATOM      9  O   UNL     1     -31.601  24.059  -8.894  1.00  0.00    -0.550 OA
ATOM     10  O   UNL     1     -33.470  23.885 -10.206  1.00  0.00    -0.550 OA
ENDBRANCH   7   8
ENDBRANCH   6   7
ENDBRANCH   5   6
ENDBRANCH   4   5
ENDBRANCH   3   4
ENDBRANCH   2   3
ENDBRANCH   1   2
BRANCH   1  11
ATOM     11  C   UNL     1     -28.950  17.417 -11.584  1.00  0.00     0.000 C 
BRANCH  11  12
ATOM     12  C   UNL     1     -28.826  17.503 -13.115  1.00  0.00    -0.000 C 
BRANCH  12  13
ATOM     13  C   UNL     1     -29.089  16.158 -13.813  1.00  0.00    -0.000 C 
BRANCH  13  14
ATOM     14  C   UNL     1     -29.685  16.304 -15.228  1.00  0.00    -0.000 C 
BRANCH  14  15
ATOM     15  C   UNL     1     -29.679  17.764 -15.712  1.00  0.00    -0.000 C 
BRANCH  15  16
ATOM     16  C   UNL     1     -30.080  17.898 -17.190  1.00  0.00    -0.000 C 
BRANCH  16  17
ATOM     17  C   UNL     1     -30.618  19.296 -17.529  1.00  0.00    -0.003 C 
ATOM     18  C   UNL     1     -29.493  20.221 -17.984  1.00  0.00     0.004 C 
ENDBRANCH  16  17
ENDBRANCH  15  16
ENDBRANCH  14  15
ENDBRANCH  13  14
ENDBRANCH  12  13
ENDBRANCH  11  12
ENDBRANCH   1  11
TORSDOF 14
ENDMDL
MODEL 3
REMARK VINA RESULT:     7.836      3.272      4.009
REMARK INTER + INTRA:          13.433
REMARK INTER:                  13.921
REMARK INTRA:                  -0.488
REMARK UNBOUND:                -0.816
REMARK SMILES CCCCCCCCCCCCCCCC(=O)[O-]
REMARK SMILES IDX 9 1 10 2 11 3 12 4 13 5 14 6 15 7 16 8 17 9 18 10 8 11 7 12
REMARK SMILES IDX 6 13 5 14 4 15 3 16 2 17 1 18
REMARK H PARENT
REMARK Flexibility Score: inf
ROOT
ATOM      1  C   UNL     1     -31.473  17.010 -10.544  1.00  0.00     0.000 C 
ENDROOT
BRANCH   1   2
ATOM      2  C   UNL     1     -30.192  16.340 -11.071  1.00  0.00     0.000 C 
BRANCH   2   3
ATOM      3  C   UNL     1     -29.021  17.327 -11.195  1.00  0.00     0.000 C 
BRANCH   3   4
ATOM      4  C   UNL     1     -28.838  17.848 -12.631  1.00  0.00     0.000 C 
BRANCH   4   5
ATOM      5  C   UNL     1     -29.145  16.780 -13.697  1.00  0.00     0.000 C 
BRANCH   5   6
ATOM      6  C   UNL     1     -28.140  15.610 -13.753  1.00  0.00     0.006 C 
BRANCH   6   7
ATOM      7  C   UNL     1     -28.420  14.581 -14.860  1.00  0.00     0.053 C 
BRANCH   7   8
ATOM      8  C   UNL     1     -27.337  13.551 -14.957  1.00  0.00     0.041 C 
ATOM      9  O   UNL     1     -26.150  13.900 -15.188  1.00  0.00    -0.550 OA
ATOM     10  O   UNL     1     -27.645  12.203 -14.827  1.00  0.00    -0.550 OA
ENDBRANCH   7   8
ENDBRANCH   6   7
ENDBRANCH   5   6
ENDBRANCH   4   5
ENDBRANCH   3   4
ENDBRANCH   2   3
ENDBRANCH   1   2
BRANCH   1  11
ATOM     11  C   UNL     1     -31.297  18.520 -10.320  1.00  0.00     0.000 C 
BRANCH  11  12
ATOM     12  C   UNL     1     -32.627  19.289 -10.409  1.00  0.00    -0.000 C 
BRANCH  12  13
ATOM     13  C   UNL     1     -32.522  20.728  -9.875  1.00  0.00    -0.000 C 
BRANCH  13  14
ATOM     14  C   UNL     1     -31.741  21.676 -10.810  1.00  0.00    -0.000 C 
BRANCH  14  15
ATOM     15  C   UNL     1     -31.041  22.806 -10.035  1.00  0.00    -0.000 C 
BRANCH  15  16
ATOM     16  C   UNL     1     -31.832  24.124 -10.071  1.00  0.00    -0.000 C 
BRANCH  16  17
ATOM     17  C   UNL     1     -33.343  23.898 -10.225  1.00  0.00    -0.003 C 
ATOM     18  C   UNL     1     -34.069  24.125  -8.903  1.00  0.00     0.004 C 
ENDBRANCH  16  17
ENDBRANCH  15  16
ENDBRANCH  14  15
ENDBRANCH  13  14
ENDBRANCH  12  13
ENDBRANCH  11  12
ENDBRANCH   1  11
TORSDOF 14
ENDMDL
MODEL 4
REMARK VINA RESULT:     8.314      3.067      6.945
REMARK INTER + INTRA:          14.302
REMARK INTER:                  14.835
REMARK INTRA:                  -0.533
REMARK UNBOUND:                -0.816
REMARK SMILES CCCCCCCCCCCCCCCC(=O)[O-]
REMARK SMILES IDX 9 1 10 2 11 3 12 4 13 5 14 6 15 7 16 8 17 9 18 10 8 11 7 12
REMARK SMILES IDX 6 13 5 14 4 15 3 16 2 17 1 18
REMARK H PARENT
REMARK Flexibility Score: inf
ROOT
ATOM      1  C   UNL     1     -29.061  16.845 -11.351  1.00  0.00     0.000 C 
ENDROOT
BRANCH   1   2
ATOM      2  C   UNL     1     -30.413  16.163 -11.080  1.00  0.00     0.000 C 
BRANCH   2   3
ATOM      3  C   UNL     1     -31.368  17.054 -10.269  1.00  0.00     0.000 C 
BRANCH   3   4
ATOM      4  C   UNL     1     -31.088  18.553 -10.472  1.00  0.00     0.000 C 
BRANCH   4   5
ATOM      5  C   UNL     1     -32.361  19.362 -10.778  1.00  0.00     0.000 C 
BRANCH   5   6
ATOM      6  C   UNL     1     -32.478  20.703 -10.021  1.00  0.00     0.006 C 
BRANCH   6   7
ATOM      7  C   UNL     1     -31.840  21.901 -10.742  1.00  0.00     0.053 C 
BRANCH   7   8
ATOM      8  C   UNL     1     -32.276  23.207 -10.154  1.00  0.00     0.041 C 
ATOM      9  O   UNL     1     -33.457  23.612 -10.316  1.00  0.00    -0.550 OA
ATOM     10  O   UNL     1     -31.368  23.996  -9.459  1.00  0.00    -0.550 OA
ENDBRANCH   7   8
ENDBRANCH   6   7
ENDBRANCH   5   6
ENDBRANCH   4   5
ENDBRANCH   3   4
ENDBRANCH   2   3
ENDBRANCH   1   2
BRANCH   1  11
ATOM     11  C   UNL     1     -28.940  17.360 -12.794  1.00  0.00     0.000 C 
BRANCH  11  12
ATOM     12  C   UNL     1     -29.079  16.237 -13.836  1.00  0.00    -0.000 C 
BRANCH  12  13
ATOM     13  C   UNL     1     -28.947  16.744 -15.282  1.00  0.00    -0.000 C 
BRANCH  13  14
ATOM     14  C   UNL     1     -30.285  17.205 -15.897  1.00  0.00    -0.000 C 
BRANCH  14  15
ATOM     15  C   UNL     1     -30.088  17.913 -17.249  1.00  0.00    -0.000 C 
BRANCH  15  16
ATOM     16  C   UNL     1     -30.733  19.308 -17.284  1.00  0.00    -0.000 C 
BRANCH  16  17
ATOM     17  C   UNL     1     -30.142  20.201 -18.385  1.00  0.00    -0.003 C 
ATOM     18  C   UNL     1     -28.812  20.806 -17.945  1.00  0.00     0.004 C 
ENDBRANCH  16  17
ENDBRANCH  15  16
ENDBRANCH  14  15
ENDBRANCH  13  14
ENDBRANCH  12  13
ENDBRANCH  11  12
ENDBRANCH   1  11
TORSDOF 14
ENDMDL
MODEL 5
REMARK VINA RESULT:     8.614      3.432      7.931
REMARK INTER + INTRA:          14.848
REMARK INTER:                  15.640
REMARK INTRA:                  -0.792
REMARK UNBOUND:                -0.816
REMARK SMILES CCCCCCCCCCCCCCCC(=O)[O-]
REMARK SMILES IDX 9 1 10 2 11 3 12 4 13 5 14 6 15 7 16 8 17 9 18 10 8 11 7 12
REMARK SMILES IDX 6 13 5 14 4 15 3 16 2 17 1 18
REMARK H PARENT
REMARK Flexibility Score: inf
ROOT
ATOM      1  C   UNL     1     -31.211  16.631 -10.696  1.00  0.00     0.000 C 
ENDROOT
BRANCH   1   2
ATOM      2  C   UNL     1     -31.289  18.139 -10.401  1.00  0.00     0.000 C 
BRANCH   2   3
ATOM      3  C   UNL     1     -32.725  18.680 -10.486  1.00  0.00     0.000 C 
BRANCH   3   4
ATOM      4  C   UNL     1     -32.807  20.185 -10.176  1.00  0.00     0.000 C 
BRANCH   4   5
ATOM      5  C   UNL     1     -31.433  20.878 -10.219  1.00  0.00     0.000 C 
BRANCH   5   6
ATOM      6  C   UNL     1     -31.438  22.294 -10.833  1.00  0.00     0.006 C 
BRANCH   6   7
ATOM      7  C   UNL     1     -31.622  23.431  -9.815  1.00  0.00     0.053 C 
BRANCH   7   8
ATOM      8  C   UNL     1     -33.041  23.906  -9.755  1.00  0.00     0.041 C 
ATOM      9  O   UNL     1     -33.590  24.124  -8.643  1.00  0.00    -0.550 OA
ATOM     10  O   UNL     1     -33.769  24.074 -10.926  1.00  0.00    -0.550 OA
ENDBRANCH   7   8
ENDBRANCH   6   7
ENDBRANCH   5   6
ENDBRANCH   4   5
ENDBRANCH   3   4
ENDBRANCH   2   3
ENDBRANCH   1   2
BRANCH   1  11
ATOM     11  C   UNL     1     -29.779  16.166 -11.010  1.00  0.00     0.000 C 
BRANCH  11  12
ATOM     12  C   UNL     1     -28.829  17.340 -11.303  1.00  0.00    -0.000 C 
BRANCH  12  13
ATOM     13  C   UNL     1     -28.840  17.763 -12.782  1.00  0.00    -0.000 C 
BRANCH  13  14
ATOM     14  C   UNL     1     -29.397  16.678 -13.728  1.00  0.00    -0.000 C 
BRANCH  14  15
ATOM     15  C   UNL     1     -28.282  15.977 -14.525  1.00  0.00    -0.000 C 
BRANCH  15  16
ATOM     16  C   UNL     1     -28.329  14.447 -14.382  1.00  0.00    -0.000 C 
BRANCH  16  17
ATOM     17  C   UNL     1     -27.439  13.734 -15.411  1.00  0.00    -0.003 C 
ATOM     18  C   UNL     1     -26.214  13.117 -14.742  1.00  0.00     0.004 C 
ENDBRANCH  16  17
ENDBRANCH  15  16
ENDBRANCH  14  15
ENDBRANCH  13  14
ENDBRANCH  12  13
ENDBRANCH  11  12
ENDBRANCH   1  11
TORSDOF 14
ENDMDL
MODEL 6
REMARK VINA RESULT:     8.632      4.305      6.317
REMARK INTER + INTRA:          14.880
REMARK INTER:                  15.862
REMARK INTRA:                  -0.983
REMARK UNBOUND:                -0.816
REMARK SMILES CCCCCCCCCCCCCCCC(=O)[O-]
REMARK SMILES IDX 9 1 10 2 11 3 12 4 13 5 14 6 15 7 16 8 17 9 18 10 8 11 7 12
REMARK SMILES IDX 6 13 5 14 4 15 3 16 2 17 1 18
REMARK H PARENT
REMARK Flexibility Score: inf
ROOT
ATOM      1  C   UNL     1     -29.285  16.679 -11.614  1.00  0.00     0.000 C 
ENDROOT
BRANCH   1   2
ATOM      2  C   UNL     1     -29.964  17.349 -10.408  1.00  0.00     0.000 C 
BRANCH   2   3
ATOM      3  C   UNL     1     -31.464  17.023 -10.322  1.00  0.00     0.000 C 
BRANCH   3   4
ATOM      4  C   UNL     1     -32.347  18.278 -10.430  1.00  0.00     0.000 C 
BRANCH   4   5
ATOM      5  C   UNL     1     -31.545  19.585 -10.293  1.00  0.00     0.000 C 
BRANCH   5   6
ATOM      6  C   UNL     1     -32.398  20.872 -10.266  1.00  0.00     0.006 C 
BRANCH   6   7
ATOM      7  C   UNL     1     -31.611  22.165 -10.532  1.00  0.00     0.053 C 
BRANCH   7   8
ATOM      8  C   UNL     1     -32.270  23.360  -9.915  1.00  0.00     0.041 C 
ATOM      9  O   UNL     1     -33.429  23.697 -10.269  1.00  0.00    -0.550 OA
ATOM     10  O   UNL     1     -31.589  24.123  -8.974  1.00  0.00    -0.550 OA
ENDBRANCH   7   8
ENDBRANCH   6   7
ENDBRANCH   5   6
ENDBRANCH   4   5
ENDBRANCH   3   4
ENDBRANCH   2   3
ENDBRANCH   1   2
BRANCH   1  11
ATOM     11  C   UNL     1     -28.857  17.693 -12.687  1.00  0.00     0.000 C 
BRANCH  11  12
ATOM     12  C   UNL     1     -28.625  19.100 -12.110  1.00  0.00    -0.000 C 
BRANCH  12  13
ATOM     13  C   UNL     1     -27.854  20.020 -13.072  1.00  0.00    -0.000 C 
BRANCH  13  14
ATOM     14  C   UNL     1     -27.843  21.499 -12.634  1.00  0.00    -0.000 C 
BRANCH  14  15
ATOM     15  C   UNL     1     -26.674  22.281 -13.259  1.00  0.00    -0.000 C 
BRANCH  15  16
ATOM     16  C   UNL     1     -25.533  22.533 -12.260  1.00  0.00    -0.000 C 
BRANCH  16  17
ATOM     17  C   UNL     1     -25.445  24.005 -11.828  1.00  0.00    -0.003 C 
ATOM     18  C   UNL     1     -25.331  24.124 -10.311  1.00  0.00     0.004 C 
ENDBRANCH  16  17
ENDBRANCH  15  16
ENDBRANCH  14  15
ENDBRANCH  13  14
ENDBRANCH  12  13
ENDBRANCH  11  12
ENDBRANCH   1  11
TORSDOF 14
ENDMDL
MODEL 7
REMARK VINA RESULT:     9.050      5.211      6.808
REMARK INTER + INTRA:          15.640
REMARK INTER:                  15.989
REMARK INTRA:                  -0.348
REMARK UNBOUND:                -0.816
REMARK SMILES CCCCCCCCCCCCCCCC(=O)[O-]
REMARK SMILES IDX 9 1 10 2 11 3 12 4 13 5 14 6 15 7 16 8 17 9 18 10 8 11 7 12
REMARK SMILES IDX 6 13 5 14 4 15 3 16 2 17 1 18
REMARK H PARENT
REMARK Flexibility Score: inf
ROOT
ATOM      1  C   UNL     1     -28.868  17.927 -10.784  1.00  0.00     0.000 C 
ENDROOT
BRANCH   1   2
ATOM      2  C   UNL     1     -29.222  16.700 -11.641  1.00  0.00     0.000 C 
BRANCH   2   3
ATOM      3  C   UNL     1     -30.472  15.967 -11.130  1.00  0.00     0.000 C 
BRANCH   3   4
ATOM      4  C   UNL     1     -31.403  16.886 -10.319  1.00  0.00     0.000 C 
BRANCH   4   5
ATOM      5  C   UNL     1     -32.691  16.179  -9.863  1.00  0.00     0.000 C 
BRANCH   5   6
ATOM      6  C   UNL     1     -33.047  16.372  -8.373  1.00  0.00     0.006 C 
BRANCH   6   7
ATOM      7  C   UNL     1     -33.818  15.200  -7.744  1.00  0.00     0.053 C 
BRANCH   7   8
ATOM      8  C   UNL     1     -33.402  14.951  -6.327  1.00  0.00     0.041 C 
ATOM      9  O   UNL     1     -32.994  15.901  -5.610  1.00  0.00    -0.550 OA
ATOM     10  O   UNL     1     -33.432  13.662  -5.809  1.00  0.00    -0.550 OA
ENDBRANCH   7   8
ENDBRANCH   6   7
ENDBRANCH   5   6
ENDBRANCH   4   5
ENDBRANCH   3   4
ENDBRANCH   2   3
ENDBRANCH   1   2
BRANCH   1  11
ATOM     11  C   UNL     1     -29.435  19.233 -11.363  1.00  0.00     0.000 C 
BRANCH  11  12
ATOM     12  C   UNL     1     -30.210  20.055 -10.319  1.00  0.00    -0.000 C 
BRANCH  12  13
ATOM     13  C   UNL     1     -31.711  20.162 -10.636  1.00  0.00    -0.000 C 
BRANCH  13  14
ATOM     14  C   UNL     1     -32.286  21.578 -10.424  1.00  0.00    -0.000 C 
BRANCH  14  15
ATOM     15  C   UNL     1     -31.207  22.582  -9.983  1.00  0.00    -0.000 C 
BRANCH  15  16
ATOM     16  C   UNL     1     -31.742  24.020  -9.888  1.00  0.00    -0.000 C 
BRANCH  16  17
ATOM     17  C   UNL     1     -33.264  24.094 -10.084  1.00  0.00    -0.003 C 
ATOM     18  C   UNL     1     -33.989  24.125  -8.742  1.00  0.00     0.004 C 
ENDBRANCH  16  17
ENDBRANCH  15  16
ENDBRANCH  14  15
ENDBRANCH  13  14
ENDBRANCH  12  13
ENDBRANCH  11  12
ENDBRANCH   1  11
TORSDOF 14
ENDMDL
MODEL 8
REMARK VINA RESULT:     9.168      3.594      4.500
REMARK INTER + INTRA:          15.855
REMARK INTER:                  16.764
REMARK INTRA:                  -0.909
REMARK UNBOUND:                -0.816
REMARK SMILES CCCCCCCCCCCCCCCC(=O)[O-]
REMARK SMILES IDX 9 1 10 2 11 3 12 4 13 5 14 6 15 7 16 8 17 9 18 10 8 11 7 12
REMARK SMILES IDX 6 13 5 14 4 15 3 16 2 17 1 18
REMARK H PARENT
REMARK Flexibility Score: inf
ROOT
ATOM      1  C   UNL     1     -29.432  17.563 -11.049  1.00  0.00     0.000 C 
ENDROOT
BRANCH   1   2
ATOM      2  C   UNL     1     -28.914  17.065 -12.409  1.00  0.00     0.000 C 
BRANCH   2   3
ATOM      3  C   UNL     1     -28.668  18.213 -13.401  1.00  0.00     0.000 C 
BRANCH   3   4
ATOM      4  C   UNL     1     -27.931  19.400 -12.756  1.00  0.00     0.000 C 
BRANCH   4   5
ATOM      5  C   UNL     1     -27.758  20.589 -13.718  1.00  0.00     0.000 C 
BRANCH   5   6
ATOM      6  C   UNL     1     -26.648  21.587 -13.327  1.00  0.00     0.006 C 
BRANCH   6   7
ATOM      7  C   UNL     1     -26.910  22.353 -12.021  1.00  0.00     0.053 C 
BRANCH   7   8
ATOM      8  C   UNL     1     -25.845  23.368 -11.741  1.00  0.00     0.041 C 
ATOM      9  O   UNL     1     -25.434  24.125 -12.659  1.00  0.00    -0.550 OA
ATOM     10  O   UNL     1     -25.279  23.453 -10.475  1.00  0.00    -0.550 OA
ENDBRANCH   7   8
ENDBRANCH   6   7
ENDBRANCH   5   6
ENDBRANCH   4   5
ENDBRANCH   3   4
ENDBRANCH   2   3
ENDBRANCH   1   2
BRANCH   1  11
ATOM     11  C   UNL     1     -30.833  17.024 -10.720  1.00  0.00     0.000 C 
BRANCH  11  12
ATOM     12  C   UNL     1     -31.862  18.147 -10.504  1.00  0.00    -0.000 C 
BRANCH  12  13
ATOM     13  C   UNL     1     -31.208  19.507 -10.207  1.00  0.00    -0.000 C 
BRANCH  13  14
ATOM     14  C   UNL     1     -32.224  20.618  -9.870  1.00  0.00    -0.000 C 
BRANCH  14  15
ATOM     15  C   UNL     1     -32.160  21.785 -10.871  1.00  0.00    -0.000 C 
BRANCH  15  16
ATOM     16  C   UNL     1     -31.223  22.912 -10.405  1.00  0.00    -0.000 C 
BRANCH  16  17
ATOM     17  C   UNL     1     -31.960  23.991  -9.597  1.00  0.00    -0.003 C 
ATOM     18  C   UNL     1     -33.439  24.037  -9.966  1.00  0.00     0.004 C 
ENDBRANCH  16  17
ENDBRANCH  15  16
ENDBRANCH  14  15
ENDBRANCH  13  14
ENDBRANCH  12  13
ENDBRANCH  11  12
ENDBRANCH   1  11
TORSDOF 14
ENDMDL
MODEL 9
REMARK VINA RESULT:     9.307      3.811      6.435
REMARK INTER + INTRA:          16.107
REMARK INTER:                  17.407
REMARK INTRA:                  -1.300
REMARK UNBOUND:                -0.816
REMARK SMILES CCCCCCCCCCCCCCCC(=O)[O-]
REMARK SMILES IDX 9 1 10 2 11 3 12 4 13 5 14 6 15 7 16 8 17 9 18 10 8 11 7 12
REMARK SMILES IDX 6 13 5 14 4 15 3 16 2 17 1 18
REMARK H PARENT
REMARK Flexibility Score: inf
ROOT
ATOM      1  C   UNL     1     -31.495  16.222 -10.358  1.00  0.00     0.000 C 
ENDROOT
BRANCH   1   2
ATOM      2  C   UNL     1     -31.376  17.756 -10.383  1.00  0.00     0.000 C 
BRANCH   2   3
ATOM      3  C   UNL     1     -32.746  18.451 -10.370  1.00  0.00     0.000 C 
BRANCH   3   4
ATOM      4  C   UNL     1     -32.628  19.985 -10.348  1.00  0.00     0.000 C 
BRANCH   4   5
ATOM      5  C   UNL     1     -31.172  20.470 -10.229  1.00  0.00     0.000 C 
BRANCH   5   6
ATOM      6  C   UNL     1     -30.948  21.954 -10.590  1.00  0.00     0.006 C 
BRANCH   6   7
ATOM      7  C   UNL     1     -32.235  22.739 -10.889  1.00  0.00     0.053 C 
BRANCH   7   8
ATOM      8  C   UNL     1     -32.571  23.704  -9.795  1.00  0.00     0.041 C 
ATOM      9  O   UNL     1     -31.673  24.113  -9.012  1.00  0.00    -0.550 OA
ATOM     10  O   UNL     1     -33.882  24.125  -9.616  1.00  0.00    -0.550 OA
ENDBRANCH   7   8
ENDBRANCH   6   7
ENDBRANCH   5   6
ENDBRANCH   4   5
ENDBRANCH   3   4
ENDBRANCH   2   3
ENDBRANCH   1   2
BRANCH   1  11
ATOM     11  C   UNL     1     -30.406  15.534 -11.197  1.00  0.00     0.000 C 
BRANCH  11  12
ATOM     12  C   UNL     1     -29.167  16.423 -11.400  1.00  0.00    -0.000 C 
BRANCH  12  13
ATOM     13  C   UNL     1     -28.866  16.697 -12.884  1.00  0.00    -0.000 C 
BRANCH  13  14
ATOM     14  C   UNL     1     -28.965  18.188 -13.267  1.00  0.00    -0.000 C 
BRANCH  14  15
ATOM     15  C   UNL     1     -27.858  19.031 -12.611  1.00  0.00    -0.000 C 
BRANCH  15  16
ATOM     16  C   UNL     1     -28.231  20.519 -12.509  1.00  0.00    -0.000 C 
BRANCH  16  17
ATOM     17  C   UNL     1     -27.383  21.402 -13.436  1.00  0.00    -0.003 C 
ATOM     18  C   UNL     1     -26.501  22.352 -12.631  1.00  0.00     0.004 C 
ENDBRANCH  16  17
ENDBRANCH  15  16
ENDBRANCH  14  15
ENDBRANCH  13  14
ENDBRANCH  12  13
ENDBRANCH  11  12
ENDBRANCH   1  11
TORSDOF 14
ENDMDL
