MODEL 1
REMARK VINA RESULT:    -4.773      0.000      0.000
REMARK INTER + INTRA:         -13.011
REMARK INTER:                 -10.355
REMARK INTRA:                  -2.656
REMARK UNBOUND:                -2.656
REMARK SMILES CCCCCCCCCCCCCCCCCCCCCC(=O)[O-]
REMARK SMILES IDX 12 1 11 2 10 3 9 4 8 5 7 6 6 7 5 8 4 9 3 10 2 11 1 12 13 13
REMARK SMILES IDX 14 14 15 15 16 16 17 17 18 18 19 19 20 20 21 21 22 22 23 23
REMARK SMILES IDX 24 24
REMARK H PARENT
REMARK Flexibility Score: inf
ROOT
ATOM      1  C   UNL     1      11.914   6.572  10.507  1.00  0.00     0.000 C 
ENDROOT
BRANCH   1   2
ATOM      2  C   UNL     1      12.130   8.048  10.133  1.00  0.00     0.000 C 
BRANCH   2   3
ATOM      3  C   UNL     1      11.503   9.017  11.149  1.00  0.00     0.000 C 
BRANCH   3   4
ATOM      4  C   UNL     1      12.240  10.364  11.222  1.00  0.00    -0.000 C 
BRANCH   4   5
ATOM      5  C   UNL     1      12.724  10.800   9.833  1.00  0.00    -0.000 C 
BRANCH   5   6
ATOM      6  C   UNL     1      12.270  12.234   9.517  1.00  0.00    -0.000 C 
BRANCH   6   7
ATOM      7  C   UNL     1      12.298  13.149  10.751  1.00  0.00    -0.000 C 
BRANCH   7   8
ATOM      8  C   UNL     1      11.109  14.125  10.796  1.00  0.00    -0.000 C 
BRANCH   8   9
ATOM      9  C   UNL     1      10.100  13.760  11.906  1.00  0.00    -0.000 C 
BRANCH   9  10
ATOM     10  C   UNL     1      10.764  13.229  13.189  1.00  0.00    -0.000 C 
BRANCH  10  11
ATOM     11  C   UNL     1      10.054  11.995  13.764  1.00  0.00    -0.003 C 
ATOM     12  C   UNL     1       9.036  11.436  12.777  1.00  0.00     0.004 C 
ENDBRANCH  10  11
ENDBRANCH   9  10
ENDBRANCH   8   9
ENDBRANCH   7   8
ENDBRANCH   6   7
ENDBRANCH   5   6
ENDBRANCH   4   5
ENDBRANCH   3   4
ENDBRANCH   2   3
ENDBRANCH   1   2
BRANCH   1  13
ATOM     13  C   UNL     1      11.489   6.394  11.975  1.00  0.00     0.000 C 
BRANCH  13  14
ATOM     14  C   UNL     1      10.057   5.850  12.119  1.00  0.00     0.000 C 
BRANCH  14  15
ATOM     15  C   UNL     1      10.038   4.323  12.346  1.00  0.00     0.000 C 
BRANCH  15  16
ATOM     16  C   UNL     1       9.253   3.552  11.272  1.00  0.00     0.000 C 
BRANCH  16  17
ATOM     17  C   UNL     1       9.012   4.376   9.997  1.00  0.00     0.000 C 
BRANCH  17  18
ATOM     18  C   UNL     1       9.938   3.949   8.838  1.00  0.00     0.000 C 
BRANCH  18  19
ATOM     19  C   UNL     1      10.548   2.546   9.014  1.00  0.00     0.000 C 
BRANCH  19  20
ATOM     20  C   UNL     1      12.049   2.528   9.358  1.00  0.00     0.006 C 
BRANCH  20  21
ATOM     21  C   UNL     1      12.415   1.645  10.561  1.00  0.00     0.053 C 
BRANCH  21  22
ATOM     22  C   UNL     1      13.135   2.418  11.624  1.00  0.00     0.041 C 
ATOM     23  O   UNL     1      13.579   3.570  11.379  1.00  0.00    -0.550 OA
ATOM     24  O   UNL     1      13.350   1.849  12.873  1.00  0.00    -0.550 OA
ENDBRANCH  21  22
ENDBRANCH  20  21
ENDBRANCH  19  20
ENDBRANCH  18  19
ENDBRANCH  17  18
ENDBRANCH  16  17
ENDBRANCH  15  16
ENDBRANCH  14  15
ENDBRANCH  13  14
ENDBRANCH   1  13
TORSDOF 20
ENDMDL
MODEL 2
REMARK VINA RESULT:    -4.746      4.018      7.347
REMARK INTER + INTRA:         -12.951
REMARK INTER:                  -9.367
REMARK INTRA:                  -3.584
REMARK UNBOUND:                -2.656
REMARK SMILES CCCCCCCCCCCCCCCCCCCCCC(=O)[O-]
REMARK SMILES IDX 12 1 11 2 10 3 9 4 8 5 7 6 6 7 5 8 4 9 3 10 2 11 1 12 13 13
REMARK SMILES IDX 14 14 15 15 16 16 17 17 18 18 19 19 20 20 21 21 22 22 23 23
REMARK SMILES IDX 24 24
REMARK H PARENT
REMARK Flexibility Score: inf
ROOT
ATOM      1  C   UNL     1      11.973   6.561  10.512  1.00  0.00     0.000 C 
ENDROOT
BRANCH   1   2
ATOM      2  C   UNL     1      10.827   6.290  11.502  1.00  0.00     0.000 C 
BRANCH   2   3
ATOM      3  C   UNL     1      10.859   7.228  12.719  1.00  0.00     0.000 C 
BRANCH   3   4
ATOM      4  C   UNL     1      10.522   6.508  14.035  1.00  0.00    -0.000 C 
BRANCH   4   5
ATOM      5  C   UNL     1       9.610   5.301  13.781  1.00  0.00    -0.000 C 
BRANCH   5   6
ATOM      6  C   UNL     1      10.354   3.982  14.048  1.00  0.00    -0.000 C 
BRANCH   6   7
ATOM      7  C   UNL     1       9.835   2.825  13.182  1.00  0.00    -0.000 C 
BRANCH   7   8
ATOM      8  C   UNL     1       8.757   3.269  12.177  1.00  0.00    -0.000 C 
BRANCH   8   9
ATOM      9  C   UNL     1       8.540   2.225  11.060  1.00  0.00    -0.000 C 
BRANCH   9  10
ATOM     10  C   UNL     1       9.719   2.125  10.075  1.00  0.00    -0.000 C 
BRANCH  10  11
ATOM     11  C   UNL     1       9.396   2.711   8.694  1.00  0.00    -0.003 C 
ATOM     12  C   UNL     1       9.409   4.235   8.726  1.00  0.00     0.004 C 
ENDBRANCH  10  11
ENDBRANCH   9  10
ENDBRANCH   8   9
ENDBRANCH   7   8
ENDBRANCH   6   7
ENDBRANCH   5   6
ENDBRANCH   4   5
ENDBRANCH   3   4
ENDBRANCH   2   3
ENDBRANCH   1   2
BRANCH   1  13
ATOM     13  C   UNL     1      13.067   5.481  10.570  1.00  0.00     0.000 C 
BRANCH  13  14
ATOM     14  C   UNL     1      12.498   4.068  10.791  1.00  0.00     0.000 C 
BRANCH  14  15
ATOM     15  C   UNL     1      13.366   3.240  11.763  1.00  0.00     0.000 C 
BRANCH  15  16
ATOM     16  C   UNL     1      12.998   1.748  11.799  1.00  0.00     0.000 C 
BRANCH  16  17
ATOM     17  C   UNL     1      13.164   1.122  13.193  1.00  0.00     0.000 C 
BRANCH  17  18
ATOM     18  C   UNL     1      13.590   2.159  14.255  1.00  0.00     0.000 C 
BRANCH  18  19
ATOM     19  C   UNL     1      13.356   1.695  15.706  1.00  0.00     0.000 C 
BRANCH  19  20
ATOM     20  C   UNL     1      11.943   1.153  15.994  1.00  0.00     0.006 C 
BRANCH  20  21
ATOM     21  C   UNL     1      11.156   1.957  17.042  1.00  0.00     0.053 C 
BRANCH  21  22
ATOM     22  C   UNL     1       9.745   1.471  17.175  1.00  0.00     0.041 C 
ATOM     23  O   UNL     1       9.114   1.071  16.161  1.00  0.00    -0.550 OA
ATOM     24  O   UNL     1       9.114   1.498  18.412  1.00  0.00    -0.550 OA
ENDBRANCH  21  22
ENDBRANCH  20  21
ENDBRANCH  19  20
ENDBRANCH  18  19
ENDBRANCH  17  18
ENDBRANCH  16  17
ENDBRANCH  15  16
ENDBRANCH  14  15
ENDBRANCH  13  14
ENDBRANCH   1  13
TORSDOF 20
ENDMDL
MODEL 3
REMARK VINA RESULT:    -4.682      4.209      7.698
REMARK INTER + INTRA:         -12.813
REMARK INTER:                  -9.114
REMARK INTRA:                  -3.699
REMARK UNBOUND:                -2.656
REMARK SMILES CCCCCCCCCCCCCCCCCCCCCC(=O)[O-]
REMARK SMILES IDX 12 1 11 2 10 3 9 4 8 5 7 6 6 7 5 8 4 9 3 10 2 11 1 12 13 13
REMARK SMILES IDX 14 14 15 15 16 16 17 17 18 18 19 19 20 20 21 21 22 22 23 23
REMARK SMILES IDX 24 24
REMARK H PARENT
REMARK Flexibility Score: inf
ROOT
ATOM      1  C   UNL     1      13.343   2.498  13.708  1.00  0.00     0.000 C 
ENDROOT
BRANCH   1   2
ATOM      2  C   UNL     1      13.492   2.111  15.189  1.00  0.00     0.000 C 
BRANCH   2   3
ATOM      3  C   UNL     1      12.988   0.689  15.485  1.00  0.00     0.000 C 
BRANCH   3   4
ATOM      4  C   UNL     1      11.575   0.672  16.092  1.00  0.00    -0.000 C 
BRANCH   4   5
ATOM      5  C   UNL     1      10.715  -0.423  15.448  1.00  0.00    -0.000 C 
BRANCH   5   6
ATOM      6  C   UNL     1      10.414  -0.094  13.977  1.00  0.00    -0.000 C 
BRANCH   6   7
ATOM      7  C   UNL     1       9.256   0.903  13.819  1.00  0.00    -0.000 C 
BRANCH   7   8
ATOM      8  C   UNL     1       9.727   2.295  13.363  1.00  0.00    -0.000 C 
BRANCH   8   9
ATOM      9  C   UNL     1       9.243   3.412  14.313  1.00  0.00    -0.000 C 
BRANCH   9  10
ATOM     10  C   UNL     1      10.388   4.136  15.045  1.00  0.00    -0.000 C 
BRANCH  10  11
ATOM     11  C   UNL     1       9.931   5.423  15.746  1.00  0.00    -0.003 C 
ATOM     12  C   UNL     1      10.237   6.651  14.896  1.00  0.00     0.004 C 
ENDBRANCH  10  11
ENDBRANCH   9  10
ENDBRANCH   8   9
ENDBRANCH   7   8
ENDBRANCH   6   7
ENDBRANCH   5   6
ENDBRANCH   4   5
ENDBRANCH   3   4
ENDBRANCH   2   3
ENDBRANCH   1   2
BRANCH   1  13
ATOM     13  C   UNL     1      13.278   1.270  12.783  1.00  0.00     0.000 C 
BRANCH  13  14
ATOM     14  C   UNL     1      12.812   1.621  11.359  1.00  0.00     0.000 C 
BRANCH  14  15
ATOM     15  C   UNL     1      12.201   0.403  10.633  1.00  0.00     0.000 C 
BRANCH  15  16
ATOM     16  C   UNL     1      11.183   0.783   9.545  1.00  0.00     0.000 C 
BRANCH  16  17
ATOM     17  C   UNL     1      11.345   2.230   9.052  1.00  0.00     0.000 C 
BRANCH  17  18
ATOM     18  C   UNL     1      10.013   3.010   9.073  1.00  0.00     0.000 C 
BRANCH  18  19
ATOM     19  C   UNL     1      10.177   4.514   9.366  1.00  0.00     0.000 C 
BRANCH  19  20
ATOM     20  C   UNL     1       9.900   4.925  10.824  1.00  0.00     0.006 C 
BRANCH  20  21
ATOM     21  C   UNL     1      11.149   5.357  11.610  1.00  0.00     0.053 C 
BRANCH  21  22
ATOM     22  C   UNL     1      12.231   5.865  10.707  1.00  0.00     0.041 C 
ATOM     23  O   UNL     1      13.252   5.163  10.484  1.00  0.00    -0.550 OA
ATOM     24  O   UNL     1      12.129   7.130  10.141  1.00  0.00    -0.550 OA
ENDBRANCH  21  22
ENDBRANCH  20  21
ENDBRANCH  19  20
ENDBRANCH  18  19
ENDBRANCH  17  18
ENDBRANCH  16  17
ENDBRANCH  15  16
ENDBRANCH  14  15
ENDBRANCH  13  14
ENDBRANCH   1  13
TORSDOF 20
ENDMDL
MODEL 4
REMARK VINA RESULT:    -4.680      3.814      7.652
REMARK INTER + INTRA:         -12.807
REMARK INTER:                  -8.966
REMARK INTRA:                  -3.841
REMARK UNBOUND:                -2.656
REMARK SMILES CCCCCCCCCCCCCCCCCCCCCC(=O)[O-]
REMARK SMILES IDX 12 1 11 2 10 3 9 4 8 5 7 6 6 7 5 8 4 9 3 10 2 11 1 12 13 13
REMARK SMILES IDX 14 14 15 15 16 16 17 17 18 18 19 19 20 20 21 21 22 22 23 23
REMARK SMILES IDX 24 24
REMARK H PARENT
REMARK Flexibility Score: inf
ROOT
ATOM      1  C   UNL     1      11.479   7.516  11.964  1.00  0.00     0.000 C 
ENDROOT
BRANCH   1   2
ATOM      2  C   UNL     1      10.426   6.635  12.657  1.00  0.00     0.000 C 
BRANCH   2   3
ATOM      3  C   UNL     1      10.738   6.393  14.143  1.00  0.00     0.000 C 
BRANCH   3   4
ATOM      4  C   UNL     1       9.904   5.253  14.749  1.00  0.00    -0.000 C 
BRANCH   4   5
ATOM      5  C   UNL     1      10.547   3.890  14.459  1.00  0.00    -0.000 C 
BRANCH   5   6
ATOM      6  C   UNL     1       9.797   3.155  13.336  1.00  0.00    -0.000 C 
BRANCH   6   7
ATOM      7  C   UNL     1       9.444   1.708  13.711  1.00  0.00    -0.000 C 
BRANCH   7   8
ATOM      8  C   UNL     1      10.423   1.101  14.732  1.00  0.00    -0.000 C 
BRANCH   8   9
ATOM      9  C   UNL     1      11.260  -0.045  14.122  1.00  0.00    -0.000 C 
BRANCH   9  10
ATOM     10  C   UNL     1      12.778   0.201  14.188  1.00  0.00    -0.000 C 
BRANCH  10  11
ATOM     11  C   UNL     1      13.218   0.893  15.485  1.00  0.00    -0.003 C 
ATOM     12  C   UNL     1      13.943   2.202  15.193  1.00  0.00     0.004 C 
ENDBRANCH  10  11
ENDBRANCH   9  10
ENDBRANCH   8   9
ENDBRANCH   7   8
ENDBRANCH   6   7
ENDBRANCH   5   6
ENDBRANCH   4   5
ENDBRANCH   3   4
ENDBRANCH   2   3
ENDBRANCH   1   2
BRANCH   1  13
ATOM     13  C   UNL     1      11.879   6.974  10.581  1.00  0.00     0.000 C 
BRANCH  13  14
ATOM     14  C   UNL     1      11.336   5.559  10.316  1.00  0.00     0.000 C 
BRANCH  14  15
ATOM     15  C   UNL     1      12.470   4.519  10.183  1.00  0.00     0.000 C 
BRANCH  15  16
ATOM     16  C   UNL     1      12.938   3.945  11.530  1.00  0.00     0.000 C 
BRANCH  16  17
ATOM     17  C   UNL     1      12.967   2.408  11.548  1.00  0.00     0.000 C 
BRANCH  17  18
ATOM     18  C   UNL     1      12.426   1.794  10.239  1.00  0.00     0.000 C 
BRANCH  18  19
ATOM     19  C   UNL     1      11.139   0.968  10.425  1.00  0.00     0.000 C 
BRANCH  19  20
ATOM     20  C   UNL     1       9.837   1.701  10.051  1.00  0.00     0.006 C 
BRANCH  20  21
ATOM     21  C   UNL     1       9.835   2.314   8.642  1.00  0.00     0.053 C 
BRANCH  21  22
ATOM     22  C   UNL     1       8.899   3.479   8.540  1.00  0.00     0.041 C 
ATOM     23  O   UNL     1       8.745   4.074   7.441  1.00  0.00    -0.550 OA
ATOM     24  O   UNL     1       8.227   3.933   9.669  1.00  0.00    -0.550 OA
ENDBRANCH  21  22
ENDBRANCH  20  21
ENDBRANCH  19  20
ENDBRANCH  18  19
ENDBRANCH  17  18
ENDBRANCH  16  17
ENDBRANCH  15  16
ENDBRANCH  14  15
ENDBRANCH  13  14
ENDBRANCH   1  13
TORSDOF 20
ENDMDL
MODEL 5
REMARK VINA RESULT:    -4.674      2.362      4.877
REMARK INTER + INTRA:         -12.795
REMARK INTER:                  -9.742
REMARK INTRA:                  -3.053
REMARK UNBOUND:                -2.656
REMARK SMILES CCCCCCCCCCCCCCCCCCCCCC(=O)[O-]
REMARK SMILES IDX 12 1 11 2 10 3 9 4 8 5 7 6 6 7 5 8 4 9 3 10 2 11 1 12 13 13
REMARK SMILES IDX 14 14 15 15 16 16 17 17 18 18 19 19 20 20 21 21 22 22 23 23
REMARK SMILES IDX 24 24
REMARK H PARENT
REMARK Flexibility Score: inf
ROOT
ATOM      1  C   UNL     1      12.847   1.457  12.255  1.00  0.00     0.000 C 
ENDROOT
BRANCH   1   2
ATOM      2  C   UNL     1      13.222   2.943  12.127  1.00  0.00     0.000 C 
BRANCH   2   3
ATOM      3  C   UNL     1      12.662   3.589  10.849  1.00  0.00     0.000 C 
BRANCH   3   4
ATOM      4  C   UNL     1      13.132   5.040  10.659  1.00  0.00    -0.000 C 
BRANCH   4   5
ATOM      5  C   UNL     1      11.969   5.941  10.223  1.00  0.00    -0.000 C 
BRANCH   5   6
ATOM      6  C   UNL     1      11.159   6.422  11.438  1.00  0.00    -0.000 C 
BRANCH   6   7
ATOM      7  C   UNL     1      11.377   7.912  11.740  1.00  0.00    -0.000 C 
BRANCH   7   8
ATOM      8  C   UNL     1      12.053   8.664  10.579  1.00  0.00    -0.000 C 
BRANCH   8   9
ATOM      9  C   UNL     1      11.573  10.128  10.478  1.00  0.00    -0.000 C 
BRANCH   9  10
ATOM     10  C   UNL     1      12.321  11.086  11.423  1.00  0.00    -0.000 C 
BRANCH  10  11
ATOM     11  C   UNL     1      11.381  12.033  12.182  1.00  0.00    -0.003 C 
ATOM     12  C   UNL     1      10.359  11.253  13.003  1.00  0.00     0.004 C 
ENDBRANCH  10  11
ENDBRANCH   9  10
ENDBRANCH   8   9
ENDBRANCH   7   8
ENDBRANCH   6   7
ENDBRANCH   5   6
ENDBRANCH   4   5
ENDBRANCH   3   4
ENDBRANCH   2   3
ENDBRANCH   1   2
BRANCH   1  13
ATOM     13  C   UNL     1      13.250   0.864  13.616  1.00  0.00     0.000 C 
BRANCH  13  14
ATOM     14  C   UNL     1      13.495   1.944  14.686  1.00  0.00     0.000 C 
BRANCH  14  15
ATOM     15  C   UNL     1      12.454   1.877  15.824  1.00  0.00     0.000 C 
BRANCH  15  16
ATOM     16  C   UNL     1      11.030   2.248  15.378  1.00  0.00     0.000 C 
BRANCH  16  17
ATOM     17  C   UNL     1      10.911   3.706  14.905  1.00  0.00     0.000 C 
BRANCH  17  18
ATOM     18  C   UNL     1      10.063   3.839  13.622  1.00  0.00     0.000 C 
BRANCH  18  19
ATOM     19  C   UNL     1       9.378   2.529  13.190  1.00  0.00     0.000 C 
BRANCH  19  20
ATOM     20  C   UNL     1       9.312   2.301  11.668  1.00  0.00     0.006 C 
BRANCH  20  21
ATOM     21  C   UNL     1       8.946   3.553  10.854  1.00  0.00     0.053 C 
BRANCH  21  22
ATOM     22  C   UNL     1       9.264   3.386   9.399  1.00  0.00     0.041 C 
ATOM     23  O   UNL     1       8.875   4.244   8.563  1.00  0.00    -0.550 OA
ATOM     24  O   UNL     1       9.954   2.263   8.962  1.00  0.00    -0.550 OA
ENDBRANCH  21  22
ENDBRANCH  20  21
ENDBRANCH  19  20
ENDBRANCH  18  19
ENDBRANCH  17  18
ENDBRANCH  16  17
ENDBRANCH  15  16
ENDBRANCH  14  15
ENDBRANCH  13  14
ENDBRANCH   1  13
TORSDOF 20
ENDMDL
MODEL 6
REMARK VINA RESULT:    -4.669      3.261      8.382
REMARK INTER + INTRA:         -12.784
REMARK INTER:                  -9.873
REMARK INTRA:                  -2.911
REMARK UNBOUND:                -2.656
REMARK SMILES CCCCCCCCCCCCCCCCCCCCCC(=O)[O-]
REMARK SMILES IDX 12 1 11 2 10 3 9 4 8 5 7 6 6 7 5 8 4 9 3 10 2 11 1 12 13 13
REMARK SMILES IDX 14 14 15 15 16 16 17 17 18 18 19 19 20 20 21 21 22 22 23 23
REMARK SMILES IDX 24 24
REMARK H PARENT
REMARK Flexibility Score: inf
ROOT
ATOM      1  C   UNL     1      11.796   0.293  10.913  1.00  0.00     0.000 C 
ENDROOT
BRANCH   1   2
ATOM      2  C   UNL     1      11.565   0.642   9.433  1.00  0.00     0.000 C 
BRANCH   2   3
ATOM      3  C   UNL     1      10.096   0.971   9.123  1.00  0.00     0.000 C 
BRANCH   3   4
ATOM      4  C   UNL     1       9.810   2.482   9.124  1.00  0.00    -0.000 C 
BRANCH   4   5
ATOM      5  C   UNL     1       8.730   2.834  10.155  1.00  0.00    -0.000 C 
BRANCH   5   6
ATOM      6  C   UNL     1       9.312   3.683  11.296  1.00  0.00    -0.000 C 
BRANCH   6   7
ATOM      7  C   UNL     1       9.559   2.867  12.574  1.00  0.00    -0.000 C 
BRANCH   7   8
ATOM      8  C   UNL     1       9.930   3.748  13.781  1.00  0.00    -0.000 C 
BRANCH   8   9
ATOM      9  C   UNL     1      11.289   3.348  14.395  1.00  0.00    -0.000 C 
BRANCH   9  10
ATOM     10  C   UNL     1      11.242   2.029  15.187  1.00  0.00    -0.000 C 
BRANCH  10  11
ATOM     11  C   UNL     1      12.557   1.721  15.916  1.00  0.00    -0.003 C 
ATOM     12  C   UNL     1      13.762   2.115  15.069  1.00  0.00     0.004 C 
ENDBRANCH  10  11
ENDBRANCH   9  10
ENDBRANCH   8   9
ENDBRANCH   7   8
ENDBRANCH   6   7
ENDBRANCH   5   6
ENDBRANCH   4   5
ENDBRANCH   3   4
ENDBRANCH   2   3
ENDBRANCH   1   2
BRANCH   1  13
ATOM     13  C   UNL     1      12.711   1.308  11.621  1.00  0.00     0.000 C 
BRANCH  13  14
ATOM     14  C   UNL     1      12.927   2.590  10.796  1.00  0.00     0.000 C 
BRANCH  14  15
ATOM     15  C   UNL     1      13.608   3.702  11.623  1.00  0.00     0.000 C 
BRANCH  15  16
ATOM     16  C   UNL     1      13.540   5.088  10.963  1.00  0.00     0.000 C 
BRANCH  16  17
ATOM     17  C   UNL     1      12.122   5.462  10.500  1.00  0.00     0.000 C 
BRANCH  17  18
ATOM     18  C   UNL     1      11.653   6.815  11.077  1.00  0.00     0.000 C 
BRANCH  18  19
ATOM     19  C   UNL     1      12.021   8.027  10.200  1.00  0.00     0.000 C 
BRANCH  19  20
ATOM     20  C   UNL     1      11.631   9.396  10.788  1.00  0.00     0.006 C 
BRANCH  20  21
ATOM     21  C   UNL     1      12.595  10.538  10.431  1.00  0.00     0.053 C 
BRANCH  21  22
ATOM     22  C   UNL     1      12.067  11.872  10.863  1.00  0.00     0.041 C 
ATOM     23  O   UNL     1      11.350  11.967  11.893  1.00  0.00    -0.550 OA
ATOM     24  O   UNL     1      12.333  13.005  10.104  1.00  0.00    -0.550 OA
ENDBRANCH  21  22
ENDBRANCH  20  21
ENDBRANCH  19  20
ENDBRANCH  18  19
ENDBRANCH  17  18
ENDBRANCH  16  17
ENDBRANCH  15  16
ENDBRANCH  14  15
ENDBRANCH  13  14
ENDBRANCH   1  13
TORSDOF 20
ENDMDL
MODEL 7
REMARK VINA RESULT:    -4.651      4.022      7.438
REMARK INTER + INTRA:         -12.745
REMARK INTER:                  -9.058
REMARK INTRA:                  -3.687
REMARK UNBOUND:                -2.656
REMARK SMILES CCCCCCCCCCCCCCCCCCCCCC(=O)[O-]
REMARK SMILES IDX 12 1 11 2 10 3 9 4 8 5 7 6 6 7 5 8 4 9 3 10 2 11 1 12 13 13
REMARK SMILES IDX 14 14 15 15 16 16 17 17 18 18 19 19 20 20 21 21 22 22 23 23
REMARK SMILES IDX 24 24
REMARK H PARENT
REMARK Flexibility Score: inf
ROOT
ATOM      1  C   UNL     1      11.354   6.773  12.343  1.00  0.00     0.000 C 
ENDROOT
BRANCH   1   2
ATOM      2  C   UNL     1      10.115   6.075  12.929  1.00  0.00     0.000 C 
BRANCH   2   3
ATOM      3  C   UNL     1      10.476   4.895  13.846  1.00  0.00     0.000 C 
BRANCH   3   4
ATOM      4  C   UNL     1       9.821   3.576  13.405  1.00  0.00    -0.000 C 
BRANCH   4   5
ATOM      5  C   UNL     1      10.868   2.607  12.839  1.00  0.00    -0.000 C 
BRANCH   5   6
ATOM      6  C   UNL     1      12.291   3.053  13.212  1.00  0.00    -0.000 C 
BRANCH   6   7
ATOM      7  C   UNL     1      13.317   1.915  13.097  1.00  0.00    -0.000 C 
BRANCH   7   8
ATOM      8  C   UNL     1      13.198   0.889  14.238  1.00  0.00    -0.000 C 
BRANCH   8   9
ATOM      9  C   UNL     1      13.271   1.556  15.629  1.00  0.00    -0.000 C 
BRANCH   9  10
ATOM     10  C   UNL     1      11.897   1.729  16.301  1.00  0.00    -0.000 C 
BRANCH  10  11
ATOM     11  C   UNL     1      10.945   0.558  16.027  1.00  0.00    -0.003 C 
ATOM     12  C   UNL     1      11.272  -0.637  16.916  1.00  0.00     0.004 C 
ENDBRANCH  10  11
ENDBRANCH   9  10
ENDBRANCH   8   9
ENDBRANCH   7   8
ENDBRANCH   6   7
ENDBRANCH   5   6
ENDBRANCH   4   5
ENDBRANCH   3   4
ENDBRANCH   2   3
ENDBRANCH   1   2
BRANCH   1  13
ATOM     13  C   UNL     1      11.495   6.544  10.828  1.00  0.00     0.000 C 
BRANCH  13  14
ATOM     14  C   UNL     1      12.524   5.452  10.484  1.00  0.00     0.000 C 
BRANCH  14  15
ATOM     15  C   UNL     1      11.874   4.252   9.762  1.00  0.00     0.000 C 
BRANCH  15  16
ATOM     16  C   UNL     1      10.462   4.545   9.231  1.00  0.00     0.000 C 
BRANCH  16  17
ATOM     17  C   UNL     1       9.419   3.517   9.701  1.00  0.00     0.000 C 
BRANCH  17  18
ATOM     18  C   UNL     1       9.132   2.440   8.632  1.00  0.00     0.000 C 
BRANCH  18  19
ATOM     19  C   UNL     1       9.616   1.031   9.023  1.00  0.00     0.000 C 
BRANCH  19  20
ATOM     20  C   UNL     1      11.116   0.771   8.792  1.00  0.00     0.006 C 
BRANCH  20  21
ATOM     21  C   UNL     1      11.911   0.455  10.069  1.00  0.00     0.053 C 
BRANCH  21  22
ATOM     22  C   UNL     1      11.488  -0.844  10.683  1.00  0.00     0.041 C 
ATOM     23  O   UNL     1      11.396  -1.880   9.975  1.00  0.00    -0.550 OA
ATOM     24  O   UNL     1      11.158  -0.901  12.032  1.00  0.00    -0.550 OA
ENDBRANCH  21  22
ENDBRANCH  20  21
ENDBRANCH  19  20
ENDBRANCH  18  19
ENDBRANCH  17  18
ENDBRANCH  16  17
ENDBRANCH  15  16
ENDBRANCH  14  15
ENDBRANCH  13  14
ENDBRANCH   1  13
TORSDOF 20
ENDMDL
MODEL 8
REMARK VINA RESULT:    -4.650      3.958      8.682
REMARK INTER + INTRA:         -12.744
REMARK INTER:                 -10.473
REMARK INTRA:                  -2.271
REMARK UNBOUND:                -2.656
REMARK SMILES CCCCCCCCCCCCCCCCCCCCCC(=O)[O-]
REMARK SMILES IDX 12 1 11 2 10 3 9 4 8 5 7 6 6 7 5 8 4 9 3 10 2 11 1 12 13 13
REMARK SMILES IDX 14 14 15 15 16 16 17 17 18 18 19 19 20 20 21 21 22 22 23 23
REMARK SMILES IDX 24 24
REMARK H PARENT
REMARK Flexibility Score: inf
ROOT
ATOM      1  C   UNL     1      13.246   2.531  12.558  1.00  0.00     0.000 C 
ENDROOT
BRANCH   1   2
ATOM      2  C   UNL     1      13.095   1.005  12.671  1.00  0.00     0.000 C 
BRANCH   2   3
ATOM      3  C   UNL     1      13.112   0.513  14.128  1.00  0.00     0.000 C 
BRANCH   3   4
ATOM      4  C   UNL     1      13.689   1.553  15.101  1.00  0.00    -0.000 C 
BRANCH   4   5
ATOM      5  C   UNL     1      12.639   1.975  16.137  1.00  0.00    -0.000 C 
BRANCH   5   6
ATOM      6  C   UNL     1      11.329   1.194  15.945  1.00  0.00    -0.000 C 
BRANCH   6   7
ATOM      7  C   UNL     1      10.093   1.998  16.375  1.00  0.00    -0.000 C 
BRANCH   7   8
ATOM      8  C   UNL     1      10.156   3.471  15.933  1.00  0.00    -0.000 C 
BRANCH   8   9
ATOM      9  C   UNL     1       9.881   3.635  14.422  1.00  0.00    -0.000 C 
BRANCH   9  10
ATOM     10  C   UNL     1       9.882   5.101  13.953  1.00  0.00    -0.000 C 
BRANCH  10  11
ATOM     11  C   UNL     1      10.552   6.051  14.955  1.00  0.00    -0.003 C 
ATOM     12  C   UNL     1       9.535   7.003  15.575  1.00  0.00     0.004 C 
ENDBRANCH  10  11
ENDBRANCH   9  10
ENDBRANCH   8   9
ENDBRANCH   7   8
ENDBRANCH   6   7
ENDBRANCH   5   6
ENDBRANCH   4   5
ENDBRANCH   3   4
ENDBRANCH   2   3
ENDBRANCH   1   2
BRANCH   1  13
ATOM     13  C   UNL     1      12.336   3.133  11.473  1.00  0.00     0.000 C 
BRANCH  13  14
ATOM     14  C   UNL     1      12.735   4.570  11.091  1.00  0.00     0.000 C 
BRANCH  14  15
ATOM     15  C   UNL     1      11.507   5.437  10.739  1.00  0.00     0.000 C 
BRANCH  15  16
ATOM     16  C   UNL     1      11.833   6.932  10.588  1.00  0.00     0.000 C 
BRANCH  16  17
ATOM     17  C   UNL     1      11.360   7.772  11.786  1.00  0.00     0.000 C 
BRANCH  17  18
ATOM     18  C   UNL     1      11.425   9.288  11.502  1.00  0.00     0.000 C 
BRANCH  18  19
ATOM     19  C   UNL     1      12.030   9.639  10.129  1.00  0.00     0.000 C 
BRANCH  19  20
ATOM     20  C   UNL     1      12.759  10.994  10.068  1.00  0.00     0.006 C 
BRANCH  20  21
ATOM     21  C   UNL     1      12.349  11.986  11.168  1.00  0.00     0.053 C 
BRANCH  21  22
ATOM     22  C   UNL     1      12.006  13.333  10.609  1.00  0.00     0.041 C 
ATOM     23  O   UNL     1      12.041  13.530   9.366  1.00  0.00    -0.550 OA
ATOM     24  O   UNL     1      11.688  14.381  11.463  1.00  0.00    -0.550 OA
ENDBRANCH  21  22
ENDBRANCH  20  21
ENDBRANCH  19  20
ENDBRANCH  18  19
ENDBRANCH  17  18
ENDBRANCH  16  17
ENDBRANCH  15  16
ENDBRANCH  14  15
ENDBRANCH  13  14
ENDBRANCH   1  13
TORSDOF 20
ENDMDL
MODEL 9
REMARK VINA RESULT:    -4.641      2.851      9.141
REMARK INTER + INTRA:         -12.723
REMARK INTER:                 -10.657
REMARK INTRA:                  -2.067
REMARK UNBOUND:                -2.656
REMARK SMILES CCCCCCCCCCCCCCCCCCCCCC(=O)[O-]
REMARK SMILES IDX 12 1 11 2 10 3 9 4 8 5 7 6 6 7 5 8 4 9 3 10 2 11 1 12 13 13
REMARK SMILES IDX 14 14 15 15 16 16 17 17 18 18 19 19 20 20 21 21 22 22 23 23
REMARK SMILES IDX 24 24
REMARK H PARENT
REMARK Flexibility Score: inf
ROOT
ATOM      1  C   UNL     1      12.020   7.713  10.268  1.00  0.00     0.000 C 
ENDROOT
BRANCH   1   2
ATOM      2  C   UNL     1      11.940   6.199  10.523  1.00  0.00     0.000 C 
BRANCH   2   3
ATOM      3  C   UNL     1      10.733   5.805  11.390  1.00  0.00     0.000 C 
BRANCH   3   4
ATOM      4  C   UNL     1       9.826   4.766  10.712  1.00  0.00    -0.000 C 
BRANCH   4   5
ATOM      5  C   UNL     1      10.409   4.327   9.362  1.00  0.00    -0.000 C 
BRANCH   5   6
ATOM      6  C   UNL     1      10.486   2.795   9.267  1.00  0.00    -0.000 C 
BRANCH   6   7
ATOM      7  C   UNL     1      11.185   2.161  10.479  1.00  0.00    -0.000 C 
BRANCH   7   8
ATOM      8  C   UNL     1      12.687   2.493  10.541  1.00  0.00    -0.000 C 
BRANCH   8   9
ATOM      9  C   UNL     1      13.149   2.828  11.976  1.00  0.00    -0.000 C 
BRANCH   9  10
ATOM     10  C   UNL     1      13.104   1.624  12.933  1.00  0.00    -0.000 C 
BRANCH  10  11
ATOM     11  C   UNL     1      12.711   2.011  14.365  1.00  0.00    -0.003 C 
ATOM     12  C   UNL     1      13.939   2.128  15.261  1.00  0.00     0.004 C 
ENDBRANCH  10  11
ENDBRANCH   9  10
ENDBRANCH   8   9
ENDBRANCH   7   8
ENDBRANCH   6   7
ENDBRANCH   5   6
ENDBRANCH   4   5
ENDBRANCH   3   4
ENDBRANCH   2   3
ENDBRANCH   1   2
BRANCH   1  13
ATOM     13  C   UNL     1      11.572   8.539  11.487  1.00  0.00     0.000 C 
BRANCH  13  14
ATOM     14  C   UNL     1      11.736  10.054  11.272  1.00  0.00     0.000 C 
BRANCH  14  15
ATOM     15  C   UNL     1      12.416  10.378   9.924  1.00  0.00     0.000 C 
BRANCH  15  16
ATOM     16  C   UNL     1      12.452  11.880   9.599  1.00  0.00     0.000 C 
BRANCH  16  17
ATOM     17  C   UNL     1      12.379  12.767  10.852  1.00  0.00     0.000 C 
BRANCH  17  18
ATOM     18  C   UNL     1      11.263  13.829  10.755  1.00  0.00     0.000 C 
BRANCH  18  19
ATOM     19  C   UNL     1      10.714  14.282  12.122  1.00  0.00     0.000 C 
BRANCH  19  20
ATOM     20  C   UNL     1      11.070  13.358  13.302  1.00  0.00     0.006 C 
BRANCH  20  21
ATOM     21  C   UNL     1       9.865  12.917  14.149  1.00  0.00     0.053 C 
BRANCH  21  22
ATOM     22  C   UNL     1       9.371  11.559  13.756  1.00  0.00     0.041 C 
ATOM     23  O   UNL     1       9.574  10.568  14.507  1.00  0.00    -0.550 OA
ATOM     24  O   UNL     1       8.723  11.379  12.540  1.00  0.00    -0.550 OA
ENDBRANCH  21  22
ENDBRANCH  20  21
ENDBRANCH  19  20
ENDBRANCH  18  19
ENDBRANCH  17  18
ENDBRANCH  16  17
ENDBRANCH  15  16
ENDBRANCH  14  15
ENDBRANCH  13  14
ENDBRANCH   1  13
TORSDOF 20
ENDMDL
