MODEL 1
REMARK VINA RESULT:    -6.289      0.000      0.000
REMARK INTER + INTRA:          -8.091
REMARK INTER:                  -7.760
REMARK INTRA:                  -0.331
REMARK UNBOUND:                -0.331
REMARK SMILES Oc1cc(O)c2cc(O)c(-c3cc(O)c(O)c(O)c3)[o+]c2c1
REMARK SMILES IDX 10 1 20 2 21 3 22 4 2 5 3 6 4 7 6 8 7 9 8 10 11 11 12 12
REMARK SMILES IDX 13 13 19 14 15 15 17 16 14 17 16 19 18 21 9 23 1 25 5 27
REMARK H PARENT 14 18 16 20 18 22 9 24 1 26 5 28
REMARK Flexibility Score: inf
ROOT
ATOM      1  C   UNL     1     -13.476 -33.348  32.498  1.00  0.00     0.402 A 
ATOM      2  O   UNL     1     -12.400 -33.217  33.268  1.00  0.00    -0.202 OA
ATOM      3  C   UNL     1     -12.334 -32.375  34.295  1.00  0.00     0.368 A 
ATOM      4  C   UNL     1     -11.157 -32.307  35.043  1.00  0.00     0.162 A 
ATOM      5  C   UNL     1     -11.058 -31.430  36.124  1.00  0.00     0.128 A 
ATOM      6  C   UNL     1     -12.144 -30.615  36.461  1.00  0.00     0.093 A 
ATOM      7  C   UNL     1     -13.335 -30.664  35.726  1.00  0.00     0.136 A 
ATOM      8  C   UNL     1     -13.440 -31.556  34.628  1.00  0.00     0.125 A 
ATOM      9  C   UNL     1     -14.598 -31.683  33.843  1.00  0.00     0.078 A 
ATOM     10  C   UNL     1     -14.628 -32.588  32.778  1.00  0.00     0.223 A 
ENDROOT
BRANCH   1  11
ATOM     11  C   UNL     1     -13.423 -34.313  31.376  1.00  0.00     0.091 A 
ATOM     12  C   UNL     1     -13.418 -35.689  31.651  1.00  0.00     0.068 A 
ATOM     13  C   UNL     1     -13.348 -36.624  30.613  1.00  0.00     0.162 A 
ATOM     14  C   UNL     1     -13.322 -33.882  30.043  1.00  0.00     0.068 A 
ATOM     15  C   UNL     1     -13.268 -36.188  29.280  1.00  0.00     0.200 A 
ATOM     16  C   UNL     1     -13.250 -34.812  28.997  1.00  0.00     0.162 A 
BRANCH  13  17
ATOM     17  O   UNL     1     -13.360 -37.983  30.928  1.00  0.00    -0.504 OA
ATOM     18  H   UNL     1     -13.731 -38.680  30.293  1.00  0.00     0.293 HD
ENDBRANCH  13  17
BRANCH  15  19
ATOM     19  O   UNL     1     -13.201 -37.128  28.250  1.00  0.00    -0.502 OA
ATOM     20  H   UNL     1     -12.461 -37.121  27.560  1.00  0.00     0.293 HD
ENDBRANCH  15  19
BRANCH  16  21
ATOM     21  O   UNL     1     -13.155 -34.372  27.677  1.00  0.00    -0.504 OA
ATOM     22  H   UNL     1     -13.052 -33.390  27.451  1.00  0.00     0.293 HD
ENDBRANCH  16  21
ENDBRANCH   1  11
BRANCH  10  23
ATOM     23  O   UNL     1     -15.794 -32.750  32.030  1.00  0.00    -0.500 OA
ATOM     24  H   UNL     1     -15.869 -32.409  31.079  1.00  0.00     0.294 HD
ENDBRANCH  10  23
BRANCH   5  25
ATOM     25  O   UNL     1      -9.875 -31.378  36.859  1.00  0.00    -0.507 OA
ATOM     26  H   UNL     1      -9.624 -32.113  37.510  1.00  0.00     0.293 HD
ENDBRANCH   5  25
BRANCH   7  27
ATOM     27  O   UNL     1     -14.372 -29.815  36.123  1.00  0.00    -0.507 OA
ATOM     28  H   UNL     1     -14.545 -28.902  35.728  1.00  0.00     0.293 HD
ENDBRANCH   7  27
TORSDOF 7
ENDMDL
MODEL 2
REMARK VINA RESULT:    -5.863      1.065      2.635
REMARK INTER + INTRA:          -7.565
REMARK INTER:                  -7.320
REMARK INTRA:                  -0.245
REMARK UNBOUND:                -0.331
REMARK SMILES Oc1cc(O)c2cc(O)c(-c3cc(O)c(O)c(O)c3)[o+]c2c1
REMARK SMILES IDX 10 1 20 2 21 3 22 4 2 5 3 6 4 7 6 8 7 9 8 10 11 11 12 12
REMARK SMILES IDX 13 13 19 14 15 15 17 16 14 17 16 19 18 21 9 23 1 25 5 27
REMARK H PARENT 14 18 16 20 18 22 9 24 1 26 5 28
REMARK Flexibility Score: inf
ROOT
ATOM      1  C   UNL     1     -12.123 -33.974  32.589  1.00  0.00     0.402 A 
ATOM      2  O   UNL     1     -12.980 -33.109  33.124  1.00  0.00    -0.202 OA
ATOM      3  C   UNL     1     -12.680 -32.327  34.157  1.00  0.00     0.368 A 
ATOM      4  C   UNL     1     -13.650 -31.452  34.651  1.00  0.00     0.162 A 
ATOM      5  C   UNL     1     -13.365 -30.623  35.736  1.00  0.00     0.128 A 
ATOM      6  C   UNL     1     -12.101 -30.668  36.334  1.00  0.00     0.093 A 
ATOM      7  C   UNL     1     -11.111 -31.537  35.857  1.00  0.00     0.136 A 
ATOM      8  C   UNL     1     -11.397 -32.380  34.752  1.00  0.00     0.125 A 
ATOM      9  C   UNL     1     -10.464 -33.272  34.200  1.00  0.00     0.078 A 
ATOM     10  C   UNL     1     -10.817 -34.069  33.107  1.00  0.00     0.223 A 
ENDROOT
BRANCH   1  11
ATOM     11  C   UNL     1     -12.579 -34.797  31.445  1.00  0.00     0.091 A 
ATOM     12  C   UNL     1     -12.677 -36.188  31.594  1.00  0.00     0.068 A 
ATOM     13  C   UNL     1     -13.085 -36.993  30.525  1.00  0.00     0.162 A 
ATOM     14  C   UNL     1     -12.862 -34.221  30.196  1.00  0.00     0.068 A 
ATOM     15  C   UNL     1     -13.388 -36.411  29.283  1.00  0.00     0.200 A 
ATOM     16  C   UNL     1     -13.270 -35.020  29.119  1.00  0.00     0.162 A 
BRANCH  13  17
ATOM     17  O   UNL     1     -13.184 -38.372  30.718  1.00  0.00    -0.504 OA
ATOM     18  H   UNL     1     -13.677 -38.972  30.068  1.00  0.00     0.293 HD
ENDBRANCH  13  17
BRANCH  15  19
ATOM     19  O   UNL     1     -13.797 -37.220  28.223  1.00  0.00    -0.502 OA
ATOM     20  H   UNL     1     -13.335 -38.093  28.000  1.00  0.00     0.293 HD
ENDBRANCH  15  19
BRANCH  16  21
ATOM     21  O   UNL     1     -13.555 -34.436  27.885  1.00  0.00    -0.504 OA
ATOM     22  H   UNL     1     -13.431 -33.443  27.726  1.00  0.00     0.293 HD
ENDBRANCH  16  21
ENDBRANCH   1  11
BRANCH  10  23
ATOM     23  O   UNL     1      -9.875 -34.918  32.526  1.00  0.00    -0.500 OA
ATOM     24  H   UNL     1      -9.971 -35.926  32.566  1.00  0.00     0.294 HD
ENDBRANCH  10  23
BRANCH   5  25
ATOM     25  O   UNL     1     -14.346 -29.756  36.213  1.00  0.00    -0.507 OA
ATOM     26  H   UNL     1     -14.964 -29.257  35.582  1.00  0.00     0.293 HD
ENDBRANCH   5  25
BRANCH   7  27
ATOM     27  O   UNL     1      -9.875 -31.525  36.511  1.00  0.00    -0.507 OA
ATOM     28  H   UNL     1      -9.319 -30.696  36.664  1.00  0.00     0.293 HD
ENDBRANCH   7  27
TORSDOF 7
ENDMDL
MODEL 3
REMARK VINA RESULT:    -5.000      2.810      7.637
REMARK INTER + INTRA:          -6.501
REMARK INTER:                  -6.771
REMARK INTRA:                   0.270
REMARK UNBOUND:                -0.331
REMARK SMILES Oc1cc(O)c2cc(O)c(-c3cc(O)c(O)c(O)c3)[o+]c2c1
REMARK SMILES IDX 10 1 20 2 21 3 22 4 2 5 3 6 4 7 6 8 7 9 8 10 11 11 12 12
REMARK SMILES IDX 13 13 19 14 15 15 17 16 14 17 16 19 18 21 9 23 1 25 5 27
REMARK H PARENT 14 18 16 20 18 22 9 24 1 26 5 28
REMARK Flexibility Score: inf
ROOT
ATOM      1  C   UNL     1     -10.539 -33.077  33.678  1.00  0.00     0.402 A 
ATOM      2  O   UNL     1     -10.941 -32.731  32.459  1.00  0.00    -0.202 OA
ATOM      3  C   UNL     1     -11.054 -33.595  31.454  1.00  0.00     0.368 A 
ATOM      4  C   UNL     1     -11.481 -33.135  30.207  1.00  0.00     0.162 A 
ATOM      5  C   UNL     1     -11.605 -34.018  29.134  1.00  0.00     0.128 A 
ATOM      6  C   UNL     1     -11.298 -35.372  29.307  1.00  0.00     0.093 A 
ATOM      7  C   UNL     1     -10.866 -35.858  30.548  1.00  0.00     0.136 A 
ATOM      8  C   UNL     1     -10.743 -34.963  31.642  1.00  0.00     0.125 A 
ATOM      9  C   UNL     1     -10.331 -35.363  32.924  1.00  0.00     0.078 A 
ATOM     10  C   UNL     1     -10.236 -34.424  33.955  1.00  0.00     0.223 A 
ENDROOT
BRANCH   1  11
ATOM     11  C   UNL     1     -10.445 -32.021  34.712  1.00  0.00     0.091 A 
ATOM     12  C   UNL     1     -10.667 -32.351  36.057  1.00  0.00     0.068 A 
ATOM     13  C   UNL     1     -10.605 -31.370  37.052  1.00  0.00     0.162 A 
ATOM     14  C   UNL     1     -10.194 -30.681  34.369  1.00  0.00     0.068 A 
ATOM     15  C   UNL     1     -10.332 -30.036  36.708  1.00  0.00     0.200 A 
ATOM     16  C   UNL     1     -10.131 -29.692  35.360  1.00  0.00     0.162 A 
BRANCH  13  17
ATOM     17  O   UNL     1     -10.817 -31.742  38.381  1.00  0.00    -0.504 OA
ATOM     18  H   UNL     1     -11.659 -31.487  38.883  1.00  0.00     0.293 HD
ENDBRANCH  13  17
BRANCH  15  19
ATOM     19  O   UNL     1     -10.269 -29.064  37.707  1.00  0.00    -0.502 OA
ATOM     20  H   UNL     1      -9.397 -28.631  37.986  1.00  0.00     0.293 HD
ENDBRANCH  15  19
BRANCH  16  21
ATOM     21  O   UNL     1      -9.875 -28.367  35.009  1.00  0.00    -0.504 OA
ATOM     22  H   UNL     1     -10.217 -27.972  34.140  1.00  0.00     0.293 HD
ENDBRANCH  16  21
ENDBRANCH   1  11
BRANCH  10  23
ATOM     23  O   UNL     1      -9.875 -34.829  35.240  1.00  0.00    -0.500 OA
ATOM     24  H   UNL     1      -9.635 -35.791  35.448  1.00  0.00     0.294 HD
ENDBRANCH  10  23
BRANCH   5  25
ATOM     25  O   UNL     1     -12.034 -33.539  27.898  1.00  0.00    -0.507 OA
ATOM     26  H   UNL     1     -12.729 -32.804  27.827  1.00  0.00     0.293 HD
ENDBRANCH   5  25
BRANCH   7  27
ATOM     27  O   UNL     1     -10.577 -37.223  30.639  1.00  0.00    -0.507 OA
ATOM     28  H   UNL     1     -10.746 -37.788  31.458  1.00  0.00     0.293 HD
ENDBRANCH   7  27
TORSDOF 7
ENDMDL
MODEL 4
REMARK VINA RESULT:    -4.721      2.103      7.423
REMARK INTER + INTRA:          -6.156
REMARK INTER:                  -5.778
REMARK INTRA:                  -0.378
REMARK UNBOUND:                -0.331
REMARK SMILES Oc1cc(O)c2cc(O)c(-c3cc(O)c(O)c(O)c3)[o+]c2c1
REMARK SMILES IDX 10 1 20 2 21 3 22 4 2 5 3 6 4 7 6 8 7 9 8 10 11 11 12 12
REMARK SMILES IDX 13 13 19 14 15 15 17 16 14 17 16 19 18 21 9 23 1 25 5 27
REMARK H PARENT 14 18 16 20 18 22 9 24 1 26 5 28
REMARK Flexibility Score: inf
ROOT
ATOM      1  C   UNL     1     -11.938 -32.364  34.351  1.00  0.00     0.402 A 
ATOM      2  O   UNL     1     -11.098 -33.210  33.763  1.00  0.00    -0.202 OA
ATOM      3  C   UNL     1     -11.453 -34.021  32.771  1.00  0.00     0.368 A 
ATOM      4  C   UNL     1     -10.499 -34.879  32.219  1.00  0.00     0.162 A 
ATOM      5  C   UNL     1     -10.845 -35.743  31.180  1.00  0.00     0.128 A 
ATOM      6  C   UNL     1     -12.155 -35.754  30.689  1.00  0.00     0.093 A 
ATOM      7  C   UNL     1     -13.131 -34.904  31.226  1.00  0.00     0.136 A 
ATOM      8  C   UNL     1     -12.782 -34.022  32.281  1.00  0.00     0.125 A 
ATOM      9  C   UNL     1     -13.689 -33.127  32.871  1.00  0.00     0.078 A 
ATOM     10  C   UNL     1     -13.271 -32.283  33.904  1.00  0.00     0.223 A 
ENDROOT
BRANCH   1  11
ATOM     11  C   UNL     1     -11.424 -31.517  35.453  1.00  0.00     0.091 A 
ATOM     12  C   UNL     1     -10.893 -30.252  35.159  1.00  0.00     0.068 A 
ATOM     13  C   UNL     1     -10.382 -29.440  36.177  1.00  0.00     0.162 A 
ATOM     14  C   UNL     1     -11.406 -31.976  36.781  1.00  0.00     0.068 A 
ATOM     15  C   UNL     1     -10.384 -29.894  37.506  1.00  0.00     0.200 A 
ATOM     16  C   UNL     1     -10.894 -31.169  37.806  1.00  0.00     0.162 A 
BRANCH  13  17
ATOM     17  O   UNL     1      -9.875 -28.183  35.845  1.00  0.00    -0.504 OA
ATOM     18  H   UNL     1     -10.471 -27.429  35.523  1.00  0.00     0.293 HD
ENDBRANCH  13  17
BRANCH  15  19
ATOM     19  O   UNL     1      -9.875 -29.075  38.515  1.00  0.00    -0.502 OA
ATOM     20  H   UNL     1     -10.448 -28.395  39.000  1.00  0.00     0.293 HD
ENDBRANCH  15  19
BRANCH  16  21
ATOM     21  O   UNL     1     -10.886 -31.632  39.121  1.00  0.00    -0.504 OA
ATOM     22  H   UNL     1     -11.004 -32.614  39.339  1.00  0.00     0.293 HD
ENDBRANCH  16  21
ENDBRANCH   1  11
BRANCH  10  23
ATOM     23  O   UNL     1     -14.159 -31.360  34.457  1.00  0.00    -0.500 OA
ATOM     24  H   UNL     1     -13.857 -30.436  34.741  1.00  0.00     0.294 HD
ENDBRANCH  10  23
BRANCH   5  25
ATOM     25  O   UNL     1      -9.877 -36.590  30.642  1.00  0.00    -0.507 OA
ATOM     26  H   UNL     1      -9.601 -37.444  31.112  1.00  0.00     0.293 HD
ENDBRANCH   5  25
BRANCH   7  27
ATOM     27  O   UNL     1     -14.417 -34.977  30.683  1.00  0.00    -0.507 OA
ATOM     28  H   UNL     1     -15.220 -34.491  31.054  1.00  0.00     0.293 HD
ENDBRANCH   7  27
TORSDOF 7
ENDMDL
MODEL 5
REMARK VINA RESULT:    -4.239      1.556      7.084
REMARK INTER + INTRA:          -5.561
REMARK INTER:                  -5.301
REMARK INTRA:                  -0.260
REMARK UNBOUND:                -0.331
REMARK SMILES Oc1cc(O)c2cc(O)c(-c3cc(O)c(O)c(O)c3)[o+]c2c1
REMARK SMILES IDX 10 1 20 2 21 3 22 4 2 5 3 6 4 7 6 8 7 9 8 10 11 11 12 12
REMARK SMILES IDX 13 13 19 14 15 15 17 16 14 17 16 19 18 21 9 23 1 25 5 27
REMARK H PARENT 14 18 16 20 18 22 9 24 1 26 5 28
REMARK Flexibility Score: inf
ROOT
ATOM      1  C   UNL     1     -12.869 -33.801  31.997  1.00  0.00     0.402 A 
ATOM      2  O   UNL     1     -12.207 -33.499  30.884  1.00  0.00    -0.202 OA
ATOM      3  C   UNL     1     -12.359 -34.160  29.741  1.00  0.00     0.368 A 
ATOM      4  C   UNL     1     -11.616 -33.769  28.625  1.00  0.00     0.162 A 
ATOM      5  C   UNL     1     -11.752 -34.448  27.414  1.00  0.00     0.128 A 
ATOM      6  C   UNL     1     -12.638 -35.527  27.316  1.00  0.00     0.093 A 
ATOM      7  C   UNL     1     -13.394 -35.940  28.421  1.00  0.00     0.136 A 
ATOM      8  C   UNL     1     -13.260 -35.249  29.653  1.00  0.00     0.125 A 
ATOM      9  C   UNL     1     -13.986 -35.584  30.808  1.00  0.00     0.078 A 
ATOM     10  C   UNL     1     -13.803 -34.855  31.987  1.00  0.00     0.223 A 
ENDROOT
BRANCH   1  11
ATOM     11  C   UNL     1     -12.606 -32.995  33.211  1.00  0.00     0.091 A 
ATOM     12  C   UNL     1     -11.380 -33.136  33.880  1.00  0.00     0.068 A 
ATOM     13  C   UNL     1     -11.112 -32.402  35.040  1.00  0.00     0.162 A 
ATOM     14  C   UNL     1     -13.578 -32.130  33.741  1.00  0.00     0.068 A 
ATOM     15  C   UNL     1     -12.079 -31.523  35.555  1.00  0.00     0.200 A 
ATOM     16  C   UNL     1     -13.318 -31.392  34.904  1.00  0.00     0.162 A 
BRANCH  13  17
ATOM     17  O   UNL     1      -9.875 -32.561  35.667  1.00  0.00    -0.504 OA
ATOM     18  H   UNL     1      -9.116 -31.903  35.535  1.00  0.00     0.293 HD
ENDBRANCH  13  17
BRANCH  15  19
ATOM     19  O   UNL     1     -11.802 -30.793  36.711  1.00  0.00    -0.502 OA
ATOM     20  H   UNL     1     -12.105 -29.834  36.830  1.00  0.00     0.293 HD
ENDBRANCH  15  19
BRANCH  16  21
ATOM     21  O   UNL     1     -14.289 -30.533  35.418  1.00  0.00    -0.504 OA
ATOM     22  H   UNL     1     -14.464 -30.465  36.414  1.00  0.00     0.293 HD
ENDBRANCH  16  21
ENDBRANCH   1  11
BRANCH  10  23
ATOM     23  O   UNL     1     -14.560 -35.154  33.120  1.00  0.00    -0.500 OA
ATOM     24  H   UNL     1     -15.211 -35.930  33.135  1.00  0.00     0.294 HD
ENDBRANCH  10  23
BRANCH   5  25
ATOM     25  O   UNL     1     -11.003 -34.041  26.312  1.00  0.00    -0.507 OA
ATOM     26  H   UNL     1     -11.324 -34.204  25.364  1.00  0.00     0.293 HD
ENDBRANCH   5  25
BRANCH   7  27
ATOM     27  O   UNL     1     -14.253 -37.028  28.242  1.00  0.00    -0.507 OA
ATOM     28  H   UNL     1     -15.115 -37.163  28.750  1.00  0.00     0.293 HD
ENDBRANCH   7  27
TORSDOF 7
ENDMDL
MODEL 6
REMARK VINA RESULT:    -4.150      1.561      7.149
REMARK INTER + INTRA:          -5.452
REMARK INTER:                  -5.195
REMARK INTRA:                  -0.256
REMARK UNBOUND:                -0.331
REMARK SMILES Oc1cc(O)c2cc(O)c(-c3cc(O)c(O)c(O)c3)[o+]c2c1
REMARK SMILES IDX 10 1 20 2 21 3 22 4 2 5 3 6 4 7 6 8 7 9 8 10 11 11 12 12
REMARK SMILES IDX 13 13 19 14 15 15 17 16 14 17 16 19 18 21 9 23 1 25 5 27
REMARK H PARENT 14 18 16 20 18 22 9 24 1 26 5 28
REMARK Flexibility Score: inf
ROOT
ATOM      1  C   UNL     1     -12.855 -33.832  32.026  1.00  0.00     0.402 A 
ATOM      2  O   UNL     1     -12.196 -33.512  30.916  1.00  0.00    -0.202 OA
ATOM      3  C   UNL     1     -12.351 -34.154  29.763  1.00  0.00     0.368 A 
ATOM      4  C   UNL     1     -11.610 -33.746  28.652  1.00  0.00     0.162 A 
ATOM      5  C   UNL     1     -11.749 -34.404  27.430  1.00  0.00     0.128 A 
ATOM      6  C   UNL     1     -12.635 -35.481  27.315  1.00  0.00     0.093 A 
ATOM      7  C   UNL     1     -13.389 -35.911  28.415  1.00  0.00     0.136 A 
ATOM      8  C   UNL     1     -13.252 -35.241  29.658  1.00  0.00     0.125 A 
ATOM      9  C   UNL     1     -13.976 -35.594  30.809  1.00  0.00     0.078 A 
ATOM     10  C   UNL     1     -13.790 -34.885  31.999  1.00  0.00     0.223 A 
ENDROOT
BRANCH   1  11
ATOM     11  C   UNL     1     -12.588 -33.046  33.252  1.00  0.00     0.091 A 
ATOM     12  C   UNL     1     -13.573 -32.173  33.739  1.00  0.00     0.068 A 
ATOM     13  C   UNL     1     -13.342 -31.403  34.883  1.00  0.00     0.162 A 
ATOM     14  C   UNL     1     -11.348 -33.112  33.909  1.00  0.00     0.068 A 
ATOM     15  C   UNL     1     -12.108 -31.488  35.549  1.00  0.00     0.200 A 
ATOM     16  C   UNL     1     -11.108 -32.343  35.056  1.00  0.00     0.162 A 
BRANCH  13  17
ATOM     17  O   UNL     1     -14.352 -30.557  35.343  1.00  0.00    -0.504 OA
ATOM     18  H   UNL     1     -14.327 -29.556  35.191  1.00  0.00     0.293 HD
ENDBRANCH  13  17
BRANCH  15  19
ATOM     19  O   UNL     1     -11.886 -30.718  36.692  1.00  0.00    -0.502 OA
ATOM     20  H   UNL     1     -12.646 -30.349  37.250  1.00  0.00     0.293 HD
ENDBRANCH  15  19
BRANCH  16  21
ATOM     21  O   UNL     1      -9.875 -32.421  35.703  1.00  0.00    -0.504 OA
ATOM     22  H   UNL     1      -9.393 -31.592  36.030  1.00  0.00     0.293 HD
ENDBRANCH  16  21
ENDBRANCH   1  11
BRANCH  10  23
ATOM     23  O   UNL     1     -14.545 -35.202  33.129  1.00  0.00    -0.500 OA
ATOM     24  H   UNL     1     -14.834 -34.494  33.793  1.00  0.00     0.294 HD
ENDBRANCH  10  23
BRANCH   5  25
ATOM     25  O   UNL     1     -11.002 -33.980  26.333  1.00  0.00    -0.507 OA
ATOM     26  H   UNL     1     -10.605 -33.048  26.292  1.00  0.00     0.293 HD
ENDBRANCH   5  25
BRANCH   7  27
ATOM     27  O   UNL     1     -14.250 -36.995  28.221  1.00  0.00    -0.507 OA
ATOM     28  H   UNL     1     -14.679 -37.523  28.967  1.00  0.00     0.293 HD
ENDBRANCH   7  27
TORSDOF 7
ENDMDL
MODEL 7
REMARK VINA RESULT:    -4.120      1.557      7.317
REMARK INTER + INTRA:          -5.415
REMARK INTER:                  -5.301
REMARK INTRA:                  -0.114
REMARK UNBOUND:                -0.331
REMARK SMILES Oc1cc(O)c2cc(O)c(-c3cc(O)c(O)c(O)c3)[o+]c2c1
REMARK SMILES IDX 10 1 20 2 21 3 22 4 2 5 3 6 4 7 6 8 7 9 8 10 11 11 12 12
REMARK SMILES IDX 13 13 19 14 15 15 17 16 14 17 16 19 18 21 9 23 1 25 5 27
REMARK H PARENT 14 18 16 20 18 22 9 24 1 26 5 28
REMARK Flexibility Score: inf
ROOT
ATOM      1  C   UNL     1     -12.720 -33.750  31.927  1.00  0.00     0.402 A 
ATOM      2  O   UNL     1     -13.169 -33.060  30.883  1.00  0.00    -0.202 OA
ATOM      3  C   UNL     1     -13.393 -33.603  29.690  1.00  0.00     0.368 A 
ATOM      4  C   UNL     1     -13.863 -32.795  28.653  1.00  0.00     0.162 A 
ATOM      5  C   UNL     1     -14.104 -33.337  27.390  1.00  0.00     0.128 A 
ATOM      6  C   UNL     1     -13.873 -34.697  27.160  1.00  0.00     0.093 A 
ATOM      7  C   UNL     1     -13.401 -35.529  28.184  1.00  0.00     0.136 A 
ATOM      8  C   UNL     1     -13.158 -34.982  29.470  1.00  0.00     0.125 A 
ATOM      9  C   UNL     1     -12.698 -35.741  30.558  1.00  0.00     0.078 A 
ATOM     10  C   UNL     1     -12.485 -35.133  31.798  1.00  0.00     0.223 A 
ENDROOT
BRANCH   1  11
ATOM     11  C   UNL     1     -12.500 -33.029  33.202  1.00  0.00     0.091 A 
ATOM     12  C   UNL     1     -13.506 -32.188  33.700  1.00  0.00     0.068 A 
ATOM     13  C   UNL     1     -13.318 -31.479  34.891  1.00  0.00     0.162 A 
ATOM     14  C   UNL     1     -11.283 -33.125  33.897  1.00  0.00     0.068 A 
ATOM     15  C   UNL     1     -12.108 -31.594  35.594  1.00  0.00     0.200 A 
ATOM     16  C   UNL     1     -11.086 -32.417  35.090  1.00  0.00     0.162 A 
BRANCH  13  17
ATOM     17  O   UNL     1     -14.349 -30.664  35.360  1.00  0.00    -0.504 OA
ATOM     18  H   UNL     1     -14.976 -30.960  36.099  1.00  0.00     0.293 HD
ENDBRANCH  13  17
BRANCH  15  19
ATOM     19  O   UNL     1     -11.930 -30.885  36.783  1.00  0.00    -0.502 OA
ATOM     20  H   UNL     1     -11.800 -29.881  36.799  1.00  0.00     0.293 HD
ENDBRANCH  15  19
BRANCH  16  21
ATOM     21  O   UNL     1      -9.876 -32.525  35.775  1.00  0.00    -0.504 OA
ATOM     22  H   UNL     1      -9.479 -33.426  36.014  1.00  0.00     0.293 HD
ENDBRANCH  16  21
ENDBRANCH   1  11
BRANCH  10  23
ATOM     23  O   UNL     1     -12.076 -35.896  32.892  1.00  0.00    -0.500 OA
ATOM     24  H   UNL     1     -11.310 -35.606  33.487  1.00  0.00     0.294 HD
ENDBRANCH  10  23
BRANCH   5  25
ATOM     25  O   UNL     1     -14.574 -32.513  26.368  1.00  0.00    -0.507 OA
ATOM     26  H   UNL     1     -13.946 -32.115  25.679  1.00  0.00     0.293 HD
ENDBRANCH   5  25
BRANCH   7  27
ATOM     27  O   UNL     1     -13.192 -36.876  27.874  1.00  0.00    -0.507 OA
ATOM     28  H   UNL     1     -12.283 -37.306  27.784  1.00  0.00     0.293 HD
ENDBRANCH   7  27
TORSDOF 7
ENDMDL
