MODEL 1
REMARK VINA RESULT:    -3.860      0.000      0.000
REMARK INTER + INTRA:          -8.160
REMARK INTER:                  -6.568
REMARK INTRA:                  -1.592
REMARK UNBOUND:                -1.592
REMARK SMILES CCCCCCCCCCCCCC(=O)[O-]
REMARK SMILES IDX 8 1 9 2 10 3 11 4 12 5 13 6 14 7 15 8 16 9 7 10 6 11 5 12
REMARK SMILES IDX 4 13 3 14 2 15 1 16
REMARK H PARENT
REMARK Flexibility Score: inf
ROOT
ATOM      1  C   UNL     1       4.394   4.147   8.114  1.00  0.00     0.000 C 
ENDROOT
BRANCH   1   2
ATOM      2  C   UNL     1       3.408   4.214   6.935  1.00  0.00     0.000 C 
BRANCH   2   3
ATOM      3  C   UNL     1       3.840   3.346   5.745  1.00  0.00     0.000 C 
BRANCH   3   4
ATOM      4  C   UNL     1       5.277   2.841   5.928  1.00  0.00     0.000 C 
BRANCH   4   5
ATOM      5  C   UNL     1       6.192   3.376   4.817  1.00  0.00     0.006 C 
BRANCH   5   6
ATOM      6  C   UNL     1       7.624   3.623   5.313  1.00  0.00     0.053 C 
BRANCH   6   7
ATOM      7  C   UNL     1       8.209   4.868   4.722  1.00  0.00     0.041 C 
ATOM      8  O   UNL     1       8.980   4.798   3.729  1.00  0.00    -0.550 OA
ATOM      9  O   UNL     1       7.929   6.105   5.288  1.00  0.00    -0.550 OA
ENDBRANCH   6   7
ENDBRANCH   5   6
ENDBRANCH   4   5
ENDBRANCH   3   4
ENDBRANCH   2   3
ENDBRANCH   1   2
BRANCH   1  10
ATOM     10  C   UNL     1       5.059   5.487   8.488  1.00  0.00     0.000 C 
BRANCH  10  11
ATOM     11  C   UNL     1       6.599   5.477   8.473  1.00  0.00    -0.000 C 
BRANCH  11  12
ATOM     12  C   UNL     1       7.187   4.103   8.841  1.00  0.00    -0.000 C 
BRANCH  12  13
ATOM     13  C   UNL     1       8.724   4.104   8.864  1.00  0.00    -0.000 C 
BRANCH  13  14
ATOM     14  C   UNL     1       9.307   2.752   9.312  1.00  0.00    -0.000 C 
BRANCH  14  15
ATOM     15  C   UNL     1       8.338   1.585   9.068  1.00  0.00    -0.003 C 
ATOM     16  C   UNL     1       8.569   0.894   7.724  1.00  0.00     0.004 C 
ENDBRANCH  14  15
ENDBRANCH  13  14
ENDBRANCH  12  13
ENDBRANCH  11  12
ENDBRANCH  10  11
ENDBRANCH   1  10
TORSDOF 12
ENDMDL
MODEL 2
REMARK VINA RESULT:    -3.829     13.658     15.442
REMARK INTER + INTRA:          -8.107
REMARK INTER:                  -7.086
REMARK INTRA:                  -1.021
REMARK UNBOUND:                -1.592
REMARK SMILES CCCCCCCCCCCCCC(=O)[O-]
REMARK SMILES IDX 8 1 9 2 10 3 11 4 12 5 13 6 14 7 15 8 16 9 7 10 6 11 5 12
REMARK SMILES IDX 4 13 3 14 2 15 1 16
REMARK H PARENT
REMARK Flexibility Score: inf
ROOT
ATOM      1  C   UNL     1      -7.526  -4.206   8.815  1.00  0.00     0.000 C 
ENDROOT
BRANCH   1   2
ATOM      2  C   UNL     1      -8.628  -3.339   9.449  1.00  0.00     0.000 C 
BRANCH   2   3
ATOM      3  C   UNL     1      -9.662  -2.845   8.427  1.00  0.00     0.000 C 
BRANCH   3   4
ATOM      4  C   UNL     1      -8.972  -2.279   7.179  1.00  0.00     0.000 C 
BRANCH   4   5
ATOM      5  C   UNL     1      -9.543  -2.912   5.902  1.00  0.00     0.006 C 
BRANCH   5   6
ATOM      6  C   UNL     1      -8.473  -3.096   4.817  1.00  0.00     0.053 C 
BRANCH   6   7
ATOM      7  C   UNL     1      -7.458  -4.126   5.209  1.00  0.00     0.041 C 
ATOM      8  O   UNL     1      -6.237  -3.823   5.270  1.00  0.00    -0.550 OA
ATOM      9  O   UNL     1      -7.857  -5.429   5.476  1.00  0.00    -0.550 OA
ENDBRANCH   6   7
ENDBRANCH   5   6
ENDBRANCH   4   5
ENDBRANCH   3   4
ENDBRANCH   2   3
ENDBRANCH   1   2
BRANCH   1  10
ATOM     10  C   UNL     1      -6.099  -3.631   8.919  1.00  0.00     0.000 C 
BRANCH  10  11
ATOM     11  C   UNL     1      -4.979  -4.580   8.454  1.00  0.00    -0.000 C 
BRANCH  11  12
ATOM     12  C   UNL     1      -3.999  -4.940   9.584  1.00  0.00    -0.000 C 
BRANCH  12  13
ATOM     13  C   UNL     1      -2.529  -4.758   9.173  1.00  0.00    -0.000 C 
BRANCH  13  14
ATOM     14  C   UNL     1      -1.810  -3.689  10.016  1.00  0.00    -0.000 C 
BRANCH  14  15
ATOM     15  C   UNL     1      -2.774  -2.906  10.919  1.00  0.00    -0.003 C 
ATOM     16  C   UNL     1      -2.420  -3.018  12.402  1.00  0.00     0.004 C 
ENDBRANCH  14  15
ENDBRANCH  13  14
ENDBRANCH  12  13
ENDBRANCH  11  12
ENDBRANCH  10  11
ENDBRANCH   1  10
TORSDOF 12
ENDMDL
MODEL 3
REMARK VINA RESULT:    -3.814     13.444     15.774
REMARK INTER + INTRA:          -8.082
REMARK INTER:                  -6.120
REMARK INTRA:                  -1.962
REMARK UNBOUND:                -1.592
REMARK SMILES CCCCCCCCCCCCCC(=O)[O-]
REMARK SMILES IDX 8 1 9 2 10 3 11 4 12 5 13 6 14 7 15 8 16 9 7 10 6 11 5 12
REMARK SMILES IDX 4 13 3 14 2 15 1 16
REMARK H PARENT
REMARK Flexibility Score: inf
ROOT
ATOM      1  C   UNL     1      -8.292  -1.543   7.844  1.00  0.00     0.000 C 
ENDROOT
BRANCH   1   2
ATOM      2  C   UNL     1      -7.467  -2.382   8.836  1.00  0.00     0.000 C 
BRANCH   2   3
ATOM      3  C   UNL     1      -7.854  -3.867   8.829  1.00  0.00     0.000 C 
BRANCH   3   4
ATOM      4  C   UNL     1      -6.606  -4.758   8.776  1.00  0.00     0.000 C 
BRANCH   4   5
ATOM      5  C   UNL     1      -5.345  -3.960   9.140  1.00  0.00     0.006 C 
BRANCH   5   6
ATOM      6  C   UNL     1      -4.188  -4.870   9.575  1.00  0.00     0.053 C 
BRANCH   6   7
ATOM      7  C   UNL     1      -3.093  -4.899   8.553  1.00  0.00     0.041 C 
ATOM      8  O   UNL     1      -3.368  -4.826   7.326  1.00  0.00    -0.550 OA
ATOM      9  O   UNL     1      -1.771  -5.041   8.954  1.00  0.00    -0.550 OA
ENDBRANCH   6   7
ENDBRANCH   5   6
ENDBRANCH   4   5
ENDBRANCH   3   4
ENDBRANCH   2   3
ENDBRANCH   1   2
BRANCH   1  10
ATOM     10  C   UNL     1      -9.361  -2.327   7.056  1.00  0.00     0.000 C 
BRANCH  10  11
ATOM     11  C   UNL     1      -9.312  -2.138   5.528  1.00  0.00    -0.000 C 
BRANCH  11  12
ATOM     12  C   UNL     1      -9.238  -3.474   4.768  1.00  0.00    -0.000 C 
BRANCH  12  13
ATOM     13  C   UNL     1      -7.929  -4.235   5.035  1.00  0.00    -0.000 C 
BRANCH  13  14
ATOM     14  C   UNL     1      -6.701  -3.521   4.443  1.00  0.00    -0.000 C 
BRANCH  14  15
ATOM     15  C   UNL     1      -5.672  -3.136   5.516  1.00  0.00    -0.003 C 
ATOM     16  C   UNL     1      -5.450  -1.627   5.611  1.00  0.00     0.004 C 
ENDBRANCH  14  15
ENDBRANCH  13  14
ENDBRANCH  12  13
ENDBRANCH  11  12
ENDBRANCH  10  11
ENDBRANCH   1  10
TORSDOF 12
ENDMDL
MODEL 4
REMARK VINA RESULT:    -3.813      2.409      3.989
REMARK INTER + INTRA:          -8.080
REMARK INTER:                  -6.591
REMARK INTRA:                  -1.488
REMARK UNBOUND:                -1.592
REMARK SMILES CCCCCCCCCCCCCC(=O)[O-]
REMARK SMILES IDX 8 1 9 2 10 3 11 4 12 5 13 6 14 7 15 8 16 9 7 10 6 11 5 12
REMARK SMILES IDX 4 13 3 14 2 15 1 16
REMARK H PARENT
REMARK Flexibility Score: inf
ROOT
ATOM      1  C   UNL     1       6.441   3.892   7.298  1.00  0.00     0.000 C 
ENDROOT
BRANCH   1   2
ATOM      2  C   UNL     1       5.637   4.048   8.601  1.00  0.00     0.000 C 
BRANCH   2   3
ATOM      3  C   UNL     1       4.981   5.429   8.737  1.00  0.00     0.000 C 
BRANCH   3   4
ATOM      4  C   UNL     1       3.493   5.297   9.084  1.00  0.00     0.000 C 
BRANCH   4   5
ATOM      5  C   UNL     1       2.629   5.328   7.814  1.00  0.00     0.006 C 
BRANCH   5   6
ATOM      6  C   UNL     1       2.064   3.945   7.463  1.00  0.00     0.053 C 
BRANCH   6   7
ATOM      7  C   UNL     1       2.729   3.367   6.251  1.00  0.00     0.041 C 
ATOM      8  O   UNL     1       3.490   4.079   5.545  1.00  0.00    -0.550 OA
ATOM      9  O   UNL     1       2.481   2.051   5.883  1.00  0.00    -0.550 OA
ENDBRANCH   6   7
ENDBRANCH   5   6
ENDBRANCH   4   5
ENDBRANCH   3   4
ENDBRANCH   2   3
ENDBRANCH   1   2
BRANCH   1  10
ATOM     10  C   UNL     1       7.930   4.280   7.397  1.00  0.00     0.000 C 
BRANCH  10  11
ATOM     11  C   UNL     1       8.473   4.420   8.831  1.00  0.00    -0.000 C 
BRANCH  11  12
ATOM     12  C   UNL     1       9.716   3.549   9.083  1.00  0.00    -0.000 C 
BRANCH  12  13
ATOM     13  C   UNL     1       9.496   2.513  10.197  1.00  0.00    -0.000 C 
BRANCH  13  14
ATOM     14  C   UNL     1       8.218   1.681   9.983  1.00  0.00    -0.000 C 
BRANCH  14  15
ATOM     15  C   UNL     1       8.483   0.391   9.192  1.00  0.00    -0.003 C 
ATOM     16  C   UNL     1       8.028   0.486   7.735  1.00  0.00     0.004 C 
ENDBRANCH  14  15
ENDBRANCH  13  14
ENDBRANCH  12  13
ENDBRANCH  11  12
ENDBRANCH  10  11
ENDBRANCH   1  10
TORSDOF 12
ENDMDL
MODEL 5
REMARK VINA RESULT:    -3.805      2.307      4.444
REMARK INTER + INTRA:          -8.067
REMARK INTER:                  -6.001
REMARK INTRA:                  -2.066
REMARK UNBOUND:                -1.592
REMARK SMILES CCCCCCCCCCCCCC(=O)[O-]
REMARK SMILES IDX 8 1 9 2 10 3 11 4 12 5 13 6 14 7 15 8 16 9 7 10 6 11 5 12
REMARK SMILES IDX 4 13 3 14 2 15 1 16
REMARK H PARENT
REMARK Flexibility Score: inf
ROOT
ATOM      1  C   UNL     1       9.378   3.405   7.959  1.00  0.00     0.000 C 
ENDROOT
BRANCH   1   2
ATOM      2  C   UNL     1       8.397   4.318   8.715  1.00  0.00     0.000 C 
BRANCH   2   3
ATOM      3  C   UNL     1       7.380   5.000   7.788  1.00  0.00     0.000 C 
BRANCH   3   4
ATOM      4  C   UNL     1       6.024   5.162   8.487  1.00  0.00     0.000 C 
BRANCH   4   5
ATOM      5  C   UNL     1       5.352   3.798   8.703  1.00  0.00     0.006 C 
BRANCH   5   6
ATOM      6  C   UNL     1       4.953   3.131   7.380  1.00  0.00     0.053 C 
BRANCH   6   7
ATOM      7  C   UNL     1       3.749   3.782   6.772  1.00  0.00     0.041 C 
ATOM      8  O   UNL     1       2.745   4.050   7.484  1.00  0.00    -0.550 OA
ATOM      9  O   UNL     1       3.722   4.064   5.412  1.00  0.00    -0.550 OA
ENDBRANCH   6   7
ENDBRANCH   5   6
ENDBRANCH   4   5
ENDBRANCH   3   4
ENDBRANCH   2   3
ENDBRANCH   1   2
BRANCH   1  10
ATOM     10  C   UNL     1       8.922   2.980   6.548  1.00  0.00     0.000 C 
BRANCH  10  11
ATOM     11  C   UNL     1       8.286   1.580   6.463  1.00  0.00    -0.000 C 
BRANCH  11  12
ATOM     12  C   UNL     1       8.542   0.735   7.723  1.00  0.00    -0.000 C 
BRANCH  12  13
ATOM     13  C   UNL     1       7.266   0.506   8.550  1.00  0.00    -0.000 C 
BRANCH  13  14
ATOM     14  C   UNL     1       7.478   0.789  10.048  1.00  0.00    -0.000 C 
BRANCH  14  15
ATOM     15  C   UNL     1       8.959   0.734  10.453  1.00  0.00    -0.003 C 
ATOM     16  C   UNL     1       9.368   1.891  11.364  1.00  0.00     0.004 C 
ENDBRANCH  14  15
ENDBRANCH  13  14
ENDBRANCH  12  13
ENDBRANCH  11  12
ENDBRANCH  10  11
ENDBRANCH   1  10
TORSDOF 12
ENDMDL
MODEL 6
REMARK VINA RESULT:    -3.796      1.958      4.493
REMARK INTER + INTRA:          -8.052
REMARK INTER:                  -6.255
REMARK INTRA:                  -1.797
REMARK UNBOUND:                -1.592
REMARK SMILES CCCCCCCCCCCCCC(=O)[O-]
REMARK SMILES IDX 8 1 9 2 10 3 11 4 12 5 13 6 14 7 15 8 16 9 7 10 6 11 5 12
REMARK SMILES IDX 4 13 3 14 2 15 1 16
REMARK H PARENT
REMARK Flexibility Score: inf
ROOT
ATOM      1  C   UNL     1       5.131   1.682   9.084  1.00  0.00     0.000 C 
ENDROOT
BRANCH   1   2
ATOM      2  C   UNL     1       6.549   1.343   9.576  1.00  0.00     0.000 C 
BRANCH   2   3
ATOM      3  C   UNL     1       7.648   1.912   8.668  1.00  0.00     0.000 C 
BRANCH   3   4
ATOM      4  C   UNL     1       8.199   3.228   9.232  1.00  0.00     0.000 C 
BRANCH   4   5
ATOM      5  C   UNL     1       8.966   4.008   8.154  1.00  0.00     0.006 C 
BRANCH   5   6
ATOM      6  C   UNL     1       8.557   3.593   6.735  1.00  0.00     0.053 C 
BRANCH   6   7
ATOM      7  C   UNL     1       7.621   4.585   6.116  1.00  0.00     0.041 C 
ATOM      8  O   UNL     1       6.908   4.256   5.130  1.00  0.00    -0.550 OA
ATOM      9  O   UNL     1       7.558   5.883   6.606  1.00  0.00    -0.550 OA
ENDBRANCH   6   7
ENDBRANCH   5   6
ENDBRANCH   4   5
ENDBRANCH   3   4
ENDBRANCH   2   3
ENDBRANCH   1   2
BRANCH   1  10
ATOM     10  C   UNL     1       5.057   2.289   7.668  1.00  0.00     0.000 C 
BRANCH  10  11
ATOM     11  C   UNL     1       4.370   3.665   7.585  1.00  0.00    -0.000 C 
BRANCH  11  12
ATOM     12  C   UNL     1       4.948   4.678   8.588  1.00  0.00    -0.000 C 
BRANCH  12  13
ATOM     13  C   UNL     1       3.863   5.341   9.452  1.00  0.00    -0.000 C 
BRANCH  13  14
ATOM     14  C   UNL     1       2.440   4.976   8.991  1.00  0.00    -0.000 C 
BRANCH  14  15
ATOM     15  C   UNL     1       1.665   4.179  10.051  1.00  0.00    -0.003 C 
ATOM     16  C   UNL     1       2.526   3.802  11.256  1.00  0.00     0.004 C 
ENDBRANCH  14  15
ENDBRANCH  13  14
ENDBRANCH  12  13
ENDBRANCH  11  12
ENDBRANCH  10  11
ENDBRANCH   1  10
TORSDOF 12
ENDMDL
MODEL 7
REMARK VINA RESULT:    -3.780     12.695     15.175
REMARK INTER + INTRA:          -8.024
REMARK INTER:                  -6.572
REMARK INTRA:                  -1.452
REMARK UNBOUND:                -1.592
REMARK SMILES CCCCCCCCCCCCCC(=O)[O-]
REMARK SMILES IDX 8 1 9 2 10 3 11 4 12 5 13 6 14 7 15 8 16 9 7 10 6 11 5 12
REMARK SMILES IDX 4 13 3 14 2 15 1 16
REMARK H PARENT
REMARK Flexibility Score: inf
ROOT
ATOM      1  C   UNL     1      -5.509  -4.095   9.072  1.00  0.00     0.000 C 
ENDROOT
BRANCH   1   2
ATOM      2  C   UNL     1      -4.117  -4.609   9.479  1.00  0.00     0.000 C 
BRANCH   2   3
ATOM      3  C   UNL     1      -3.183  -4.819   8.279  1.00  0.00     0.000 C 
BRANCH   3   4
ATOM      4  C   UNL     1      -3.466  -3.788   7.178  1.00  0.00     0.000 C 
BRANCH   4   5
ATOM      5  C   UNL     1      -2.471  -2.620   7.251  1.00  0.00     0.006 C 
BRANCH   5   6
ATOM      6  C   UNL     1      -3.143  -1.268   6.979  1.00  0.00     0.053 C 
BRANCH   6   7
ATOM      7  C   UNL     1      -3.990  -0.828   8.134  1.00  0.00     0.041 C 
ATOM      8  O   UNL     1      -3.560  -0.934   9.313  1.00  0.00    -0.550 OA
ATOM      9  O   UNL     1      -5.268  -0.332   7.910  1.00  0.00    -0.550 OA
ENDBRANCH   6   7
ENDBRANCH   5   6
ENDBRANCH   4   5
ENDBRANCH   3   4
ENDBRANCH   2   3
ENDBRANCH   1   2
BRANCH   1  10
ATOM     10  C   UNL     1      -6.532  -5.192   8.713  1.00  0.00     0.000 C 
BRANCH  10  11
ATOM     11  C   UNL     1      -7.510  -4.824   7.582  1.00  0.00    -0.000 C 
BRANCH  11  12
ATOM     12  C   UNL     1      -7.644  -3.304   7.383  1.00  0.00    -0.000 C 
BRANCH  12  13
ATOM     13  C   UNL     1      -9.095  -2.815   7.519  1.00  0.00    -0.000 C 
BRANCH  13  14
ATOM     14  C   UNL     1      -9.714  -3.179   8.880  1.00  0.00    -0.000 C 
BRANCH  14  15
ATOM     15  C   UNL     1      -9.021  -2.464  10.051  1.00  0.00    -0.003 C 
ATOM     16  C   UNL     1      -9.124  -0.942   9.960  1.00  0.00     0.004 C 
ENDBRANCH  14  15
ENDBRANCH  13  14
ENDBRANCH  12  13
ENDBRANCH  11  12
ENDBRANCH  10  11
ENDBRANCH   1  10
TORSDOF 12
ENDMDL
MODEL 8
REMARK VINA RESULT:    -3.774     13.285     15.366
REMARK INTER + INTRA:          -8.015
REMARK INTER:                  -6.130
REMARK INTRA:                  -1.885
REMARK UNBOUND:                -1.592
REMARK SMILES CCCCCCCCCCCCCC(=O)[O-]
REMARK SMILES IDX 8 1 9 2 10 3 11 4 12 5 13 6 14 7 15 8 16 9 7 10 6 11 5 12
REMARK SMILES IDX 4 13 3 14 2 15 1 16
REMARK H PARENT
REMARK Flexibility Score: inf
ROOT
ATOM      1  C   UNL     1      -5.332  -4.862   8.400  1.00  0.00     0.000 C 
ENDROOT
BRANCH   1   2
ATOM      2  C   UNL     1      -6.804  -4.928   8.843  1.00  0.00     0.000 C 
BRANCH   2   3
ATOM      3  C   UNL     1      -7.440  -3.541   9.013  1.00  0.00     0.000 C 
BRANCH   3   4
ATOM      4  C   UNL     1      -8.675  -3.390   8.116  1.00  0.00     0.000 C 
BRANCH   4   5
ATOM      5  C   UNL     1      -8.383  -2.455   6.934  1.00  0.00     0.006 C 
BRANCH   5   6
ATOM      6  C   UNL     1      -7.584  -3.152   5.825  1.00  0.00     0.053 C 
BRANCH   6   7
ATOM      7  C   UNL     1      -8.331  -4.318   5.253  1.00  0.00     0.041 C 
ATOM      8  O   UNL     1      -9.361  -4.130   4.552  1.00  0.00    -0.550 OA
ATOM      9  O   UNL     1      -7.910  -5.614   5.522  1.00  0.00    -0.550 OA
ENDBRANCH   6   7
ENDBRANCH   5   6
ENDBRANCH   4   5
ENDBRANCH   3   4
ENDBRANCH   2   3
ENDBRANCH   1   2
BRANCH   1  10
ATOM     10  C   UNL     1      -4.301  -4.900   9.546  1.00  0.00     0.000 C 
BRANCH  10  11
ATOM     11  C   UNL     1      -2.911  -4.341   9.191  1.00  0.00    -0.000 C 
BRANCH  11  12
ATOM     12  C   UNL     1      -2.821  -3.859   7.733  1.00  0.00    -0.000 C 
BRANCH  12  13
ATOM     13  C   UNL     1      -2.806  -2.326   7.617  1.00  0.00    -0.000 C 
BRANCH  13  14
ATOM     14  C   UNL     1      -4.022  -1.782   6.845  1.00  0.00    -0.000 C 
BRANCH  14  15
ATOM     15  C   UNL     1      -5.044  -1.097   7.765  1.00  0.00    -0.003 C 
ATOM     16  C   UNL     1      -4.566  -1.002   9.214  1.00  0.00     0.004 C 
ENDBRANCH  14  15
ENDBRANCH  13  14
ENDBRANCH  12  13
ENDBRANCH  11  12
ENDBRANCH  10  11
ENDBRANCH   1  10
TORSDOF 12
ENDMDL
MODEL 9
REMARK VINA RESULT:    -3.753     13.332     15.705
REMARK INTER + INTRA:          -7.978
REMARK INTER:                  -6.712
REMARK INTRA:                  -1.266
REMARK UNBOUND:                -1.592
REMARK SMILES CCCCCCCCCCCCCC(=O)[O-]
REMARK SMILES IDX 8 1 9 2 10 3 11 4 12 5 13 6 14 7 15 8 16 9 7 10 6 11 5 12
REMARK SMILES IDX 4 13 3 14 2 15 1 16
REMARK H PARENT
REMARK Flexibility Score: inf
ROOT
ATOM      1  C   UNL     1      -7.270  -4.028   6.495  1.00  0.00     0.000 C 
ENDROOT
BRANCH   1   2
ATOM      2  C   UNL     1      -7.459  -5.122   7.560  1.00  0.00     0.000 C 
BRANCH   2   3
ATOM      3  C   UNL     1      -6.548  -4.931   8.781  1.00  0.00     0.000 C 
BRANCH   3   4
ATOM      4  C   UNL     1      -5.152  -4.458   8.354  1.00  0.00     0.000 C 
BRANCH   4   5
ATOM      5  C   UNL     1      -4.090  -4.894   9.374  1.00  0.00     0.006 C 
BRANCH   5   6
ATOM      6  C   UNL     1      -2.693  -5.001   8.747  1.00  0.00     0.053 C 
BRANCH   6   7
ATOM      7  C   UNL     1      -1.801  -3.881   9.188  1.00  0.00     0.041 C 
ATOM      8  O   UNL     1      -1.704  -3.590  10.409  1.00  0.00    -0.550 OA
ATOM      9  O   UNL     1      -1.103  -3.136   8.246  1.00  0.00    -0.550 OA
ENDBRANCH   6   7
ENDBRANCH   5   6
ENDBRANCH   4   5
ENDBRANCH   3   4
ENDBRANCH   2   3
ENDBRANCH   1   2
BRANCH   1  10
ATOM     10  C   UNL     1      -8.403  -2.983   6.421  1.00  0.00     0.000 C 
BRANCH  10  11
ATOM     11  C   UNL     1      -7.951  -1.521   6.589  1.00  0.00    -0.000 C 
BRANCH  11  12
ATOM     12  C   UNL     1      -8.541  -0.858   7.846  1.00  0.00    -0.000 C 
BRANCH  12  13
ATOM     13  C   UNL     1      -8.174  -1.607   9.138  1.00  0.00    -0.000 C 
BRANCH  13  14
ATOM     14  C   UNL     1      -9.082  -1.223  10.319  1.00  0.00    -0.000 C 
BRANCH  14  15
ATOM     15  C   UNL     1      -9.909  -2.410  10.835  1.00  0.00    -0.003 C 
ATOM     16  C   UNL     1     -10.124  -3.489   9.773  1.00  0.00     0.004 C 
ENDBRANCH  14  15
ENDBRANCH  13  14
ENDBRANCH  12  13
ENDBRANCH  11  12
ENDBRANCH  10  11
ENDBRANCH   1  10
TORSDOF 12
ENDMDL
