MODEL 1
REMARK VINA RESULT:    -4.234      0.000      0.000
REMARK INTER + INTRA:         -10.370
REMARK INTER:                  -8.195
REMARK INTRA:                  -2.174
REMARK UNBOUND:                -2.174
REMARK SMILES CCCCCCCCCCCCCCCCCC(=O)[O-]
REMARK SMILES IDX 10 1 11 2 12 3 13 4 14 5 15 6 16 7 17 8 18 9 19 10 20 11
REMARK SMILES IDX 9 12 8 13 7 14 6 15 5 16 4 17 3 18 2 19 1 20
REMARK H PARENT
REMARK Flexibility Score: inf
ROOT
ATOM      1  C   UNL     1      29.187  11.476 -14.330  1.00  0.00     0.000 C 
ENDROOT
BRANCH   1   2
ATOM      2  C   UNL     1      30.665  11.712 -13.974  1.00  0.00     0.000 C 
BRANCH   2   3
ATOM      3  C   UNL     1      31.019  11.230 -12.558  1.00  0.00     0.000 C 
BRANCH   3   4
ATOM      4  C   UNL     1      30.438  12.141 -11.463  1.00  0.00     0.000 C 
BRANCH   4   5
ATOM      5  C   UNL     1      29.608  11.366 -10.427  1.00  0.00     0.000 C 
BRANCH   5   6
ATOM      6  C   UNL     1      28.105  11.375 -10.741  1.00  0.00     0.000 C 
BRANCH   6   7
ATOM      7  C   UNL     1      27.651  12.766 -11.209  1.00  0.00     0.006 C 
BRANCH   7   8
ATOM      8  C   UNL     1      26.145  12.820 -11.498  1.00  0.00     0.053 C 
BRANCH   8   9
ATOM      9  C   UNL     1      25.551  14.139 -11.110  1.00  0.00     0.041 C 
ATOM     10  O   UNL     1      25.393  14.430  -9.895  1.00  0.00    -0.550 OA
ATOM     11  O   UNL     1      25.138  15.033 -12.089  1.00  0.00    -0.550 OA
ENDBRANCH   8   9
ENDBRANCH   7   8
ENDBRANCH   6   7
ENDBRANCH   5   6
ENDBRANCH   4   5
ENDBRANCH   3   4
ENDBRANCH   2   3
ENDBRANCH   1   2
BRANCH   1  12
ATOM     12  C   UNL     1      28.989  11.101 -15.807  1.00  0.00     0.000 C 
BRANCH  12  13
ATOM     13  C   UNL     1      29.653  12.109 -16.763  1.00  0.00    -0.000 C 
BRANCH  13  14
ATOM     14  C   UNL     1      28.677  13.188 -17.260  1.00  0.00    -0.000 C 
BRANCH  14  15
ATOM     15  C   UNL     1      29.399  14.433 -17.800  1.00  0.00    -0.000 C 
BRANCH  15  16
ATOM     16  C   UNL     1      30.607  14.845 -16.939  1.00  0.00    -0.000 C 
BRANCH  16  17
ATOM     17  C   UNL     1      30.586  16.299 -16.433  1.00  0.00    -0.000 C 
BRANCH  17  18
ATOM     18  C   UNL     1      29.624  16.510 -15.254  1.00  0.00    -0.000 C 
BRANCH  18  19
ATOM     19  C   UNL     1      29.550  15.256 -14.376  1.00  0.00    -0.003 C 
ATOM     20  C   UNL     1      28.464  15.391 -13.312  1.00  0.00     0.004 C 
ENDBRANCH  18  19
ENDBRANCH  17  18
ENDBRANCH  16  17
ENDBRANCH  15  16
ENDBRANCH  14  15
ENDBRANCH  13  14
ENDBRANCH  12  13
ENDBRANCH   1  12
TORSDOF 16
ENDMDL
MODEL 2
REMARK VINA RESULT:    -4.096      1.467      4.203
REMARK INTER + INTRA:         -10.102
REMARK INTER:                  -7.525
REMARK INTRA:                  -2.577
REMARK UNBOUND:                -2.174
REMARK SMILES CCCCCCCCCCCCCCCCCC(=O)[O-]
REMARK SMILES IDX 10 1 11 2 12 3 13 4 14 5 15 6 16 7 17 8 18 9 19 10 20 11
REMARK SMILES IDX 9 12 8 13 7 14 6 15 5 16 4 17 3 18 2 19 1 20
REMARK H PARENT
REMARK Flexibility Score: inf
ROOT
ATOM      1  C   UNL     1      29.503  13.267 -17.999  1.00  0.00     0.000 C 
ENDROOT
BRANCH   1   2
ATOM      2  C   UNL     1      29.610  14.468 -17.042  1.00  0.00     0.000 C 
BRANCH   2   3
ATOM      3  C   UNL     1      30.688  14.272 -15.964  1.00  0.00     0.000 C 
BRANCH   3   4
ATOM      4  C   UNL     1      30.088  14.010 -14.572  1.00  0.00     0.000 C 
BRANCH   4   5
ATOM      5  C   UNL     1      28.592  13.662 -14.628  1.00  0.00     0.000 C 
BRANCH   5   6
ATOM      6  C   UNL     1      28.057  13.123 -13.293  1.00  0.00     0.000 C 
BRANCH   6   7
ATOM      7  C   UNL     1      28.309  14.125 -12.156  1.00  0.00     0.006 C 
BRANCH   7   8
ATOM      8  C   UNL     1      27.279  15.261 -12.141  1.00  0.00     0.053 C 
BRANCH   8   9
ATOM      9  C   UNL     1      25.930  14.783 -11.699  1.00  0.00     0.041 C 
ATOM     10  O   UNL     1      25.815  14.088 -10.655  1.00  0.00    -0.550 OA
ATOM     11  O   UNL     1      24.803  15.074 -12.457  1.00  0.00    -0.550 OA
ENDBRANCH   8   9
ENDBRANCH   7   8
ENDBRANCH   6   7
ENDBRANCH   5   6
ENDBRANCH   4   5
ENDBRANCH   3   4
ENDBRANCH   2   3
ENDBRANCH   1   2
BRANCH   1  12
ATOM     12  C   UNL     1      30.832  12.508 -18.142  1.00  0.00     0.000 C 
BRANCH  12  13
ATOM     13  C   UNL     1      30.666  10.990 -17.950  1.00  0.00    -0.000 C 
BRANCH  13  14
ATOM     14  C   UNL     1      30.790  10.561 -16.478  1.00  0.00    -0.000 C 
BRANCH  14  15
ATOM     15  C   UNL     1      29.436  10.171 -15.862  1.00  0.00    -0.000 C 
BRANCH  15  16
ATOM     16  C   UNL     1      29.496  10.016 -14.332  1.00  0.00    -0.000 C 
BRANCH  16  17
ATOM     17  C   UNL     1      30.785  10.537 -13.670  1.00  0.00    -0.000 C 
BRANCH  17  18
ATOM     18  C   UNL     1      30.882  10.180 -12.180  1.00  0.00    -0.000 C 
BRANCH  18  19
ATOM     19  C   UNL     1      29.502   9.836 -11.608  1.00  0.00    -0.003 C 
ATOM     20  C   UNL     1      29.093  10.826 -10.521  1.00  0.00     0.004 C 
ENDBRANCH  18  19
ENDBRANCH  17  18
ENDBRANCH  16  17
ENDBRANCH  15  16
ENDBRANCH  14  15
ENDBRANCH  13  14
ENDBRANCH  12  13
ENDBRANCH   1  12
TORSDOF 16
ENDMDL
MODEL 3
REMARK VINA RESULT:    -4.089      4.079      7.341
REMARK INTER + INTRA:         -10.089
REMARK INTER:                  -7.909
REMARK INTRA:                  -2.180
REMARK UNBOUND:                -2.174
REMARK SMILES CCCCCCCCCCCCCCCCCC(=O)[O-]
REMARK SMILES IDX 10 1 11 2 12 3 13 4 14 5 15 6 16 7 17 8 18 9 19 10 20 11
REMARK SMILES IDX 9 12 8 13 7 14 6 15 5 16 4 17 3 18 2 19 1 20
REMARK H PARENT
REMARK Flexibility Score: inf
ROOT
ATOM      1  C   UNL     1      28.487  12.222 -16.132  1.00  0.00     0.000 C 
ENDROOT
BRANCH   1   2
ATOM      2  C   UNL     1      29.070  13.387 -16.952  1.00  0.00     0.000 C 
BRANCH   2   3
ATOM      3  C   UNL     1      29.705  12.923 -18.272  1.00  0.00     0.000 C 
BRANCH   3   4
ATOM      4  C   UNL     1      30.913  11.996 -18.051  1.00  0.00     0.000 C 
BRANCH   4   5
ATOM      5  C   UNL     1      30.708  10.600 -18.662  1.00  0.00     0.000 C 
BRANCH   5   6
ATOM      6  C   UNL     1      30.909   9.470 -17.642  1.00  0.00     0.000 C 
BRANCH   6   7
ATOM      7  C   UNL     1      29.584   8.747 -17.355  1.00  0.00     0.006 C 
BRANCH   7   8
ATOM      8  C   UNL     1      29.473   7.415 -18.107  1.00  0.00     0.053 C 
BRANCH   8   9
ATOM      9  C   UNL     1      28.272   6.631 -17.676  1.00  0.00     0.041 C 
ATOM     10  O   UNL     1      28.406   5.624 -16.932  1.00  0.00    -0.550 OA
ATOM     11  O   UNL     1      27.007   6.989 -18.125  1.00  0.00    -0.550 OA
ENDBRANCH   8   9
ENDBRANCH   7   8
ENDBRANCH   6   7
ENDBRANCH   5   6
ENDBRANCH   4   5
ENDBRANCH   3   4
ENDBRANCH   2   3
ENDBRANCH   1   2
BRANCH   1  12
ATOM     12  C   UNL     1      28.957  12.240 -14.669  1.00  0.00     0.000 C 
BRANCH  12  13
ATOM     13  C   UNL     1      30.028  11.172 -14.382  1.00  0.00    -0.000 C 
BRANCH  13  14
ATOM     14  C   UNL     1      29.423   9.817 -13.980  1.00  0.00    -0.000 C 
BRANCH  14  15
ATOM     15  C   UNL     1      30.468   8.856 -13.390  1.00  0.00    -0.000 C 
BRANCH  15  16
ATOM     16  C   UNL     1      30.088   8.340 -11.991  1.00  0.00    -0.000 C 
BRANCH  16  17
ATOM     17  C   UNL     1      30.812   9.029 -10.819  1.00  0.00    -0.000 C 
BRANCH  17  18
ATOM     18  C   UNL     1      29.867   9.847  -9.927  1.00  0.00    -0.000 C 
BRANCH  18  19
ATOM     19  C   UNL     1      29.648  11.251 -10.503  1.00  0.00    -0.003 C 
ATOM     20  C   UNL     1      28.187  11.470 -10.882  1.00  0.00     0.004 C 
ENDBRANCH  18  19
ENDBRANCH  17  18
ENDBRANCH  16  17
ENDBRANCH  15  16
ENDBRANCH  14  15
ENDBRANCH  13  14
ENDBRANCH  12  13
ENDBRANCH   1  12
TORSDOF 16
ENDMDL
MODEL 4
REMARK VINA RESULT:    -4.036      2.956      4.829
REMARK INTER + INTRA:          -9.986
REMARK INTER:                  -8.145
REMARK INTRA:                  -1.841
REMARK UNBOUND:                -2.174
REMARK SMILES CCCCCCCCCCCCCCCCCC(=O)[O-]
REMARK SMILES IDX 10 1 11 2 12 3 13 4 14 5 15 6 16 7 17 8 18 9 19 10 20 11
REMARK SMILES IDX 9 12 8 13 7 14 6 15 5 16 4 17 3 18 2 19 1 20
REMARK H PARENT
REMARK Flexibility Score: inf
ROOT
ATOM      1  C   UNL     1      27.499  15.537 -12.591  1.00  0.00     0.000 C 
ENDROOT
BRANCH   1   2
ATOM      2  C   UNL     1      27.158  14.639 -11.389  1.00  0.00     0.000 C 
BRANCH   2   3
ATOM      3  C   UNL     1      26.580  13.279 -11.811  1.00  0.00     0.000 C 
BRANCH   3   4
ATOM      4  C   UNL     1      27.000  12.140 -10.865  1.00  0.00     0.000 C 
BRANCH   4   5
ATOM      5  C   UNL     1      28.364  11.536 -11.235  1.00  0.00     0.000 C 
BRANCH   5   6
ATOM      6  C   UNL     1      28.989  10.732 -10.085  1.00  0.00     0.000 C 
BRANCH   6   7
ATOM      7  C   UNL     1      30.166   9.881 -10.587  1.00  0.00     0.006 C 
BRANCH   7   8
ATOM      8  C   UNL     1      30.118   9.659 -12.104  1.00  0.00     0.053 C 
BRANCH   8   9
ATOM      9  C   UNL     1      29.729   8.254 -12.449  1.00  0.00     0.041 C 
ATOM     10  O   UNL     1      30.484   7.295 -12.142  1.00  0.00    -0.550 OA
ATOM     11  O   UNL     1      28.551   8.007 -13.142  1.00  0.00    -0.550 OA
ENDBRANCH   8   9
ENDBRANCH   7   8
ENDBRANCH   6   7
ENDBRANCH   5   6
ENDBRANCH   4   5
ENDBRANCH   3   4
ENDBRANCH   2   3
ENDBRANCH   1   2
BRANCH   1  12
ATOM     12  C   UNL     1      28.609  14.944 -13.473  1.00  0.00     0.000 C 
BRANCH  12  13
ATOM     13  C   UNL     1      29.287  16.005 -14.358  1.00  0.00    -0.000 C 
BRANCH  13  14
ATOM     14  C   UNL     1      30.493  15.448 -15.133  1.00  0.00    -0.000 C 
BRANCH  14  15
ATOM     15  C   UNL     1      30.198  15.268 -16.632  1.00  0.00    -0.000 C 
BRANCH  15  16
ATOM     16  C   UNL     1      30.295  13.802 -17.090  1.00  0.00    -0.000 C 
BRANCH  16  17
ATOM     17  C   UNL     1      28.947  13.118 -17.386  1.00  0.00    -0.000 C 
BRANCH  17  18
ATOM     18  C   UNL     1      28.287  12.524 -16.133  1.00  0.00    -0.000 C 
BRANCH  18  19
ATOM     19  C   UNL     1      29.301  11.727 -15.305  1.00  0.00    -0.003 C 
ATOM     20  C   UNL     1      29.371  10.275 -15.767  1.00  0.00     0.004 C 
ENDBRANCH  18  19
ENDBRANCH  17  18
ENDBRANCH  16  17
ENDBRANCH  15  16
ENDBRANCH  14  15
ENDBRANCH  13  14
ENDBRANCH  12  13
ENDBRANCH   1  12
TORSDOF 16
ENDMDL
MODEL 5
REMARK VINA RESULT:    -4.015      3.078      5.493
REMARK INTER + INTRA:          -9.945
REMARK INTER:                  -7.960
REMARK INTRA:                  -1.985
REMARK UNBOUND:                -2.174
REMARK SMILES CCCCCCCCCCCCCCCCCC(=O)[O-]
REMARK SMILES IDX 10 1 11 2 12 3 13 4 14 5 15 6 16 7 17 8 18 9 19 10 20 11
REMARK SMILES IDX 9 12 8 13 7 14 6 15 5 16 4 17 3 18 2 19 1 20
REMARK H PARENT
REMARK Flexibility Score: inf
ROOT
ATOM      1  C   UNL     1      29.613  13.271 -18.307  1.00  0.00     0.000 C 
ENDROOT
BRANCH   1   2
ATOM      2  C   UNL     1      30.864  12.399 -18.101  1.00  0.00     0.000 C 
BRANCH   2   3
ATOM      3  C   UNL     1      30.724  11.004 -18.730  1.00  0.00     0.000 C 
BRANCH   3   4
ATOM      4  C   UNL     1      30.570   9.895 -17.675  1.00  0.00     0.000 C 
BRANCH   4   5
ATOM      5  C   UNL     1      30.739  10.416 -16.239  1.00  0.00     0.000 C 
BRANCH   5   6
ATOM      6  C   UNL     1      29.507  10.151 -15.362  1.00  0.00     0.000 C 
BRANCH   6   7
ATOM      7  C   UNL     1      29.719   8.914 -14.476  1.00  0.00     0.006 C 
BRANCH   7   8
ATOM      8  C   UNL     1      29.057   9.063 -13.100  1.00  0.00     0.053 C 
BRANCH   8   9
ATOM      9  C   UNL     1      29.973   8.641 -11.992  1.00  0.00     0.041 C 
ATOM     10  O   UNL     1      30.302   9.462 -11.096  1.00  0.00    -0.550 OA
ATOM     11  O   UNL     1      30.492   7.353 -11.969  1.00  0.00    -0.550 OA
ENDBRANCH   8   9
ENDBRANCH   7   8
ENDBRANCH   6   7
ENDBRANCH   5   6
ENDBRANCH   4   5
ENDBRANCH   3   4
ENDBRANCH   2   3
ENDBRANCH   1   2
BRANCH   1  12
ATOM     12  C   UNL     1      28.915  13.621 -16.983  1.00  0.00     0.000 C 
BRANCH  12  13
ATOM     13  C   UNL     1      29.914  13.972 -15.866  1.00  0.00    -0.000 C 
BRANCH  13  14
ATOM     14  C   UNL     1      29.221  14.396 -14.560  1.00  0.00    -0.000 C 
BRANCH  14  15
ATOM     15  C   UNL     1      28.449  13.240 -13.902  1.00  0.00    -0.000 C 
BRANCH  15  16
ATOM     16  C   UNL     1      29.117  12.730 -12.613  1.00  0.00    -0.000 C 
BRANCH  16  17
ATOM     17  C   UNL     1      28.376  13.078 -11.309  1.00  0.00    -0.000 C 
BRANCH  17  18
ATOM     18  C   UNL     1      26.913  12.611 -11.306  1.00  0.00    -0.000 C 
BRANCH  18  19
ATOM     19  C   UNL     1      25.974  13.754 -10.904  1.00  0.00    -0.003 C 
ATOM     20  C   UNL     1      25.653  14.650 -12.097  1.00  0.00     0.004 C 
ENDBRANCH  18  19
ENDBRANCH  17  18
ENDBRANCH  16  17
ENDBRANCH  15  16
ENDBRANCH  14  15
ENDBRANCH  13  14
ENDBRANCH  12  13
ENDBRANCH   1  12
TORSDOF 16
ENDMDL
MODEL 6
REMARK VINA RESULT:    -3.984      4.241      7.305
REMARK INTER + INTRA:          -9.884
REMARK INTER:                  -7.590
REMARK INTRA:                  -2.294
REMARK UNBOUND:                -2.174
REMARK SMILES CCCCCCCCCCCCCCCCCC(=O)[O-]
REMARK SMILES IDX 10 1 11 2 12 3 13 4 14 5 15 6 16 7 17 8 18 9 19 10 20 11
REMARK SMILES IDX 9 12 8 13 7 14 6 15 5 16 4 17 3 18 2 19 1 20
REMARK H PARENT
REMARK Flexibility Score: inf
ROOT
ATOM      1  C   UNL     1      28.838  12.744 -14.834  1.00  0.00     0.000 C 
ENDROOT
BRANCH   1   2
ATOM      2  C   UNL     1      28.461  12.986 -16.306  1.00  0.00     0.000 C 
BRANCH   2   3
ATOM      3  C   UNL     1      29.578  13.687 -17.096  1.00  0.00     0.000 C 
BRANCH   3   4
ATOM      4  C   UNL     1      29.971  12.918 -18.370  1.00  0.00     0.000 C 
BRANCH   4   5
ATOM      5  C   UNL     1      31.105  11.909 -18.127  1.00  0.00     0.000 C 
BRANCH   5   6
ATOM      6  C   UNL     1      30.808  10.525 -18.721  1.00  0.00     0.000 C 
BRANCH   6   7
ATOM      7  C   UNL     1      30.223   9.585 -17.657  1.00  0.00     0.006 C 
BRANCH   7   8
ATOM      8  C   UNL     1      30.952   8.235 -17.610  1.00  0.00     0.053 C 
BRANCH   8   9
ATOM      9  C   UNL     1      30.326   7.232 -18.530  1.00  0.00     0.041 C 
ATOM     10  O   UNL     1      29.461   6.427 -18.096  1.00  0.00    -0.550 OA
ATOM     11  O   UNL     1      30.724   7.163 -19.859  1.00  0.00    -0.550 OA
ENDBRANCH   8   9
ENDBRANCH   7   8
ENDBRANCH   6   7
ENDBRANCH   5   6
ENDBRANCH   4   5
ENDBRANCH   3   4
ENDBRANCH   2   3
ENDBRANCH   1   2
BRANCH   1  12
ATOM     12  C   UNL     1      30.356  12.628 -14.627  1.00  0.00     0.000 C 
BRANCH  12  13
ATOM     13  C   UNL     1      30.771  11.254 -14.070  1.00  0.00    -0.000 C 
BRANCH  13  14
ATOM     14  C   UNL     1      29.625  10.229 -14.106  1.00  0.00    -0.000 C 
BRANCH  14  15
ATOM     15  C   UNL     1      29.311   9.647 -12.718  1.00  0.00    -0.000 C 
BRANCH  15  16
ATOM     16  C   UNL     1      30.250  10.177 -11.619  1.00  0.00    -0.000 C 
BRANCH  16  17
ATOM     17  C   UNL     1      29.574  11.047 -10.543  1.00  0.00    -0.000 C 
BRANCH  17  18
ATOM     18  C   UNL     1      28.106  11.365 -10.864  1.00  0.00    -0.000 C 
BRANCH  18  19
ATOM     19  C   UNL     1      27.935  12.842 -11.237  1.00  0.00    -0.003 C 
ATOM     20  C   UNL     1      26.462  13.241 -11.251  1.00  0.00     0.004 C 
ENDBRANCH  18  19
ENDBRANCH  17  18
ENDBRANCH  16  17
ENDBRANCH  15  16
ENDBRANCH  14  15
ENDBRANCH  13  14
ENDBRANCH  12  13
ENDBRANCH   1  12
TORSDOF 16
ENDMDL
MODEL 7
REMARK VINA RESULT:    -3.941      2.390      4.745
REMARK INTER + INTRA:          -9.802
REMARK INTER:                  -7.763
REMARK INTRA:                  -2.039
REMARK UNBOUND:                -2.174
REMARK SMILES CCCCCCCCCCCCCCCCCC(=O)[O-]
REMARK SMILES IDX 10 1 11 2 12 3 13 4 14 5 15 6 16 7 17 8 18 9 19 10 20 11
REMARK SMILES IDX 9 12 8 13 7 14 6 15 5 16 4 17 3 18 2 19 1 20
REMARK H PARENT
REMARK Flexibility Score: inf
ROOT
ATOM      1  C   UNL     1      28.505  12.512 -16.276  1.00  0.00     0.000 C 
ENDROOT
BRANCH   1   2
ATOM      2  C   UNL     1      28.634  12.918 -14.797  1.00  0.00     0.000 C 
BRANCH   2   3
ATOM      3  C   UNL     1      30.084  12.865 -14.291  1.00  0.00     0.000 C 
BRANCH   3   4
ATOM      4  C   UNL     1      30.571  11.425 -14.047  1.00  0.00     0.000 C 
BRANCH   4   5
ATOM      5  C   UNL     1      29.614  10.621 -13.152  1.00  0.00     0.000 C 
BRANCH   5   6
ATOM      6  C   UNL     1      30.071  10.571 -11.687  1.00  0.00     0.000 C 
BRANCH   6   7
ATOM      7  C   UNL     1      29.389  11.672 -10.861  1.00  0.00     0.006 C 
BRANCH   7   8
ATOM      8  C   UNL     1      27.861  11.636 -10.995  1.00  0.00     0.053 C 
BRANCH   8   9
ATOM      9  C   UNL     1      27.293  12.998 -11.256  1.00  0.00     0.041 C 
ATOM     10  O   UNL     1      28.059  13.966 -11.503  1.00  0.00    -0.550 OA
ATOM     11  O   UNL     1      25.921  13.205 -11.192  1.00  0.00    -0.550 OA
ENDBRANCH   8   9
ENDBRANCH   7   8
ENDBRANCH   6   7
ENDBRANCH   5   6
ENDBRANCH   4   5
ENDBRANCH   3   4
ENDBRANCH   2   3
ENDBRANCH   1   2
BRANCH   1  12
ATOM     12  C   UNL     1      28.863  13.659 -17.234  1.00  0.00     0.000 C 
BRANCH  12  13
ATOM     13  C   UNL     1      29.948  13.261 -18.249  1.00  0.00    -0.000 C 
BRANCH  13  14
ATOM     14  C   UNL     1      30.793  12.065 -17.778  1.00  0.00    -0.000 C 
BRANCH  14  15
ATOM     15  C   UNL     1      30.669  10.851 -18.714  1.00  0.00    -0.000 C 
BRANCH  15  16
ATOM     16  C   UNL     1      30.811   9.508 -17.976  1.00  0.00    -0.000 C 
BRANCH  16  17
ATOM     17  C   UNL     1      29.789   9.269 -16.849  1.00  0.00    -0.000 C 
BRANCH  17  18
ATOM     18  C   UNL     1      29.487   7.782 -16.616  1.00  0.00    -0.000 C 
BRANCH  18  19
ATOM     19  C   UNL     1      28.611   7.218 -17.741  1.00  0.00    -0.003 C 
ATOM     20  C   UNL     1      29.061   5.815 -18.140  1.00  0.00     0.004 C 
ENDBRANCH  18  19
ENDBRANCH  17  18
ENDBRANCH  16  17
ENDBRANCH  15  16
ENDBRANCH  14  15
ENDBRANCH  13  14
ENDBRANCH  12  13
ENDBRANCH   1  12
TORSDOF 16
ENDMDL
MODEL 8
REMARK VINA RESULT:    -3.907     17.491     19.010
REMARK INTER + INTRA:          -9.735
REMARK INTER:                  -7.219
REMARK INTRA:                  -2.517
REMARK UNBOUND:                -2.174
REMARK SMILES CCCCCCCCCCCCCCCCCC(=O)[O-]
REMARK SMILES IDX 10 1 11 2 12 3 13 4 14 5 15 6 16 7 17 8 18 9 19 10 20 11
REMARK SMILES IDX 9 12 8 13 7 14 6 15 5 16 4 17 3 18 2 19 1 20
REMARK H PARENT
REMARK Flexibility Score: inf
ROOT
ATOM      1  C   UNL     1      15.866  -0.038 -11.835  1.00  0.00     0.000 C 
ENDROOT
BRANCH   1   2
ATOM      2  C   UNL     1      14.511  -0.232 -12.539  1.00  0.00     0.000 C 
BRANCH   2   3
ATOM      3  C   UNL     1      14.355  -1.634 -13.148  1.00  0.00     0.000 C 
BRANCH   3   4
ATOM      4  C   UNL     1      14.528  -1.635 -14.677  1.00  0.00     0.000 C 
BRANCH   4   5
ATOM      5  C   UNL     1      14.693  -0.221 -15.255  1.00  0.00     0.000 C 
BRANCH   5   6
ATOM      6  C   UNL     1      15.748  -0.153 -16.370  1.00  0.00     0.000 C 
BRANCH   6   7
ATOM      7  C   UNL     1      16.348   1.257 -16.472  1.00  0.00     0.006 C 
BRANCH   7   8
ATOM      8  C   UNL     1      16.051   1.920 -17.823  1.00  0.00     0.053 C 
BRANCH   8   9
ATOM      9  C   UNL     1      14.729   2.624 -17.819  1.00  0.00     0.041 C 
ATOM     10  O   UNL     1      14.674   3.867 -17.625  1.00  0.00    -0.550 OA
ATOM     11  O   UNL     1      13.555   1.903 -17.993  1.00  0.00    -0.550 OA
ENDBRANCH   8   9
ENDBRANCH   7   8
ENDBRANCH   6   7
ENDBRANCH   5   6
ENDBRANCH   4   5
ENDBRANCH   3   4
ENDBRANCH   2   3
ENDBRANCH   1   2
BRANCH   1  12
ATOM     12  C   UNL     1      16.584  -1.371 -11.567  1.00  0.00     0.000 C 
BRANCH  12  13
ATOM     13  C   UNL     1      18.008  -1.399 -12.151  1.00  0.00    -0.000 C 
BRANCH  13  14
ATOM     14  C   UNL     1      18.088  -0.765 -13.550  1.00  0.00    -0.000 C 
BRANCH  14  15
ATOM     15  C   UNL     1      18.434  -1.790 -14.643  1.00  0.00    -0.000 C 
BRANCH  15  16
ATOM     16  C   UNL     1      19.922  -1.771 -15.034  1.00  0.00    -0.000 C 
BRANCH  16  17
ATOM     17  C   UNL     1      20.204  -1.886 -16.544  1.00  0.00    -0.000 C 
BRANCH  17  18
ATOM     18  C   UNL     1      19.440  -0.849 -17.379  1.00  0.00    -0.000 C 
BRANCH  18  19
ATOM     19  C   UNL     1      18.573  -1.533 -18.442  1.00  0.00    -0.003 C 
ATOM     20  C   UNL     1      18.238  -0.574 -19.581  1.00  0.00     0.004 C 
ENDBRANCH  18  19
ENDBRANCH  17  18
ENDBRANCH  16  17
ENDBRANCH  15  16
ENDBRANCH  14  15
ENDBRANCH  13  14
ENDBRANCH  12  13
ENDBRANCH   1  12
TORSDOF 16
ENDMDL
MODEL 9
REMARK VINA RESULT:    -3.903      3.656      6.064
REMARK INTER + INTRA:          -9.728
REMARK INTER:                  -7.469
REMARK INTRA:                  -2.259
REMARK UNBOUND:                -2.174
REMARK SMILES CCCCCCCCCCCCCCCCCC(=O)[O-]
REMARK SMILES IDX 10 1 11 2 12 3 13 4 14 5 15 6 16 7 17 8 18 9 19 10 20 11
REMARK SMILES IDX 9 12 8 13 7 14 6 15 5 16 4 17 3 18 2 19 1 20
REMARK H PARENT
REMARK Flexibility Score: inf
ROOT
ATOM      1  C   UNL     1      29.525  13.234 -18.185  1.00  0.00     0.000 C 
ENDROOT
BRANCH   1   2
ATOM      2  C   UNL     1      30.823  12.420 -18.042  1.00  0.00     0.000 C 
BRANCH   2   3
ATOM      3  C   UNL     1      30.724  11.028 -18.686  1.00  0.00     0.000 C 
BRANCH   3   4
ATOM      4  C   UNL     1      31.026   9.895 -17.689  1.00  0.00     0.000 C 
BRANCH   4   5
ATOM      5  C   UNL     1      30.705  10.283 -16.237  1.00  0.00     0.000 C 
BRANCH   5   6
ATOM      6  C   UNL     1      29.649   9.368 -15.598  1.00  0.00     0.000 C 
BRANCH   6   7
ATOM      7  C   UNL     1      30.162   8.780 -14.275  1.00  0.00     0.006 C 
BRANCH   7   8
ATOM      8  C   UNL     1      29.019   8.315 -13.363  1.00  0.00     0.053 C 
BRANCH   8   9
ATOM      9  C   UNL     1      28.705   6.864 -13.561  1.00  0.00     0.041 C 
ATOM     10  O   UNL     1      27.515   6.458 -13.490  1.00  0.00    -0.550 OA
ATOM     11  O   UNL     1      29.729   5.953 -13.788  1.00  0.00    -0.550 OA
ENDBRANCH   8   9
ENDBRANCH   7   8
ENDBRANCH   6   7
ENDBRANCH   5   6
ENDBRANCH   4   5
ENDBRANCH   3   4
ENDBRANCH   2   3
ENDBRANCH   1   2
BRANCH   1  12
ATOM     12  C   UNL     1      28.778  13.389 -16.850  1.00  0.00     0.000 C 
BRANCH  12  13
ATOM     13  C   UNL     1      29.593  14.177 -15.809  1.00  0.00    -0.000 C 
BRANCH  13  14
ATOM     14  C   UNL     1      28.960  14.141 -14.408  1.00  0.00    -0.000 C 
BRANCH  14  15
ATOM     15  C   UNL     1      29.002  12.739 -13.778  1.00  0.00    -0.000 C 
BRANCH  15  16
ATOM     16  C   UNL     1      30.399  12.358 -13.256  1.00  0.00    -0.000 C 
BRANCH  16  17
ATOM     17  C   UNL     1      30.444  11.880 -11.792  1.00  0.00    -0.000 C 
BRANCH  17  18
ATOM     18  C   UNL     1      29.083  11.387 -11.280  1.00  0.00    -0.000 C 
BRANCH  18  19
ATOM     19  C   UNL     1      29.242  10.600  -9.974  1.00  0.00    -0.003 C 
ATOM     20  C   UNL     1      30.315   9.523 -10.105  1.00  0.00     0.004 C 
ENDBRANCH  18  19
ENDBRANCH  17  18
ENDBRANCH  16  17
ENDBRANCH  15  16
ENDBRANCH  14  15
ENDBRANCH  13  14
ENDBRANCH  12  13
ENDBRANCH   1  12
TORSDOF 16
ENDMDL
