MODEL 1
REMARK VINA RESULT:    -6.386      0.000      0.000
REMARK INTER + INTRA:         -13.951
REMARK INTER:                 -11.987
REMARK INTRA:                  -1.964
REMARK UNBOUND:                -1.964
REMARK SMILES CCCCCCCCC=CCCCCCCCC(=O)[O-]
REMARK SMILES IDX 10 1 9 2 11 3 12 4 13 5 14 6 15 7 16 8 17 9 18 10 19 11
REMARK SMILES IDX 20 12 8 13 7 14 6 15 5 16 4 17 3 18 2 19 1 20
REMARK H PARENT
REMARK Flexibility Score: inf
ROOT
ATOM      1  C   UNL     1     -40.979 -39.259 107.133  1.00  0.00    -0.031 C 
ATOM      2  C   UNL     1     -41.939 -40.088 107.573  1.00  0.00    -0.031 C 
ENDROOT
BRANCH   1   3
ATOM      3  C   UNL     1     -40.252 -39.513 105.842  1.00  0.00     0.027 C 
BRANCH   3   4
ATOM      4  C   UNL     1     -41.238 -39.763 104.693  1.00  0.00     0.004 C 
BRANCH   4   5
ATOM      5  C   UNL     1     -40.552 -40.273 103.415  1.00  0.00     0.000 C 
BRANCH   5   6
ATOM      6  C   UNL     1     -39.271 -41.090 103.686  1.00  0.00     0.000 C 
BRANCH   6   7
ATOM      7  C   UNL     1     -38.447 -41.320 102.407  1.00  0.00     0.000 C 
BRANCH   7   8
ATOM      8  C   UNL     1     -38.091 -42.801 102.184  1.00  0.00     0.006 C 
BRANCH   8   9
ATOM      9  C   UNL     1     -39.268 -43.770 102.378  1.00  0.00     0.053 C 
BRANCH   9  10
ATOM     10  C   UNL     1     -38.974 -44.807 103.417  1.00  0.00     0.041 C 
ATOM     11  O   UNL     1     -39.530 -44.749 104.546  1.00  0.00    -0.550 OA
ATOM     12  O   UNL     1     -38.062 -45.820 103.150  1.00  0.00    -0.550 OA
ENDBRANCH   9  10
ENDBRANCH   8   9
ENDBRANCH   7   8
ENDBRANCH   6   7
ENDBRANCH   5   6
ENDBRANCH   4   5
ENDBRANCH   3   4
ENDBRANCH   1   3
BRANCH   2  13
ATOM     13  C   UNL     1     -42.682 -39.823 108.853  1.00  0.00     0.027 C 
BRANCH  13  14
ATOM     14  C   UNL     1     -43.782 -38.770 108.646  1.00  0.00     0.004 C 
BRANCH  14  15
ATOM     15  C   UNL     1     -44.799 -39.173 107.563  1.00  0.00     0.000 C 
BRANCH  15  16
ATOM     16  C   UNL     1     -44.617 -38.472 106.205  1.00  0.00     0.000 C 
BRANCH  16  17
ATOM     17  C   UNL     1     -44.415 -36.955 106.336  1.00  0.00    -0.000 C 
BRANCH  17  18
ATOM     18  C   UNL     1     -43.070 -36.525 105.742  1.00  0.00    -0.000 C 
BRANCH  18  19
ATOM     19  C   UNL     1     -42.240 -35.742 106.765  1.00  0.00    -0.003 C 
ATOM     20  C   UNL     1     -43.123 -35.173 107.872  1.00  0.00     0.004 C 
ENDBRANCH  18  19
ENDBRANCH  17  18
ENDBRANCH  16  17
ENDBRANCH  15  16
ENDBRANCH  14  15
ENDBRANCH  13  14
ENDBRANCH   2  13
TORSDOF 15
ENDMDL
MODEL 2
REMARK VINA RESULT:    -6.368      1.997      3.097
REMARK INTER + INTRA:         -13.915
REMARK INTER:                 -11.273
REMARK INTRA:                  -2.642
REMARK UNBOUND:                -1.964
REMARK SMILES CCCCCCCCC=CCCCCCCCC(=O)[O-]
REMARK SMILES IDX 10 1 9 2 11 3 12 4 13 5 14 6 15 7 16 8 17 9 18 10 19 11
REMARK SMILES IDX 20 12 8 13 7 14 6 15 5 16 4 17 3 18 2 19 1 20
REMARK H PARENT
REMARK Flexibility Score: inf
ROOT
ATOM      1  C   UNL     1     -42.465 -40.097 108.842  1.00  0.00    -0.031 C 
ATOM      2  C   UNL     1     -43.291 -39.057 109.039  1.00  0.00    -0.031 C 
ENDROOT
BRANCH   1   3
ATOM      3  C   UNL     1     -41.158 -40.213 109.576  1.00  0.00     0.027 C 
BRANCH   3   4
ATOM      4  C   UNL     1     -39.994 -40.429 108.598  1.00  0.00     0.004 C 
BRANCH   4   5
ATOM      5  C   UNL     1     -39.945 -39.369 107.485  1.00  0.00     0.000 C 
BRANCH   5   6
ATOM      6  C   UNL     1     -39.787 -39.966 106.071  1.00  0.00     0.000 C 
BRANCH   6   7
ATOM      7  C   UNL     1     -40.399 -41.374 105.963  1.00  0.00     0.000 C 
BRANCH   7   8
ATOM      8  C   UNL     1     -41.727 -41.390 105.185  1.00  0.00     0.006 C 
BRANCH   8   9
ATOM      9  C   UNL     1     -41.702 -42.251 103.912  1.00  0.00     0.053 C 
BRANCH   9  10
ATOM     10  C   UNL     1     -40.810 -41.669 102.860  1.00  0.00     0.041 C 
ATOM     11  O   UNL     1     -40.843 -40.434 102.612  1.00  0.00    -0.550 OA
ATOM     12  O   UNL     1     -39.964 -42.494 102.129  1.00  0.00    -0.550 OA
ENDBRANCH   9  10
ENDBRANCH   8   9
ENDBRANCH   7   8
ENDBRANCH   6   7
ENDBRANCH   5   6
ENDBRANCH   4   5
ENDBRANCH   3   4
ENDBRANCH   1   3
BRANCH   2  13
ATOM     13  C   UNL     1     -44.609 -38.952 108.322  1.00  0.00     0.027 C 
BRANCH  13  14
ATOM     14  C   UNL     1     -44.734 -40.032 107.236  1.00  0.00     0.004 C 
BRANCH  14  15
ATOM     15  C   UNL     1     -44.841 -39.445 105.817  1.00  0.00     0.000 C 
BRANCH  15  16
ATOM     16  C   UNL     1     -44.470 -37.956 105.698  1.00  0.00     0.000 C 
BRANCH  16  17
ATOM     17  C   UNL     1     -42.984 -37.733 105.376  1.00  0.00    -0.000 C 
BRANCH  17  18
ATOM     18  C   UNL     1     -42.536 -36.328 105.791  1.00  0.00    -0.000 C 
BRANCH  18  19
ATOM     19  C   UNL     1     -43.643 -35.601 106.562  1.00  0.00    -0.003 C 
ATOM     20  C   UNL     1     -43.188 -35.241 107.973  1.00  0.00     0.004 C 
ENDBRANCH  18  19
ENDBRANCH  17  18
ENDBRANCH  16  17
ENDBRANCH  15  16
ENDBRANCH  14  15
ENDBRANCH  13  14
ENDBRANCH   2  13
TORSDOF 15
ENDMDL
MODEL 3
REMARK VINA RESULT:    -6.313      3.278      7.701
REMARK INTER + INTRA:         -13.814
REMARK INTER:                 -11.730
REMARK INTRA:                  -2.084
REMARK UNBOUND:                -1.964
REMARK SMILES CCCCCCCCC=CCCCCCCCC(=O)[O-]
REMARK SMILES IDX 10 1 9 2 11 3 12 4 13 5 14 6 15 7 16 8 17 9 18 10 19 11
REMARK SMILES IDX 20 12 8 13 7 14 6 15 5 16 4 17 3 18 2 19 1 20
REMARK H PARENT
REMARK Flexibility Score: inf
ROOT
ATOM      1  C   UNL     1     -41.489 -41.975 104.414  1.00  0.00    -0.031 C 
ATOM      2  C   UNL     1     -41.848 -42.024 103.122  1.00  0.00    -0.031 C 
ENDROOT
BRANCH   1   3
ATOM      3  C   UNL     1     -41.894 -40.831 105.302  1.00  0.00     0.027 C 
BRANCH   3   4
ATOM      4  C   UNL     1     -43.315 -41.032 105.845  1.00  0.00     0.004 C 
BRANCH   4   5
ATOM      5  C   UNL     1     -44.347 -40.104 105.181  1.00  0.00     0.000 C 
BRANCH   5   6
ATOM      6  C   UNL     1     -43.752 -38.764 104.699  1.00  0.00     0.000 C 
BRANCH   6   7
ATOM      7  C   UNL     1     -44.217 -37.578 105.563  1.00  0.00     0.000 C 
BRANCH   7   8
ATOM      8  C   UNL     1     -43.190 -37.184 106.639  1.00  0.00     0.006 C 
BRANCH   8   9
ATOM      9  C   UNL     1     -43.748 -37.177 108.071  1.00  0.00     0.053 C 
BRANCH   9  10
ATOM     10  C   UNL     1     -43.843 -38.558 108.641  1.00  0.00     0.041 C 
ATOM     11  O   UNL     1     -42.845 -39.084 109.201  1.00  0.00    -0.550 OA
ATOM     12  O   UNL     1     -45.026 -39.279 108.526  1.00  0.00    -0.550 OA
ENDBRANCH   9  10
ENDBRANCH   8   9
ENDBRANCH   7   8
ENDBRANCH   6   7
ENDBRANCH   5   6
ENDBRANCH   4   5
ENDBRANCH   3   4
ENDBRANCH   1   3
BRANCH   2  13
ATOM     13  C   UNL     1     -41.461 -43.179 102.240  1.00  0.00     0.027 C 
BRANCH  13  14
ATOM     14  C   UNL     1     -40.600 -44.195 103.007  1.00  0.00     0.004 C 
BRANCH  14  15
ATOM     15  C   UNL     1     -39.318 -44.584 102.249  1.00  0.00     0.000 C 
BRANCH  15  16
ATOM     16  C   UNL     1     -38.041 -43.859 102.711  1.00  0.00     0.000 C 
BRANCH  16  17
ATOM     17  C   UNL     1     -37.853 -42.491 102.039  1.00  0.00    -0.000 C 
BRANCH  17  18
ATOM     18  C   UNL     1     -38.073 -41.351 103.039  1.00  0.00    -0.000 C 
BRANCH  18  19
ATOM     19  C   UNL     1     -37.500 -41.707 104.415  1.00  0.00    -0.003 C 
ATOM     20  C   UNL     1     -36.888 -40.483 105.091  1.00  0.00     0.004 C 
ENDBRANCH  18  19
ENDBRANCH  17  18
ENDBRANCH  16  17
ENDBRANCH  15  16
ENDBRANCH  14  15
ENDBRANCH  13  14
ENDBRANCH   2  13
TORSDOF 15
ENDMDL
MODEL 4
REMARK VINA RESULT:    -6.225      3.508      8.000
REMARK INTER + INTRA:         -13.647
REMARK INTER:                 -11.686
REMARK INTRA:                  -1.962
REMARK UNBOUND:                -1.964
REMARK SMILES CCCCCCCCC=CCCCCCCCC(=O)[O-]
REMARK SMILES IDX 10 1 9 2 11 3 12 4 13 5 14 6 15 7 16 8 17 9 18 10 19 11
REMARK SMILES IDX 20 12 8 13 7 14 6 15 5 16 4 17 3 18 2 19 1 20
REMARK H PARENT
REMARK Flexibility Score: inf
ROOT
ATOM      1  C   UNL     1     -40.349 -39.907 105.623  1.00  0.00    -0.031 C 
ATOM      2  C   UNL     1     -39.687 -41.054 105.408  1.00  0.00    -0.031 C 
ENDROOT
BRANCH   1   3
ATOM      3  C   UNL     1     -41.823 -39.786 105.351  1.00  0.00     0.027 C 
BRANCH   3   4
ATOM      4  C   UNL     1     -42.623 -40.794 106.189  1.00  0.00     0.004 C 
BRANCH   4   5
ATOM      5  C   UNL     1     -44.135 -40.731 105.917  1.00  0.00     0.000 C 
BRANCH   5   6
ATOM      6  C   UNL     1     -44.847 -39.575 106.649  1.00  0.00     0.000 C 
BRANCH   6   7
ATOM      7  C   UNL     1     -44.333 -39.394 108.088  1.00  0.00     0.000 C 
BRANCH   7   8
ATOM      8  C   UNL     1     -43.852 -37.960 108.374  1.00  0.00     0.006 C 
BRANCH   8   9
ATOM      9  C   UNL     1     -43.773 -37.061 107.130  1.00  0.00     0.053 C 
BRANCH   9  10
ATOM     10  C   UNL     1     -42.767 -35.964 107.296  1.00  0.00     0.041 C 
ATOM     11  O   UNL     1     -41.603 -36.095 106.832  1.00  0.00    -0.550 OA
ATOM     12  O   UNL     1     -43.106 -34.809 107.990  1.00  0.00    -0.550 OA
ENDBRANCH   9  10
ENDBRANCH   8   9
ENDBRANCH   7   8
ENDBRANCH   6   7
ENDBRANCH   5   6
ENDBRANCH   4   5
ENDBRANCH   3   4
ENDBRANCH   1   3
BRANCH   2  13
ATOM     13  C   UNL     1     -38.217 -41.181 105.701  1.00  0.00     0.027 C 
BRANCH  13  14
ATOM     14  C   UNL     1     -37.382 -40.993 104.425  1.00  0.00     0.004 C 
BRANCH  14  15
ATOM     15  C   UNL     1     -38.103 -41.490 103.159  1.00  0.00     0.000 C 
BRANCH  15  16
ATOM     16  C   UNL     1     -37.537 -42.786 102.552  1.00  0.00     0.000 C 
BRANCH  16  17
ATOM     17  C   UNL     1     -38.532 -43.955 102.604  1.00  0.00    -0.000 C 
BRANCH  17  18
ATOM     18  C   UNL     1     -39.833 -43.604 101.875  1.00  0.00    -0.000 C 
BRANCH  18  19
ATOM     19  C   UNL     1     -41.034 -43.677 102.825  1.00  0.00    -0.003 C 
ATOM     20  C   UNL     1     -41.915 -42.438 102.696  1.00  0.00     0.004 C 
ENDBRANCH  18  19
ENDBRANCH  17  18
ENDBRANCH  16  17
ENDBRANCH  15  16
ENDBRANCH  14  15
ENDBRANCH  13  14
ENDBRANCH   2  13
TORSDOF 15
ENDMDL
MODEL 5
REMARK VINA RESULT:    -6.196      3.558      7.445
REMARK INTER + INTRA:         -13.593
REMARK INTER:                 -11.533
REMARK INTRA:                  -2.060
REMARK UNBOUND:                -1.964
REMARK SMILES CCCCCCCCC=CCCCCCCCC(=O)[O-]
REMARK SMILES IDX 10 1 9 2 11 3 12 4 13 5 14 6 15 7 16 8 17 9 18 10 19 11
REMARK SMILES IDX 20 12 8 13 7 14 6 15 5 16 4 17 3 18 2 19 1 20
REMARK H PARENT
REMARK Flexibility Score: inf
ROOT
ATOM      1  C   UNL     1     -41.303 -40.389 106.431  1.00  0.00    -0.031 C 
ATOM      2  C   UNL     1     -41.660 -41.377 105.595  1.00  0.00    -0.031 C 
ENDROOT
BRANCH   1   3
ATOM      3  C   UNL     1     -41.328 -40.574 107.923  1.00  0.00     0.027 C 
BRANCH   3   4
ATOM      4  C   UNL     1     -42.381 -39.666 108.574  1.00  0.00     0.004 C 
BRANCH   4   5
ATOM      5  C   UNL     1     -43.823 -40.105 108.263  1.00  0.00     0.000 C 
BRANCH   5   6
ATOM      6  C   UNL     1     -44.674 -39.002 107.601  1.00  0.00     0.000 C 
BRANCH   6   7
ATOM      7  C   UNL     1     -44.796 -39.196 106.080  1.00  0.00     0.000 C 
BRANCH   7   8
ATOM      8  C   UNL     1     -44.472 -37.917 105.286  1.00  0.00     0.006 C 
BRANCH   8   9
ATOM      9  C   UNL     1     -43.008 -37.461 105.396  1.00  0.00     0.053 C 
BRANCH   9  10
ATOM     10  C   UNL     1     -42.883 -36.149 106.106  1.00  0.00     0.041 C 
ATOM     11  O   UNL     1     -43.893 -35.412 106.259  1.00  0.00    -0.550 OA
ATOM     12  O   UNL     1     -41.645 -35.724 106.570  1.00  0.00    -0.550 OA
ENDBRANCH   9  10
ENDBRANCH   8   9
ENDBRANCH   7   8
ENDBRANCH   6   7
ENDBRANCH   5   6
ENDBRANCH   4   5
ENDBRANCH   3   4
ENDBRANCH   1   3
BRANCH   2  13
ATOM     13  C   UNL     1     -41.613 -41.199 104.103  1.00  0.00     0.027 C 
BRANCH  13  14
ATOM     14  C   UNL     1     -41.533 -42.557 103.387  1.00  0.00     0.004 C 
BRANCH  14  15
ATOM     15  C   UNL     1     -40.607 -42.532 102.158  1.00  0.00     0.000 C 
BRANCH  15  16
ATOM     16  C   UNL     1     -39.572 -41.392 102.144  1.00  0.00     0.000 C 
BRANCH  16  17
ATOM     17  C   UNL     1     -38.142 -41.885 101.875  1.00  0.00    -0.000 C 
BRANCH  17  18
ATOM     18  C   UNL     1     -37.372 -42.080 103.186  1.00  0.00    -0.000 C 
BRANCH  18  19
ATOM     19  C   UNL     1     -37.892 -41.138 104.277  1.00  0.00    -0.003 C 
ATOM     20  C   UNL     1     -36.754 -40.636 105.161  1.00  0.00     0.004 C 
ENDBRANCH  18  19
ENDBRANCH  17  18
ENDBRANCH  16  17
ENDBRANCH  15  16
ENDBRANCH  14  15
ENDBRANCH  13  14
ENDBRANCH   2  13
TORSDOF 15
ENDMDL
MODEL 6
REMARK VINA RESULT:    -6.195      1.693      2.628
REMARK INTER + INTRA:         -13.592
REMARK INTER:                 -11.385
REMARK INTRA:                  -2.207
REMARK UNBOUND:                -1.964
REMARK SMILES CCCCCCCCC=CCCCCCCCC(=O)[O-]
REMARK SMILES IDX 10 1 9 2 11 3 12 4 13 5 14 6 15 7 16 8 17 9 18 10 19 11
REMARK SMILES IDX 20 12 8 13 7 14 6 15 5 16 4 17 3 18 2 19 1 20
REMARK H PARENT
REMARK Flexibility Score: inf
ROOT
ATOM      1  C   UNL     1     -41.427 -40.816 106.999  1.00  0.00    -0.031 C 
ATOM      2  C   UNL     1     -41.177 -40.355 108.234  1.00  0.00    -0.031 C 
ENDROOT
BRANCH   1   3
ATOM      3  C   UNL     1     -40.317 -41.246 106.079  1.00  0.00     0.027 C 
BRANCH   3   4
ATOM      4  C   UNL     1     -40.205 -40.303 104.873  1.00  0.00     0.004 C 
BRANCH   4   5
ATOM      5  C   UNL     1     -40.497 -41.005 103.536  1.00  0.00     0.000 C 
BRANCH   5   6
ATOM      6  C   UNL     1     -41.002 -42.453 103.696  1.00  0.00     0.000 C 
BRANCH   6   7
ATOM      7  C   UNL     1     -41.263 -43.132 102.339  1.00  0.00     0.000 C 
BRANCH   7   8
ATOM      8  C   UNL     1     -40.115 -44.061 101.906  1.00  0.00     0.006 C 
BRANCH   8   9
ATOM      9  C   UNL     1     -38.985 -44.192 102.940  1.00  0.00     0.053 C 
BRANCH   9  10
ATOM     10  C   UNL     1     -39.066 -45.480 103.699  1.00  0.00     0.041 C 
ATOM     11  O   UNL     1     -38.519 -46.519 103.245  1.00  0.00    -0.550 OA
ATOM     12  O   UNL     1     -39.774 -45.540 104.893  1.00  0.00    -0.550 OA
ENDBRANCH   9  10
ENDBRANCH   8   9
ENDBRANCH   7   8
ENDBRANCH   6   7
ENDBRANCH   5   6
ENDBRANCH   4   5
ENDBRANCH   3   4
ENDBRANCH   1   3
BRANCH   2  13
ATOM     13  C   UNL     1     -42.287 -39.947 109.162  1.00  0.00     0.027 C 
BRANCH  13  14
ATOM     14  C   UNL     1     -43.195 -38.895 108.507  1.00  0.00     0.004 C 
BRANCH  14  15
ATOM     15  C   UNL     1     -44.640 -39.388 108.314  1.00  0.00     0.000 C 
BRANCH  15  16
ATOM     16  C   UNL     1     -45.083 -39.553 106.849  1.00  0.00     0.000 C 
BRANCH  16  17
ATOM     17  C   UNL     1     -44.628 -38.392 105.952  1.00  0.00    -0.000 C 
BRANCH  17  18
ATOM     18  C   UNL     1     -43.669 -38.883 104.862  1.00  0.00    -0.000 C 
BRANCH  18  19
ATOM     19  C   UNL     1     -44.057 -40.283 104.375  1.00  0.00    -0.003 C 
ATOM     20  C   UNL     1     -44.159 -40.330 102.853  1.00  0.00     0.004 C 
ENDBRANCH  18  19
ENDBRANCH  17  18
ENDBRANCH  16  17
ENDBRANCH  15  16
ENDBRANCH  14  15
ENDBRANCH  13  14
ENDBRANCH   2  13
TORSDOF 15
ENDMDL
MODEL 7
REMARK VINA RESULT:    -6.181      3.387      7.688
REMARK INTER + INTRA:         -13.564
REMARK INTER:                 -11.683
REMARK INTRA:                  -1.881
REMARK UNBOUND:                -1.964
REMARK SMILES CCCCCCCCC=CCCCCCCCC(=O)[O-]
REMARK SMILES IDX 10 1 9 2 11 3 12 4 13 5 14 6 15 7 16 8 17 9 18 10 19 11
REMARK SMILES IDX 20 12 8 13 7 14 6 15 5 16 4 17 3 18 2 19 1 20
REMARK H PARENT
REMARK Flexibility Score: inf
ROOT
ATOM      1  C   UNL     1     -41.217 -39.787 107.843  1.00  0.00    -0.031 C 
ATOM      2  C   UNL     1     -41.087 -40.591 106.777  1.00  0.00    -0.031 C 
ENDROOT
BRANCH   1   3
ATOM      3  C   UNL     1     -42.250 -40.045 108.904  1.00  0.00     0.027 C 
BRANCH   3   4
ATOM      4  C   UNL     1     -43.246 -38.881 108.999  1.00  0.00     0.004 C 
BRANCH   4   5
ATOM      5  C   UNL     1     -44.608 -39.204 108.361  1.00  0.00     0.000 C 
BRANCH   5   6
ATOM      6  C   UNL     1     -44.502 -39.740 106.918  1.00  0.00     0.000 C 
BRANCH   6   7
ATOM      7  C   UNL     1     -44.749 -38.640 105.870  1.00  0.00     0.000 C 
BRANCH   7   8
ATOM      8  C   UNL     1     -43.521 -37.740 105.648  1.00  0.00     0.006 C 
BRANCH   8   9
ATOM      9  C   UNL     1     -43.736 -36.270 106.043  1.00  0.00     0.053 C 
BRANCH   9  10
ATOM     10  C   UNL     1     -42.660 -35.774 106.959  1.00  0.00     0.041 C 
ATOM     11  O   UNL     1     -41.469 -36.152 106.802  1.00  0.00    -0.550 OA
ATOM     12  O   UNL     1     -42.978 -34.919 108.007  1.00  0.00    -0.550 OA
ENDBRANCH   9  10
ENDBRANCH   8   9
ENDBRANCH   7   8
ENDBRANCH   6   7
ENDBRANCH   5   6
ENDBRANCH   4   5
ENDBRANCH   3   4
ENDBRANCH   1   3
BRANCH   2  13
ATOM     13  C   UNL     1     -40.039 -40.345 105.727  1.00  0.00     0.027 C 
BRANCH  13  14
ATOM     14  C   UNL     1     -40.677 -40.164 104.341  1.00  0.00     0.004 C 
BRANCH  14  15
ATOM     15  C   UNL     1     -41.970 -40.981 104.166  1.00  0.00     0.000 C 
BRANCH  15  16
ATOM     16  C   UNL     1     -41.880 -42.136 103.153  1.00  0.00     0.000 C 
BRANCH  16  17
ATOM     17  C   UNL     1     -41.073 -43.332 103.678  1.00  0.00    -0.000 C 
BRANCH  17  18
ATOM     18  C   UNL     1     -39.739 -43.465 102.936  1.00  0.00    -0.000 C 
BRANCH  18  19
ATOM     19  C   UNL     1     -39.804 -44.572 101.879  1.00  0.00    -0.003 C 
ATOM     20  C   UNL     1     -40.005 -45.940 102.524  1.00  0.00     0.004 C 
ENDBRANCH  18  19
ENDBRANCH  17  18
ENDBRANCH  16  17
ENDBRANCH  15  16
ENDBRANCH  14  15
ENDBRANCH  13  14
ENDBRANCH   2  13
TORSDOF 15
ENDMDL
MODEL 8
REMARK VINA RESULT:    -6.149      1.478      2.847
REMARK INTER + INTRA:         -13.505
REMARK INTER:                 -11.641
REMARK INTRA:                  -1.864
REMARK UNBOUND:                -1.964
REMARK SMILES CCCCCCCCC=CCCCCCCCC(=O)[O-]
REMARK SMILES IDX 10 1 9 2 11 3 12 4 13 5 14 6 15 7 16 8 17 9 18 10 19 11
REMARK SMILES IDX 20 12 8 13 7 14 6 15 5 16 4 17 3 18 2 19 1 20
REMARK H PARENT
REMARK Flexibility Score: inf
ROOT
ATOM      1  C   UNL     1     -40.993 -39.253 104.891  1.00  0.00    -0.031 C 
ATOM      2  C   UNL     1     -42.305 -38.991 104.788  1.00  0.00    -0.031 C 
ENDROOT
BRANCH   1   3
ATOM      3  C   UNL     1     -40.408 -40.547 104.396  1.00  0.00     0.027 C 
BRANCH   3   4
ATOM      4  C   UNL     1     -40.506 -40.649 102.868  1.00  0.00     0.004 C 
BRANCH   4   5
ATOM      5  C   UNL     1     -39.218 -41.184 102.220  1.00  0.00     0.000 C 
BRANCH   5   6
ATOM      6  C   UNL     1     -38.034 -41.300 103.202  1.00  0.00     0.000 C 
BRANCH   6   7
ATOM      7  C   UNL     1     -37.271 -42.626 103.039  1.00  0.00     0.000 C 
BRANCH   7   8
ATOM      8  C   UNL     1     -38.093 -43.702 102.308  1.00  0.00     0.006 C 
BRANCH   8   9
ATOM      9  C   UNL     1     -38.374 -44.959 103.147  1.00  0.00     0.053 C 
BRANCH   9  10
ATOM     10  C   UNL     1     -39.638 -44.831 103.939  1.00  0.00     0.041 C 
ATOM     11  O   UNL     1     -39.718 -45.332 105.092  1.00  0.00    -0.550 OA
ATOM     12  O   UNL     1     -40.740 -44.186 103.391  1.00  0.00    -0.550 OA
ENDBRANCH   9  10
ENDBRANCH   8   9
ENDBRANCH   7   8
ENDBRANCH   6   7
ENDBRANCH   5   6
ENDBRANCH   4   5
ENDBRANCH   3   4
ENDBRANCH   1   3
BRANCH   2  13
ATOM     13  C   UNL     1     -42.886 -37.688 105.263  1.00  0.00     0.027 C 
BRANCH  13  14
ATOM     14  C   UNL     1     -44.313 -37.882 105.799  1.00  0.00     0.004 C 
BRANCH  14  15
ATOM     15  C   UNL     1     -44.690 -39.364 105.972  1.00  0.00     0.000 C 
BRANCH  15  16
ATOM     16  C   UNL     1     -44.649 -39.883 107.421  1.00  0.00     0.000 C 
BRANCH  16  17
ATOM     17  C   UNL     1     -44.401 -38.769 108.449  1.00  0.00    -0.000 C 
BRANCH  17  18
ATOM     18  C   UNL     1     -43.174 -39.081 109.313  1.00  0.00    -0.000 C 
BRANCH  18  19
ATOM     19  C   UNL     1     -42.121 -39.857 108.515  1.00  0.00    -0.003 C 
ATOM     20  C   UNL     1     -41.202 -40.650 109.440  1.00  0.00     0.004 C 
ENDBRANCH  18  19
ENDBRANCH  17  18
ENDBRANCH  16  17
ENDBRANCH  15  16
ENDBRANCH  14  15
ENDBRANCH  13  14
ENDBRANCH   2  13
TORSDOF 15
ENDMDL
MODEL 9
REMARK VINA RESULT:    -6.075      1.618      2.541
REMARK INTER + INTRA:         -13.366
REMARK INTER:                 -11.163
REMARK INTRA:                  -2.203
REMARK UNBOUND:                -1.964
REMARK SMILES CCCCCCCCC=CCCCCCCCC(=O)[O-]
REMARK SMILES IDX 10 1 9 2 11 3 12 4 13 5 14 6 15 7 16 8 17 9 18 10 19 11
REMARK SMILES IDX 20 12 8 13 7 14 6 15 5 16 4 17 3 18 2 19 1 20
REMARK H PARENT
REMARK Flexibility Score: inf
ROOT
ATOM      1  C   UNL     1     -41.297 -40.787 106.406  1.00  0.00    -0.031 C 
ATOM      2  C   UNL     1     -42.249 -41.358 105.652  1.00  0.00    -0.031 C 
ENDROOT
BRANCH   1   3
ATOM      3  C   UNL     1     -39.881 -41.293 106.404  1.00  0.00     0.027 C 
BRANCH   3   4
ATOM      4  C   UNL     1     -39.035 -40.561 105.353  1.00  0.00     0.004 C 
BRANCH   4   5
ATOM      5  C   UNL     1     -39.081 -41.237 103.972  1.00  0.00     0.000 C 
BRANCH   5   6
ATOM      6  C   UNL     1     -39.975 -40.500 102.953  1.00  0.00     0.000 C 
BRANCH   6   7
ATOM      7  C   UNL     1     -40.530 -41.448 101.875  1.00  0.00     0.000 C 
BRANCH   7   8
ATOM      8  C   UNL     1     -41.168 -42.717 102.467  1.00  0.00     0.006 C 
BRANCH   8   9
ATOM      9  C   UNL     1     -40.552 -44.030 101.956  1.00  0.00     0.053 C 
BRANCH   9  10
ATOM     10  C   UNL     1     -40.303 -45.000 103.070  1.00  0.00     0.041 C 
ATOM     11  O   UNL     1     -40.329 -46.240 102.849  1.00  0.00    -0.550 OA
ATOM     12  O   UNL     1     -40.071 -44.535 104.358  1.00  0.00    -0.550 OA
ENDBRANCH   9  10
ENDBRANCH   8   9
ENDBRANCH   7   8
ENDBRANCH   6   7
ENDBRANCH   5   6
ENDBRANCH   4   5
ENDBRANCH   3   4
ENDBRANCH   1   3
BRANCH   2  13
ATOM     13  C   UNL     1     -43.660 -40.838 105.637  1.00  0.00     0.027 C 
BRANCH  13  14
ATOM     14  C   UNL     1     -43.941 -40.041 104.354  1.00  0.00     0.004 C 
BRANCH  14  15
ATOM     15  C   UNL     1     -44.160 -38.541 104.618  1.00  0.00     0.000 C 
BRANCH  15  16
ATOM     16  C   UNL     1     -42.940 -37.793 105.184  1.00  0.00     0.000 C 
BRANCH  16  17
ATOM     17  C   UNL     1     -43.325 -36.558 106.011  1.00  0.00    -0.000 C 
BRANCH  17  18
ATOM     18  C   UNL     1     -44.301 -36.929 107.133  1.00  0.00    -0.000 C 
BRANCH  18  19
ATOM     19  C   UNL     1     -43.587 -37.688 108.256  1.00  0.00    -0.003 C 
ATOM     20  C   UNL     1     -44.310 -38.990 108.589  1.00  0.00     0.004 C 
ENDBRANCH  18  19
ENDBRANCH  17  18
ENDBRANCH  16  17
ENDBRANCH  15  16
ENDBRANCH  14  15
ENDBRANCH  13  14
ENDBRANCH   2  13
TORSDOF 15
ENDMDL
