MODEL 1
REMARK VINA RESULT:    -4.204      0.000      0.000
REMARK INTER + INTRA:          -5.325
REMARK INTER:                  -5.064
REMARK INTRA:                  -0.261
REMARK UNBOUND:                -0.261
REMARK SMILES O=c1c(O)c(-c2ccc(O)cc2O)oc2cc(O)cc(O)c12
REMARK SMILES IDX 5 1 3 2 2 3 1 4 22 5 20 6 19 7 17 8 16 9 15 10 14 11 6 12
REMARK SMILES IDX 8 13 7 14 9 15 11 16 12 17 10 18 13 20 4 22 21 24 18 26
REMARK H PARENT 10 19 13 21 4 23 21 25 18 27
REMARK Flexibility Score: inf
ROOT
ATOM      1  C   UNL     1     178.827 173.090 168.933  1.00  0.00     0.184 A 
ATOM      2  C   UNL     1     179.358 172.452 167.799  1.00  0.00     0.208 A 
ATOM      3  C   UNL     1     180.573 172.912 167.269  1.00  0.00     0.238 A 
ATOM      4  O   UNL     1     181.058 172.348 166.250  1.00  0.00    -0.285 OA
ATOM      5  C   UNL     1     181.235 173.995 167.883  1.00  0.00     0.111 A 
ATOM      6  C   UNL     1     182.463 174.519 167.413  1.00  0.00     0.134 A 
ATOM      7  C   UNL     1     183.061 175.597 168.083  1.00  0.00     0.093 A 
ATOM      8  C   UNL     1     182.455 176.160 169.212  1.00  0.00     0.123 A 
ATOM      9  C   UNL     1     181.243 175.647 169.678  1.00  0.00     0.094 A 
ATOM     10  C   UNL     1     180.632 174.574 169.025  1.00  0.00     0.146 A 
ATOM     11  O   UNL     1     179.478 174.108 169.490  1.00  0.00    -0.451 OA
ENDROOT
BRANCH   1  12
ATOM     12  C   UNL     1     177.542 172.662 169.526  1.00  0.00     0.063 A 
ATOM     13  C   UNL     1     176.160 170.879 170.441  1.00  0.00     0.047 A 
ATOM     14  C   UNL     1     177.380 171.324 169.928  1.00  0.00     0.020 A 
ATOM     15  C   UNL     1     175.082 171.760 170.553  1.00  0.00     0.119 A 
ATOM     16  C   UNL     1     175.230 173.094 170.155  1.00  0.00     0.093 A 
ATOM     17  C   UNL     1     176.452 173.555 169.648  1.00  0.00     0.130 A 
BRANCH  15  18
ATOM     18  O   UNL     1     173.869 171.301 171.062  1.00  0.00    -0.508 OA
ATOM     19  H   UNL     1     173.403 170.491 170.671  1.00  0.00     0.293 HD
ENDBRANCH  15  18
BRANCH  17  20
ATOM     20  O   UNL     1     176.555 174.904 169.299  1.00  0.00    -0.507 OA
ATOM     21  H   UNL     1     175.753 175.480 169.078  1.00  0.00     0.293 HD
ENDBRANCH  17  20
ENDBRANCH   1  12
BRANCH   2  22
ATOM     22  O   UNL     1     178.689 171.366 167.228  1.00  0.00    -0.502 OA
ATOM     23  H   UNL     1     177.863 170.957 167.648  1.00  0.00     0.293 HD
ENDBRANCH   2  22
BRANCH   6  24
ATOM     24  O   UNL     1     183.093 173.978 166.292  1.00  0.00    -0.507 OA
ATOM     25  H   UNL     1     183.377 174.555 165.510  1.00  0.00     0.293 HD
ENDBRANCH   6  24
BRANCH   8  26
ATOM     26  O   UNL     1     183.049 177.230 169.876  1.00  0.00    -0.508 OA
ATOM     27  H   UNL     1     182.820 178.190 169.646  1.00  0.00     0.293 HD
ENDBRANCH   8  26
TORSDOF 6
ENDMDL
MODEL 2
REMARK VINA RESULT:    -2.841      1.385      3.242
REMARK INTER + INTRA:          -3.683
REMARK INTER:                  -4.035
REMARK INTRA:                   0.352
REMARK UNBOUND:                -0.261
REMARK SMILES O=c1c(O)c(-c2ccc(O)cc2O)oc2cc(O)cc(O)c12
REMARK SMILES IDX 5 1 3 2 2 3 1 4 22 5 20 6 19 7 17 8 16 9 15 10 14 11 6 12
REMARK SMILES IDX 8 13 7 14 9 15 11 16 12 17 10 18 13 20 4 22 21 24 18 26
REMARK H PARENT 10 19 13 21 4 23 21 25 18 27
REMARK Flexibility Score: inf
ROOT
ATOM      1  C   UNL     1     178.184 174.114 169.687  1.00  0.00     0.184 A 
ATOM      2  C   UNL     1     178.397 175.380 170.258  1.00  0.00     0.208 A 
ATOM      3  C   UNL     1     179.565 176.084 169.929  1.00  0.00     0.238 A 
ATOM      4  O   UNL     1     179.769 177.220 170.437  1.00  0.00    -0.285 OA
ATOM      5  C   UNL     1     180.493 175.513 169.033  1.00  0.00     0.111 A 
ATOM      6  C   UNL     1     181.693 176.157 168.647  1.00  0.00     0.134 A 
ATOM      7  C   UNL     1     182.563 175.523 167.747  1.00  0.00     0.093 A 
ATOM      8  C   UNL     1     182.256 174.261 167.226  1.00  0.00     0.123 A 
ATOM      9  C   UNL     1     181.074 173.622 167.604  1.00  0.00     0.094 A 
ATOM     10  C   UNL     1     180.194 174.237 168.500  1.00  0.00     0.146 A 
ATOM     11  O   UNL     1     179.078 173.605 168.844  1.00  0.00    -0.451 OA
ENDROOT
BRANCH   1  12
ATOM     12  C   UNL     1     176.981 173.317 170.010  1.00  0.00     0.063 A 
ATOM     13  C   UNL     1     174.716 173.227 170.897  1.00  0.00     0.047 A 
ATOM     14  C   UNL     1     175.846 173.962 170.533  1.00  0.00     0.020 A 
ATOM     15  C   UNL     1     174.705 171.839 170.752  1.00  0.00     0.119 A 
ATOM     16  C   UNL     1     175.829 171.184 170.234  1.00  0.00     0.093 A 
ATOM     17  C   UNL     1     176.965 171.910 169.856  1.00  0.00     0.130 A 
BRANCH  15  18
ATOM     18  O   UNL     1     173.572 171.117 171.125  1.00  0.00    -0.508 OA
ATOM     19  H   UNL     1     172.833 171.539 171.675  1.00  0.00     0.293 HD
ENDBRANCH  15  18
BRANCH  17  20
ATOM     20  O   UNL     1     178.044 171.211 169.311  1.00  0.00    -0.507 OA
ATOM     21  H   UNL     1     178.478 171.462 168.433  1.00  0.00     0.293 HD
ENDBRANCH  17  20
ENDBRANCH   1  12
BRANCH   2  22
ATOM     22  O   UNL     1     177.447 175.928 171.124  1.00  0.00    -0.502 OA
ATOM     23  H   UNL     1     177.689 176.278 172.042  1.00  0.00     0.293 HD
ENDBRANCH   2  22
BRANCH   6  24
ATOM     24  O   UNL     1     182.027 177.416 169.148  1.00  0.00    -0.507 OA
ATOM     25  H   UNL     1     182.894 177.580 169.644  1.00  0.00     0.293 HD
ENDBRANCH   6  24
BRANCH   8  26
ATOM     26  O   UNL     1     183.120 173.633 166.333  1.00  0.00    -0.508 OA
ATOM     27  H   UNL     1     182.857 172.782 165.850  1.00  0.00     0.293 HD
ENDBRANCH   8  26
TORSDOF 6
ENDMDL
