MODEL 1
REMARK VINA RESULT:     1.488      0.000      0.000
REMARK INTER + INTRA:           2.228
REMARK INTER:                   2.706
REMARK INTRA:                  -0.478
REMARK UNBOUND:                -0.478
REMARK SMILES CCCCCCCCCCCCCCCC(=O)[O-]
REMARK SMILES IDX 9 1 10 2 11 3 12 4 13 5 14 6 15 7 16 8 17 9 18 10 8 11 7 12
REMARK SMILES IDX 6 13 5 14 4 15 3 16 2 17 1 18
REMARK H PARENT
REMARK Flexibility Score: inf
ROOT
ATOM      1  C   UNL     1     -17.245  35.247 -19.688  1.00  0.00     0.000 C 
ENDROOT
BRANCH   1   2
ATOM      2  C   UNL     1     -17.989  35.168 -21.036  1.00  0.00     0.000 C 
BRANCH   2   3
ATOM      3  C   UNL     1     -19.267  36.021 -21.124  1.00  0.00     0.000 C 
BRANCH   3   4
ATOM      4  C   UNL     1     -20.519  35.271 -20.637  1.00  0.00     0.000 C 
BRANCH   4   5
ATOM      5  C   UNL     1     -20.236  34.382 -19.416  1.00  0.00     0.000 C 
BRANCH   5   6
ATOM      6  C   UNL     1     -21.124  34.731 -18.213  1.00  0.00     0.006 C 
BRANCH   6   7
ATOM      7  C   UNL     1     -20.779  36.117 -17.661  1.00  0.00     0.053 C 
BRANCH   7   8
ATOM      8  C   UNL     1     -19.959  35.996 -16.416  1.00  0.00     0.041 C 
ATOM      9  O   UNL     1     -18.702  36.007 -16.482  1.00  0.00    -0.550 OA
ATOM     10  O   UNL     1     -20.582  35.923 -15.177  1.00  0.00    -0.550 OA
ENDBRANCH   7   8
ENDBRANCH   6   7
ENDBRANCH   5   6
ENDBRANCH   4   5
ENDBRANCH   3   4
ENDBRANCH   2   3
ENDBRANCH   1   2
BRANCH   1  11
ATOM     11  C   UNL     1     -16.986  33.891 -19.000  1.00  0.00     0.000 C 
BRANCH  11  12
ATOM     12  C   UNL     1     -15.511  33.605 -18.665  1.00  0.00    -0.000 C 
BRANCH  12  13
ATOM     13  C   UNL     1     -14.588  34.838 -18.712  1.00  0.00    -0.000 C 
BRANCH  13  14
ATOM     14  C   UNL     1     -14.798  35.815 -17.535  1.00  0.00    -0.000 C 
BRANCH  14  15
ATOM     15  C   UNL     1     -14.272  35.249 -16.204  1.00  0.00    -0.000 C 
BRANCH  15  16
ATOM     16  C   UNL     1     -13.164  36.121 -15.592  1.00  0.00    -0.000 C 
BRANCH  16  17
ATOM     17  C   UNL     1     -12.643  35.558 -14.261  1.00  0.00    -0.003 C 
ATOM     18  C   UNL     1     -13.006  34.084 -14.110  1.00  0.00     0.004 C 
ENDBRANCH  16  17
ENDBRANCH  15  16
ENDBRANCH  14  15
ENDBRANCH  13  14
ENDBRANCH  12  13
ENDBRANCH  11  12
ENDBRANCH   1  11
TORSDOF 14
ENDMDL
MODEL 2
REMARK VINA RESULT:     3.105      1.499      2.325
REMARK INTER + INTRA:           5.168
REMARK INTER:                   6.022
REMARK INTRA:                  -0.854
REMARK UNBOUND:                -0.478
REMARK SMILES CCCCCCCCCCCCCCCC(=O)[O-]
REMARK SMILES IDX 9 1 10 2 11 3 12 4 13 5 14 6 15 7 16 8 17 9 18 10 8 11 7 12
REMARK SMILES IDX 6 13 5 14 4 15 3 16 2 17 1 18
REMARK H PARENT
REMARK Flexibility Score: inf
ROOT
ATOM      1  C   UNL     1     -16.561  33.459 -18.880  1.00  0.00     0.000 C 
ENDROOT
BRANCH   1   2
ATOM      2  C   UNL     1     -17.157  33.433 -20.302  1.00  0.00     0.000 C 
BRANCH   2   3
ATOM      3  C   UNL     1     -16.936  34.715 -21.123  1.00  0.00     0.000 C 
BRANCH   3   4
ATOM      4  C   UNL     1     -17.647  35.939 -20.521  1.00  0.00     0.000 C 
BRANCH   4   5
ATOM      5  C   UNL     1     -19.079  36.110 -21.054  1.00  0.00     0.000 C 
BRANCH   5   6
ATOM      6  C   UNL     1     -19.960  34.881 -20.786  1.00  0.00     0.006 C 
BRANCH   6   7
ATOM      7  C   UNL     1     -21.095  35.222 -19.817  1.00  0.00     0.053 C 
BRANCH   7   8
ATOM      8  C   UNL     1     -21.013  34.369 -18.592  1.00  0.00     0.041 C 
ATOM      9  O   UNL     1     -20.918  34.901 -17.455  1.00  0.00    -0.550 OA
ATOM     10  O   UNL     1     -21.093  32.986 -18.701  1.00  0.00    -0.550 OA
ENDBRANCH   7   8
ENDBRANCH   6   7
ENDBRANCH   5   6
ENDBRANCH   4   5
ENDBRANCH   3   4
ENDBRANCH   2   3
ENDBRANCH   1   2
BRANCH   1  11
ATOM     11  C   UNL     1     -15.073  33.065 -18.785  1.00  0.00     0.000 C 
BRANCH  11  12
ATOM     12  C   UNL     1     -14.095  34.248 -18.665  1.00  0.00    -0.000 C 
BRANCH  12  13
ATOM     13  C   UNL     1     -14.751  35.593 -18.300  1.00  0.00    -0.000 C 
BRANCH  13  14
ATOM     14  C   UNL     1     -14.340  36.125 -16.909  1.00  0.00    -0.000 C 
BRANCH  14  15
ATOM     15  C   UNL     1     -13.642  35.053 -16.055  1.00  0.00    -0.000 C 
BRANCH  15  16
ATOM     16  C   UNL     1     -13.037  35.631 -14.765  1.00  0.00    -0.000 C 
BRANCH  16  17
ATOM     17  C   UNL     1     -12.467  34.541 -13.846  1.00  0.00    -0.003 C 
ATOM     18  C   UNL     1     -10.942  34.569 -13.842  1.00  0.00     0.004 C 
ENDBRANCH  16  17
ENDBRANCH  15  16
ENDBRANCH  14  15
ENDBRANCH  13  14
ENDBRANCH  12  13
ENDBRANCH  11  12
ENDBRANCH   1  11
TORSDOF 14
ENDMDL
MODEL 3
REMARK VINA RESULT:     4.366      1.146      1.597
REMARK INTER + INTRA:           7.462
REMARK INTER:                   6.713
REMARK INTRA:                   0.749
REMARK UNBOUND:                -0.478
REMARK SMILES CCCCCCCCCCCCCCCC(=O)[O-]
REMARK SMILES IDX 9 1 10 2 11 3 12 4 13 5 14 6 15 7 16 8 17 9 18 10 8 11 7 12
REMARK SMILES IDX 6 13 5 14 4 15 3 16 2 17 1 18
REMARK H PARENT
REMARK Flexibility Score: inf
ROOT
ATOM      1  C   UNL     1     -16.698  35.946 -20.554  1.00  0.00     0.000 C 
ENDROOT
BRANCH   1   2
ATOM      2  C   UNL     1     -16.874  34.492 -21.038  1.00  0.00     0.000 C 
BRANCH   2   3
ATOM      3  C   UNL     1     -18.292  33.919 -20.870  1.00  0.00     0.000 C 
BRANCH   3   4
ATOM      4  C   UNL     1     -19.360  35.012 -20.695  1.00  0.00     0.000 C 
BRANCH   4   5
ATOM      5  C   UNL     1     -20.601  34.509 -19.940  1.00  0.00     0.000 C 
BRANCH   5   6
ATOM      6  C   UNL     1     -20.941  35.379 -18.720  1.00  0.00     0.006 C 
BRANCH   6   7
ATOM      7  C   UNL     1     -19.702  36.125 -18.217  1.00  0.00     0.053 C 
BRANCH   7   8
ATOM      8  C   UNL     1     -19.154  35.463 -16.992  1.00  0.00     0.041 C 
ATOM      9  O   UNL     1     -19.395  35.941 -15.853  1.00  0.00    -0.550 OA
ATOM     10  O   UNL     1     -18.419  34.290 -17.106  1.00  0.00    -0.550 OA
ENDBRANCH   7   8
ENDBRANCH   6   7
ENDBRANCH   5   6
ENDBRANCH   4   5
ENDBRANCH   3   4
ENDBRANCH   2   3
ENDBRANCH   1   2
BRANCH   1  11
ATOM     11  C   UNL     1     -16.639  36.125 -19.023  1.00  0.00     0.000 C 
BRANCH  11  12
ATOM     12  C   UNL     1     -15.222  36.106 -18.422  1.00  0.00    -0.000 C 
BRANCH  12  13
ATOM     13  C   UNL     1     -14.292  35.021 -18.995  1.00  0.00    -0.000 C 
BRANCH  13  14
ATOM     14  C   UNL     1     -13.684  34.094 -17.919  1.00  0.00    -0.000 C 
BRANCH  14  15
ATOM     15  C   UNL     1     -14.233  34.391 -16.513  1.00  0.00    -0.000 C 
BRANCH  15  16
ATOM     16  C   UNL     1     -14.138  35.882 -16.148  1.00  0.00    -0.000 C 
BRANCH  16  17
ATOM     17  C   UNL     1     -13.282  36.125 -14.896  1.00  0.00    -0.003 C 
ATOM     18  C   UNL     1     -12.741  34.812 -14.338  1.00  0.00     0.004 C 
ENDBRANCH  16  17
ENDBRANCH  15  16
ENDBRANCH  14  15
ENDBRANCH  13  14
ENDBRANCH  12  13
ENDBRANCH  11  12
ENDBRANCH   1  11
TORSDOF 14
ENDMDL
