MODEL 1
REMARK VINA RESULT:    -4.162      0.000      0.000
REMARK INTER + INTRA:          -9.234
REMARK INTER:                  -7.569
REMARK INTRA:                  -1.665
REMARK UNBOUND:                -1.665
REMARK SMILES CCCCCCCCCCCCCCCC(=O)[O-]
REMARK SMILES IDX 9 1 10 2 11 3 12 4 13 5 14 6 15 7 16 8 17 9 18 10 8 11 7 12
REMARK SMILES IDX 6 13 5 14 4 15 3 16 2 17 1 18
REMARK H PARENT
REMARK Flexibility Score: inf
ROOT
ATOM      1  C   UNL     1       5.554   5.021   8.548  1.00  0.00     0.000 C 
ENDROOT
BRANCH   1   2
ATOM      2  C   UNL     1       7.062   5.184   8.301  1.00  0.00     0.000 C 
BRANCH   2   3
ATOM      3  C   UNL     1       7.906   4.184   9.109  1.00  0.00     0.000 C 
BRANCH   3   4
ATOM      4  C   UNL     1       9.035   3.553   8.277  1.00  0.00     0.000 C 
BRANCH   4   5
ATOM      5  C   UNL     1       8.649   2.196   7.646  1.00  0.00     0.000 C 
BRANCH   5   6
ATOM      6  C   UNL     1       8.221   2.309   6.169  1.00  0.00     0.006 C 
BRANCH   6   7
ATOM      7  C   UNL     1       8.813   3.533   5.452  1.00  0.00     0.053 C 
BRANCH   7   8
ATOM      8  C   UNL     1       7.748   4.487   5.004  1.00  0.00     0.041 C 
ATOM      9  O   UNL     1       6.555   4.100   4.897  1.00  0.00    -0.550 OA
ATOM     10  O   UNL     1       8.069   5.812   4.730  1.00  0.00    -0.550 OA
ENDBRANCH   7   8
ENDBRANCH   6   7
ENDBRANCH   5   6
ENDBRANCH   4   5
ENDBRANCH   3   4
ENDBRANCH   2   3
ENDBRANCH   1   2
BRANCH   1  11
ATOM     11  C   UNL     1       5.078   3.573   8.359  1.00  0.00     0.000 C 
BRANCH  11  12
ATOM     12  C   UNL     1       3.805   3.522   7.505  1.00  0.00    -0.000 C 
BRANCH  12  13
ATOM     13  C   UNL     1       3.217   4.928   7.309  1.00  0.00    -0.000 C 
BRANCH  13  14
ATOM     14  C   UNL     1       1.876   5.116   8.036  1.00  0.00    -0.000 C 
BRANCH  14  15
ATOM     15  C   UNL     1       1.484   3.896   8.882  1.00  0.00    -0.000 C 
BRANCH  15  16
ATOM     16  C   UNL     1       1.471   4.248  10.378  1.00  0.00    -0.000 C 
BRANCH  16  17
ATOM     17  C   UNL     1       2.582   3.534  11.162  1.00  0.00    -0.003 C 
ATOM     18  C   UNL     1       2.373   3.599  12.675  1.00  0.00     0.004 C 
ENDBRANCH  16  17
ENDBRANCH  15  16
ENDBRANCH  14  15
ENDBRANCH  13  14
ENDBRANCH  12  13
ENDBRANCH  11  12
ENDBRANCH   1  11
TORSDOF 14
ENDMDL
MODEL 2
REMARK VINA RESULT:    -4.159      1.694      3.728
REMARK INTER + INTRA:          -9.228
REMARK INTER:                  -7.819
REMARK INTRA:                  -1.409
REMARK UNBOUND:                -1.665
REMARK SMILES CCCCCCCCCCCCCCCC(=O)[O-]
REMARK SMILES IDX 9 1 10 2 11 3 12 4 13 5 14 6 15 7 16 8 17 9 18 10 8 11 7 12
REMARK SMILES IDX 6 13 5 14 4 15 3 16 2 17 1 18
REMARK H PARENT
REMARK Flexibility Score: inf
ROOT
ATOM      1  C   UNL     1       1.926   3.896   7.768  1.00  0.00     0.000 C 
ENDROOT
BRANCH   1   2
ATOM      2  C   UNL     1       2.629   5.263   7.773  1.00  0.00     0.000 C 
BRANCH   2   3
ATOM      3  C   UNL     1       3.699   5.374   8.872  1.00  0.00     0.000 C 
BRANCH   3   4
ATOM      4  C   UNL     1       4.353   4.021   9.200  1.00  0.00     0.000 C 
BRANCH   4   5
ATOM      5  C   UNL     1       5.392   3.570   8.146  1.00  0.00     0.000 C 
BRANCH   5   6
ATOM      6  C   UNL     1       6.825   3.470   8.707  1.00  0.00     0.006 C 
BRANCH   6   7
ATOM      7  C   UNL     1       7.641   4.762   8.536  1.00  0.00     0.053 C 
BRANCH   7   8
ATOM      8  C   UNL     1       7.620   5.252   7.120  1.00  0.00     0.041 C 
ATOM      9  O   UNL     1       7.182   6.402   6.855  1.00  0.00    -0.550 OA
ATOM     10  O   UNL     1       8.111   4.450   6.097  1.00  0.00    -0.550 OA
ENDBRANCH   7   8
ENDBRANCH   6   7
ENDBRANCH   5   6
ENDBRANCH   4   5
ENDBRANCH   3   4
ENDBRANCH   2   3
ENDBRANCH   1   2
BRANCH   1  11
ATOM     11  C   UNL     1       0.411   4.011   7.997  1.00  0.00     0.000 C 
BRANCH  11  12
ATOM     12  C   UNL     1      -0.042   3.095   9.141  1.00  0.00    -0.000 C 
BRANCH  12  13
ATOM     13  C   UNL     1       1.073   2.929  10.186  1.00  0.00    -0.000 C 
BRANCH  13  14
ATOM     14  C   UNL     1       1.000   3.983  11.302  1.00  0.00    -0.000 C 
BRANCH  14  15
ATOM     15  C   UNL     1       2.228   3.955  12.224  1.00  0.00    -0.000 C 
BRANCH  15  16
ATOM     16  C   UNL     1       1.853   4.394  13.648  1.00  0.00    -0.000 C 
BRANCH  16  17
ATOM     17  C   UNL     1       0.401   4.884  13.753  1.00  0.00    -0.003 C 
ATOM     18  C   UNL     1       0.265   6.157  14.589  1.00  0.00     0.004 C 
ENDBRANCH  16  17
ENDBRANCH  15  16
ENDBRANCH  14  15
ENDBRANCH  13  14
ENDBRANCH  12  13
ENDBRANCH  11  12
ENDBRANCH   1  11
TORSDOF 14
ENDMDL
MODEL 3
REMARK VINA RESULT:    -4.155      1.310      2.070
REMARK INTER + INTRA:          -9.221
REMARK INTER:                  -7.207
REMARK INTRA:                  -2.014
REMARK UNBOUND:                -1.665
REMARK SMILES CCCCCCCCCCCCCCCC(=O)[O-]
REMARK SMILES IDX 9 1 10 2 11 3 12 4 13 5 14 6 15 7 16 8 17 9 18 10 8 11 7 12
REMARK SMILES IDX 6 13 5 14 4 15 3 16 2 17 1 18
REMARK H PARENT
REMARK Flexibility Score: inf
ROOT
ATOM      1  C   UNL     1       7.668   4.527   8.567  1.00  0.00     0.000 C 
ENDROOT
BRANCH   1   2
ATOM      2  C   UNL     1       7.111   3.102   8.710  1.00  0.00     0.000 C 
BRANCH   2   3
ATOM      3  C   UNL     1       8.170   2.022   8.439  1.00  0.00     0.000 C 
BRANCH   3   4
ATOM      4  C   UNL     1       7.809   1.126   7.241  1.00  0.00     0.000 C 
BRANCH   4   5
ATOM      5  C   UNL     1       6.612   1.654   6.418  1.00  0.00     0.000 C 
BRANCH   5   6
ATOM      6  C   UNL     1       7.026   2.276   5.070  1.00  0.00     0.006 C 
BRANCH   6   7
ATOM      7  C   UNL     1       6.798   3.795   5.000  1.00  0.00     0.053 C 
BRANCH   7   8
ATOM      8  C   UNL     1       8.090   4.555   5.024  1.00  0.00     0.041 C 
ATOM      9  O   UNL     1       9.170   3.960   5.274  1.00  0.00    -0.550 OA
ATOM     10  O   UNL     1       8.103   5.916   4.742  1.00  0.00    -0.550 OA
ENDBRANCH   7   8
ENDBRANCH   6   7
ENDBRANCH   5   6
ENDBRANCH   4   5
ENDBRANCH   3   4
ENDBRANCH   2   3
ENDBRANCH   1   2
BRANCH   1  11
ATOM     11  C   UNL     1       6.563   5.576   8.374  1.00  0.00     0.000 C 
BRANCH  11  12
ATOM     12  C   UNL     1       5.191   4.906   8.223  1.00  0.00    -0.000 C 
BRANCH  12  13
ATOM     13  C   UNL     1       4.160   5.549   9.163  1.00  0.00    -0.000 C 
BRANCH  13  14
ATOM     14  C   UNL     1       2.717   5.389   8.658  1.00  0.00    -0.000 C 
BRANCH  14  15
ATOM     15  C   UNL     1       1.949   4.284   9.397  1.00  0.00    -0.000 C 
BRANCH  15  16
ATOM     16  C   UNL     1       2.619   3.956  10.741  1.00  0.00    -0.000 C 
BRANCH  16  17
ATOM     17  C   UNL     1       3.032   2.480  10.850  1.00  0.00    -0.003 C 
ATOM     18  C   UNL     1       3.431   1.876   9.504  1.00  0.00     0.004 C 
ENDBRANCH  16  17
ENDBRANCH  15  16
ENDBRANCH  14  15
ENDBRANCH  13  14
ENDBRANCH  12  13
ENDBRANCH  11  12
ENDBRANCH   1  11
TORSDOF 14
ENDMDL
MODEL 4
REMARK VINA RESULT:    -4.124      1.425      2.783
REMARK INTER + INTRA:          -9.164
REMARK INTER:                  -7.218
REMARK INTRA:                  -1.946
REMARK UNBOUND:                -1.665
REMARK SMILES CCCCCCCCCCCCCCCC(=O)[O-]
REMARK SMILES IDX 9 1 10 2 11 3 12 4 13 5 14 6 15 7 16 8 17 9 18 10 8 11 7 12
REMARK SMILES IDX 6 13 5 14 4 15 3 16 2 17 1 18
REMARK H PARENT
REMARK Flexibility Score: inf
ROOT
ATOM      1  C   UNL     1       5.492   4.775   8.331  1.00  0.00     0.000 C 
ENDROOT
BRANCH   1   2
ATOM      2  C   UNL     1       5.563   3.312   8.796  1.00  0.00     0.000 C 
BRANCH   2   3
ATOM      3  C   UNL     1       7.001   2.769   8.823  1.00  0.00     0.000 C 
BRANCH   3   4
ATOM      4  C   UNL     1       8.055   3.888   8.903  1.00  0.00     0.000 C 
BRANCH   4   5
ATOM      5  C   UNL     1       9.169   3.760   7.839  1.00  0.00     0.000 C 
BRANCH   5   6
ATOM      6  C   UNL     1       8.800   2.811   6.681  1.00  0.00     0.006 C 
BRANCH   6   7
ATOM      7  C   UNL     1       9.088   3.401   5.291  1.00  0.00     0.053 C 
BRANCH   7   8
ATOM      8  C   UNL     1       8.175   4.544   4.969  1.00  0.00     0.041 C 
ATOM      9  O   UNL     1       6.954   4.483   5.267  1.00  0.00    -0.550 OA
ATOM     10  O   UNL     1       8.679   5.689   4.363  1.00  0.00    -0.550 OA
ENDBRANCH   7   8
ENDBRANCH   6   7
ENDBRANCH   5   6
ENDBRANCH   4   5
ENDBRANCH   3   4
ENDBRANCH   2   3
ENDBRANCH   1   2
BRANCH   1  11
ATOM     11  C   UNL     1       4.464   5.596   9.123  1.00  0.00     0.000 C 
BRANCH  11  12
ATOM     12  C   UNL     1       3.260   4.732   9.522  1.00  0.00    -0.000 C 
BRANCH  12  13
ATOM     13  C   UNL     1       1.967   5.263   8.883  1.00  0.00    -0.000 C 
BRANCH  13  14
ATOM     14  C   UNL     1       1.305   4.239   7.947  1.00  0.00    -0.000 C 
BRANCH  14  15
ATOM     15  C   UNL     1       1.954   2.850   8.034  1.00  0.00    -0.000 C 
BRANCH  15  16
ATOM     16  C   UNL     1       2.219   2.281   6.631  1.00  0.00    -0.000 C 
BRANCH  16  17
ATOM     17  C   UNL     1       3.161   3.166   5.802  1.00  0.00    -0.003 C 
ATOM     18  C   UNL     1       4.461   2.456   5.424  1.00  0.00     0.004 C 
ENDBRANCH  16  17
ENDBRANCH  15  16
ENDBRANCH  14  15
ENDBRANCH  13  14
ENDBRANCH  12  13
ENDBRANCH  11  12
ENDBRANCH   1  11
TORSDOF 14
ENDMDL
MODEL 5
REMARK VINA RESULT:    -4.116      2.667      6.170
REMARK INTER + INTRA:          -9.150
REMARK INTER:                  -6.876
REMARK INTRA:                  -2.274
REMARK UNBOUND:                -1.665
REMARK SMILES CCCCCCCCCCCCCCCC(=O)[O-]
REMARK SMILES IDX 9 1 10 2 11 3 12 4 13 5 14 6 15 7 16 8 17 9 18 10 8 11 7 12
REMARK SMILES IDX 6 13 5 14 4 15 3 16 2 17 1 18
REMARK H PARENT
REMARK Flexibility Score: inf
ROOT
ATOM      1  C   UNL     1       6.125   5.521   8.351  1.00  0.00     0.000 C 
ENDROOT
BRANCH   1   2
ATOM      2  C   UNL     1       5.325   4.321   8.881  1.00  0.00     0.000 C 
BRANCH   2   3
ATOM      3  C   UNL     1       3.966   4.731   9.472  1.00  0.00     0.000 C 
BRANCH   3   4
ATOM      4  C   UNL     1       3.012   5.311   8.414  1.00  0.00     0.000 C 
BRANCH   4   5
ATOM      5  C   UNL     1       2.932   4.461   7.125  1.00  0.00     0.000 C 
BRANCH   5   6
ATOM      6  C   UNL     1       1.964   3.267   7.241  1.00  0.00     0.006 C 
BRANCH   6   7
ATOM      7  C   UNL     1       2.652   1.902   7.080  1.00  0.00     0.053 C 
BRANCH   7   8
ATOM      8  C   UNL     1       3.070   1.328   8.399  1.00  0.00     0.041 C 
ATOM      9  O   UNL     1       4.221   0.839   8.542  1.00  0.00    -0.550 OA
ATOM     10  O   UNL     1       2.197   1.357   9.480  1.00  0.00    -0.550 OA
ENDBRANCH   7   8
ENDBRANCH   6   7
ENDBRANCH   5   6
ENDBRANCH   4   5
ENDBRANCH   3   4
ENDBRANCH   2   3
ENDBRANCH   1   2
BRANCH   1  11
ATOM     11  C   UNL     1       7.535   5.130   7.884  1.00  0.00     0.000 C 
BRANCH  11  12
ATOM     12  C   UNL     1       8.167   4.110   8.841  1.00  0.00    -0.000 C 
BRANCH  12  13
ATOM     13  C   UNL     1       8.951   3.041   8.065  1.00  0.00    -0.000 C 
BRANCH  13  14
ATOM     14  C   UNL     1       8.737   3.135   6.546  1.00  0.00    -0.000 C 
BRANCH  14  15
ATOM     15  C   UNL     1       8.057   1.887   5.965  1.00  0.00    -0.000 C 
BRANCH  15  16
ATOM     16  C   UNL     1       6.540   1.925   6.207  1.00  0.00    -0.000 C 
BRANCH  16  17
ATOM     17  C   UNL     1       5.838   3.017   5.386  1.00  0.00    -0.003 C 
ATOM     18  C   UNL     1       5.313   2.505   4.045  1.00  0.00     0.004 C 
ENDBRANCH  16  17
ENDBRANCH  15  16
ENDBRANCH  14  15
ENDBRANCH  13  14
ENDBRANCH  12  13
ENDBRANCH  11  12
ENDBRANCH   1  11
TORSDOF 14
ENDMDL
MODEL 6
REMARK VINA RESULT:    -4.104     10.893     14.087
REMARK INTER + INTRA:          -9.129
REMARK INTER:                  -6.531
REMARK INTRA:                  -2.598
REMARK UNBOUND:                -1.665
REMARK SMILES CCCCCCCCCCCCCCCC(=O)[O-]
REMARK SMILES IDX 9 1 10 2 11 3 12 4 13 5 14 6 15 7 16 8 17 9 18 10 8 11 7 12
REMARK SMILES IDX 6 13 5 14 4 15 3 16 2 17 1 18
REMARK H PARENT
REMARK Flexibility Score: inf
ROOT
ATOM      1  C   UNL     1      -4.862  -2.861   6.868  1.00  0.00     0.000 C 
ENDROOT
BRANCH   1   2
ATOM      2  C   UNL     1      -4.904  -1.350   7.143  1.00  0.00     0.000 C 
BRANCH   2   3
ATOM      3  C   UNL     1      -5.947  -0.971   8.207  1.00  0.00     0.000 C 
BRANCH   3   4
ATOM      4  C   UNL     1      -6.378  -2.172   9.067  1.00  0.00     0.000 C 
BRANCH   4   5
ATOM      5  C   UNL     1      -7.913  -2.323   9.186  1.00  0.00     0.000 C 
BRANCH   5   6
ATOM      6  C   UNL     1      -8.445  -3.636   8.578  1.00  0.00     0.006 C 
BRANCH   6   7
ATOM      7  C   UNL     1      -8.368  -3.675   7.042  1.00  0.00     0.053 C 
BRANCH   7   8
ATOM      8  C   UNL     1      -7.846  -4.987   6.543  1.00  0.00     0.041 C 
ATOM      9  O   UNL     1      -7.124  -5.705   7.283  1.00  0.00    -0.550 OA
ATOM     10  O   UNL     1      -8.179  -5.430   5.268  1.00  0.00    -0.550 OA
ENDBRANCH   7   8
ENDBRANCH   6   7
ENDBRANCH   5   6
ENDBRANCH   4   5
ENDBRANCH   3   4
ENDBRANCH   2   3
ENDBRANCH   1   2
BRANCH   1  11
ATOM     11  C   UNL     1      -3.452  -3.357   6.513  1.00  0.00     0.000 C 
BRANCH  11  12
ATOM     12  C   UNL     1      -2.867  -4.205   7.650  1.00  0.00    -0.000 C 
BRANCH  12  13
ATOM     13  C   UNL     1      -3.983  -4.791   8.528  1.00  0.00    -0.000 C 
BRANCH  13  14
ATOM     14  C   UNL     1      -3.790  -4.476  10.020  1.00  0.00    -0.000 C 
BRANCH  14  15
ATOM     15  C   UNL     1      -2.613  -3.523  10.277  1.00  0.00    -0.000 C 
BRANCH  15  16
ATOM     16  C   UNL     1      -3.096  -2.224  10.942  1.00  0.00    -0.000 C 
BRANCH  16  17
ATOM     17  C   UNL     1      -2.764  -0.976  10.111  1.00  0.00    -0.003 C 
ATOM     18  C   UNL     1      -1.508  -1.151   9.257  1.00  0.00     0.004 C 
ENDBRANCH  16  17
ENDBRANCH  15  16
ENDBRANCH  14  15
ENDBRANCH  13  14
ENDBRANCH  12  13
ENDBRANCH  11  12
ENDBRANCH   1  11
TORSDOF 14
ENDMDL
MODEL 7
REMARK VINA RESULT:    -4.097     11.336     14.789
REMARK INTER + INTRA:          -9.115
REMARK INTER:                  -6.850
REMARK INTRA:                  -2.265
REMARK UNBOUND:                -1.665
REMARK SMILES CCCCCCCCCCCCCCCC(=O)[O-]
REMARK SMILES IDX 9 1 10 2 11 3 12 4 13 5 14 6 15 7 16 8 17 9 18 10 8 11 7 12
REMARK SMILES IDX 6 13 5 14 4 15 3 16 2 17 1 18
REMARK H PARENT
REMARK Flexibility Score: inf
ROOT
ATOM      1  C   UNL     1      -6.496  -0.079   8.655  1.00  0.00     0.000 C 
ENDROOT
BRANCH   1   2
ATOM      2  C   UNL     1      -7.341  -0.511   9.864  1.00  0.00     0.000 C 
BRANCH   2   3
ATOM      3  C   UNL     1      -8.791  -0.849   9.482  1.00  0.00     0.000 C 
BRANCH   3   4
ATOM      4  C   UNL     1      -9.200  -2.269   9.910  1.00  0.00     0.000 C 
BRANCH   4   5
ATOM      5  C   UNL     1      -8.897  -3.344   8.841  1.00  0.00     0.000 C 
BRANCH   5   6
ATOM      6  C   UNL     1      -9.095  -2.842   7.397  1.00  0.00     0.006 C 
BRANCH   6   7
ATOM      7  C   UNL     1      -7.913  -3.168   6.469  1.00  0.00     0.053 C 
BRANCH   7   8
ATOM      8  C   UNL     1      -7.949  -4.590   5.998  1.00  0.00     0.041 C 
ATOM      9  O   UNL     1      -8.555  -4.891   4.937  1.00  0.00    -0.550 OA
ATOM     10  O   UNL     1      -7.287  -5.579   6.717  1.00  0.00    -0.550 OA
ENDBRANCH   7   8
ENDBRANCH   6   7
ENDBRANCH   5   6
ENDBRANCH   4   5
ENDBRANCH   3   4
ENDBRANCH   2   3
ENDBRANCH   1   2
BRANCH   1  11
ATOM     11  C   UNL     1      -5.381  -1.084   8.325  1.00  0.00     0.000 C 
BRANCH  11  12
ATOM     12  C   UNL     1      -5.238  -2.129   9.439  1.00  0.00    -0.000 C 
BRANCH  12  13
ATOM     13  C   UNL     1      -5.208  -3.551   8.858  1.00  0.00    -0.000 C 
BRANCH  13  14
ATOM     14  C   UNL     1      -4.262  -4.485   9.628  1.00  0.00    -0.000 C 
BRANCH  14  15
ATOM     15  C   UNL     1      -2.841  -3.917   9.756  1.00  0.00    -0.000 C 
BRANCH  15  16
ATOM     16  C   UNL     1      -2.092  -4.008   8.417  1.00  0.00    -0.000 C 
BRANCH  16  17
ATOM     17  C   UNL     1      -1.569  -2.645   7.939  1.00  0.00    -0.003 C 
ATOM     18  C   UNL     1      -2.236  -2.175   6.647  1.00  0.00     0.004 C 
ENDBRANCH  16  17
ENDBRANCH  15  16
ENDBRANCH  14  15
ENDBRANCH  13  14
ENDBRANCH  12  13
ENDBRANCH  11  12
ENDBRANCH   1  11
TORSDOF 14
ENDMDL
MODEL 8
REMARK VINA RESULT:    -4.093     11.762     15.041
REMARK INTER + INTRA:          -9.108
REMARK INTER:                  -7.239
REMARK INTRA:                  -1.869
REMARK UNBOUND:                -1.665
REMARK SMILES CCCCCCCCCCCCCCCC(=O)[O-]
REMARK SMILES IDX 9 1 10 2 11 3 12 4 13 5 14 6 15 7 16 8 17 9 18 10 8 11 7 12
REMARK SMILES IDX 6 13 5 14 4 15 3 16 2 17 1 18
REMARK H PARENT
REMARK Flexibility Score: inf
ROOT
ATOM      1  C   UNL     1      -7.121  -3.464   9.107  1.00  0.00     0.000 C 
ENDROOT
BRANCH   1   2
ATOM      2  C   UNL     1      -8.657  -3.507   9.076  1.00  0.00     0.000 C 
BRANCH   2   3
ATOM      3  C   UNL     1      -9.245  -2.772   7.861  1.00  0.00     0.000 C 
BRANCH   3   4
ATOM      4  C   UNL     1      -8.340  -1.631   7.364  1.00  0.00     0.000 C 
BRANCH   4   5
ATOM      5  C   UNL     1      -7.966  -1.750   5.868  1.00  0.00     0.000 C 
BRANCH   5   6
ATOM      6  C   UNL     1      -6.779  -2.699   5.610  1.00  0.00     0.006 C 
BRANCH   6   7
ATOM      7  C   UNL     1      -7.032  -3.700   4.471  1.00  0.00     0.053 C 
BRANCH   7   8
ATOM      8  C   UNL     1      -8.131  -4.662   4.806  1.00  0.00     0.041 C 
ATOM      9  O   UNL     1      -7.915  -5.623   5.590  1.00  0.00    -0.550 OA
ATOM     10  O   UNL     1      -9.402  -4.481   4.273  1.00  0.00    -0.550 OA
ENDBRANCH   7   8
ENDBRANCH   6   7
ENDBRANCH   5   6
ENDBRANCH   4   5
ENDBRANCH   3   4
ENDBRANCH   2   3
ENDBRANCH   1   2
BRANCH   1  11
ATOM     11  C   UNL     1      -6.486  -4.813   8.735  1.00  0.00     0.000 C 
BRANCH  11  12
ATOM     12  C   UNL     1      -5.001  -4.643   8.387  1.00  0.00    -0.000 C 
BRANCH  12  13
ATOM     13  C   UNL     1      -4.131  -4.699   9.652  1.00  0.00    -0.000 C 
BRANCH  13  14
ATOM     14  C   UNL     1      -2.725  -4.118   9.429  1.00  0.00    -0.000 C 
BRANCH  14  15
ATOM     15  C   UNL     1      -2.508  -3.624   7.992  1.00  0.00    -0.000 C 
BRANCH  15  16
ATOM     16  C   UNL     1      -2.452  -2.089   7.942  1.00  0.00    -0.000 C 
BRANCH  16  17
ATOM     17  C   UNL     1      -3.168  -1.511   6.712  1.00  0.00    -0.003 C 
ATOM     18  C   UNL     1      -3.121  -2.448   5.505  1.00  0.00     0.004 C 
ENDBRANCH  16  17
ENDBRANCH  15  16
ENDBRANCH  14  15
ENDBRANCH  13  14
ENDBRANCH  12  13
ENDBRANCH  11  12
ENDBRANCH   1  11
TORSDOF 14
ENDMDL
MODEL 9
REMARK VINA RESULT:    -3.980     12.345     15.042
REMARK INTER + INTRA:          -8.902
REMARK INTER:                  -6.549
REMARK INTRA:                  -2.353
REMARK UNBOUND:                -1.665
REMARK SMILES CCCCCCCCCCCCCCCC(=O)[O-]
REMARK SMILES IDX 9 1 10 2 11 3 12 4 13 5 14 6 15 7 16 8 17 9 18 10 8 11 7 12
REMARK SMILES IDX 6 13 5 14 4 15 3 16 2 17 1 18
REMARK H PARENT
REMARK Flexibility Score: inf
ROOT
ATOM      1  C   UNL     1      -8.470  -1.487   9.723  1.00  0.00     0.000 C 
ENDROOT
BRANCH   1   2
ATOM      2  C   UNL     1      -8.062  -0.201   8.988  1.00  0.00     0.000 C 
BRANCH   2   3
ATOM      3  C   UNL     1      -8.615  -0.137   7.555  1.00  0.00     0.000 C 
BRANCH   3   4
ATOM      4  C   UNL     1      -7.504  -0.108   6.492  1.00  0.00     0.000 C 
BRANCH   4   5
ATOM      5  C   UNL     1      -6.421  -1.191   6.706  1.00  0.00     0.000 C 
BRANCH   5   6
ATOM      6  C   UNL     1      -6.426  -2.283   5.617  1.00  0.00     0.006 C 
BRANCH   6   7
ATOM      7  C   UNL     1      -7.782  -2.432   4.907  1.00  0.00     0.053 C 
BRANCH   7   8
ATOM      8  C   UNL     1      -8.279  -3.845   4.943  1.00  0.00     0.041 C 
ATOM      9  O   UNL     1      -9.453  -4.113   4.577  1.00  0.00    -0.550 OA
ATOM     10  O   UNL     1      -7.436  -4.870   5.356  1.00  0.00    -0.550 OA
ENDBRANCH   7   8
ENDBRANCH   6   7
ENDBRANCH   5   6
ENDBRANCH   4   5
ENDBRANCH   3   4
ENDBRANCH   2   3
ENDBRANCH   1   2
BRANCH   1  11
ATOM     11  C   UNL     1      -9.360  -2.400   8.865  1.00  0.00     0.000 C 
BRANCH  11  12
ATOM     12  C   UNL     1      -8.634  -3.706   8.520  1.00  0.00    -0.000 C 
BRANCH  12  13
ATOM     13  C   UNL     1      -7.226  -3.731   9.134  1.00  0.00    -0.000 C 
BRANCH  13  14
ATOM     14  C   UNL     1      -6.423  -4.977   8.726  1.00  0.00    -0.000 C 
BRANCH  14  15
ATOM     15  C   UNL     1      -4.939  -4.877   9.106  1.00  0.00    -0.000 C 
BRANCH  15  16
ATOM     16  C   UNL     1      -4.176  -3.992   8.108  1.00  0.00    -0.000 C 
BRANCH  16  17
ATOM     17  C   UNL     1      -3.305  -2.934   8.802  1.00  0.00    -0.003 C 
ATOM     18  C   UNL     1      -4.128  -1.917   9.593  1.00  0.00     0.004 C 
ENDBRANCH  16  17
ENDBRANCH  15  16
ENDBRANCH  14  15
ENDBRANCH  13  14
ENDBRANCH  12  13
ENDBRANCH  11  12
ENDBRANCH   1  11
TORSDOF 14
ENDMDL
