MODEL 1
REMARK VINA RESULT:    -3.464      0.000      0.000
REMARK INTER + INTRA:          -8.900
REMARK INTER:                  -7.514
REMARK INTRA:                  -1.386
REMARK UNBOUND:                -1.386
REMARK SMILES CCCCCCCCCCCCCCCCCCCCCC(=O)[O-]
REMARK SMILES IDX 12 1 11 2 10 3 9 4 8 5 7 6 6 7 5 8 4 9 3 10 2 11 1 12 13 13
REMARK SMILES IDX 14 14 15 15 16 16 17 17 18 18 19 19 20 20 21 21 22 22 23 23
REMARK SMILES IDX 24 24
REMARK H PARENT
REMARK Flexibility Score: inf
ROOT
ATOM      1  C   UNL     1      15.389  -7.597   6.659  1.00  0.00     0.000 C 
ENDROOT
BRANCH   1   2
ATOM      2  C   UNL     1      15.801  -7.186   5.230  1.00  0.00     0.000 C 
BRANCH   2   3
ATOM      3  C   UNL     1      17.322  -7.160   4.960  1.00  0.00     0.000 C 
BRANCH   3   4
ATOM      4  C   UNL     1      17.879  -8.385   4.212  1.00  0.00    -0.000 C 
BRANCH   4   5
ATOM      5  C   UNL     1      18.161  -9.574   5.142  1.00  0.00    -0.000 C 
BRANCH   5   6
ATOM      6  C   UNL     1      18.845  -9.110   6.436  1.00  0.00    -0.000 C 
BRANCH   6   7
ATOM      7  C   UNL     1      20.378  -9.051   6.316  1.00  0.00    -0.000 C 
BRANCH   7   8
ATOM      8  C   UNL     1      20.911  -8.717   4.906  1.00  0.00    -0.000 C 
BRANCH   8   9
ATOM      9  C   UNL     1      22.202  -7.879   4.878  1.00  0.00    -0.000 C 
BRANCH   9  10
ATOM     10  C   UNL     1      22.192  -6.709   3.876  1.00  0.00    -0.000 C 
BRANCH  10  11
ATOM     11  C   UNL     1      20.877  -5.902   3.879  1.00  0.00    -0.003 C 
ATOM     12  C   UNL     1      21.109  -4.396   3.999  1.00  0.00     0.004 C 
ENDBRANCH  10  11
ENDBRANCH   9  10
ENDBRANCH   8   9
ENDBRANCH   7   8
ENDBRANCH   6   7
ENDBRANCH   5   6
ENDBRANCH   4   5
ENDBRANCH   3   4
ENDBRANCH   2   3
ENDBRANCH   1   2
BRANCH   1  13
ATOM     13  C   UNL     1      14.485  -8.846   6.734  1.00  0.00     0.000 C 
BRANCH  13  14
ATOM     14  C   UNL     1      12.977  -8.544   6.632  1.00  0.00     0.000 C 
BRANCH  14  15
ATOM     15  C   UNL     1      12.426  -8.583   5.193  1.00  0.00     0.000 C 
BRANCH  15  16
ATOM     16  C   UNL     1      10.985  -8.046   5.104  1.00  0.00     0.000 C 
BRANCH  16  17
ATOM     17  C   UNL     1       9.975  -9.127   4.687  1.00  0.00     0.000 C 
BRANCH  17  18
ATOM     18  C   UNL     1       9.369  -9.866   5.888  1.00  0.00     0.000 C 
BRANCH  18  19
ATOM     19  C   UNL     1       8.739  -8.877   6.880  1.00  0.00     0.000 C 
BRANCH  19  20
ATOM     20  C   UNL     1       7.203  -8.869   6.822  1.00  0.00     0.006 C 
BRANCH  20  21
ATOM     21  C   UNL     1       6.660  -8.203   5.551  1.00  0.00     0.053 C 
BRANCH  21  22
ATOM     22  C   UNL     1       5.979  -6.915   5.887  1.00  0.00     0.041 C 
ATOM     23  O   UNL     1       5.120  -6.428   5.105  1.00  0.00    -0.550 OA
ATOM     24  O   UNL     1       6.264  -6.270   7.084  1.00  0.00    -0.550 OA
ENDBRANCH  21  22
ENDBRANCH  20  21
ENDBRANCH  19  20
ENDBRANCH  18  19
ENDBRANCH  17  18
ENDBRANCH  16  17
ENDBRANCH  15  16
ENDBRANCH  14  15
ENDBRANCH  13  14
ENDBRANCH   1  13
TORSDOF 20
ENDMDL
MODEL 2
REMARK VINA RESULT:    -3.094      1.633      2.868
REMARK INTER + INTRA:          -8.097
REMARK INTER:                  -6.426
REMARK INTRA:                  -1.671
REMARK UNBOUND:                -1.386
REMARK SMILES CCCCCCCCCCCCCCCCCCCCCC(=O)[O-]
REMARK SMILES IDX 12 1 11 2 10 3 9 4 8 5 7 6 6 7 5 8 4 9 3 10 2 11 1 12 13 13
REMARK SMILES IDX 14 14 15 15 16 16 17 17 18 18 19 19 20 20 21 21 22 22 23 23
REMARK SMILES IDX 24 24
REMARK H PARENT
REMARK Flexibility Score: inf
ROOT
ATOM      1  C   UNL     1      15.665  -7.460   6.388  1.00  0.00     0.000 C 
ENDROOT
BRANCH   1   2
ATOM      2  C   UNL     1      15.548  -7.170   4.877  1.00  0.00     0.000 C 
BRANCH   2   3
ATOM      3  C   UNL     1      16.311  -8.144   3.954  1.00  0.00     0.000 C 
BRANCH   3   4
ATOM      4  C   UNL     1      17.178  -9.193   4.674  1.00  0.00    -0.000 C 
BRANCH   4   5
ATOM      5  C   UNL     1      18.683  -8.957   4.483  1.00  0.00    -0.000 C 
BRANCH   5   6
ATOM      6  C   UNL     1      18.950  -7.572   3.875  1.00  0.00    -0.000 C 
BRANCH   6   7
ATOM      7  C   UNL     1      20.134  -6.845   4.538  1.00  0.00    -0.000 C 
BRANCH   7   8
ATOM      8  C   UNL     1      20.338  -7.159   6.035  1.00  0.00    -0.000 C 
BRANCH   8   9
ATOM      9  C   UNL     1      19.198  -6.695   6.961  1.00  0.00    -0.000 C 
BRANCH   9  10
ATOM     10  C   UNL     1      19.058  -7.500   8.267  1.00  0.00    -0.000 C 
BRANCH  10  11
ATOM     11  C   UNL     1      19.718  -8.894   8.209  1.00  0.00    -0.003 C 
ATOM     12  C   UNL     1      19.746  -9.589   9.570  1.00  0.00     0.004 C 
ENDBRANCH  10  11
ENDBRANCH   9  10
ENDBRANCH   8   9
ENDBRANCH   7   8
ENDBRANCH   6   7
ENDBRANCH   5   6
ENDBRANCH   4   5
ENDBRANCH   3   4
ENDBRANCH   2   3
ENDBRANCH   1   2
BRANCH   1  13
ATOM     13  C   UNL     1      14.574  -8.396   6.951  1.00  0.00     0.000 C 
BRANCH  13  14
ATOM     14  C   UNL     1      13.535  -8.855   5.909  1.00  0.00     0.000 C 
BRANCH  14  15
ATOM     15  C   UNL     1      12.239  -8.019   5.907  1.00  0.00     0.000 C 
BRANCH  15  16
ATOM     16  C   UNL     1      11.275  -8.440   4.782  1.00  0.00     0.000 C 
BRANCH  16  17
ATOM     17  C   UNL     1       9.816  -8.065   5.082  1.00  0.00     0.000 C 
BRANCH  17  18
ATOM     18  C   UNL     1       8.872  -9.275   5.036  1.00  0.00     0.000 C 
BRANCH  18  19
ATOM     19  C   UNL     1       7.425  -8.831   4.775  1.00  0.00     0.000 C 
BRANCH  19  20
ATOM     20  C   UNL     1       7.235  -7.311   4.892  1.00  0.00     0.006 C 
BRANCH  20  21
ATOM     21  C   UNL     1       6.020  -6.928   5.747  1.00  0.00     0.053 C 
BRANCH  21  22
ATOM     22  C   UNL     1       4.770  -6.967   4.926  1.00  0.00     0.041 C 
ATOM     23  O   UNL     1       4.116  -8.038   4.816  1.00  0.00    -0.550 OA
ATOM     24  O   UNL     1       4.304  -5.810   4.315  1.00  0.00    -0.550 OA
ENDBRANCH  21  22
ENDBRANCH  20  21
ENDBRANCH  19  20
ENDBRANCH  18  19
ENDBRANCH  17  18
ENDBRANCH  16  17
ENDBRANCH  15  16
ENDBRANCH  14  15
ENDBRANCH  13  14
ENDBRANCH   1  13
TORSDOF 20
ENDMDL
MODEL 3
REMARK VINA RESULT:    -3.056      1.427      2.216
REMARK INTER + INTRA:          -8.015
REMARK INTER:                  -6.514
REMARK INTRA:                  -1.501
REMARK UNBOUND:                -1.386
REMARK SMILES CCCCCCCCCCCCCCCCCCCCCC(=O)[O-]
REMARK SMILES IDX 12 1 11 2 10 3 9 4 8 5 7 6 6 7 5 8 4 9 3 10 2 11 1 12 13 13
REMARK SMILES IDX 14 14 15 15 16 16 17 17 18 18 19 19 20 20 21 21 22 22 23 23
REMARK SMILES IDX 24 24
REMARK H PARENT
REMARK Flexibility Score: inf
ROOT
ATOM      1  C   UNL     1      15.833  -7.488   6.288  1.00  0.00     0.000 C 
ENDROOT
BRANCH   1   2
ATOM      2  C   UNL     1      15.956  -6.799   4.913  1.00  0.00     0.000 C 
BRANCH   2   3
ATOM      3  C   UNL     1      16.834  -7.536   3.878  1.00  0.00     0.000 C 
BRANCH   3   4
ATOM      4  C   UNL     1      16.703  -9.070   3.875  1.00  0.00    -0.000 C 
BRANCH   4   5
ATOM      5  C   UNL     1      17.750  -9.760   4.761  1.00  0.00    -0.000 C 
BRANCH   5   6
ATOM      6  C   UNL     1      19.003 -10.124   3.950  1.00  0.00    -0.000 C 
BRANCH   6   7
ATOM      7  C   UNL     1      20.258  -9.364   4.414  1.00  0.00    -0.000 C 
BRANCH   7   8
ATOM      8  C   UNL     1      20.057  -7.853   4.653  1.00  0.00    -0.000 C 
BRANCH   8   9
ATOM      9  C   UNL     1      20.074  -7.417   6.129  1.00  0.00    -0.000 C 
BRANCH   9  10
ATOM     10  C   UNL     1      19.536  -8.467   7.120  1.00  0.00    -0.000 C 
BRANCH  10  11
ATOM     11  C   UNL     1      19.450  -7.959   8.575  1.00  0.00    -0.003 C 
ATOM     12  C   UNL     1      18.590  -6.703   8.710  1.00  0.00     0.004 C 
ENDBRANCH  10  11
ENDBRANCH   9  10
ENDBRANCH   8   9
ENDBRANCH   7   8
ENDBRANCH   6   7
ENDBRANCH   5   6
ENDBRANCH   4   5
ENDBRANCH   3   4
ENDBRANCH   2   3
ENDBRANCH   1   2
BRANCH   1  13
ATOM     13  C   UNL     1      14.508  -8.249   6.511  1.00  0.00     0.000 C 
BRANCH  13  14
ATOM     14  C   UNL     1      13.472  -8.059   5.386  1.00  0.00     0.000 C 
BRANCH  14  15
ATOM     15  C   UNL     1      12.817  -9.371   4.909  1.00  0.00     0.000 C 
BRANCH  15  16
ATOM     16  C   UNL     1      11.651  -9.121   3.936  1.00  0.00     0.000 C 
BRANCH  16  17
ATOM     17  C   UNL     1      10.293  -9.544   4.518  1.00  0.00     0.000 C 
BRANCH  17  18
ATOM     18  C   UNL     1      10.047  -8.973   5.922  1.00  0.00     0.000 C 
BRANCH  18  19
ATOM     19  C   UNL     1       8.584  -9.172   6.347  1.00  0.00     0.000 C 
BRANCH  19  20
ATOM     20  C   UNL     1       7.588  -8.879   5.214  1.00  0.00     0.006 C 
BRANCH  20  21
ATOM     21  C   UNL     1       6.173  -8.589   5.729  1.00  0.00     0.053 C 
BRANCH  21  22
ATOM     22  C   UNL     1       5.912  -7.116   5.739  1.00  0.00     0.041 C 
ATOM     23  O   UNL     1       5.341  -6.565   4.761  1.00  0.00    -0.550 OA
ATOM     24  O   UNL     1       6.261  -6.356   6.848  1.00  0.00    -0.550 OA
ENDBRANCH  21  22
ENDBRANCH  20  21
ENDBRANCH  19  20
ENDBRANCH  18  19
ENDBRANCH  17  18
ENDBRANCH  16  17
ENDBRANCH  15  16
ENDBRANCH  14  15
ENDBRANCH  13  14
ENDBRANCH   1  13
TORSDOF 20
ENDMDL
MODEL 4
REMARK VINA RESULT:    -2.372      1.537      2.059
REMARK INTER + INTRA:          -6.530
REMARK INTER:                  -6.184
REMARK INTRA:                  -0.346
REMARK UNBOUND:                -1.386
REMARK SMILES CCCCCCCCCCCCCCCCCCCCCC(=O)[O-]
REMARK SMILES IDX 12 1 11 2 10 3 9 4 8 5 7 6 6 7 5 8 4 9 3 10 2 11 1 12 13 13
REMARK SMILES IDX 14 14 15 15 16 16 17 17 18 18 19 19 20 20 21 21 22 22 23 23
REMARK SMILES IDX 24 24
REMARK H PARENT
REMARK Flexibility Score: inf
ROOT
ATOM      1  C   UNL     1      15.899  -7.140   6.165  1.00  0.00     0.000 C 
ENDROOT
BRANCH   1   2
ATOM      2  C   UNL     1      16.229  -7.899   4.862  1.00  0.00     0.000 C 
BRANCH   2   3
ATOM      3  C   UNL     1      17.666  -8.459   4.767  1.00  0.00     0.000 C 
BRANCH   3   4
ATOM      4  C   UNL     1      17.920  -9.759   5.551  1.00  0.00    -0.000 C 
BRANCH   4   5
ATOM      5  C   UNL     1      19.257  -9.750   6.305  1.00  0.00    -0.000 C 
BRANCH   5   6
ATOM      6  C   UNL     1      19.560  -8.355   6.871  1.00  0.00    -0.000 C 
BRANCH   6   7
ATOM      7  C   UNL     1      20.569  -7.568   6.015  1.00  0.00    -0.000 C 
BRANCH   7   8
ATOM      8  C   UNL     1      21.169  -8.350   4.828  1.00  0.00    -0.000 C 
BRANCH   8   9
ATOM      9  C   UNL     1      22.467  -7.759   4.246  1.00  0.00    -0.000 C 
BRANCH   9  10
ATOM     10  C   UNL     1      22.503  -6.221   4.175  1.00  0.00    -0.000 C 
BRANCH  10  11
ATOM     11  C   UNL     1      21.116  -5.578   3.961  1.00  0.00    -0.003 C 
ATOM     12  C   UNL     1      21.123  -4.069   4.201  1.00  0.00     0.004 C 
ENDBRANCH  10  11
ENDBRANCH   9  10
ENDBRANCH   8   9
ENDBRANCH   7   8
ENDBRANCH   6   7
ENDBRANCH   5   6
ENDBRANCH   4   5
ENDBRANCH   3   4
ENDBRANCH   2   3
ENDBRANCH   1   2
BRANCH   1  13
ATOM     13  C   UNL     1      15.191  -7.990   7.243  1.00  0.00     0.000 C 
BRANCH  13  14
ATOM     14  C   UNL     1      14.210  -9.037   6.681  1.00  0.00     0.000 C 
BRANCH  14  15
ATOM     15  C   UNL     1      13.336  -8.517   5.522  1.00  0.00     0.000 C 
BRANCH  15  16
ATOM     16  C   UNL     1      12.972  -9.629   4.521  1.00  0.00     0.000 C 
BRANCH  16  17
ATOM     17  C   UNL     1      11.594  -9.417   3.875  1.00  0.00     0.000 C 
BRANCH  17  18
ATOM     18  C   UNL     1      10.455 -10.047   4.689  1.00  0.00     0.000 C 
BRANCH  18  19
ATOM     19  C   UNL     1       9.088  -9.561   4.186  1.00  0.00     0.000 C 
BRANCH  19  20
ATOM     20  C   UNL     1       7.998  -9.618   5.268  1.00  0.00     0.006 C 
BRANCH  20  21
ATOM     21  C   UNL     1       8.526 -10.125   6.616  1.00  0.00     0.053 C 
BRANCH  21  22
ATOM     22  C   UNL     1       7.923  -9.344   7.741  1.00  0.00     0.041 C 
ATOM     23  O   UNL     1       7.516  -9.934   8.776  1.00  0.00    -0.550 OA
ATOM     24  O   UNL     1       7.848  -7.959   7.663  1.00  0.00    -0.550 OA
ENDBRANCH  21  22
ENDBRANCH  20  21
ENDBRANCH  19  20
ENDBRANCH  18  19
ENDBRANCH  17  18
ENDBRANCH  16  17
ENDBRANCH  15  16
ENDBRANCH  14  15
ENDBRANCH  13  14
ENDBRANCH   1  13
TORSDOF 20
ENDMDL
MODEL 5
REMARK VINA RESULT:    -2.332      1.891      3.868
REMARK INTER + INTRA:          -6.445
REMARK INTER:                  -5.545
REMARK INTRA:                  -0.900
REMARK UNBOUND:                -1.386
REMARK SMILES CCCCCCCCCCCCCCCCCCCCCC(=O)[O-]
REMARK SMILES IDX 12 1 11 2 10 3 9 4 8 5 7 6 6 7 5 8 4 9 3 10 2 11 1 12 13 13
REMARK SMILES IDX 14 14 15 15 16 16 17 17 18 18 19 19 20 20 21 21 22 22 23 23
REMARK SMILES IDX 24 24
REMARK H PARENT
REMARK Flexibility Score: inf
ROOT
ATOM      1  C   UNL     1      10.429  -7.748   4.942  1.00  0.00     0.000 C 
ENDROOT
BRANCH   1   2
ATOM      2  C   UNL     1      11.761  -7.514   4.198  1.00  0.00     0.000 C 
BRANCH   2   3
ATOM      3  C   UNL     1      13.037  -7.693   5.050  1.00  0.00     0.000 C 
BRANCH   3   4
ATOM      4  C   UNL     1      14.288  -8.146   4.275  1.00  0.00    -0.000 C 
BRANCH   4   5
ATOM      5  C   UNL     1      15.521  -7.282   4.574  1.00  0.00    -0.000 C 
BRANCH   5   6
ATOM      6  C   UNL     1      16.794  -8.139   4.629  1.00  0.00    -0.000 C 
BRANCH   6   7
ATOM      7  C   UNL     1      17.141  -8.603   6.055  1.00  0.00    -0.000 C 
BRANCH   7   8
ATOM      8  C   UNL     1      18.121  -9.792   6.135  1.00  0.00    -0.000 C 
BRANCH   8   9
ATOM      9  C   UNL     1      19.531  -9.515   5.583  1.00  0.00    -0.000 C 
BRANCH   9  10
ATOM     10  C   UNL     1      20.163  -8.192   6.056  1.00  0.00    -0.000 C 
BRANCH  10  11
ATOM     11  C   UNL     1      20.093  -7.062   5.007  1.00  0.00    -0.003 C 
ATOM     12  C   UNL     1      21.458  -6.730   4.407  1.00  0.00     0.004 C 
ENDBRANCH  10  11
ENDBRANCH   9  10
ENDBRANCH   8   9
ENDBRANCH   7   8
ENDBRANCH   6   7
ENDBRANCH   5   6
ENDBRANCH   4   5
ENDBRANCH   3   4
ENDBRANCH   2   3
ENDBRANCH   1   2
BRANCH   1  13
ATOM     13  C   UNL     1      10.163  -9.215   5.341  1.00  0.00     0.000 C 
BRANCH  13  14
ATOM     14  C   UNL     1       9.417  -9.381   6.680  1.00  0.00     0.000 C 
BRANCH  14  15
ATOM     15  C   UNL     1       7.943  -8.933   6.636  1.00  0.00     0.000 C 
BRANCH  15  16
ATOM     16  C   UNL     1       6.975 -10.122   6.497  1.00  0.00     0.000 C 
BRANCH  16  17
ATOM     17  C   UNL     1       6.016  -9.970   5.306  1.00  0.00     0.000 C 
BRANCH  17  18
ATOM     18  C   UNL     1       4.540 -10.037   5.722  1.00  0.00     0.000 C 
BRANCH  18  19
ATOM     19  C   UNL     1       3.623  -9.647   4.553  1.00  0.00     0.000 C 
BRANCH  19  20
ATOM     20  C   UNL     1       4.045  -8.334   3.875  1.00  0.00     0.006 C 
BRANCH  20  21
ATOM     21  C   UNL     1       2.974  -7.241   3.980  1.00  0.00     0.053 C 
BRANCH  21  22
ATOM     22  C   UNL     1       3.577  -5.964   4.473  1.00  0.00     0.041 C 
ATOM     23  O   UNL     1       2.887  -4.912   4.520  1.00  0.00    -0.550 OA
ATOM     24  O   UNL     1       4.892  -5.944   4.920  1.00  0.00    -0.550 OA
ENDBRANCH  21  22
ENDBRANCH  20  21
ENDBRANCH  19  20
ENDBRANCH  18  19
ENDBRANCH  17  18
ENDBRANCH  16  17
ENDBRANCH  15  16
ENDBRANCH  14  15
ENDBRANCH  13  14
ENDBRANCH   1  13
TORSDOF 20
ENDMDL
MODEL 6
REMARK VINA RESULT:    -1.432      2.440      5.057
REMARK INTER + INTRA:          -4.492
REMARK INTER:                  -3.242
REMARK INTRA:                  -1.250
REMARK UNBOUND:                -1.386
REMARK SMILES CCCCCCCCCCCCCCCCCCCCCC(=O)[O-]
REMARK SMILES IDX 12 1 11 2 10 3 9 4 8 5 7 6 6 7 5 8 4 9 3 10 2 11 1 12 13 13
REMARK SMILES IDX 14 14 15 15 16 16 17 17 18 18 19 19 20 20 21 21 22 22 23 23
REMARK SMILES IDX 24 24
REMARK H PARENT
REMARK Flexibility Score: inf
ROOT
ATOM      1  C   UNL     1       9.454  -8.022   4.067  1.00  0.00     0.000 C 
ENDROOT
BRANCH   1   2
ATOM      2  C   UNL     1      10.900  -7.519   3.875  1.00  0.00     0.000 C 
BRANCH   2   3
ATOM      3  C   UNL     1      11.637  -7.107   5.169  1.00  0.00     0.000 C 
BRANCH   3   4
ATOM      4  C   UNL     1      13.150  -7.392   5.185  1.00  0.00    -0.000 C 
BRANCH   4   5
ATOM      5  C   UNL     1      13.484  -8.858   4.874  1.00  0.00    -0.000 C 
BRANCH   5   6
ATOM      6  C   UNL     1      14.976  -9.025   4.550  1.00  0.00    -0.000 C 
BRANCH   6   7
ATOM      7  C   UNL     1      15.832  -7.842   5.040  1.00  0.00    -0.000 C 
BRANCH   7   8
ATOM      8  C   UNL     1      17.206  -7.700   4.353  1.00  0.00    -0.000 C 
BRANCH   8   9
ATOM      9  C   UNL     1      18.253  -8.753   4.764  1.00  0.00    -0.000 C 
BRANCH   9  10
ATOM     10  C   UNL     1      18.022  -9.389   6.148  1.00  0.00    -0.000 C 
BRANCH  10  11
ATOM     11  C   UNL     1      19.101  -9.018   7.187  1.00  0.00    -0.003 C 
ATOM     12  C   UNL     1      19.119  -7.525   7.511  1.00  0.00     0.004 C 
ENDBRANCH  10  11
ENDBRANCH   9  10
ENDBRANCH   8   9
ENDBRANCH   7   8
ENDBRANCH   6   7
ENDBRANCH   5   6
ENDBRANCH   4   5
ENDBRANCH   3   4
ENDBRANCH   2   3
ENDBRANCH   1   2
BRANCH   1  13
ATOM     13  C   UNL     1       9.305  -9.559   4.090  1.00  0.00     0.000 C 
BRANCH  13  14
ATOM     14  C   UNL     1       8.616 -10.109   5.355  1.00  0.00     0.000 C 
BRANCH  14  15
ATOM     15  C   UNL     1       7.262  -9.443   5.670  1.00  0.00     0.000 C 
BRANCH  15  16
ATOM     16  C   UNL     1       6.128  -9.975   4.774  1.00  0.00     0.000 C 
BRANCH  16  17
ATOM     17  C   UNL     1       5.301  -8.849   4.134  1.00  0.00     0.000 C 
BRANCH  17  18
ATOM     18  C   UNL     1       3.792  -9.017   4.365  1.00  0.00     0.000 C 
BRANCH  18  19
ATOM     19  C   UNL     1       3.033  -7.739   3.978  1.00  0.00     0.000 C 
BRANCH  19  20
ATOM     20  C   UNL     1       3.814  -6.457   4.306  1.00  0.00     0.006 C 
BRANCH  20  21
ATOM     21  C   UNL     1       3.073  -5.185   3.875  1.00  0.00     0.053 C 
BRANCH  21  22
ATOM     22  C   UNL     1       3.064  -4.184   4.987  1.00  0.00     0.041 C 
ATOM     23  O   UNL     1       3.179  -4.562   6.183  1.00  0.00    -0.550 OA
ATOM     24  O   UNL     1       2.968  -2.828   4.700  1.00  0.00    -0.550 OA
ENDBRANCH  21  22
ENDBRANCH  20  21
ENDBRANCH  19  20
ENDBRANCH  18  19
ENDBRANCH  17  18
ENDBRANCH  16  17
ENDBRANCH  15  16
ENDBRANCH  14  15
ENDBRANCH  13  14
ENDBRANCH   1  13
TORSDOF 20
ENDMDL
MODEL 7
REMARK VINA RESULT:    -1.382      3.410      5.363
REMARK INTER + INTRA:          -4.384
REMARK INTER:                  -4.409
REMARK INTRA:                   0.024
REMARK UNBOUND:                -1.386
REMARK SMILES CCCCCCCCCCCCCCCCCCCCCC(=O)[O-]
REMARK SMILES IDX 12 1 11 2 10 3 9 4 8 5 7 6 6 7 5 8 4 9 3 10 2 11 1 12 13 13
REMARK SMILES IDX 14 14 15 15 16 16 17 17 18 18 19 19 20 20 21 21 22 22 23 23
REMARK SMILES IDX 24 24
REMARK H PARENT
REMARK Flexibility Score: inf
ROOT
ATOM      1  C   UNL     1      18.261  -6.905   8.234  1.00  0.00     0.000 C 
ENDROOT
BRANCH   1   2
ATOM      2  C   UNL     1      16.769  -6.917   7.839  1.00  0.00     0.000 C 
BRANCH   2   3
ATOM      3  C   UNL     1      16.462  -7.464   6.427  1.00  0.00     0.000 C 
BRANCH   3   4
ATOM      4  C   UNL     1      16.451  -6.413   5.302  1.00  0.00    -0.000 C 
BRANCH   4   5
ATOM      5  C   UNL     1      17.136  -6.905   4.019  1.00  0.00    -0.000 C 
BRANCH   5   6
ATOM      6  C   UNL     1      18.539  -6.296   3.876  1.00  0.00    -0.000 C 
BRANCH   6   7
ATOM      7  C   UNL     1      19.510  -6.764   4.974  1.00  0.00    -0.000 C 
BRANCH   7   8
ATOM      8  C   UNL     1      20.978  -6.920   4.525  1.00  0.00    -0.000 C 
BRANCH   8   9
ATOM      9  C   UNL     1      21.887  -5.715   4.833  1.00  0.00    -0.000 C 
BRANCH   9  10
ATOM     10  C   UNL     1      21.529  -4.424   4.072  1.00  0.00    -0.000 C 
BRANCH  10  11
ATOM     11  C   UNL     1      20.885  -3.339   4.961  1.00  0.00    -0.003 C 
ATOM     12  C   UNL     1      20.681  -2.017   4.222  1.00  0.00     0.004 C 
ENDBRANCH  10  11
ENDBRANCH   9  10
ENDBRANCH   8   9
ENDBRANCH   7   8
ENDBRANCH   6   7
ENDBRANCH   5   6
ENDBRANCH   4   5
ENDBRANCH   3   4
ENDBRANCH   2   3
ENDBRANCH   1   2
BRANCH   1  13
ATOM     13  C   UNL     1      18.926  -8.297   8.283  1.00  0.00     0.000 C 
BRANCH  13  14
ATOM     14  C   UNL     1      19.595  -8.726   6.962  1.00  0.00     0.000 C 
BRANCH  14  15
ATOM     15  C   UNL     1      18.888  -9.899   6.255  1.00  0.00     0.000 C 
BRANCH  15  16
ATOM     16  C   UNL     1      19.037  -9.832   4.724  1.00  0.00     0.000 C 
BRANCH  16  17
ATOM     17  C   UNL     1      17.720 -10.124   3.987  1.00  0.00     0.000 C 
BRANCH  17  18
ATOM     18  C   UNL     1      16.483  -9.830   4.847  1.00  0.00     0.000 C 
BRANCH  18  19
ATOM     19  C   UNL     1      15.206  -9.843   3.993  1.00  0.00     0.000 C 
BRANCH  19  20
ATOM     20  C   UNL     1      14.086  -8.969   4.579  1.00  0.00     0.006 C 
BRANCH  20  21
ATOM     21  C   UNL     1      13.285  -9.685   5.673  1.00  0.00     0.053 C 
BRANCH  21  22
ATOM     22  C   UNL     1      12.846  -8.712   6.722  1.00  0.00     0.041 C 
ATOM     23  O   UNL     1      11.782  -8.056   6.574  1.00  0.00    -0.550 OA
ATOM     24  O   UNL     1      13.593  -8.559   7.883  1.00  0.00    -0.550 OA
ENDBRANCH  21  22
ENDBRANCH  20  21
ENDBRANCH  19  20
ENDBRANCH  18  19
ENDBRANCH  17  18
ENDBRANCH  16  17
ENDBRANCH  15  16
ENDBRANCH  14  15
ENDBRANCH  13  14
ENDBRANCH   1  13
TORSDOF 20
ENDMDL
MODEL 8
REMARK VINA RESULT:    -1.031      3.036      5.455
REMARK INTER + INTRA:          -3.622
REMARK INTER:                  -2.979
REMARK INTRA:                  -0.644
REMARK UNBOUND:                -1.386
REMARK SMILES CCCCCCCCCCCCCCCCCCCCCC(=O)[O-]
REMARK SMILES IDX 12 1 11 2 10 3 9 4 8 5 7 6 6 7 5 8 4 9 3 10 2 11 1 12 13 13
REMARK SMILES IDX 14 14 15 15 16 16 17 17 18 18 19 19 20 20 21 21 22 22 23 23
REMARK SMILES IDX 24 24
REMARK H PARENT
REMARK Flexibility Score: inf
ROOT
ATOM      1  C   UNL     1      18.286  -6.802   8.384  1.00  0.00     0.000 C 
ENDROOT
BRANCH   1   2
ATOM      2  C   UNL     1      16.806  -7.056   8.028  1.00  0.00     0.000 C 
BRANCH   2   3
ATOM      3  C   UNL     1      16.526  -7.382   6.544  1.00  0.00     0.000 C 
BRANCH   3   4
ATOM      4  C   UNL     1      15.965  -6.217   5.708  1.00  0.00    -0.000 C 
BRANCH   4   5
ATOM      5  C   UNL     1      16.285  -6.347   4.213  1.00  0.00    -0.000 C 
BRANCH   5   6
ATOM      6  C   UNL     1      17.683  -5.791   3.899  1.00  0.00    -0.000 C 
BRANCH   6   7
ATOM      7  C   UNL     1      18.799  -6.832   4.098  1.00  0.00    -0.000 C 
BRANCH   7   8
ATOM      8  C   UNL     1      20.232  -6.304   3.876  1.00  0.00    -0.000 C 
BRANCH   8   9
ATOM      9  C   UNL     1      20.792  -5.436   5.018  1.00  0.00    -0.000 C 
BRANCH   9  10
ATOM     10  C   UNL     1      21.931  -6.086   5.826  1.00  0.00    -0.000 C 
BRANCH  10  11
ATOM     11  C   UNL     1      23.070  -6.649   4.950  1.00  0.00    -0.003 C 
ATOM     12  C   UNL     1      22.946  -8.154   4.718  1.00  0.00     0.004 C 
ENDBRANCH  10  11
ENDBRANCH   9  10
ENDBRANCH   8   9
ENDBRANCH   7   8
ENDBRANCH   6   7
ENDBRANCH   5   6
ENDBRANCH   4   5
ENDBRANCH   3   4
ENDBRANCH   2   3
ENDBRANCH   1   2
BRANCH   1  13
ATOM     13  C   UNL     1      19.191  -8.049   8.302  1.00  0.00     0.000 C 
BRANCH  13  14
ATOM     14  C   UNL     1      19.769  -8.322   6.900  1.00  0.00     0.000 C 
BRANCH  14  15
ATOM     15  C   UNL     1      19.510  -9.751   6.382  1.00  0.00     0.000 C 
BRANCH  15  16
ATOM     16  C   UNL     1      19.370  -9.800   4.850  1.00  0.00     0.000 C 
BRANCH  16  17
ATOM     17  C   UNL     1      17.938 -10.125   4.397  1.00  0.00     0.000 C 
BRANCH  17  18
ATOM     18  C   UNL     1      16.880  -9.696   5.423  1.00  0.00     0.000 C 
BRANCH  18  19
ATOM     19  C   UNL     1      15.475 -10.123   4.973  1.00  0.00     0.000 C 
BRANCH  19  20
ATOM     20  C   UNL     1      14.358  -9.333   5.672  1.00  0.00     0.006 C 
BRANCH  20  21
ATOM     21  C   UNL     1      13.399  -8.659   4.682  1.00  0.00     0.053 C 
BRANCH  21  22
ATOM     22  C   UNL     1      11.980  -8.850   5.117  1.00  0.00     0.041 C 
ATOM     23  O   UNL     1      11.307  -9.821   4.681  1.00  0.00    -0.550 OA
ATOM     24  O   UNL     1      11.412  -7.978   6.038  1.00  0.00    -0.550 OA
ENDBRANCH  21  22
ENDBRANCH  20  21
ENDBRANCH  19  20
ENDBRANCH  18  19
ENDBRANCH  17  18
ENDBRANCH  16  17
ENDBRANCH  15  16
ENDBRANCH  14  15
ENDBRANCH  13  14
ENDBRANCH   1  13
TORSDOF 20
ENDMDL
MODEL 9
REMARK VINA RESULT:    -0.497      1.972      3.462
REMARK INTER + INTRA:          -2.464
REMARK INTER:                  -2.015
REMARK INTRA:                  -0.449
REMARK UNBOUND:                -1.386
REMARK SMILES CCCCCCCCCCCCCCCCCCCCCC(=O)[O-]
REMARK SMILES IDX 12 1 11 2 10 3 9 4 8 5 7 6 6 7 5 8 4 9 3 10 2 11 1 12 13 13
REMARK SMILES IDX 14 14 15 15 16 16 17 17 18 18 19 19 20 20 21 21 22 22 23 23
REMARK SMILES IDX 24 24
REMARK H PARENT
REMARK Flexibility Score: inf
ROOT
ATOM      1  C   UNL     1      18.255  -7.956   6.505  1.00  0.00     0.000 C 
ENDROOT
BRANCH   1   2
ATOM      2  C   UNL     1      18.651  -9.424   6.765  1.00  0.00     0.000 C 
BRANCH   2   3
ATOM      3  C   UNL     1      19.940  -9.899   6.059  1.00  0.00     0.000 C 
BRANCH   3   4
ATOM      4  C   UNL     1      20.152  -9.351   4.636  1.00  0.00    -0.000 C 
BRANCH   4   5
ATOM      5  C   UNL     1      21.552  -8.757   4.427  1.00  0.00    -0.000 C 
BRANCH   5   6
ATOM      6  C   UNL     1      21.466  -7.325   3.878  1.00  0.00    -0.000 C 
BRANCH   6   7
ATOM      7  C   UNL     1      22.148  -6.291   4.791  1.00  0.00    -0.000 C 
BRANCH   7   8
ATOM      8  C   UNL     1      21.672  -6.301   6.259  1.00  0.00    -0.000 C 
BRANCH   8   9
ATOM      9  C   UNL     1      20.610  -5.242   6.608  1.00  0.00    -0.000 C 
BRANCH   9  10
ATOM     10  C   UNL     1      20.489  -4.917   8.109  1.00  0.00    -0.000 C 
BRANCH  10  11
ATOM     11  C   UNL     1      19.335  -5.663   8.813  1.00  0.00    -0.003 C 
ATOM     12  C   UNL     1      19.530  -7.179   8.818  1.00  0.00     0.004 C 
ENDBRANCH  10  11
ENDBRANCH   9  10
ENDBRANCH   8   9
ENDBRANCH   7   8
ENDBRANCH   6   7
ENDBRANCH   5   6
ENDBRANCH   4   5
ENDBRANCH   3   4
ENDBRANCH   2   3
ENDBRANCH   1   2
BRANCH   1  13
ATOM     13  C   UNL     1      17.207  -7.760   5.387  1.00  0.00     0.000 C 
BRANCH  13  14
ATOM     14  C   UNL     1      16.231  -8.941   5.221  1.00  0.00     0.000 C 
BRANCH  14  15
ATOM     15  C   UNL     1      15.319  -8.830   3.983  1.00  0.00     0.000 C 
BRANCH  15  16
ATOM     16  C   UNL     1      13.844  -9.116   4.318  1.00  0.00     0.000 C 
BRANCH  16  17
ATOM     17  C   UNL     1      13.245  -8.082   5.284  1.00  0.00     0.000 C 
BRANCH  17  18
ATOM     18  C   UNL     1      12.078  -8.646   6.107  1.00  0.00     0.000 C 
BRANCH  18  19
ATOM     19  C   UNL     1      10.794  -7.838   5.863  1.00  0.00     0.000 C 
BRANCH  19  20
ATOM     20  C   UNL     1       9.518  -8.645   6.145  1.00  0.00     0.006 C 
BRANCH  20  21
ATOM     21  C   UNL     1       8.292  -8.095   5.405  1.00  0.00     0.053 C 
BRANCH  21  22
ATOM     22  C   UNL     1       7.087  -8.133   6.290  1.00  0.00     0.041 C 
ATOM     23  O   UNL     1       6.317  -7.138   6.358  1.00  0.00    -0.550 OA
ATOM     24  O   UNL     1       6.789  -9.283   7.009  1.00  0.00    -0.550 OA
ENDBRANCH  21  22
ENDBRANCH  20  21
ENDBRANCH  19  20
ENDBRANCH  18  19
ENDBRANCH  17  18
ENDBRANCH  16  17
ENDBRANCH  15  16
ENDBRANCH  14  15
ENDBRANCH  13  14
ENDBRANCH   1  13
TORSDOF 20
ENDMDL
