MODEL 1
REMARK VINA RESULT:    -3.408      0.000      0.000
REMARK INTER + INTRA:          -9.329
REMARK INTER:                  -6.596
REMARK INTRA:                  -2.732
REMARK UNBOUND:                -2.732
REMARK SMILES CCCCCCCCCCCCCCCCCC(=O)[O-]
REMARK SMILES IDX 10 1 11 2 12 3 13 4 14 5 15 6 16 7 17 8 18 9 19 10 20 11
REMARK SMILES IDX 9 12 8 13 7 14 6 15 5 16 4 17 3 18 2 19 1 20
REMARK H PARENT
REMARK Flexibility Score: inf
ROOT
ATOM      1  C   UNL     1      56.357  26.223  53.121  1.00  0.00     0.000 C 
ENDROOT
BRANCH   1   2
ATOM      2  C   UNL     1      56.070  25.251  51.968  1.00  0.00     0.000 C 
BRANCH   2   3
ATOM      3  C   UNL     1      55.795  26.013  50.663  1.00  0.00     0.000 C 
BRANCH   3   4
ATOM      4  C   UNL     1      54.443  25.642  50.032  1.00  0.00     0.000 C 
BRANCH   4   5
ATOM      5  C   UNL     1      53.482  26.838  49.949  1.00  0.00     0.000 C 
BRANCH   5   6
ATOM      6  C   UNL     1      54.203  28.148  50.307  1.00  0.00     0.000 C 
BRANCH   6   7
ATOM      7  C   UNL     1      53.258  29.360  50.312  1.00  0.00     0.006 C 
BRANCH   7   8
ATOM      8  C   UNL     1      53.289  30.129  51.640  1.00  0.00     0.053 C 
BRANCH   8   9
ATOM      9  C   UNL     1      54.556  30.914  51.761  1.00  0.00     0.041 C 
ATOM     10  O   UNL     1      55.062  31.129  52.894  1.00  0.00    -0.550 OA
ATOM     11  O   UNL     1      55.200  31.375  50.618  1.00  0.00    -0.550 OA
ENDBRANCH   8   9
ENDBRANCH   7   8
ENDBRANCH   6   7
ENDBRANCH   5   6
ENDBRANCH   4   5
ENDBRANCH   3   4
ENDBRANCH   2   3
ENDBRANCH   1   2
BRANCH   1  12
ATOM     12  C   UNL     1      56.298  27.699  52.687  1.00  0.00     0.000 C 
BRANCH  12  13
ATOM     13  C   UNL     1      57.559  28.524  53.017  1.00  0.00    -0.000 C 
BRANCH  13  14
ATOM     14  C   UNL     1      58.010  29.498  51.911  1.00  0.00    -0.000 C 
BRANCH  14  15
ATOM     15  C   UNL     1      57.987  28.916  50.482  1.00  0.00    -0.000 C 
BRANCH  15  16
ATOM     16  C   UNL     1      59.336  28.957  49.742  1.00  0.00    -0.000 C 
BRANCH  16  17
ATOM     17  C   UNL     1      60.075  27.610  49.776  1.00  0.00    -0.000 C 
BRANCH  17  18
ATOM     18  C   UNL     1      59.108  26.460  50.085  1.00  0.00    -0.000 C 
BRANCH  18  19
ATOM     19  C   UNL     1      59.743  25.455  51.054  1.00  0.00    -0.003 C 
ATOM     20  C   UNL     1      60.166  26.134  52.353  1.00  0.00     0.004 C 
ENDBRANCH  18  19
ENDBRANCH  17  18
ENDBRANCH  16  17
ENDBRANCH  15  16
ENDBRANCH  14  15
ENDBRANCH  13  14
ENDBRANCH  12  13
ENDBRANCH   1  12
TORSDOF 16
ENDMDL
MODEL 2
REMARK VINA RESULT:    -3.244      1.231      2.717
REMARK INTER + INTRA:          -9.011
REMARK INTER:                  -6.823
REMARK INTRA:                  -2.187
REMARK UNBOUND:                -2.732
REMARK SMILES CCCCCCCCCCCCCCCCCC(=O)[O-]
REMARK SMILES IDX 10 1 11 2 12 3 13 4 14 5 15 6 16 7 17 8 18 9 19 10 20 11
REMARK SMILES IDX 9 12 8 13 7 14 6 15 5 16 4 17 3 18 2 19 1 20
REMARK H PARENT
REMARK Flexibility Score: inf
ROOT
ATOM      1  C   UNL     1      57.627  25.501  52.211  1.00  0.00     0.000 C 
ENDROOT
BRANCH   1   2
ATOM      2  C   UNL     1      56.169  25.331  51.761  1.00  0.00     0.000 C 
BRANCH   2   3
ATOM      3  C   UNL     1      55.927  26.023  50.411  1.00  0.00     0.000 C 
BRANCH   3   4
ATOM      4  C   UNL     1      54.452  25.986  49.980  1.00  0.00     0.000 C 
BRANCH   4   5
ATOM      5  C   UNL     1      53.776  27.364  50.071  1.00  0.00     0.000 C 
BRANCH   5   6
ATOM      6  C   UNL     1      54.741  28.412  50.646  1.00  0.00     0.000 C 
BRANCH   6   7
ATOM      7  C   UNL     1      54.101  29.805  50.762  1.00  0.00     0.006 C 
BRANCH   7   8
ATOM      8  C   UNL     1      55.140  30.925  50.898  1.00  0.00     0.053 C 
BRANCH   8   9
ATOM      9  C   UNL     1      55.083  31.528  52.266  1.00  0.00     0.041 C 
ATOM     10  O   UNL     1      54.727  30.830  53.252  1.00  0.00    -0.550 OA
ATOM     11  O   UNL     1      55.462  32.852  52.458  1.00  0.00    -0.550 OA
ENDBRANCH   8   9
ENDBRANCH   7   8
ENDBRANCH   6   7
ENDBRANCH   5   6
ENDBRANCH   4   5
ENDBRANCH   3   4
ENDBRANCH   2   3
ENDBRANCH   1   2
BRANCH   1  12
ATOM     12  C   UNL     1      58.639  25.095  51.125  1.00  0.00     0.000 C 
BRANCH  12  13
ATOM     13  C   UNL     1      59.794  24.198  51.616  1.00  0.00    -0.000 C 
BRANCH  13  14
ATOM     14  C   UNL     1      61.184  24.864  51.614  1.00  0.00    -0.000 C 
BRANCH  14  15
ATOM     15  C   UNL     1      61.172  26.396  51.788  1.00  0.00    -0.000 C 
BRANCH  15  16
ATOM     16  C   UNL     1      61.546  27.196  50.527  1.00  0.00    -0.000 C 
BRANCH  16  17
ATOM     17  C   UNL     1      60.744  28.499  50.388  1.00  0.00    -0.000 C 
BRANCH  17  18
ATOM     18  C   UNL     1      59.453  28.268  49.592  1.00  0.00    -0.000 C 
BRANCH  18  19
ATOM     19  C   UNL     1      58.260  28.947  50.274  1.00  0.00    -0.003 C 
ATOM     20  C   UNL     1      58.488  29.087  51.777  1.00  0.00     0.004 C 
ENDBRANCH  18  19
ENDBRANCH  17  18
ENDBRANCH  16  17
ENDBRANCH  15  16
ENDBRANCH  14  15
ENDBRANCH  13  14
ENDBRANCH  12  13
ENDBRANCH   1  12
TORSDOF 16
ENDMDL
MODEL 3
REMARK VINA RESULT:    -3.224      1.167      2.947
REMARK INTER + INTRA:          -8.972
REMARK INTER:                  -5.560
REMARK INTRA:                  -3.412
REMARK UNBOUND:                -2.732
REMARK SMILES CCCCCCCCCCCCCCCCCC(=O)[O-]
REMARK SMILES IDX 10 1 11 2 12 3 13 4 14 5 15 6 16 7 17 8 18 9 19 10 20 11
REMARK SMILES IDX 9 12 8 13 7 14 6 15 5 16 4 17 3 18 2 19 1 20
REMARK H PARENT
REMARK Flexibility Score: inf
ROOT
ATOM      1  C   UNL     1      59.327  25.354  51.347  1.00  0.00     0.000 C 
ENDROOT
BRANCH   1   2
ATOM      2  C   UNL     1      58.409  25.486  52.571  1.00  0.00     0.000 C 
BRANCH   2   3
ATOM      3  C   UNL     1      56.933  25.520  52.148  1.00  0.00     0.000 C 
BRANCH   3   4
ATOM      4  C   UNL     1      56.752  25.745  50.638  1.00  0.00     0.000 C 
BRANCH   4   5
ATOM      5  C   UNL     1      55.475  26.536  50.308  1.00  0.00     0.000 C 
BRANCH   5   6
ATOM      6  C   UNL     1      54.929  27.243  51.558  1.00  0.00     0.000 C 
BRANCH   6   7
ATOM      7  C   UNL     1      53.766  28.196  51.237  1.00  0.00     0.006 C 
BRANCH   7   8
ATOM      8  C   UNL     1      54.236  29.508  50.596  1.00  0.00     0.053 C 
BRANCH   8   9
ATOM      9  C   UNL     1      54.500  30.539  51.646  1.00  0.00     0.041 C 
ATOM     10  O   UNL     1      55.106  31.603  51.352  1.00  0.00    -0.550 OA
ATOM     11  O   UNL     1      54.041  30.343  52.944  1.00  0.00    -0.550 OA
ENDBRANCH   8   9
ENDBRANCH   7   8
ENDBRANCH   6   7
ENDBRANCH   5   6
ENDBRANCH   4   5
ENDBRANCH   3   4
ENDBRANCH   2   3
ENDBRANCH   1   2
BRANCH   1  12
ATOM     12  C   UNL     1      60.666  26.092  51.522  1.00  0.00     0.000 C 
BRANCH  12  13
ATOM     13  C   UNL     1      60.925  27.220  50.500  1.00  0.00    -0.000 C 
BRANCH  13  14
ATOM     14  C   UNL     1      59.712  27.603  49.631  1.00  0.00    -0.000 C 
BRANCH  14  15
ATOM     15  C   UNL     1      59.255  29.071  49.763  1.00  0.00    -0.000 C 
BRANCH  15  16
ATOM     16  C   UNL     1      57.953  29.278  50.559  1.00  0.00    -0.000 C 
BRANCH  16  17
ATOM     17  C   UNL     1      58.190  29.934  51.927  1.00  0.00    -0.000 C 
BRANCH  17  18
ATOM     18  C   UNL     1      57.708  29.025  53.065  1.00  0.00    -0.000 C 
BRANCH  18  19
ATOM     19  C   UNL     1      58.776  28.900  54.157  1.00  0.00    -0.003 C 
ATOM     20  C   UNL     1      60.171  29.166  53.598  1.00  0.00     0.004 C 
ENDBRANCH  18  19
ENDBRANCH  17  18
ENDBRANCH  16  17
ENDBRANCH  15  16
ENDBRANCH  14  15
ENDBRANCH  13  14
ENDBRANCH  12  13
ENDBRANCH   1  12
TORSDOF 16
ENDMDL
MODEL 4
REMARK VINA RESULT:    -3.196      3.139      5.083
REMARK INTER + INTRA:          -8.918
REMARK INTER:                  -6.305
REMARK INTRA:                  -2.613
REMARK UNBOUND:                -2.732
REMARK SMILES CCCCCCCCCCCCCCCCCC(=O)[O-]
REMARK SMILES IDX 10 1 11 2 12 3 13 4 14 5 15 6 16 7 17 8 18 9 19 10 20 11
REMARK SMILES IDX 9 12 8 13 7 14 6 15 5 16 4 17 3 18 2 19 1 20
REMARK H PARENT
REMARK Flexibility Score: inf
ROOT
ATOM      1  C   UNL     1      53.053  27.554  50.001  1.00  0.00     0.000 C 
ENDROOT
BRANCH   1   2
ATOM      2  C   UNL     1      53.652  26.644  51.083  1.00  0.00     0.000 C 
BRANCH   2   3
ATOM      3  C   UNL     1      54.672  25.668  50.477  1.00  0.00     0.000 C 
BRANCH   3   4
ATOM      4  C   UNL     1      56.014  26.341  50.147  1.00  0.00     0.000 C 
BRANCH   4   5
ATOM      5  C   UNL     1      57.206  25.639  50.817  1.00  0.00     0.000 C 
BRANCH   5   6
ATOM      6  C   UNL     1      57.077  25.677  52.348  1.00  0.00     0.000 C 
BRANCH   6   7
ATOM      7  C   UNL     1      58.227  24.944  53.057  1.00  0.00     0.006 C 
BRANCH   7   8
ATOM      8  C   UNL     1      59.602  25.529  52.713  1.00  0.00     0.053 C 
BRANCH   8   9
ATOM      9  C   UNL     1      60.461  24.495  52.056  1.00  0.00     0.041 C 
ATOM     10  O   UNL     1      61.707  24.663  51.977  1.00  0.00    -0.550 OA
ATOM     11  O   UNL     1      59.890  23.327  51.565  1.00  0.00    -0.550 OA
ENDBRANCH   8   9
ENDBRANCH   7   8
ENDBRANCH   6   7
ENDBRANCH   5   6
ENDBRANCH   4   5
ENDBRANCH   3   4
ENDBRANCH   2   3
ENDBRANCH   1   2
BRANCH   1  12
ATOM     12  C   UNL     1      53.120  29.047  50.371  1.00  0.00     0.000 C 
BRANCH  12  13
ATOM     13  C   UNL     1      54.231  29.417  51.375  1.00  0.00    -0.000 C 
BRANCH  13  14
ATOM     14  C   UNL     1      55.157  30.566  50.929  1.00  0.00    -0.000 C 
BRANCH  14  15
ATOM     15  C   UNL     1      56.620  30.155  50.660  1.00  0.00    -0.000 C 
BRANCH  15  16
ATOM     16  C   UNL     1      57.295  29.371  51.800  1.00  0.00    -0.000 C 
BRANCH  16  17
ATOM     17  C   UNL     1      58.757  29.014  51.493  1.00  0.00    -0.000 C 
BRANCH  17  18
ATOM     18  C   UNL     1      58.990  28.901  49.981  1.00  0.00    -0.000 C 
BRANCH  18  19
ATOM     19  C   UNL     1      59.883  27.698  49.652  1.00  0.00    -0.003 C 
ATOM     20  C   UNL     1      61.269  27.855  50.270  1.00  0.00     0.004 C 
ENDBRANCH  18  19
ENDBRANCH  17  18
ENDBRANCH  16  17
ENDBRANCH  15  16
ENDBRANCH  14  15
ENDBRANCH  13  14
ENDBRANCH  12  13
ENDBRANCH   1  12
TORSDOF 16
ENDMDL
MODEL 5
REMARK VINA RESULT:    -3.135      1.442      2.746
REMARK INTER + INTRA:          -8.800
REMARK INTER:                  -6.313
REMARK INTRA:                  -2.487
REMARK UNBOUND:                -2.732
REMARK SMILES CCCCCCCCCCCCCCCCCC(=O)[O-]
REMARK SMILES IDX 10 1 11 2 12 3 13 4 14 5 15 6 16 7 17 8 18 9 19 10 20 11
REMARK SMILES IDX 9 12 8 13 7 14 6 15 5 16 4 17 3 18 2 19 1 20
REMARK H PARENT
REMARK Flexibility Score: inf
ROOT
ATOM      1  C   UNL     1      56.177  26.100  50.545  1.00  0.00     0.000 C 
ENDROOT
BRANCH   1   2
ATOM      2  C   UNL     1      54.758  25.841  50.018  1.00  0.00     0.000 C 
BRANCH   2   3
ATOM      3  C   UNL     1      53.898  27.110  50.112  1.00  0.00     0.000 C 
BRANCH   3   4
ATOM      4  C   UNL     1      54.729  28.373  50.391  1.00  0.00     0.000 C 
BRANCH   4   5
ATOM      5  C   UNL     1      53.858  29.584  50.760  1.00  0.00     0.000 C 
BRANCH   5   6
ATOM      6  C   UNL     1      54.432  30.323  51.978  1.00  0.00     0.000 C 
BRANCH   6   7
ATOM      7  C   UNL     1      55.438  31.417  51.585  1.00  0.00     0.006 C 
BRANCH   7   8
ATOM      8  C   UNL     1      55.546  32.528  52.638  1.00  0.00     0.053 C 
BRANCH   8   9
ATOM      9  C   UNL     1      56.650  32.230  53.602  1.00  0.00     0.041 C 
ATOM     10  O   UNL     1      57.851  32.400  53.263  1.00  0.00    -0.550 OA
ATOM     11  O   UNL     1      56.351  31.801  54.890  1.00  0.00    -0.550 OA
ENDBRANCH   8   9
ENDBRANCH   7   8
ENDBRANCH   6   7
ENDBRANCH   5   6
ENDBRANCH   4   5
ENDBRANCH   3   4
ENDBRANCH   2   3
ENDBRANCH   1   2
BRANCH   1  12
ATOM     12  C   UNL     1      56.410  25.513  51.948  1.00  0.00     0.000 C 
BRANCH  12  13
ATOM     13  C   UNL     1      56.551  26.558  53.075  1.00  0.00    -0.000 C 
BRANCH  13  14
ATOM     14  C   UNL     1      57.881  27.337  53.079  1.00  0.00    -0.000 C 
BRANCH  14  15
ATOM     15  C   UNL     1      57.773  28.811  52.636  1.00  0.00    -0.000 C 
BRANCH  15  16
ATOM     16  C   UNL     1      58.878  29.282  51.673  1.00  0.00    -0.000 C 
BRANCH  16  17
ATOM     17  C   UNL     1      58.561  28.968  50.203  1.00  0.00    -0.000 C 
BRANCH  17  18
ATOM     18  C   UNL     1      59.438  27.821  49.684  1.00  0.00    -0.000 C 
BRANCH  18  19
ATOM     19  C   UNL     1      60.596  27.537  50.648  1.00  0.00    -0.003 C 
ATOM     20  C   UNL     1      61.943  27.830  49.994  1.00  0.00     0.004 C 
ENDBRANCH  18  19
ENDBRANCH  17  18
ENDBRANCH  16  17
ENDBRANCH  15  16
ENDBRANCH  14  15
ENDBRANCH  13  14
ENDBRANCH  12  13
ENDBRANCH   1  12
TORSDOF 16
ENDMDL
MODEL 6
REMARK VINA RESULT:    -3.116      2.513      5.518
REMARK INTER + INTRA:          -8.764
REMARK INTER:                  -5.963
REMARK INTRA:                  -2.800
REMARK UNBOUND:                -2.732
REMARK SMILES CCCCCCCCCCCCCCCCCC(=O)[O-]
REMARK SMILES IDX 10 1 11 2 12 3 13 4 14 5 15 6 16 7 17 8 18 9 19 10 20 11
REMARK SMILES IDX 9 12 8 13 7 14 6 15 5 16 4 17 3 18 2 19 1 20
REMARK H PARENT
REMARK Flexibility Score: inf
ROOT
ATOM      1  C   UNL     1      55.945  25.615  51.134  1.00  0.00     0.000 C 
ENDROOT
BRANCH   1   2
ATOM      2  C   UNL     1      55.215  25.807  52.471  1.00  0.00     0.000 C 
BRANCH   2   3
ATOM      3  C   UNL     1      56.056  26.653  53.438  1.00  0.00     0.000 C 
BRANCH   3   4
ATOM      4  C   UNL     1      57.316  27.236  52.777  1.00  0.00     0.000 C 
BRANCH   4   5
ATOM      5  C   UNL     1      57.507  28.729  53.086  1.00  0.00     0.000 C 
BRANCH   5   6
ATOM      6  C   UNL     1      58.241  29.438  51.937  1.00  0.00     0.000 C 
BRANCH   6   7
ATOM      7  C   UNL     1      57.947  28.804  50.568  1.00  0.00     0.006 C 
BRANCH   7   8
ATOM      8  C   UNL     1      59.170  28.803  49.642  1.00  0.00     0.053 C 
BRANCH   8   9
ATOM      9  C   UNL     1      59.942  27.531  49.795  1.00  0.00     0.041 C 
ATOM     10  O   UNL     1      61.200  27.556  49.854  1.00  0.00    -0.550 OA
ATOM     11  O   UNL     1      59.270  26.320  49.914  1.00  0.00    -0.550 OA
ENDBRANCH   8   9
ENDBRANCH   7   8
ENDBRANCH   6   7
ENDBRANCH   5   6
ENDBRANCH   4   5
ENDBRANCH   3   4
ENDBRANCH   2   3
ENDBRANCH   1   2
BRANCH   1  12
ATOM     12  C   UNL     1      55.083  26.007  49.920  1.00  0.00     0.000 C 
BRANCH  12  13
ATOM     13  C   UNL     1      53.662  26.498  50.265  1.00  0.00    -0.000 C 
BRANCH  13  14
ATOM     14  C   UNL     1      53.454  28.021  50.160  1.00  0.00    -0.000 C 
BRANCH  14  15
ATOM     15  C   UNL     1      54.605  28.876  50.732  1.00  0.00    -0.000 C 
BRANCH  15  16
ATOM     16  C   UNL     1      54.316  30.386  50.809  1.00  0.00    -0.000 C 
BRANCH  16  17
ATOM     17  C   UNL     1      54.592  30.974  52.201  1.00  0.00    -0.000 C 
BRANCH  17  18
ATOM     18  C   UNL     1      54.003  30.082  53.302  1.00  0.00    -0.000 C 
BRANCH  18  19
ATOM     19  C   UNL     1      54.536  30.489  54.681  1.00  0.00    -0.003 C 
ATOM     20  C   UNL     1      54.725  29.271  55.581  1.00  0.00     0.004 C 
ENDBRANCH  18  19
ENDBRANCH  17  18
ENDBRANCH  16  17
ENDBRANCH  15  16
ENDBRANCH  14  15
ENDBRANCH  13  14
ENDBRANCH  12  13
ENDBRANCH   1  12
TORSDOF 16
ENDMDL
MODEL 7
REMARK VINA RESULT:    -3.107      3.404      5.746
REMARK INTER + INTRA:          -8.746
REMARK INTER:                  -6.064
REMARK INTRA:                  -2.683
REMARK UNBOUND:                -2.732
REMARK SMILES CCCCCCCCCCCCCCCCCC(=O)[O-]
REMARK SMILES IDX 10 1 11 2 12 3 13 4 14 5 15 6 16 7 17 8 18 9 19 10 20 11
REMARK SMILES IDX 9 12 8 13 7 14 6 15 5 16 4 17 3 18 2 19 1 20
REMARK H PARENT
REMARK Flexibility Score: inf
ROOT
ATOM      1  C   UNL     1      54.786  26.193  50.068  1.00  0.00     0.000 C 
ENDROOT
BRANCH   1   2
ATOM      2  C   UNL     1      55.101  25.681  51.481  1.00  0.00     0.000 C 
BRANCH   2   3
ATOM      3  C   UNL     1      56.603  25.405  51.643  1.00  0.00     0.000 C 
BRANCH   3   4
ATOM      4  C   UNL     1      57.434  25.930  50.461  1.00  0.00     0.000 C 
BRANCH   4   5
ATOM      5  C   UNL     1      58.946  25.770  50.686  1.00  0.00     0.000 C 
BRANCH   5   6
ATOM      6  C   UNL     1      59.731  26.864  49.945  1.00  0.00     0.000 C 
BRANCH   6   7
ATOM      7  C   UNL     1      60.849  27.475  50.804  1.00  0.00     0.006 C 
BRANCH   7   8
ATOM      8  C   UNL     1      62.110  27.798  49.992  1.00  0.00     0.053 C 
BRANCH   8   9
ATOM      9  C   UNL     1      63.257  26.954  50.450  1.00  0.00     0.041 C 
ATOM     10  O   UNL     1      63.344  26.603  51.657  1.00  0.00    -0.550 OA
ATOM     11  O   UNL     1      64.211  26.522  49.535  1.00  0.00    -0.550 OA
ENDBRANCH   8   9
ENDBRANCH   7   8
ENDBRANCH   6   7
ENDBRANCH   5   6
ENDBRANCH   4   5
ENDBRANCH   3   4
ENDBRANCH   2   3
ENDBRANCH   1   2
BRANCH   1  12
ATOM     12  C   UNL     1      54.038  27.539  50.073  1.00  0.00     0.000 C 
BRANCH  12  13
ATOM     13  C   UNL     1      54.413  28.486  51.231  1.00  0.00    -0.000 C 
BRANCH  13  14
ATOM     14  C   UNL     1      54.476  29.980  50.858  1.00  0.00    -0.000 C 
BRANCH  14  15
ATOM     15  C   UNL     1      55.892  30.592  50.857  1.00  0.00    -0.000 C 
BRANCH  15  16
ATOM     16  C   UNL     1      57.042  29.570  50.792  1.00  0.00    -0.000 C 
BRANCH  16  17
ATOM     17  C   UNL     1      58.077  29.767  51.910  1.00  0.00    -0.000 C 
BRANCH  17  18
ATOM     18  C   UNL     1      57.995  28.635  52.942  1.00  0.00    -0.000 C 
BRANCH  18  19
ATOM     19  C   UNL     1      57.160  29.058  54.155  1.00  0.00    -0.003 C 
ATOM     20  C   UNL     1      55.982  28.111  54.371  1.00  0.00     0.004 C 
ENDBRANCH  18  19
ENDBRANCH  17  18
ENDBRANCH  16  17
ENDBRANCH  15  16
ENDBRANCH  14  15
ENDBRANCH  13  14
ENDBRANCH  12  13
ENDBRANCH   1  12
TORSDOF 16
ENDMDL
MODEL 8
REMARK VINA RESULT:    -3.079      3.532      6.602
REMARK INTER + INTRA:          -8.692
REMARK INTER:                  -6.877
REMARK INTRA:                  -1.815
REMARK UNBOUND:                -2.732
REMARK SMILES CCCCCCCCCCCCCCCCCC(=O)[O-]
REMARK SMILES IDX 10 1 11 2 12 3 13 4 14 5 15 6 16 7 17 8 18 9 19 10 20 11
REMARK SMILES IDX 9 12 8 13 7 14 6 15 5 16 4 17 3 18 2 19 1 20
REMARK H PARENT
REMARK Flexibility Score: inf
ROOT
ATOM      1  C   UNL     1      57.574  28.588  52.728  1.00  0.00     0.000 C 
ENDROOT
BRANCH   1   2
ATOM      2  C   UNL     1      58.918  27.853  52.633  1.00  0.00     0.000 C 
BRANCH   2   3
ATOM      3  C   UNL     1      58.808  26.623  51.720  1.00  0.00     0.000 C 
BRANCH   3   4
ATOM      4  C   UNL     1      58.767  26.991  50.229  1.00  0.00     0.000 C 
BRANCH   4   5
ATOM      5  C   UNL     1      59.911  27.935  49.823  1.00  0.00     0.000 C 
BRANCH   5   6
ATOM      6  C   UNL     1      61.274  27.240  49.968  1.00  0.00     0.000 C 
BRANCH   6   7
ATOM      7  C   UNL     1      62.426  28.236  50.176  1.00  0.00     0.006 C 
BRANCH   7   8
ATOM      8  C   UNL     1      63.652  27.912  49.313  1.00  0.00     0.053 C 
BRANCH   8   9
ATOM      9  C   UNL     1      64.240  29.166  48.748  1.00  0.00     0.041 C 
ATOM     10  O   UNL     1      63.927  30.286  49.230  1.00  0.00    -0.550 OA
ATOM     11  O   UNL     1      65.167  29.095  47.714  1.00  0.00    -0.550 OA
ENDBRANCH   8   9
ENDBRANCH   7   8
ENDBRANCH   6   7
ENDBRANCH   5   6
ENDBRANCH   4   5
ENDBRANCH   3   4
ENDBRANCH   2   3
ENDBRANCH   1   2
BRANCH   1  12
ATOM     12  C   UNL     1      57.622  30.003  52.123  1.00  0.00     0.000 C 
BRANCH  12  13
ATOM     13  C   UNL     1      56.854  30.168  50.795  1.00  0.00    -0.000 C 
BRANCH  13  14
ATOM     14  C   UNL     1      55.488  30.871  50.914  1.00  0.00    -0.000 C 
BRANCH  14  15
ATOM     15  C   UNL     1      54.332  29.972  51.399  1.00  0.00    -0.000 C 
BRANCH  15  16
ATOM     16  C   UNL     1      53.551  29.259  50.281  1.00  0.00    -0.000 C 
BRANCH  16  17
ATOM     17  C   UNL     1      53.422  27.746  50.516  1.00  0.00    -0.000 C 
BRANCH  17  18
ATOM     18  C   UNL     1      54.774  27.132  50.901  1.00  0.00    -0.000 C 
BRANCH  18  19
ATOM     19  C   UNL     1      55.120  25.951  49.987  1.00  0.00    -0.003 C 
ATOM     20  C   UNL     1      53.861  25.225  49.522  1.00  0.00     0.004 C 
ENDBRANCH  18  19
ENDBRANCH  17  18
ENDBRANCH  16  17
ENDBRANCH  15  16
ENDBRANCH  14  15
ENDBRANCH  13  14
ENDBRANCH  12  13
ENDBRANCH   1  12
TORSDOF 16
ENDMDL
MODEL 9
REMARK VINA RESULT:    -3.038      3.399      6.232
REMARK INTER + INTRA:          -8.612
REMARK INTER:                  -6.134
REMARK INTRA:                  -2.479
REMARK UNBOUND:                -2.732
REMARK SMILES CCCCCCCCCCCCCCCCCC(=O)[O-]
REMARK SMILES IDX 10 1 11 2 12 3 13 4 14 5 15 6 16 7 17 8 18 9 19 10 20 11
REMARK SMILES IDX 9 12 8 13 7 14 6 15 5 16 4 17 3 18 2 19 1 20
REMARK H PARENT
REMARK Flexibility Score: inf
ROOT
ATOM      1  C   UNL     1      56.118  30.193  50.967  1.00  0.00     0.000 C 
ENDROOT
BRANCH   1   2
ATOM      2  C   UNL     1      57.230  29.219  51.385  1.00  0.00     0.000 C 
BRANCH   2   3
ATOM      3  C   UNL     1      58.132  28.872  50.191  1.00  0.00     0.000 C 
BRANCH   3   4
ATOM      4  C   UNL     1      59.622  28.828  50.565  1.00  0.00     0.000 C 
BRANCH   4   5
ATOM      5  C   UNL     1      60.306  27.527  50.116  1.00  0.00     0.000 C 
BRANCH   5   6
ATOM      6  C   UNL     1      59.277  26.399  49.940  1.00  0.00     0.000 C 
BRANCH   6   7
ATOM      7  C   UNL     1      59.595  25.168  50.805  1.00  0.00     0.006 C 
BRANCH   7   8
ATOM      8  C   UNL     1      60.713  25.434  51.822  1.00  0.00     0.053 C 
BRANCH   8   9
ATOM      9  C   UNL     1      61.551  24.209  52.010  1.00  0.00     0.041 C 
ATOM     10  O   UNL     1      61.054  23.173  52.526  1.00  0.00    -0.550 OA
ATOM     11  O   UNL     1      62.872  24.198  51.577  1.00  0.00    -0.550 OA
ENDBRANCH   8   9
ENDBRANCH   7   8
ENDBRANCH   6   7
ENDBRANCH   5   6
ENDBRANCH   4   5
ENDBRANCH   3   4
ENDBRANCH   2   3
ENDBRANCH   1   2
BRANCH   1  12
ATOM     12  C   UNL     1      54.732  29.777  51.491  1.00  0.00     0.000 C 
BRANCH  12  13
ATOM     13  C   UNL     1      53.643  29.637  50.407  1.00  0.00    -0.000 C 
BRANCH  13  14
ATOM     14  C   UNL     1      52.984  28.247  50.320  1.00  0.00    -0.000 C 
BRANCH  14  15
ATOM     15  C   UNL     1      53.793  27.101  50.963  1.00  0.00    -0.000 C 
BRANCH  15  16
ATOM     16  C   UNL     1      54.812  26.422  50.030  1.00  0.00    -0.000 C 
BRANCH  16  17
ATOM     17  C   UNL     1      55.920  25.684  50.796  1.00  0.00    -0.000 C 
BRANCH  17  18
ATOM     18  C   UNL     1      55.530  25.477  52.265  1.00  0.00    -0.000 C 
BRANCH  18  19
ATOM     19  C   UNL     1      56.759  25.131  53.115  1.00  0.00    -0.003 C 
ATOM     20  C   UNL     1      57.448  26.392  53.629  1.00  0.00     0.004 C 
ENDBRANCH  18  19
ENDBRANCH  17  18
ENDBRANCH  16  17
ENDBRANCH  15  16
ENDBRANCH  14  15
ENDBRANCH  13  14
ENDBRANCH  12  13
ENDBRANCH   1  12
TORSDOF 16
ENDMDL
