MODEL 1
REMARK VINA RESULT:    -3.169      0.000      0.000
REMARK INTER + INTRA:          -8.727
REMARK INTER:                  -6.133
REMARK INTRA:                  -2.594
REMARK UNBOUND:                -2.594
REMARK SMILES CCCCCCCCCCCCCCCCCC(=O)[O-]
REMARK SMILES IDX 10 1 11 2 12 3 13 4 14 5 15 6 16 7 17 8 18 9 19 10 20 11
REMARK SMILES IDX 9 12 8 13 7 14 6 15 5 16 4 17 3 18 2 19 1 20
REMARK H PARENT
REMARK Flexibility Score: inf
ROOT
ATOM      1  C   UNL     1      25.232  21.047  43.546  1.00  0.00     0.000 C 
ENDROOT
BRANCH   1   2
ATOM      2  C   UNL     1      25.761  19.639  43.878  1.00  0.00     0.000 C 
BRANCH   2   3
ATOM      3  C   UNL     1      26.298  19.457  45.313  1.00  0.00     0.000 C 
BRANCH   3   4
ATOM      4  C   UNL     1      27.818  19.645  45.469  1.00  0.00     0.000 C 
BRANCH   4   5
ATOM      5  C   UNL     1      28.222  21.120  45.630  1.00  0.00     0.000 C 
BRANCH   5   6
ATOM      6  C   UNL     1      29.154  21.614  44.508  1.00  0.00     0.000 C 
BRANCH   6   7
ATOM      7  C   UNL     1      29.281  20.659  43.305  1.00  0.00     0.006 C 
BRANCH   7   8
ATOM      8  C   UNL     1      28.641  21.216  42.028  1.00  0.00     0.053 C 
BRANCH   8   9
ATOM      9  C   UNL     1      29.558  21.028  40.861  1.00  0.00     0.041 C 
ATOM     10  O   UNL     1      29.802  19.873  40.424  1.00  0.00    -0.550 OA
ATOM     11  O   UNL     1      30.115  22.135  40.230  1.00  0.00    -0.550 OA
ENDBRANCH   8   9
ENDBRANCH   7   8
ENDBRANCH   6   7
ENDBRANCH   5   6
ENDBRANCH   4   5
ENDBRANCH   3   4
ENDBRANCH   2   3
ENDBRANCH   1   2
BRANCH   1  12
ATOM     12  C   UNL     1      24.833  21.203  42.069  1.00  0.00     0.000 C 
BRANCH  12  13
ATOM     13  C   UNL     1      25.125  19.944  41.231  1.00  0.00    -0.000 C 
BRANCH  13  14
ATOM     14  C   UNL     1      24.011  19.534  40.250  1.00  0.00    -0.000 C 
BRANCH  14  15
ATOM     15  C   UNL     1      23.307  18.226  40.650  1.00  0.00    -0.000 C 
BRANCH  15  16
ATOM     16  C   UNL     1      22.458  18.391  41.920  1.00  0.00    -0.000 C 
BRANCH  16  17
ATOM     17  C   UNL     1      22.701  17.267  42.941  1.00  0.00    -0.000 C 
BRANCH  17  18
ATOM     18  C   UNL     1      22.701  17.792  44.392  1.00  0.00    -0.000 C 
BRANCH  18  19
ATOM     19  C   UNL     1      21.800  19.021  44.599  1.00  0.00    -0.003 C 
ATOM     20  C   UNL     1      22.323  19.974  45.670  1.00  0.00     0.004 C 
ENDBRANCH  18  19
ENDBRANCH  17  18
ENDBRANCH  16  17
ENDBRANCH  15  16
ENDBRANCH  14  15
ENDBRANCH  13  14
ENDBRANCH  12  13
ENDBRANCH   1  12
TORSDOF 16
ENDMDL
MODEL 2
REMARK VINA RESULT:    -3.132     15.176     17.405
REMARK INTER + INTRA:          -8.655
REMARK INTER:                  -5.526
REMARK INTRA:                  -3.129
REMARK UNBOUND:                -2.594
REMARK SMILES CCCCCCCCCCCCCCCCCC(=O)[O-]
REMARK SMILES IDX 10 1 11 2 12 3 13 4 14 5 15 6 16 7 17 8 18 9 19 10 20 11
REMARK SMILES IDX 9 12 8 13 7 14 6 15 5 16 4 17 3 18 2 19 1 20
REMARK H PARENT
REMARK Flexibility Score: inf
ROOT
ATOM      1  C   UNL     1      28.948  34.178  54.079  1.00  0.00     0.000 C 
ENDROOT
BRANCH   1   2
ATOM      2  C   UNL     1      27.439  34.042  53.804  1.00  0.00     0.000 C 
BRANCH   2   3
ATOM      3  C   UNL     1      27.068  33.324  52.489  1.00  0.00     0.000 C 
BRANCH   3   4
ATOM      4  C   UNL     1      25.591  32.910  52.366  1.00  0.00     0.000 C 
BRANCH   4   5
ATOM      5  C   UNL     1      25.416  31.419  52.033  1.00  0.00     0.000 C 
BRANCH   5   6
ATOM      6  C   UNL     1      24.743  30.625  53.168  1.00  0.00     0.000 C 
BRANCH   6   7
ATOM      7  C   UNL     1      24.794  31.303  54.551  1.00  0.00     0.006 C 
BRANCH   7   8
ATOM      8  C   UNL     1      23.943  30.583  55.603  1.00  0.00     0.053 C 
BRANCH   8   9
ATOM      9  C   UNL     1      24.781  29.622  56.385  1.00  0.00     0.041 C 
ATOM     10  O   UNL     1      25.258  29.957  57.501  1.00  0.00    -0.550 OA
ATOM     11  O   UNL     1      25.006  28.340  55.898  1.00  0.00    -0.550 OA
ENDBRANCH   8   9
ENDBRANCH   7   8
ENDBRANCH   6   7
ENDBRANCH   5   6
ENDBRANCH   4   5
ENDBRANCH   3   4
ENDBRANCH   2   3
ENDBRANCH   1   2
BRANCH   1  12
ATOM     12  C   UNL     1      29.813  33.833  52.855  1.00  0.00     0.000 C 
BRANCH  12  13
ATOM     13  C   UNL     1      30.809  32.690  53.125  1.00  0.00    -0.000 C 
BRANCH  13  14
ATOM     14  C   UNL     1      30.457  31.342  52.468  1.00  0.00    -0.000 C 
BRANCH  14  15
ATOM     15  C   UNL     1      30.068  30.259  53.489  1.00  0.00    -0.000 C 
BRANCH  15  16
ATOM     16  C   UNL     1      28.557  30.238  53.765  1.00  0.00    -0.000 C 
BRANCH  16  17
ATOM     17  C   UNL     1      28.232  29.956  55.241  1.00  0.00    -0.000 C 
BRANCH  17  18
ATOM     18  C   UNL     1      28.204  31.247  56.086  1.00  0.00    -0.000 C 
BRANCH  18  19
ATOM     19  C   UNL     1      29.286  31.288  57.179  1.00  0.00    -0.003 C 
ATOM     20  C   UNL     1      30.507  32.112  56.782  1.00  0.00     0.004 C 
ENDBRANCH  18  19
ENDBRANCH  17  18
ENDBRANCH  16  17
ENDBRANCH  15  16
ENDBRANCH  14  15
ENDBRANCH  13  14
ENDBRANCH  12  13
ENDBRANCH   1  12
TORSDOF 16
ENDMDL
MODEL 3
REMARK VINA RESULT:    -3.080      5.778      8.193
REMARK INTER + INTRA:          -8.555
REMARK INTER:                  -5.752
REMARK INTRA:                  -2.803
REMARK UNBOUND:                -2.594
REMARK SMILES CCCCCCCCCCCCCCCCCC(=O)[O-]
REMARK SMILES IDX 10 1 11 2 12 3 13 4 14 5 15 6 16 7 17 8 18 9 19 10 20 11
REMARK SMILES IDX 9 12 8 13 7 14 6 15 5 16 4 17 3 18 2 19 1 20
REMARK H PARENT
REMARK Flexibility Score: inf
ROOT
ATOM      1  C   UNL     1      22.761  21.563  42.262  1.00  0.00     0.000 C 
ENDROOT
BRANCH   1   2
ATOM      2  C   UNL     1      21.347  21.798  41.699  1.00  0.00     0.000 C 
BRANCH   2   3
ATOM      3  C   UNL     1      20.520  20.522  41.433  1.00  0.00     0.000 C 
BRANCH   3   4
ATOM      4  C   UNL     1      19.206  20.419  42.228  1.00  0.00     0.000 C 
BRANCH   4   5
ATOM      5  C   UNL     1      19.070  21.515  43.298  1.00  0.00     0.000 C 
BRANCH   5   6
ATOM      6  C   UNL     1      18.118  21.122  44.443  1.00  0.00     0.000 C 
BRANCH   6   7
ATOM      7  C   UNL     1      17.637  19.659  44.411  1.00  0.00     0.006 C 
BRANCH   7   8
ATOM      8  C   UNL     1      18.047  18.866  45.657  1.00  0.00     0.053 C 
BRANCH   8   9
ATOM      9  C   UNL     1      16.887  18.723  46.591  1.00  0.00     0.041 C 
ATOM     10  O   UNL     1      15.728  19.043  46.218  1.00  0.00    -0.550 OA
ATOM     11  O   UNL     1      17.081  18.200  47.864  1.00  0.00    -0.550 OA
ENDBRANCH   8   9
ENDBRANCH   7   8
ENDBRANCH   6   7
ENDBRANCH   5   6
ENDBRANCH   4   5
ENDBRANCH   3   4
ENDBRANCH   2   3
ENDBRANCH   1   2
BRANCH   1  12
ATOM     12  C   UNL     1      23.834  21.469  41.165  1.00  0.00     0.000 C 
BRANCH  12  13
ATOM     13  C   UNL     1      24.234  20.018  40.838  1.00  0.00    -0.000 C 
BRANCH  13  14
ATOM     14  C   UNL     1      24.045  19.009  41.987  1.00  0.00    -0.000 C 
BRANCH  14  15
ATOM     15  C   UNL     1      23.065  17.877  41.637  1.00  0.00    -0.000 C 
BRANCH  15  16
ATOM     16  C   UNL     1      22.707  17.022  42.862  1.00  0.00    -0.000 C 
BRANCH  16  17
ATOM     17  C   UNL     1      22.797  17.812  44.179  1.00  0.00    -0.000 C 
BRANCH  17  18
ATOM     18  C   UNL     1      21.468  18.518  44.524  1.00  0.00    -0.000 C 
BRANCH  18  19
ATOM     19  C   UNL     1      21.654  19.810  45.337  1.00  0.00    -0.003 C 
ATOM     20  C   UNL     1      23.113  20.097  45.679  1.00  0.00     0.004 C 
ENDBRANCH  18  19
ENDBRANCH  17  18
ENDBRANCH  16  17
ENDBRANCH  15  16
ENDBRANCH  14  15
ENDBRANCH  13  14
ENDBRANCH  12  13
ENDBRANCH   1  12
TORSDOF 16
ENDMDL
MODEL 4
REMARK VINA RESULT:    -3.043     15.176     17.280
REMARK INTER + INTRA:          -8.483
REMARK INTER:                  -5.975
REMARK INTRA:                  -2.508
REMARK UNBOUND:                -2.594
REMARK SMILES CCCCCCCCCCCCCCCCCC(=O)[O-]
REMARK SMILES IDX 10 1 11 2 12 3 13 4 14 5 15 6 16 7 17 8 18 9 19 10 20 11
REMARK SMILES IDX 9 12 8 13 7 14 6 15 5 16 4 17 3 18 2 19 1 20
REMARK H PARENT
REMARK Flexibility Score: inf
ROOT
ATOM      1  C   UNL     1      25.758  33.568  52.907  1.00  0.00     0.000 C 
ENDROOT
BRANCH   1   2
ATOM      2  C   UNL     1      25.215  32.326  53.638  1.00  0.00     0.000 C 
BRANCH   2   3
ATOM      3  C   UNL     1      25.612  30.969  53.019  1.00  0.00     0.000 C 
BRANCH   3   4
ATOM      4  C   UNL     1      26.656  30.169  53.819  1.00  0.00     0.000 C 
BRANCH   4   5
ATOM      5  C   UNL     1      26.472  30.303  55.340  1.00  0.00     0.000 C 
BRANCH   5   6
ATOM      6  C   UNL     1      25.399  29.352  55.901  1.00  0.00     0.000 C 
BRANCH   6   7
ATOM      7  C   UNL     1      24.382  30.012  56.852  1.00  0.00     0.006 C 
BRANCH   7   8
ATOM      8  C   UNL     1      23.125  30.514  56.131  1.00  0.00     0.053 C 
BRANCH   8   9
ATOM      9  C   UNL     1      21.898  30.147  56.905  1.00  0.00     0.041 C 
ATOM     10  O   UNL     1      21.802  30.447  58.124  1.00  0.00    -0.550 OA
ATOM     11  O   UNL     1      20.842  29.505  56.269  1.00  0.00    -0.550 OA
ENDBRANCH   8   9
ENDBRANCH   7   8
ENDBRANCH   6   7
ENDBRANCH   5   6
ENDBRANCH   4   5
ENDBRANCH   3   4
ENDBRANCH   2   3
ENDBRANCH   1   2
BRANCH   1  12
ATOM     12  C   UNL     1      26.668  34.433  53.794  1.00  0.00     0.000 C 
BRANCH  12  13
ATOM     13  C   UNL     1      27.963  33.711  54.211  1.00  0.00    -0.000 C 
BRANCH  13  14
ATOM     14  C   UNL     1      29.046  33.619  53.120  1.00  0.00    -0.000 C 
BRANCH  14  15
ATOM     15  C   UNL     1      29.490  32.175  52.832  1.00  0.00    -0.000 C 
BRANCH  15  16
ATOM     16  C   UNL     1      29.285  31.789  51.359  1.00  0.00    -0.000 C 
BRANCH  16  17
ATOM     17  C   UNL     1      28.536  32.873  50.565  1.00  0.00    -0.000 C 
BRANCH  17  18
ATOM     18  C   UNL     1      27.306  32.304  49.827  1.00  0.00    -0.000 C 
BRANCH  18  19
ATOM     19  C   UNL     1      26.431  33.386  49.171  1.00  0.00    -0.003 C 
ATOM     20  C   UNL     1      26.512  33.379  47.647  1.00  0.00     0.004 C 
ENDBRANCH  18  19
ENDBRANCH  17  18
ENDBRANCH  16  17
ENDBRANCH  15  16
ENDBRANCH  14  15
ENDBRANCH  13  14
ENDBRANCH  12  13
ENDBRANCH   1  12
TORSDOF 16
ENDMDL
MODEL 5
REMARK VINA RESULT:    -3.026     15.312     17.277
REMARK INTER + INTRA:          -8.451
REMARK INTER:                  -5.464
REMARK INTRA:                  -2.987
REMARK UNBOUND:                -2.594
REMARK SMILES CCCCCCCCCCCCCCCCCC(=O)[O-]
REMARK SMILES IDX 10 1 11 2 12 3 13 4 14 5 15 6 16 7 17 8 18 9 19 10 20 11
REMARK SMILES IDX 9 12 8 13 7 14 6 15 5 16 4 17 3 18 2 19 1 20
REMARK H PARENT
REMARK Flexibility Score: inf
ROOT
ATOM      1  C   UNL     1      30.005  31.662  53.103  1.00  0.00     0.000 C 
ENDROOT
BRANCH   1   2
ATOM      2  C   UNL     1      31.114  30.657  53.465  1.00  0.00     0.000 C 
BRANCH   2   3
ATOM      3  C   UNL     1      32.306  31.242  54.252  1.00  0.00     0.000 C 
BRANCH   3   4
ATOM      4  C   UNL     1      32.295  30.951  55.763  1.00  0.00     0.000 C 
BRANCH   4   5
ATOM      5  C   UNL     1      31.881  32.172  56.602  1.00  0.00     0.000 C 
BRANCH   5   6
ATOM      6  C   UNL     1      30.360  32.266  56.816  1.00  0.00     0.000 C 
BRANCH   6   7
ATOM      7  C   UNL     1      29.644  30.912  56.987  1.00  0.00     0.006 C 
BRANCH   7   8
ATOM      8  C   UNL     1      28.194  30.934  56.490  1.00  0.00     0.053 C 
BRANCH   8   9
ATOM      9  C   UNL     1      27.886  29.687  55.722  1.00  0.00     0.041 C 
ATOM     10  O   UNL     1      26.727  29.486  55.273  1.00  0.00    -0.550 OA
ATOM     11  O   UNL     1      28.892  28.761  55.470  1.00  0.00    -0.550 OA
ENDBRANCH   8   9
ENDBRANCH   7   8
ENDBRANCH   6   7
ENDBRANCH   5   6
ENDBRANCH   4   5
ENDBRANCH   3   4
ENDBRANCH   2   3
ENDBRANCH   1   2
BRANCH   1  12
ATOM     12  C   UNL     1      30.509  33.114  53.044  1.00  0.00     0.000 C 
BRANCH  12  13
ATOM     13  C   UNL     1      29.446  34.137  53.485  1.00  0.00    -0.000 C 
BRANCH  13  14
ATOM     14  C   UNL     1      28.161  33.535  54.083  1.00  0.00    -0.000 C 
BRANCH  14  15
ATOM     15  C   UNL     1      26.938  34.456  53.932  1.00  0.00    -0.000 C 
BRANCH  15  16
ATOM     16  C   UNL     1      25.666  33.676  53.566  1.00  0.00    -0.000 C 
BRANCH  16  17
ATOM     17  C   UNL     1      25.968  32.236  53.115  1.00  0.00    -0.000 C 
BRANCH  17  18
ATOM     18  C   UNL     1      25.624  32.011  51.628  1.00  0.00    -0.000 C 
BRANCH  18  19
ATOM     19  C   UNL     1      26.195  33.093  50.696  1.00  0.00    -0.003 C 
ATOM     20  C   UNL     1      27.673  32.887  50.373  1.00  0.00     0.004 C 
ENDBRANCH  18  19
ENDBRANCH  17  18
ENDBRANCH  16  17
ENDBRANCH  15  16
ENDBRANCH  14  15
ENDBRANCH  13  14
ENDBRANCH  12  13
ENDBRANCH   1  12
TORSDOF 16
ENDMDL
MODEL 6
REMARK VINA RESULT:    -3.025     15.656     17.740
REMARK INTER + INTRA:          -8.449
REMARK INTER:                  -5.687
REMARK INTRA:                  -2.762
REMARK UNBOUND:                -2.594
REMARK SMILES CCCCCCCCCCCCCCCCCC(=O)[O-]
REMARK SMILES IDX 10 1 11 2 12 3 13 4 14 5 15 6 16 7 17 8 18 9 19 10 20 11
REMARK SMILES IDX 9 12 8 13 7 14 6 15 5 16 4 17 3 18 2 19 1 20
REMARK H PARENT
REMARK Flexibility Score: inf
ROOT
ATOM      1  C   UNL     1      29.831  31.484  53.170  1.00  0.00     0.000 C 
ENDROOT
BRANCH   1   2
ATOM      2  C   UNL     1      31.052  30.596  53.475  1.00  0.00     0.000 C 
BRANCH   2   3
ATOM      3  C   UNL     1      32.205  31.293  54.228  1.00  0.00     0.000 C 
BRANCH   3   4
ATOM      4  C   UNL     1      32.143  31.182  55.762  1.00  0.00     0.000 C 
BRANCH   4   5
ATOM      5  C   UNL     1      31.609  32.460  56.431  1.00  0.00     0.000 C 
BRANCH   5   6
ATOM      6  C   UNL     1      30.174  32.301  56.967  1.00  0.00     0.000 C 
BRANCH   6   7
ATOM      7  C   UNL     1      29.702  30.844  57.133  1.00  0.00     0.006 C 
BRANCH   7   8
ATOM      8  C   UNL     1      28.178  30.696  57.052  1.00  0.00     0.053 C 
BRANCH   8   9
ATOM      9  C   UNL     1      27.621  30.292  58.381  1.00  0.00     0.041 C 
ATOM     10  O   UNL     1      27.271  29.101  58.588  1.00  0.00    -0.550 OA
ATOM     11  O   UNL     1      27.522  31.227  59.405  1.00  0.00    -0.550 OA
ENDBRANCH   8   9
ENDBRANCH   7   8
ENDBRANCH   6   7
ENDBRANCH   5   6
ENDBRANCH   4   5
ENDBRANCH   3   4
ENDBRANCH   2   3
ENDBRANCH   1   2
BRANCH   1  12
ATOM     12  C   UNL     1      30.215  32.934  52.833  1.00  0.00     0.000 C 
BRANCH  12  13
ATOM     13  C   UNL     1      29.386  33.972  53.613  1.00  0.00    -0.000 C 
BRANCH  13  14
ATOM     14  C   UNL     1      28.029  33.468  54.140  1.00  0.00    -0.000 C 
BRANCH  14  15
ATOM     15  C   UNL     1      26.893  34.485  53.945  1.00  0.00    -0.000 C 
BRANCH  15  16
ATOM     16  C   UNL     1      25.674  33.865  53.244  1.00  0.00    -0.000 C 
BRANCH  16  17
ATOM     17  C   UNL     1      26.071  32.945  52.077  1.00  0.00    -0.000 C 
BRANCH  17  18
ATOM     18  C   UNL     1      25.274  31.623  52.083  1.00  0.00    -0.000 C 
BRANCH  18  19
ATOM     19  C   UNL     1      25.082  31.030  53.490  1.00  0.00    -0.003 C 
ATOM     20  C   UNL     1      26.267  30.186  53.950  1.00  0.00     0.004 C 
ENDBRANCH  18  19
ENDBRANCH  17  18
ENDBRANCH  16  17
ENDBRANCH  15  16
ENDBRANCH  14  15
ENDBRANCH  13  14
ENDBRANCH  12  13
ENDBRANCH   1  12
TORSDOF 16
ENDMDL
MODEL 7
REMARK VINA RESULT:    -3.003     16.220     18.367
REMARK INTER + INTRA:          -8.406
REMARK INTER:                  -6.133
REMARK INTRA:                  -2.274
REMARK UNBOUND:                -2.594
REMARK SMILES CCCCCCCCCCCCCCCCCC(=O)[O-]
REMARK SMILES IDX 10 1 11 2 12 3 13 4 14 5 15 6 16 7 17 8 18 9 19 10 20 11
REMARK SMILES IDX 9 12 8 13 7 14 6 15 5 16 4 17 3 18 2 19 1 20
REMARK H PARENT
REMARK Flexibility Score: inf
ROOT
ATOM      1  C   UNL     1      22.344  30.279  56.196  1.00  0.00     0.000 C 
ENDROOT
BRANCH   1   2
ATOM      2  C   UNL     1      22.161  28.949  55.441  1.00  0.00     0.000 C 
BRANCH   2   3
ATOM      3  C   UNL     1      20.806  28.778  54.722  1.00  0.00     0.000 C 
BRANCH   3   4
ATOM      4  C   UNL     1      19.717  29.784  55.137  1.00  0.00     0.000 C 
BRANCH   4   5
ATOM      5  C   UNL     1      18.354  29.116  55.385  1.00  0.00     0.000 C 
BRANCH   5   6
ATOM      6  C   UNL     1      17.228  29.708  54.518  1.00  0.00     0.000 C 
BRANCH   6   7
ATOM      7  C   UNL     1      15.802  29.334  54.964  1.00  0.00     0.006 C 
BRANCH   7   8
ATOM      8  C   UNL     1      15.381  27.930  54.511  1.00  0.00     0.053 C 
BRANCH   8   9
ATOM      9  C   UNL     1      14.378  28.018  53.405  1.00  0.00     0.041 C 
ATOM     10  O   UNL     1      14.738  27.876  52.207  1.00  0.00    -0.550 OA
ATOM     11  O   UNL     1      13.035  28.219  53.700  1.00  0.00    -0.550 OA
ENDBRANCH   8   9
ENDBRANCH   7   8
ENDBRANCH   6   7
ENDBRANCH   5   6
ENDBRANCH   4   5
ENDBRANCH   3   4
ENDBRANCH   2   3
ENDBRANCH   1   2
BRANCH   1  12
ATOM     12  C   UNL     1      22.624  30.083  57.695  1.00  0.00     0.000 C 
BRANCH  12  13
ATOM     13  C   UNL     1      21.521  30.671  58.595  1.00  0.00    -0.000 C 
BRANCH  13  14
ATOM     14  C   UNL     1      20.788  29.653  59.489  1.00  0.00    -0.000 C 
BRANCH  14  15
ATOM     15  C   UNL     1      19.976  28.623  58.686  1.00  0.00    -0.000 C 
BRANCH  15  16
ATOM     16  C   UNL     1      20.438  27.183  58.956  1.00  0.00    -0.000 C 
BRANCH  16  17
ATOM     17  C   UNL     1      20.761  26.416  57.662  1.00  0.00    -0.000 C 
BRANCH  17  18
ATOM     18  C   UNL     1      22.158  25.761  57.711  1.00  0.00    -0.000 C 
BRANCH  18  19
ATOM     19  C   UNL     1      23.249  26.686  58.276  1.00  0.00    -0.003 C 
ATOM     20  C   UNL     1      23.920  26.126  59.527  1.00  0.00     0.004 C 
ENDBRANCH  18  19
ENDBRANCH  17  18
ENDBRANCH  16  17
ENDBRANCH  15  16
ENDBRANCH  14  15
ENDBRANCH  13  14
ENDBRANCH  12  13
ENDBRANCH   1  12
TORSDOF 16
ENDMDL
MODEL 8
REMARK VINA RESULT:    -2.987     10.236     12.069
REMARK INTER + INTRA:          -8.374
REMARK INTER:                  -5.609
REMARK INTRA:                  -2.765
REMARK UNBOUND:                -2.594
REMARK SMILES CCCCCCCCCCCCCCCCCC(=O)[O-]
REMARK SMILES IDX 10 1 11 2 12 3 13 4 14 5 15 6 16 7 17 8 18 9 19 10 20 11
REMARK SMILES IDX 9 12 8 13 7 14 6 15 5 16 4 17 3 18 2 19 1 20
REMARK H PARENT
REMARK Flexibility Score: inf
ROOT
ATOM      1  C   UNL     1      17.345  20.374  48.859  1.00  0.00     0.000 C 
ENDROOT
BRANCH   1   2
ATOM      2  C   UNL     1      16.177  20.265  49.857  1.00  0.00     0.000 C 
BRANCH   2   3
ATOM      3  C   UNL     1      15.907  18.847  50.406  1.00  0.00     0.000 C 
BRANCH   3   4
ATOM      4  C   UNL     1      16.183  18.668  51.910  1.00  0.00     0.000 C 
BRANCH   4   5
ATOM      5  C   UNL     1      17.214  17.564  52.199  1.00  0.00     0.000 C 
BRANCH   5   6
ATOM      6  C   UNL     1      18.610  17.885  51.636  1.00  0.00     0.000 C 
BRANCH   6   7
ATOM      7  C   UNL     1      19.118  19.309  51.935  1.00  0.00     0.006 C 
BRANCH   7   8
ATOM      8  C   UNL     1      20.389  19.324  52.793  1.00  0.00     0.053 C 
BRANCH   8   9
ATOM      9  C   UNL     1      20.079  19.805  54.176  1.00  0.00     0.041 C 
ATOM     10  O   UNL     1      20.980  20.326  54.884  1.00  0.00    -0.550 OA
ATOM     11  O   UNL     1      18.783  19.712  54.669  1.00  0.00    -0.550 OA
ENDBRANCH   8   9
ENDBRANCH   7   8
ENDBRANCH   6   7
ENDBRANCH   5   6
ENDBRANCH   4   5
ENDBRANCH   3   4
ENDBRANCH   2   3
ENDBRANCH   1   2
BRANCH   1  12
ATOM     12  C   UNL     1      17.671  19.038  48.170  1.00  0.00     0.000 C 
BRANCH  12  13
ATOM     13  C   UNL     1      17.759  19.158  46.637  1.00  0.00    -0.000 C 
BRANCH  13  14
ATOM     14  C   UNL     1      16.694  18.369  45.853  1.00  0.00    -0.000 C 
BRANCH  14  15
ATOM     15  C   UNL     1      15.693  17.640  46.765  1.00  0.00    -0.000 C 
BRANCH  15  16
ATOM     16  C   UNL     1      14.237  17.998  46.431  1.00  0.00    -0.000 C 
BRANCH  16  17
ATOM     17  C   UNL     1      13.681  19.109  47.339  1.00  0.00    -0.000 C 
BRANCH  17  18
ATOM     18  C   UNL     1      13.432  20.420  46.564  1.00  0.00    -0.000 C 
BRANCH  18  19
ATOM     19  C   UNL     1      14.615  21.401  46.626  1.00  0.00    -0.003 C 
ATOM     20  C   UNL     1      15.246  21.664  45.262  1.00  0.00     0.004 C 
ENDBRANCH  18  19
ENDBRANCH  17  18
ENDBRANCH  16  17
ENDBRANCH  15  16
ENDBRANCH  14  15
ENDBRANCH  13  14
ENDBRANCH  12  13
ENDBRANCH   1  12
TORSDOF 16
ENDMDL
MODEL 9
REMARK VINA RESULT:    -2.969     15.096     17.541
REMARK INTER + INTRA:          -8.340
REMARK INTER:                  -5.567
REMARK INTRA:                  -2.772
REMARK UNBOUND:                -2.594
REMARK SMILES CCCCCCCCCCCCCCCCCC(=O)[O-]
REMARK SMILES IDX 10 1 11 2 12 3 13 4 14 5 15 6 16 7 17 8 18 9 19 10 20 11
REMARK SMILES IDX 9 12 8 13 7 14 6 15 5 16 4 17 3 18 2 19 1 20
REMARK H PARENT
REMARK Flexibility Score: inf
ROOT
ATOM      1  C   UNL     1      31.419  30.523  53.426  1.00  0.00     0.000 C 
ENDROOT
BRANCH   1   2
ATOM      2  C   UNL     1      30.315  31.527  53.046  1.00  0.00     0.000 C 
BRANCH   2   3
ATOM      3  C   UNL     1      30.680  33.015  53.241  1.00  0.00     0.000 C 
BRANCH   3   4
ATOM      4  C   UNL     1      29.518  33.916  53.697  1.00  0.00     0.000 C 
BRANCH   4   5
ATOM      5  C   UNL     1      28.210  33.631  52.941  1.00  0.00     0.000 C 
BRANCH   5   6
ATOM      6  C   UNL     1      26.956  34.042  53.735  1.00  0.00     0.000 C 
BRANCH   6   7
ATOM      7  C   UNL     1      25.629  33.489  53.181  1.00  0.00     0.006 C 
BRANCH   7   8
ATOM      8  C   UNL     1      25.305  32.080  53.694  1.00  0.00     0.053 C 
BRANCH   8   9
ATOM      9  C   UNL     1      25.528  31.068  52.616  1.00  0.00     0.041 C 
ATOM     10  O   UNL     1      26.625  30.455  52.536  1.00  0.00    -0.550 OA
ATOM     11  O   UNL     1      24.508  30.773  51.719  1.00  0.00    -0.550 OA
ENDBRANCH   8   9
ENDBRANCH   7   8
ENDBRANCH   6   7
ENDBRANCH   5   6
ENDBRANCH   4   5
ENDBRANCH   3   4
ENDBRANCH   2   3
ENDBRANCH   1   2
BRANCH   1  12
ATOM     12  C   UNL     1      32.467  31.118  54.380  1.00  0.00     0.000 C 
BRANCH  12  13
ATOM     13  C   UNL     1      32.118  30.903  55.865  1.00  0.00    -0.000 C 
BRANCH  13  14
ATOM     14  C   UNL     1      31.981  32.189  56.702  1.00  0.00    -0.000 C 
BRANCH  14  15
ATOM     15  C   UNL     1      30.518  32.577  56.974  1.00  0.00    -0.000 C 
BRANCH  15  16
ATOM     16  C   UNL     1      29.608  31.347  57.109  1.00  0.00    -0.000 C 
BRANCH  16  17
ATOM     17  C   UNL     1      28.426  31.379  56.125  1.00  0.00    -0.000 C 
BRANCH  17  18
ATOM     18  C   UNL     1      27.994  29.962  55.692  1.00  0.00    -0.000 C 
BRANCH  18  19
ATOM     19  C   UNL     1      26.563  29.599  56.124  1.00  0.00    -0.003 C 
ATOM     20  C   UNL     1      26.432  29.367  57.627  1.00  0.00     0.004 C 
ENDBRANCH  18  19
ENDBRANCH  17  18
ENDBRANCH  16  17
ENDBRANCH  15  16
ENDBRANCH  14  15
ENDBRANCH  13  14
ENDBRANCH  12  13
ENDBRANCH   1  12
TORSDOF 16
ENDMDL
