MODEL 1
REMARK VINA RESULT:    -4.076      0.000      0.000
REMARK INTER + INTRA:          -9.120
REMARK INTER:                  -7.413
REMARK INTRA:                  -1.707
REMARK UNBOUND:                -1.707
REMARK SMILES CCCCCCCCCCCCCCCC(=O)[O-]
REMARK SMILES IDX 9 1 10 2 11 3 12 4 13 5 14 6 15 7 16 8 17 9 18 10 8 11 7 12
REMARK SMILES IDX 6 13 5 14 4 15 3 16 2 17 1 18
REMARK H PARENT
REMARK Flexibility Score: inf
ROOT
ATOM      1  C   UNL     1      19.417   2.701   4.024  1.00  0.00     0.000 C 
ENDROOT
BRANCH   1   2
ATOM      2  C   UNL     1      19.275   1.672   2.889  1.00  0.00     0.000 C 
BRANCH   2   3
ATOM      3  C   UNL     1      20.510   1.610   1.980  1.00  0.00     0.000 C 
BRANCH   3   4
ATOM      4  C   UNL     1      20.545   0.299   1.186  1.00  0.00     0.000 C 
BRANCH   4   5
ATOM      5  C   UNL     1      19.501  -0.694   1.718  1.00  0.00     0.000 C 
BRANCH   5   6
ATOM      6  C   UNL     1      19.206  -1.831   0.728  1.00  0.00     0.006 C 
BRANCH   6   7
ATOM      7  C   UNL     1      18.475  -1.344  -0.530  1.00  0.00     0.053 C 
BRANCH   7   8
ATOM      8  C   UNL     1      17.200  -2.104  -0.719  1.00  0.00     0.041 C 
ATOM      9  O   UNL     1      17.074  -3.261  -0.237  1.00  0.00    -0.550 OA
ATOM     10  O   UNL     1      16.130  -1.514  -1.379  1.00  0.00    -0.550 OA
ENDBRANCH   7   8
ENDBRANCH   6   7
ENDBRANCH   5   6
ENDBRANCH   4   5
ENDBRANCH   3   4
ENDBRANCH   2   3
ENDBRANCH   1   2
BRANCH   1  11
ATOM     11  C   UNL     1      18.093   3.403   4.389  1.00  0.00     0.000 C 
BRANCH  11  12
ATOM     12  C   UNL     1      17.147   3.524   3.180  1.00  0.00    -0.000 C 
BRANCH  12  13
ATOM     13  C   UNL     1      17.486   4.725   2.284  1.00  0.00    -0.000 C 
BRANCH  13  14
ATOM     14  C   UNL     1      16.442   4.947   1.177  1.00  0.00    -0.000 C 
BRANCH  14  15
ATOM     15  C   UNL     1      16.784   4.199  -0.124  1.00  0.00    -0.000 C 
BRANCH  15  16
ATOM     16  C   UNL     1      18.283   4.159  -0.473  1.00  0.00    -0.000 C 
BRANCH  16  17
ATOM     17  C   UNL     1      18.729   2.804  -1.039  1.00  0.00    -0.003 C 
ATOM     18  C   UNL     1      17.531   1.977  -1.496  1.00  0.00     0.004 C 
ENDBRANCH  16  17
ENDBRANCH  15  16
ENDBRANCH  14  15
ENDBRANCH  13  14
ENDBRANCH  12  13
ENDBRANCH  11  12
ENDBRANCH   1  11
TORSDOF 14
ENDMDL
MODEL 2
REMARK VINA RESULT:    -4.052      1.382      2.184
REMARK INTER + INTRA:          -9.076
REMARK INTER:                  -6.732
REMARK INTRA:                  -2.343
REMARK UNBOUND:                -1.707
REMARK SMILES CCCCCCCCCCCCCCCC(=O)[O-]
REMARK SMILES IDX 9 1 10 2 11 3 12 4 13 5 14 6 15 7 16 8 17 9 18 10 8 11 7 12
REMARK SMILES IDX 6 13 5 14 4 15 3 16 2 17 1 18
REMARK H PARENT
REMARK Flexibility Score: inf
ROOT
ATOM      1  C   UNL     1      20.802   2.607   3.986  1.00  0.00     0.000 C 
ENDROOT
BRANCH   1   2
ATOM      2  C   UNL     1      21.859   2.109   2.986  1.00  0.00     0.000 C 
BRANCH   2   3
ATOM      3  C   UNL     1      21.254   1.301   1.830  1.00  0.00     0.000 C 
BRANCH   3   4
ATOM      4  C   UNL     1      19.813   0.882   2.144  1.00  0.00     0.000 C 
BRANCH   4   5
ATOM      5  C   UNL     1      19.312  -0.163   1.136  1.00  0.00     0.000 C 
BRANCH   5   6
ATOM      6  C   UNL     1      19.204   0.395  -0.291  1.00  0.00     0.006 C 
BRANCH   6   7
ATOM      7  C   UNL     1      17.958  -0.110  -1.031  1.00  0.00     0.053 C 
BRANCH   7   8
ATOM      8  C   UNL     1      17.947  -1.605  -1.071  1.00  0.00     0.041 C 
ATOM      9  O   UNL     1      18.878  -2.232  -1.641  1.00  0.00    -0.550 OA
ATOM     10  O   UNL     1      16.934  -2.310  -0.431  1.00  0.00    -0.550 OA
ENDBRANCH   7   8
ENDBRANCH   6   7
ENDBRANCH   5   6
ENDBRANCH   4   5
ENDBRANCH   3   4
ENDBRANCH   2   3
ENDBRANCH   1   2
BRANCH   1  11
ATOM     11  C   UNL     1      20.670   4.144   4.030  1.00  0.00     0.000 C 
BRANCH  11  12
ATOM     12  C   UNL     1      19.255   4.595   4.433  1.00  0.00    -0.000 C 
BRANCH  12  13
ATOM     13  C   UNL     1      18.247   3.436   4.444  1.00  0.00    -0.000 C 
BRANCH  13  14
ATOM     14  C   UNL     1      17.074   3.665   3.476  1.00  0.00    -0.000 C 
BRANCH  14  15
ATOM     15  C   UNL     1      17.481   4.460   2.222  1.00  0.00    -0.000 C 
BRANCH  15  16
ATOM     16  C   UNL     1      17.783   3.601   0.981  1.00  0.00    -0.000 C 
BRANCH  16  17
ATOM     17  C   UNL     1      18.609   4.346  -0.077  1.00  0.00    -0.003 C 
ATOM     18  C   UNL     1      20.082   4.408   0.319  1.00  0.00     0.004 C 
ENDBRANCH  16  17
ENDBRANCH  15  16
ENDBRANCH  14  15
ENDBRANCH  13  14
ENDBRANCH  12  13
ENDBRANCH  11  12
ENDBRANCH   1  11
TORSDOF 14
ENDMDL
MODEL 3
REMARK VINA RESULT:    -4.025      3.847      6.704
REMARK INTER + INTRA:          -9.027
REMARK INTER:                  -7.177
REMARK INTRA:                  -1.849
REMARK UNBOUND:                -1.707
REMARK SMILES CCCCCCCCCCCCCCCC(=O)[O-]
REMARK SMILES IDX 9 1 10 2 11 3 12 4 13 5 14 6 15 7 16 8 17 9 18 10 8 11 7 12
REMARK SMILES IDX 6 13 5 14 4 15 3 16 2 17 1 18
REMARK H PARENT
REMARK Flexibility Score: inf
ROOT
ATOM      1  C   UNL     1      24.000   1.117   1.814  1.00  0.00     0.000 C 
ENDROOT
BRANCH   1   2
ATOM      2  C   UNL     1      22.671   1.118   1.040  1.00  0.00     0.000 C 
BRANCH   2   3
ATOM      3  C   UNL     1      21.469   1.495   1.916  1.00  0.00     0.000 C 
BRANCH   3   4
ATOM      4  C   UNL     1      20.390   0.407   1.870  1.00  0.00     0.000 C 
BRANCH   4   5
ATOM      5  C   UNL     1      19.690   0.383   0.503  1.00  0.00     0.000 C 
BRANCH   5   6
ATOM      6  C   UNL     1      18.991  -0.954   0.218  1.00  0.00     0.006 C 
BRANCH   6   7
ATOM      7  C   UNL     1      18.621  -1.713   1.500  1.00  0.00     0.053 C 
BRANCH   7   8
ATOM      8  C   UNL     1      19.039  -3.146   1.395  1.00  0.00     0.041 C 
ATOM      9  O   UNL     1      19.408  -3.620   0.289  1.00  0.00    -0.550 OA
ATOM     10  O   UNL     1      19.074  -3.945   2.532  1.00  0.00    -0.550 OA
ENDBRANCH   7   8
ENDBRANCH   6   7
ENDBRANCH   5   6
ENDBRANCH   4   5
ENDBRANCH   3   4
ENDBRANCH   2   3
ENDBRANCH   1   2
BRANCH   1  11
ATOM     11  C   UNL     1      23.848   0.728   3.300  1.00  0.00     0.000 C 
BRANCH  11  12
ATOM     12  C   UNL     1      25.103   1.073   4.122  1.00  0.00    -0.000 C 
BRANCH  12  13
ATOM     13  C   UNL     1      25.718  -0.159   4.803  1.00  0.00    -0.000 C 
BRANCH  13  14
ATOM     14  C   UNL     1      24.754  -1.358   4.835  1.00  0.00    -0.000 C 
BRANCH  14  15
ATOM     15  C   UNL     1      25.385  -2.646   4.277  1.00  0.00    -0.000 C 
BRANCH  15  16
ATOM     16  C   UNL     1      24.466  -3.469   3.356  1.00  0.00    -0.000 C 
BRANCH  16  17
ATOM     17  C   UNL     1      24.176  -2.771   2.020  1.00  0.00    -0.003 C 
ATOM     18  C   UNL     1      22.680  -2.538   1.833  1.00  0.00     0.004 C 
ENDBRANCH  16  17
ENDBRANCH  15  16
ENDBRANCH  14  15
ENDBRANCH  13  14
ENDBRANCH  12  13
ENDBRANCH  11  12
ENDBRANCH   1  11
TORSDOF 14
ENDMDL
MODEL 4
REMARK VINA RESULT:    -4.004      6.017      7.657
REMARK INTER + INTRA:          -8.988
REMARK INTER:                  -7.278
REMARK INTRA:                  -1.710
REMARK UNBOUND:                -1.707
REMARK SMILES CCCCCCCCCCCCCCCC(=O)[O-]
REMARK SMILES IDX 9 1 10 2 11 3 12 4 13 5 14 6 15 7 16 8 17 9 18 10 8 11 7 12
REMARK SMILES IDX 6 13 5 14 4 15 3 16 2 17 1 18
REMARK H PARENT
REMARK Flexibility Score: inf
ROOT
ATOM      1  C   UNL     1      22.481   2.056   3.154  1.00  0.00     0.000 C 
ENDROOT
BRANCH   1   2
ATOM      2  C   UNL     1      22.274   0.775   2.328  1.00  0.00     0.000 C 
BRANCH   2   3
ATOM      3  C   UNL     1      23.593   0.082   1.961  1.00  0.00     0.000 C 
BRANCH   3   4
ATOM      4  C   UNL     1      23.356  -1.381   1.565  1.00  0.00     0.000 C 
BRANCH   4   5
ATOM      5  C   UNL     1      24.308  -2.317   2.325  1.00  0.00     0.000 C 
BRANCH   5   6
ATOM      6  C   UNL     1      24.027  -2.350   3.835  1.00  0.00     0.006 C 
BRANCH   6   7
ATOM      7  C   UNL     1      25.194  -2.937   4.640  1.00  0.00     0.053 C 
BRANCH   7   8
ATOM      8  C   UNL     1      26.272  -1.914   4.814  1.00  0.00     0.041 C 
ATOM      9  O   UNL     1      27.478  -2.270   4.883  1.00  0.00    -0.550 OA
ATOM     10  O   UNL     1      25.951  -0.563   4.846  1.00  0.00    -0.550 OA
ENDBRANCH   7   8
ENDBRANCH   6   7
ENDBRANCH   5   6
ENDBRANCH   4   5
ENDBRANCH   3   4
ENDBRANCH   2   3
ENDBRANCH   1   2
BRANCH   1  11
ATOM     11  C   UNL     1      23.936   2.259   3.624  1.00  0.00     0.000 C 
BRANCH  11  12
ATOM     12  C   UNL     1      24.639   3.398   2.865  1.00  0.00    -0.000 C 
BRANCH  12  13
ATOM     13  C   UNL     1      26.071   3.032   2.447  1.00  0.00    -0.000 C 
BRANCH  13  14
ATOM     14  C   UNL     1      26.555   3.840   1.230  1.00  0.00    -0.000 C 
BRANCH  14  15
ATOM     15  C   UNL     1      25.744   3.543  -0.044  1.00  0.00    -0.000 C 
BRANCH  15  16
ATOM     16  C   UNL     1      26.072   2.200  -0.722  1.00  0.00    -0.000 C 
BRANCH  16  17
ATOM     17  C   UNL     1      24.819   1.405  -1.112  1.00  0.00    -0.003 C 
ATOM     18  C   UNL     1      23.598   2.315  -1.210  1.00  0.00     0.004 C 
ENDBRANCH  16  17
ENDBRANCH  15  16
ENDBRANCH  14  15
ENDBRANCH  13  14
ENDBRANCH  12  13
ENDBRANCH  11  12
ENDBRANCH   1  11
TORSDOF 14
ENDMDL
MODEL 5
REMARK VINA RESULT:    -3.987      0.892      3.280
REMARK INTER + INTRA:          -8.957
REMARK INTER:                  -7.386
REMARK INTRA:                  -1.571
REMARK UNBOUND:                -1.707
REMARK SMILES CCCCCCCCCCCCCCCC(=O)[O-]
REMARK SMILES IDX 9 1 10 2 11 3 12 4 13 5 14 6 15 7 16 8 17 9 18 10 8 11 7 12
REMARK SMILES IDX 6 13 5 14 4 15 3 16 2 17 1 18
REMARK H PARENT
REMARK Flexibility Score: inf
ROOT
ATOM      1  C   UNL     1      18.824   2.354  -1.132  1.00  0.00     0.000 C 
ENDROOT
BRANCH   1   2
ATOM      2  C   UNL     1      19.076   2.023   0.349  1.00  0.00     0.000 C 
BRANCH   2   3
ATOM      3  C   UNL     1      20.312   1.137   0.561  1.00  0.00     0.000 C 
BRANCH   3   4
ATOM      4  C   UNL     1      20.138   0.233   1.787  1.00  0.00     0.000 C 
BRANCH   4   5
ATOM      5  C   UNL     1      19.026  -0.801   1.555  1.00  0.00     0.000 C 
BRANCH   5   6
ATOM      6  C   UNL     1      19.249  -1.636   0.285  1.00  0.00     0.006 C 
BRANCH   6   7
ATOM      7  C   UNL     1      18.200  -1.355  -0.799  1.00  0.00     0.053 C 
BRANCH   7   8
ATOM      8  C   UNL     1      17.045  -2.296  -0.661  1.00  0.00     0.041 C 
ATOM      9  O   UNL     1      15.871  -1.896  -0.877  1.00  0.00    -0.550 OA
ATOM     10  O   UNL     1      17.270  -3.631  -0.347  1.00  0.00    -0.550 OA
ENDBRANCH   7   8
ENDBRANCH   6   7
ENDBRANCH   5   6
ENDBRANCH   4   5
ENDBRANCH   3   4
ENDBRANCH   2   3
ENDBRANCH   1   2
BRANCH   1  11
ATOM     11  C   UNL     1      17.331   2.342  -1.521  1.00  0.00     0.000 C 
BRANCH  11  12
ATOM     12  C   UNL     1      16.868   3.694  -2.091  1.00  0.00    -0.000 C 
BRANCH  12  13
ATOM     13  C   UNL     1      17.076   4.853  -1.105  1.00  0.00    -0.000 C 
BRANCH  13  14
ATOM     14  C   UNL     1      16.277   4.670   0.197  1.00  0.00    -0.000 C 
BRANCH  14  15
ATOM     15  C   UNL     1      16.855   5.481   1.371  1.00  0.00    -0.000 C 
BRANCH  15  16
ATOM     16  C   UNL     1      17.798   4.693   2.299  1.00  0.00    -0.000 C 
BRANCH  16  17
ATOM     17  C   UNL     1      17.051   3.727   3.230  1.00  0.00    -0.003 C 
ATOM     18  C   UNL     1      17.997   3.114   4.259  1.00  0.00     0.004 C 
ENDBRANCH  16  17
ENDBRANCH  15  16
ENDBRANCH  14  15
ENDBRANCH  13  14
ENDBRANCH  12  13
ENDBRANCH  11  12
ENDBRANCH   1  11
TORSDOF 14
ENDMDL
MODEL 6
REMARK VINA RESULT:    -3.975      1.442      3.387
REMARK INTER + INTRA:          -8.936
REMARK INTER:                  -6.774
REMARK INTRA:                  -2.162
REMARK UNBOUND:                -1.707
REMARK SMILES CCCCCCCCCCCCCCCC(=O)[O-]
REMARK SMILES IDX 9 1 10 2 11 3 12 4 13 5 14 6 15 7 16 8 17 9 18 10 8 11 7 12
REMARK SMILES IDX 6 13 5 14 4 15 3 16 2 17 1 18
REMARK H PARENT
REMARK Flexibility Score: inf
ROOT
ATOM      1  C   UNL     1      19.438   3.579   0.564  1.00  0.00     0.000 C 
ENDROOT
BRANCH   1   2
ATOM      2  C   UNL     1      19.996   2.234   0.067  1.00  0.00     0.000 C 
BRANCH   2   3
ATOM      3  C   UNL     1      19.448   1.033   0.849  1.00  0.00     0.000 C 
BRANCH   3   4
ATOM      4  C   UNL     1      20.587   0.195   1.442  1.00  0.00     0.000 C 
BRANCH   4   5
ATOM      5  C   UNL     1      20.173  -1.278   1.576  1.00  0.00     0.000 C 
BRANCH   5   6
ATOM      6  C   UNL     1      18.649  -1.468   1.581  1.00  0.00     0.006 C 
BRANCH   6   7
ATOM      7  C   UNL     1      18.194  -2.626   0.683  1.00  0.00     0.053 C 
BRANCH   7   8
ATOM      8  C   UNL     1      18.083  -2.170  -0.738  1.00  0.00     0.041 C 
ATOM      9  O   UNL     1      18.607  -2.845  -1.663  1.00  0.00    -0.550 OA
ATOM     10  O   UNL     1      17.354  -1.028  -1.047  1.00  0.00    -0.550 OA
ENDBRANCH   7   8
ENDBRANCH   6   7
ENDBRANCH   5   6
ENDBRANCH   4   5
ENDBRANCH   3   4
ENDBRANCH   2   3
ENDBRANCH   1   2
BRANCH   1  11
ATOM     11  C   UNL     1      17.914   3.562   0.804  1.00  0.00     0.000 C 
BRANCH  11  12
ATOM     12  C   UNL     1      17.507   4.417   2.018  1.00  0.00    -0.000 C 
BRANCH  12  13
ATOM     13  C   UNL     1      17.078   3.565   3.222  1.00  0.00    -0.000 C 
BRANCH  13  14
ATOM     14  C   UNL     1      18.142   3.535   4.332  1.00  0.00    -0.000 C 
BRANCH  14  15
ATOM     15  C   UNL     1      19.045   2.291   4.259  1.00  0.00    -0.000 C 
BRANCH  15  16
ATOM     16  C   UNL     1      20.553   2.590   4.172  1.00  0.00    -0.000 C 
BRANCH  16  17
ATOM     17  C   UNL     1      20.855   4.075   3.926  1.00  0.00    -0.003 C 
ATOM     18  C   UNL     1      22.205   4.256   3.237  1.00  0.00     0.004 C 
ENDBRANCH  16  17
ENDBRANCH  15  16
ENDBRANCH  14  15
ENDBRANCH  13  14
ENDBRANCH  12  13
ENDBRANCH  11  12
ENDBRANCH   1  11
TORSDOF 14
ENDMDL
MODEL 7
REMARK VINA RESULT:    -3.931      2.270      4.417
REMARK INTER + INTRA:          -8.856
REMARK INTER:                  -6.904
REMARK INTRA:                  -1.952
REMARK UNBOUND:                -1.707
REMARK SMILES CCCCCCCCCCCCCCCC(=O)[O-]
REMARK SMILES IDX 9 1 10 2 11 3 12 4 13 5 14 6 15 7 16 8 17 9 18 10 8 11 7 12
REMARK SMILES IDX 6 13 5 14 4 15 3 16 2 17 1 18
REMARK H PARENT
REMARK Flexibility Score: inf
ROOT
ATOM      1  C   UNL     1      19.003   1.919   3.157  1.00  0.00     0.000 C 
ENDROOT
BRANCH   1   2
ATOM      2  C   UNL     1      19.303   2.117   1.661  1.00  0.00     0.000 C 
BRANCH   2   3
ATOM      3  C   UNL     1      19.597   0.800   0.930  1.00  0.00     0.000 C 
BRANCH   3   4
ATOM      4  C   UNL     1      19.839  -0.341   1.925  1.00  0.00     0.000 C 
BRANCH   4   5
ATOM      5  C   UNL     1      19.686  -1.708   1.242  1.00  0.00     0.000 C 
BRANCH   5   6
ATOM      6  C   UNL     1      18.266  -2.280   1.373  1.00  0.00     0.006 C 
BRANCH   6   7
ATOM      7  C   UNL     1      17.798  -2.998   0.100  1.00  0.00     0.053 C 
BRANCH   7   8
ATOM      8  C   UNL     1      17.950  -2.101  -1.089  1.00  0.00     0.041 C 
ATOM      9  O   UNL     1      17.159  -1.137  -1.261  1.00  0.00    -0.550 OA
ATOM     10  O   UNL     1      18.999  -2.298  -1.979  1.00  0.00    -0.550 OA
ENDBRANCH   7   8
ENDBRANCH   6   7
ENDBRANCH   5   6
ENDBRANCH   4   5
ENDBRANCH   3   4
ENDBRANCH   2   3
ENDBRANCH   1   2
BRANCH   1  11
ATOM     11  C   UNL     1      19.882   2.787   4.082  1.00  0.00     0.000 C 
BRANCH  11  12
ATOM     12  C   UNL     1      21.123   3.336   3.357  1.00  0.00    -0.000 C 
BRANCH  12  13
ATOM     13  C   UNL     1      22.414   3.138   4.165  1.00  0.00    -0.000 C 
BRANCH  13  14
ATOM     14  C   UNL     1      23.233   1.930   3.680  1.00  0.00    -0.000 C 
BRANCH  14  15
ATOM     15  C   UNL     1      23.300   1.830   2.146  1.00  0.00    -0.000 C 
BRANCH  15  16
ATOM     16  C   UNL     1      23.323   0.394   1.591  1.00  0.00    -0.000 C 
BRANCH  16  17
ATOM     17  C   UNL     1      23.803  -0.638   2.621  1.00  0.00    -0.003 C 
ATOM     18  C   UNL     1      23.176  -2.005   2.364  1.00  0.00     0.004 C 
ENDBRANCH  16  17
ENDBRANCH  15  16
ENDBRANCH  14  15
ENDBRANCH  13  14
ENDBRANCH  12  13
ENDBRANCH  11  12
ENDBRANCH   1  11
TORSDOF 14
ENDMDL
MODEL 8
REMARK VINA RESULT:    -3.901      4.696      6.466
REMARK INTER + INTRA:          -8.800
REMARK INTER:                  -6.996
REMARK INTRA:                  -1.804
REMARK UNBOUND:                -1.707
REMARK SMILES CCCCCCCCCCCCCCCC(=O)[O-]
REMARK SMILES IDX 9 1 10 2 11 3 12 4 13 5 14 6 15 7 16 8 17 9 18 10 8 11 7 12
REMARK SMILES IDX 6 13 5 14 4 15 3 16 2 17 1 18
REMARK H PARENT
REMARK Flexibility Score: inf
ROOT
ATOM      1  C   UNL     1      24.303   2.093  -1.362  1.00  0.00     0.000 C 
ENDROOT
BRANCH   1   2
ATOM      2  C   UNL     1      24.569   1.156  -0.172  1.00  0.00     0.000 C 
BRANCH   2   3
ATOM      3  C   UNL     1      24.575   1.888   1.177  1.00  0.00     0.000 C 
BRANCH   3   4
ATOM      4  C   UNL     1      23.671   1.181   2.193  1.00  0.00     0.000 C 
BRANCH   4   5
ATOM      5  C   UNL     1      23.226  -0.194   1.670  1.00  0.00     0.000 C 
BRANCH   5   6
ATOM      6  C   UNL     1      23.934  -1.356   2.384  1.00  0.00     0.006 C 
BRANCH   6   7
ATOM      7  C   UNL     1      24.299  -1.023   3.836  1.00  0.00     0.053 C 
BRANCH   7   8
ATOM      8  C   UNL     1      24.906  -2.215   4.506  1.00  0.00     0.041 C 
ATOM      9  O   UNL     1      24.268  -2.834   5.399  1.00  0.00    -0.550 OA
ATOM     10  O   UNL     1      26.154  -2.677   4.108  1.00  0.00    -0.550 OA
ENDBRANCH   7   8
ENDBRANCH   6   7
ENDBRANCH   5   6
ENDBRANCH   4   5
ENDBRANCH   3   4
ENDBRANCH   2   3
ENDBRANCH   1   2
BRANCH   1  11
ATOM     11  C   UNL     1      24.022   3.552  -0.946  1.00  0.00     0.000 C 
BRANCH  11  12
ATOM     12  C   UNL     1      22.560   3.959  -1.203  1.00  0.00    -0.000 C 
BRANCH  12  13
ATOM     13  C   UNL     1      21.705   2.792  -1.717  1.00  0.00    -0.000 C 
BRANCH  13  14
ATOM     14  C   UNL     1      20.408   2.610  -0.910  1.00  0.00    -0.000 C 
BRANCH  14  15
ATOM     15  C   UNL     1      20.668   2.206   0.552  1.00  0.00    -0.000 C 
BRANCH  15  16
ATOM     16  C   UNL     1      19.406   1.844   1.357  1.00  0.00    -0.000 C 
BRANCH  16  17
ATOM     17  C   UNL     1      19.503   0.471   2.037  1.00  0.00    -0.003 C 
ATOM     18  C   UNL     1      19.643  -0.645   1.006  1.00  0.00     0.004 C 
ENDBRANCH  16  17
ENDBRANCH  15  16
ENDBRANCH  14  15
ENDBRANCH  13  14
ENDBRANCH  12  13
ENDBRANCH  11  12
ENDBRANCH   1  11
TORSDOF 14
ENDMDL
MODEL 9
REMARK VINA RESULT:    -3.894      6.290      8.342
REMARK INTER + INTRA:          -8.788
REMARK INTER:                  -7.149
REMARK INTRA:                  -1.639
REMARK UNBOUND:                -1.707
REMARK SMILES CCCCCCCCCCCCCCCC(=O)[O-]
REMARK SMILES IDX 9 1 10 2 11 3 12 4 13 5 14 6 15 7 16 8 17 9 18 10 8 11 7 12
REMARK SMILES IDX 6 13 5 14 4 15 3 16 2 17 1 18
REMARK H PARENT
REMARK Flexibility Score: inf
ROOT
ATOM      1  C   UNL     1      22.954   1.478   0.486  1.00  0.00     0.000 C 
ENDROOT
BRANCH   1   2
ATOM      2  C   UNL     1      23.284   1.636   1.980  1.00  0.00     0.000 C 
BRANCH   2   3
ATOM      3  C   UNL     1      23.510   0.293   2.687  1.00  0.00     0.000 C 
BRANCH   3   4
ATOM      4  C   UNL     1      23.178  -0.882   1.760  1.00  0.00     0.000 C 
BRANCH   4   5
ATOM      5  C   UNL     1      23.248  -2.217   2.517  1.00  0.00     0.000 C 
BRANCH   5   6
ATOM      6  C   UNL     1      24.690  -2.649   2.824  1.00  0.00     0.006 C 
BRANCH   6   7
ATOM      7  C   UNL     1      24.963  -2.768   4.329  1.00  0.00     0.053 C 
BRANCH   7   8
ATOM      8  C   UNL     1      26.095  -1.873   4.725  1.00  0.00     0.041 C 
ATOM      9  O   UNL     1      27.280  -2.299   4.699  1.00  0.00    -0.550 OA
ATOM     10  O   UNL     1      25.847  -0.550   5.071  1.00  0.00    -0.550 OA
ENDBRANCH   7   8
ENDBRANCH   6   7
ENDBRANCH   5   6
ENDBRANCH   4   5
ENDBRANCH   3   4
ENDBRANCH   2   3
ENDBRANCH   1   2
BRANCH   1  11
ATOM     11  C   UNL     1      23.585   2.569  -0.404  1.00  0.00     0.000 C 
BRANCH  11  12
ATOM     12  C   UNL     1      24.892   2.095  -1.065  1.00  0.00    -0.000 C 
BRANCH  12  13
ATOM     13  C   UNL     1      26.121   2.325  -0.172  1.00  0.00    -0.000 C 
BRANCH  13  14
ATOM     14  C   UNL     1      26.108   3.706   0.505  1.00  0.00    -0.000 C 
BRANCH  14  15
ATOM     15  C   UNL     1      26.725   3.685   1.915  1.00  0.00    -0.000 C 
BRANCH  15  16
ATOM     16  C   UNL     1      25.781   4.145   3.041  1.00  0.00    -0.000 C 
BRANCH  16  17
ATOM     17  C   UNL     1      25.692   3.137   4.195  1.00  0.00    -0.003 C 
ATOM     18  C   UNL     1      27.076   2.807   4.746  1.00  0.00     0.004 C 
ENDBRANCH  16  17
ENDBRANCH  15  16
ENDBRANCH  14  15
ENDBRANCH  13  14
ENDBRANCH  12  13
ENDBRANCH  11  12
ENDBRANCH   1  11
TORSDOF 14
ENDMDL
