MODEL 1
REMARK VINA RESULT:    -5.212      0.000      0.000
REMARK INTER + INTRA:          -6.253
REMARK INTER:                  -6.126
REMARK INTRA:                  -0.127
REMARK UNBOUND:                -0.127
REMARK SMILES O=C([O-])C=Cc1ccc(O)c(O)c1
REMARK SMILES IDX 6 1 13 2 7 3 11 4 8 5 9 6 5 7 4 8 2 9 1 10 3 11 12 12 10 14
REMARK H PARENT 12 13 10 15
REMARK Flexibility Score: inf
ROOT
ATOM      1  C   UNL     1      20.775  -0.713 -19.784  1.00  0.00    -0.022 A 
ATOM      2  C   UNL     1      21.229   0.610 -19.669  1.00  0.00     0.058 A 
ATOM      3  C   UNL     1      20.929  -1.377 -21.014  1.00  0.00     0.012 A 
ATOM      4  C   UNL     1      21.802   1.278 -20.758  1.00  0.00     0.157 A 
ATOM      5  C   UNL     1      21.500  -0.719 -22.105  1.00  0.00     0.051 A 
ATOM      6  C   UNL     1      21.936   0.605 -21.995  1.00  0.00     0.157 A 
ENDROOT
BRANCH   1   7
ATOM      7  C   UNL     1      20.186  -1.369 -18.590  1.00  0.00     0.010 C 
ATOM      8  C   UNL     1      19.131  -0.886 -17.920  1.00  0.00     0.025 C 
BRANCH   8   9
ATOM      9  C   UNL     1      18.587  -1.565 -16.732  1.00  0.00     0.064 C 
ATOM     10  O   UNL     1      18.085  -0.881 -15.802  1.00  0.00    -0.545 OA
ATOM     11  O   UNL     1      18.619  -2.951 -16.620  1.00  0.00    -0.545 OA
ENDBRANCH   8   9
ENDBRANCH   1   7
BRANCH   4  12
ATOM     12  O   UNL     1      22.221   2.597 -20.568  1.00  0.00    -0.504 OA
ATOM     13  H   UNL     1      22.176   3.081 -19.683  1.00  0.00     0.293 HD
ENDBRANCH   4  12
BRANCH   6  14
ATOM     14  O   UNL     1      22.495   1.205 -23.125  1.00  0.00    -0.504 OA
ATOM     15  H   UNL     1      23.073   2.033 -23.097  1.00  0.00     0.293 HD
ENDBRANCH   6  14
TORSDOF 4
ENDMDL
MODEL 2
REMARK VINA RESULT:    -5.140     14.985     17.855
REMARK INTER + INTRA:          -6.169
REMARK INTER:                  -6.036
REMARK INTRA:                  -0.132
REMARK UNBOUND:                -0.127
REMARK SMILES O=C([O-])C=Cc1ccc(O)c(O)c1
REMARK SMILES IDX 6 1 13 2 7 3 11 4 8 5 9 6 5 7 4 8 2 9 1 10 3 11 12 12 10 14
REMARK H PARENT 12 13 10 15
REMARK Flexibility Score: inf
ROOT
ATOM      1  C   UNL     1       9.267  -6.543  -7.759  1.00  0.00    -0.022 A 
ATOM      2  C   UNL     1      10.191  -5.752  -7.058  1.00  0.00     0.058 A 
ATOM      3  C   UNL     1       7.918  -6.520  -7.363  1.00  0.00     0.012 A 
ATOM      4  C   UNL     1       9.795  -4.970  -5.966  1.00  0.00     0.157 A 
ATOM      5  C   UNL     1       7.515  -5.742  -6.276  1.00  0.00     0.051 A 
ATOM      6  C   UNL     1       8.439  -4.968  -5.567  1.00  0.00     0.157 A 
ENDROOT
BRANCH   1   7
ATOM      7  C   UNL     1       9.747  -7.342  -8.914  1.00  0.00     0.010 C 
ATOM      8  C   UNL     1      10.916  -7.126  -9.534  1.00  0.00     0.025 C 
BRANCH   8   9
ATOM      9  C   UNL     1      11.346  -7.937 -10.685  1.00  0.00     0.064 C 
ATOM     10  O   UNL     1      11.912  -9.043 -10.487  1.00  0.00    -0.545 OA
ATOM     11  O   UNL     1      11.136  -7.501 -11.988  1.00  0.00    -0.545 OA
ENDBRANCH   8   9
ENDBRANCH   1   7
BRANCH   4  12
ATOM     12  O   UNL     1      10.774  -4.218  -5.313  1.00  0.00    -0.504 OA
ATOM     13  H   UNL     1      11.752  -4.228  -5.563  1.00  0.00     0.293 HD
ENDBRANCH   4  12
BRANCH   6  14
ATOM     14  O   UNL     1       7.969  -4.216  -4.488  1.00  0.00    -0.504 OA
ATOM     15  H   UNL     1       8.266  -4.352  -3.533  1.00  0.00     0.293 HD
ENDBRANCH   6  14
TORSDOF 4
ENDMDL
MODEL 3
REMARK VINA RESULT:    -5.130     15.752     18.898
REMARK INTER + INTRA:          -6.156
REMARK INTER:                  -6.022
REMARK INTRA:                  -0.134
REMARK UNBOUND:                -0.127
REMARK SMILES O=C([O-])C=Cc1ccc(O)c(O)c1
REMARK SMILES IDX 6 1 13 2 7 3 11 4 8 5 9 6 5 7 4 8 2 9 1 10 3 11 12 12 10 14
REMARK H PARENT 12 13 10 15
REMARK Flexibility Score: inf
ROOT
ATOM      1  C   UNL     1       8.135  -6.103  -7.684  1.00  0.00    -0.022 A 
ATOM      2  C   UNL     1       8.225  -4.992  -6.830  1.00  0.00     0.058 A 
ATOM      3  C   UNL     1       7.875  -7.368  -7.126  1.00  0.00     0.012 A 
ATOM      4  C   UNL     1       8.086  -5.131  -5.443  1.00  0.00     0.157 A 
ATOM      5  C   UNL     1       7.735  -7.514  -5.744  1.00  0.00     0.051 A 
ATOM      6  C   UNL     1       7.842  -6.410  -4.893  1.00  0.00     0.157 A 
ENDROOT
BRANCH   1   7
ATOM      7  C   UNL     1       8.281  -5.890  -9.146  1.00  0.00     0.010 C 
ATOM      8  C   UNL     1       7.925  -4.759  -9.772  1.00  0.00     0.025 C 
BRANCH   8   9
ATOM      9  C   UNL     1       8.077  -4.596 -11.227  1.00  0.00     0.064 C 
ATOM     10  O   UNL     1       8.761  -5.430 -11.876  1.00  0.00    -0.545 OA
ATOM     11  O   UNL     1       7.475  -3.538 -11.897  1.00  0.00    -0.545 OA
ENDBRANCH   8   9
ENDBRANCH   1   7
BRANCH   4  12
ATOM     12  O   UNL     1       8.198  -3.980  -4.659  1.00  0.00    -0.504 OA
ATOM     13  H   UNL     1       7.940  -3.056  -4.974  1.00  0.00     0.293 HD
ENDBRANCH   4  12
BRANCH   6  14
ATOM     14  O   UNL     1       7.693  -6.626  -3.521  1.00  0.00    -0.504 OA
ATOM     15  H   UNL     1       7.059  -6.106  -2.933  1.00  0.00     0.293 HD
ENDBRANCH   6  14
TORSDOF 4
ENDMDL
MODEL 4
REMARK VINA RESULT:    -5.057      0.879      2.119
REMARK INTER + INTRA:          -6.071
REMARK INTER:                  -5.934
REMARK INTRA:                  -0.137
REMARK UNBOUND:                -0.127
REMARK SMILES O=C([O-])C=Cc1ccc(O)c(O)c1
REMARK SMILES IDX 6 1 13 2 7 3 11 4 8 5 9 6 5 7 4 8 2 9 1 10 3 11 12 12 10 14
REMARK H PARENT 12 13 10 15
REMARK Flexibility Score: inf
ROOT
ATOM      1  C   UNL     1      20.631  -0.765 -19.509  1.00  0.00    -0.022 A 
ATOM      2  C   UNL     1      20.584  -1.336 -20.790  1.00  0.00     0.058 A 
ATOM      3  C   UNL     1      21.299   0.461 -19.337  1.00  0.00     0.012 A 
ATOM      4  C   UNL     1      21.209  -0.721 -21.882  1.00  0.00     0.157 A 
ATOM      5  C   UNL     1      21.923   1.082 -20.421  1.00  0.00     0.051 A 
ATOM      6  C   UNL     1      21.891   0.503 -21.694  1.00  0.00     0.157 A 
ENDROOT
BRANCH   1   7
ATOM      7  C   UNL     1      19.941  -1.462 -18.394  1.00  0.00     0.010 C 
ATOM      8  C   UNL     1      19.062  -0.867 -17.576  1.00  0.00     0.025 C 
BRANCH   8   9
ATOM      9  C   UNL     1      18.410  -1.594 -16.475  1.00  0.00     0.064 C 
ATOM     10  O   UNL     1      18.528  -2.846 -16.403  1.00  0.00    -0.545 OA
ATOM     11  O   UNL     1      17.666  -0.922 -15.511  1.00  0.00    -0.545 OA
ENDBRANCH   8   9
ENDBRANCH   1   7
BRANCH   4  12
ATOM     12  O   UNL     1      21.125  -1.355 -23.124  1.00  0.00    -0.504 OA
ATOM     13  H   UNL     1      21.845  -1.307 -23.831  1.00  0.00     0.293 HD
ENDBRANCH   4  12
BRANCH   6  14
ATOM     14  O   UNL     1      22.538   1.175 -22.734  1.00  0.00    -0.504 OA
ATOM     15  H   UNL     1      22.936   2.099 -22.647  1.00  0.00     0.293 HD
ENDBRANCH   6  14
TORSDOF 4
ENDMDL
MODEL 5
REMARK VINA RESULT:    -4.978      1.385      1.912
REMARK INTER + INTRA:          -5.978
REMARK INTER:                  -5.850
REMARK INTRA:                  -0.128
REMARK UNBOUND:                -0.127
REMARK SMILES O=C([O-])C=Cc1ccc(O)c(O)c1
REMARK SMILES IDX 6 1 13 2 7 3 11 4 8 5 9 6 5 7 4 8 2 9 1 10 3 11 12 12 10 14
REMARK H PARENT 12 13 10 15
REMARK Flexibility Score: inf
ROOT
ATOM      1  C   UNL     1      19.830  -0.923 -18.638  1.00  0.00    -0.022 A 
ATOM      2  C   UNL     1      21.026  -0.280 -18.281  1.00  0.00     0.058 A 
ATOM      3  C   UNL     1      19.409  -0.874 -19.979  1.00  0.00     0.012 A 
ATOM      4  C   UNL     1      21.782   0.423 -19.227  1.00  0.00     0.157 A 
ATOM      5  C   UNL     1      20.158  -0.175 -20.928  1.00  0.00     0.051 A 
ATOM      6  C   UNL     1      21.340   0.479 -20.568  1.00  0.00     0.157 A 
ENDROOT
BRANCH   1   7
ATOM      7  C   UNL     1      19.079  -1.661 -17.591  1.00  0.00     0.010 C 
ATOM      8  C   UNL     1      18.493  -1.071 -16.540  1.00  0.00     0.025 C 
BRANCH   8   9
ATOM      9  C   UNL     1      17.768  -1.845 -15.519  1.00  0.00     0.064 C 
ATOM     10  O   UNL     1      18.192  -2.983 -15.188  1.00  0.00    -0.545 OA
ATOM     11  O   UNL     1      16.624  -1.339 -14.913  1.00  0.00    -0.545 OA
ENDBRANCH   8   9
ENDBRANCH   1   7
BRANCH   4  12
ATOM     12  O   UNL     1      22.955   1.044 -18.792  1.00  0.00    -0.504 OA
ATOM     13  H   UNL     1      23.148   2.029 -18.907  1.00  0.00     0.293 HD
ENDBRANCH   4  12
BRANCH   6  14
ATOM     14  O   UNL     1      22.038   1.162 -21.567  1.00  0.00    -0.504 OA
ATOM     15  H   UNL     1      21.606   1.555 -22.390  1.00  0.00     0.293 HD
ENDBRANCH   6  14
TORSDOF 4
ENDMDL
MODEL 6
REMARK VINA RESULT:    -4.946      1.281      6.091
REMARK INTER + INTRA:          -5.940
REMARK INTER:                  -5.806
REMARK INTRA:                  -0.134
REMARK UNBOUND:                -0.127
REMARK SMILES O=C([O-])C=Cc1ccc(O)c(O)c1
REMARK SMILES IDX 6 1 13 2 7 3 11 4 8 5 9 6 5 7 4 8 2 9 1 10 3 11 12 12 10 14
REMARK H PARENT 12 13 10 15
REMARK Flexibility Score: inf
ROOT
ATOM      1  C   UNL     1      20.227  -0.912 -19.195  1.00  0.00    -0.022 A 
ATOM      2  C   UNL     1      20.024  -2.274 -19.464  1.00  0.00     0.058 A 
ATOM      3  C   UNL     1      19.759  -0.383 -17.979  1.00  0.00     0.012 A 
ATOM      4  C   UNL     1      19.344  -3.099 -18.558  1.00  0.00     0.157 A 
ATOM      5  C   UNL     1      19.082  -1.199 -17.070  1.00  0.00     0.051 A 
ATOM      6  C   UNL     1      18.864  -2.552 -17.346  1.00  0.00     0.157 A 
ENDROOT
BRANCH   1   7
ATOM      7  C   UNL     1      20.963  -0.093 -20.191  1.00  0.00     0.010 C 
ATOM      8  C   UNL     1      21.348  -0.549 -21.392  1.00  0.00     0.025 C 
BRANCH   8   9
ATOM      9  C   UNL     1      22.087   0.296 -22.343  1.00  0.00     0.064 C 
ATOM     10  O   UNL     1      22.920  -0.233 -23.125  1.00  0.00    -0.545 OA
ATOM     11  O   UNL     1      21.880   1.670 -22.395  1.00  0.00    -0.545 OA
ENDBRANCH   8   9
ENDBRANCH   1   7
BRANCH   4  12
ATOM     12  O   UNL     1      19.173  -4.442 -18.901  1.00  0.00    -0.504 OA
ATOM     13  H   UNL     1      19.931  -5.101 -18.993  1.00  0.00     0.293 HD
ENDBRANCH   4  12
BRANCH   6  14
ATOM     14  O   UNL     1      18.178  -3.311 -16.395  1.00  0.00    -0.504 OA
ATOM     15  H   UNL     1      17.599  -2.915 -15.668  1.00  0.00     0.293 HD
ENDBRANCH   6  14
TORSDOF 4
ENDMDL
MODEL 7
REMARK VINA RESULT:    -4.835     14.906     16.433
REMARK INTER + INTRA:          -5.810
REMARK INTER:                  -5.685
REMARK INTRA:                  -0.126
REMARK UNBOUND:                -0.127
REMARK SMILES O=C([O-])C=Cc1ccc(O)c(O)c1
REMARK SMILES IDX 6 1 13 2 7 3 11 4 8 5 9 6 5 7 4 8 2 9 1 10 3 11 12 12 10 14
REMARK H PARENT 12 13 10 15
REMARK Flexibility Score: inf
ROOT
ATOM      1  C   UNL     1       8.731  -4.957 -10.562  1.00  0.00    -0.022 A 
ATOM      2  C   UNL     1       8.064  -4.657  -9.363  1.00  0.00     0.058 A 
ATOM      3  C   UNL     1      10.020  -5.514 -10.498  1.00  0.00     0.012 A 
ATOM      4  C   UNL     1       8.670  -4.879  -8.120  1.00  0.00     0.157 A 
ATOM      5  C   UNL     1      10.632  -5.739  -9.263  1.00  0.00     0.051 A 
ATOM      6  C   UNL     1       9.974  -5.424  -8.070  1.00  0.00     0.157 A 
ENDROOT
BRANCH   1   7
ATOM      7  C   UNL     1       8.030  -4.709 -11.846  1.00  0.00     0.010 C 
ATOM      8  C   UNL     1       8.097  -3.552 -12.519  1.00  0.00     0.025 C 
BRANCH   8   9
ATOM      9  C   UNL     1       7.374  -3.347 -13.785  1.00  0.00     0.064 C 
ATOM     10  O   UNL     1       6.586  -2.372 -13.898  1.00  0.00    -0.545 OA
ATOM     11  O   UNL     1       7.549  -4.211 -14.860  1.00  0.00    -0.545 OA
ENDBRANCH   8   9
ENDBRANCH   1   7
BRANCH   4  12
ATOM     12  O   UNL     1       7.947  -4.546  -6.973  1.00  0.00    -0.504 OA
ATOM     13  H   UNL     1       8.312  -4.619  -6.035  1.00  0.00     0.293 HD
ENDBRANCH   4  12
BRANCH   6  14
ATOM     14  O   UNL     1      10.644  -5.671  -6.870  1.00  0.00    -0.504 OA
ATOM     15  H   UNL     1      10.637  -5.043  -6.079  1.00  0.00     0.293 HD
ENDBRANCH   6  14
TORSDOF 4
ENDMDL
MODEL 8
REMARK VINA RESULT:    -4.718     15.397     16.818
REMARK INTER + INTRA:          -5.672
REMARK INTER:                  -5.541
REMARK INTRA:                  -0.131
REMARK UNBOUND:                -0.127
REMARK SMILES O=C([O-])C=Cc1ccc(O)c(O)c1
REMARK SMILES IDX 6 1 13 2 7 3 11 4 8 5 9 6 5 7 4 8 2 9 1 10 3 11 12 12 10 14
REMARK H PARENT 12 13 10 15
REMARK Flexibility Score: inf
ROOT
ATOM      1  C   UNL     1       8.418  -5.444 -10.021  1.00  0.00    -0.022 A 
ATOM      2  C   UNL     1       8.586  -6.545 -10.876  1.00  0.00     0.058 A 
ATOM      3  C   UNL     1       7.962  -4.229 -10.564  1.00  0.00     0.012 A 
ATOM      4  C   UNL     1       8.335  -6.443 -12.250  1.00  0.00     0.157 A 
ATOM      5  C   UNL     1       7.709  -4.119 -11.933  1.00  0.00     0.051 A 
ATOM      6  C   UNL     1       7.893  -5.211 -12.786  1.00  0.00     0.157 A 
ENDROOT
BRANCH   1   7
ATOM      7  C   UNL     1       8.691  -5.619  -8.573  1.00  0.00     0.010 C 
ATOM      8  C   UNL     1       7.785  -5.392  -7.612  1.00  0.00     0.025 C 
BRANCH   8   9
ATOM      9  C   UNL     1       8.104  -5.568  -6.186  1.00  0.00     0.064 C 
ATOM     10  O   UNL     1       7.677  -6.582  -5.575  1.00  0.00    -0.545 OA
ATOM     11  O   UNL     1       8.872  -4.633  -5.502  1.00  0.00    -0.545 OA
ENDBRANCH   8   9
ENDBRANCH   1   7
BRANCH   4  12
ATOM     12  O   UNL     1       8.534  -7.580 -13.035  1.00  0.00    -0.504 OA
ATOM     13  H   UNL     1       9.362  -7.745 -13.589  1.00  0.00     0.293 HD
ENDBRANCH   4  12
BRANCH   6  14
ATOM     14  O   UNL     1       7.624  -5.032 -14.145  1.00  0.00    -0.504 OA
ATOM     15  H   UNL     1       8.099  -5.528 -14.884  1.00  0.00     0.293 HD
ENDBRANCH   6  14
TORSDOF 4
ENDMDL
MODEL 9
REMARK VINA RESULT:    -4.655     16.093     19.521
REMARK INTER + INTRA:          -5.599
REMARK INTER:                  -5.458
REMARK INTRA:                  -0.140
REMARK UNBOUND:                -0.127
REMARK SMILES O=C([O-])C=Cc1ccc(O)c(O)c1
REMARK SMILES IDX 6 1 13 2 7 3 11 4 8 5 9 6 5 7 4 8 2 9 1 10 3 11 12 12 10 14
REMARK H PARENT 12 13 10 15
REMARK Flexibility Score: inf
ROOT
ATOM      1  C   UNL     1       8.001  -6.525  -7.103  1.00  0.00    -0.022 A 
ATOM      2  C   UNL     1       7.625  -7.549  -6.218  1.00  0.00     0.058 A 
ATOM      3  C   UNL     1       8.380  -5.278  -6.575  1.00  0.00     0.012 A 
ATOM      4  C   UNL     1       7.597  -7.336  -4.834  1.00  0.00     0.157 A 
ATOM      5  C   UNL     1       8.356  -5.059  -5.196  1.00  0.00     0.051 A 
ATOM      6  C   UNL     1       7.964  -6.073  -4.316  1.00  0.00     0.157 A 
ENDROOT
BRANCH   1   7
ATOM      7  C   UNL     1       8.020  -6.816  -8.558  1.00  0.00     0.010 C 
ATOM      8  C   UNL     1       8.386  -5.925  -9.491  1.00  0.00     0.025 C 
BRANCH   8   9
ATOM      9  C   UNL     1       8.378  -6.254 -10.925  1.00  0.00     0.064 C 
ATOM     10  O   UNL     1       8.661  -5.362 -11.767  1.00  0.00    -0.545 OA
ATOM     11  O   UNL     1       8.064  -7.534 -11.366  1.00  0.00    -0.545 OA
ENDBRANCH   8   9
ENDBRANCH   1   7
BRANCH   4  12
ATOM     12  O   UNL     1       7.203  -8.400  -4.019  1.00  0.00    -0.504 OA
ATOM     13  H   UNL     1       7.169  -8.356  -3.011  1.00  0.00     0.293 HD
ENDBRANCH   4  12
BRANCH   6  14
ATOM     14  O   UNL     1       7.960  -5.786  -2.949  1.00  0.00    -0.504 OA
ATOM     15  H   UNL     1       8.656  -6.123  -2.300  1.00  0.00     0.293 HD
ENDBRANCH   6  14
TORSDOF 4
ENDMDL
