MODEL 1
REMARK VINA RESULT:     5.755      0.000      0.000
REMARK INTER + INTRA:          13.726
REMARK INTER:                  14.502
REMARK INTRA:                  -0.775
REMARK UNBOUND:                -0.775
REMARK SMILES CCCCCCCCCCCCCCCCCCCCCCCCCCCC(=O)[O-]
REMARK SMILES IDX 15 1 16 2 17 3 18 4 19 5 20 6 21 7 22 8 23 9 24 10 25 11
REMARK SMILES IDX 26 12 27 13 28 14 29 15 30 16 14 17 13 18 12 19 11 20 10 21
REMARK SMILES IDX 9 22 8 23 7 24 6 25 5 26 4 27 3 28 2 29 1 30
REMARK H PARENT
REMARK Flexibility Score: inf
ROOT
ATOM      1  C   UNL     1     -24.958   2.147 -33.885  1.00  0.00     0.000 C 
ENDROOT
BRANCH   1   2
ATOM      2  C   UNL     1     -23.450   2.128 -34.191  1.00  0.00     0.000 C 
BRANCH   2   3
ATOM      3  C   UNL     1     -22.644   1.209 -33.244  1.00  0.00     0.000 C 
BRANCH   3   4
ATOM      4  C   UNL     1     -23.517   0.278 -32.387  1.00  0.00     0.000 C 
BRANCH   4   5
ATOM      5  C   UNL     1     -22.689  -0.714 -31.552  1.00  0.00     0.000 C 
BRANCH   5   6
ATOM      6  C   UNL     1     -23.122  -2.178 -31.777  1.00  0.00     0.000 C 
BRANCH   6   7
ATOM      7  C   UNL     1     -22.128  -3.215 -31.220  1.00  0.00     0.000 C 
BRANCH   7   8
ATOM      8  C   UNL     1     -22.695  -4.634 -31.048  1.00  0.00     0.000 C 
BRANCH   8   9
ATOM      9  C   UNL     1     -21.884  -5.487 -30.058  1.00  0.00     0.000 C 
BRANCH   9  10
ATOM     10  C   UNL     1     -21.923  -6.989 -30.390  1.00  0.00     0.000 C 
BRANCH  10  11
ATOM     11  C   UNL     1     -21.181  -7.868 -29.363  1.00  0.00     0.000 C 
BRANCH  11  12
ATOM     12  C   UNL     1     -20.866  -7.102 -28.066  1.00  0.00     0.006 C 
BRANCH  12  13
ATOM     13  C   UNL     1     -21.530  -7.738 -26.839  1.00  0.00     0.053 C 
BRANCH  13  14
ATOM     14  C   UNL     1     -22.738  -8.540 -27.218  1.00  0.00     0.041 C 
ATOM     15  O   UNL     1     -22.604  -9.652 -27.795  1.00  0.00    -0.550 OA
ATOM     16  O   UNL     1     -24.009  -8.075 -26.908  1.00  0.00    -0.550 OA
ENDBRANCH  13  14
ENDBRANCH  12  13
ENDBRANCH  11  12
ENDBRANCH  10  11
ENDBRANCH   9  10
ENDBRANCH   8   9
ENDBRANCH   7   8
ENDBRANCH   6   7
ENDBRANCH   5   6
ENDBRANCH   4   5
ENDBRANCH   3   4
ENDBRANCH   2   3
ENDBRANCH   1   2
BRANCH   1  17
ATOM     17  C   UNL     1     -25.408   3.419 -33.129  1.00  0.00     0.000 C 
BRANCH  17  18
ATOM     18  C   UNL     1     -25.036   4.693 -33.904  1.00  0.00     0.000 C 
BRANCH  18  19
ATOM     19  C   UNL     1     -25.933   4.939 -35.126  1.00  0.00     0.000 C 
BRANCH  19  20
ATOM     20  C   UNL     1     -25.136   5.030 -36.441  1.00  0.00     0.000 C 
BRANCH  20  21
ATOM     21  C   UNL     1     -23.924   4.086 -36.451  1.00  0.00     0.000 C 
BRANCH  21  22
ATOM     22  C   UNL     1     -22.638   4.804 -36.899  1.00  0.00    -0.000 C 
BRANCH  22  23
ATOM     23  C   UNL     1     -22.252   4.475 -38.349  1.00  0.00    -0.000 C 
BRANCH  23  24
ATOM     24  C   UNL     1     -23.151   3.393 -38.988  1.00  0.00    -0.000 C 
BRANCH  24  25
ATOM     25  C   UNL     1     -22.423   2.044 -39.124  1.00  0.00    -0.000 C 
BRANCH  25  26
ATOM     26  C   UNL     1     -23.390   0.844 -39.037  1.00  0.00    -0.000 C 
BRANCH  26  27
ATOM     27  C   UNL     1     -22.685  -0.522 -38.997  1.00  0.00    -0.000 C 
BRANCH  27  28
ATOM     28  C   UNL     1     -21.787  -0.696 -37.761  1.00  0.00    -0.000 C 
BRANCH  28  29
ATOM     29  C   UNL     1     -21.660  -2.165 -37.326  1.00  0.00    -0.003 C 
ATOM     30  C   UNL     1     -20.208  -2.604 -37.142  1.00  0.00     0.004 C 
ENDBRANCH  28  29
ENDBRANCH  27  28
ENDBRANCH  26  27
ENDBRANCH  25  26
ENDBRANCH  24  25
ENDBRANCH  23  24
ENDBRANCH  22  23
ENDBRANCH  21  22
ENDBRANCH  20  21
ENDBRANCH  19  20
ENDBRANCH  18  19
ENDBRANCH  17  18
ENDBRANCH   1  17
TORSDOF 26
ENDMDL
MODEL 2
REMARK VINA RESULT:     6.075      4.548     11.712
REMARK INTER + INTRA:          14.533
REMARK INTER:                  16.147
REMARK INTRA:                  -1.614
REMARK UNBOUND:                -0.775
REMARK SMILES CCCCCCCCCCCCCCCCCCCCCCCCCCCC(=O)[O-]
REMARK SMILES IDX 15 1 16 2 17 3 18 4 19 5 20 6 21 7 22 8 23 9 24 10 25 11
REMARK SMILES IDX 26 12 27 13 28 14 29 15 30 16 14 17 13 18 12 19 11 20 10 21
REMARK SMILES IDX 9 22 8 23 7 24 6 25 5 26 4 27 3 28 2 29 1 30
REMARK H PARENT
REMARK Flexibility Score: inf
ROOT
ATOM      1  C   UNL     1     -24.746   2.268 -33.361  1.00  0.00     0.000 C 
ENDROOT
BRANCH   1   2
ATOM      2  C   UNL     1     -24.376   3.744 -33.128  1.00  0.00     0.000 C 
BRANCH   2   3
ATOM      3  C   UNL     1     -25.403   4.734 -33.726  1.00  0.00     0.000 C 
BRANCH   3   4
ATOM      4  C   UNL     1     -26.532   5.122 -32.756  1.00  0.00     0.000 C 
BRANCH   4   5
ATOM      5  C   UNL     1     -27.932   4.863 -33.337  1.00  0.00     0.000 C 
BRANCH   5   6
ATOM      6  C   UNL     1     -27.987   3.579 -34.191  1.00  0.00     0.000 C 
BRANCH   6   7
ATOM      7  C   UNL     1     -29.072   3.603 -35.285  1.00  0.00     0.000 C 
BRANCH   7   8
ATOM      8  C   UNL     1     -29.101   4.877 -36.146  1.00  0.00     0.000 C 
BRANCH   8   9
ATOM      9  C   UNL     1     -27.779   5.124 -36.893  1.00  0.00     0.000 C 
BRANCH   9  10
ATOM     10  C   UNL     1     -27.720   4.411 -38.256  1.00  0.00     0.000 C 
BRANCH  10  11
ATOM     11  C   UNL     1     -26.424   4.691 -39.044  1.00  0.00     0.000 C 
BRANCH  11  12
ATOM     12  C   UNL     1     -25.188   4.732 -38.128  1.00  0.00     0.006 C 
BRANCH  12  13
ATOM     13  C   UNL     1     -23.881   4.537 -38.907  1.00  0.00     0.053 C 
BRANCH  13  14
ATOM     14  C   UNL     1     -22.802   3.962 -38.041  1.00  0.00     0.041 C 
ATOM     15  O   UNL     1     -21.613   3.923 -38.453  1.00  0.00    -0.550 OA
ATOM     16  O   UNL     1     -23.104   3.497 -36.767  1.00  0.00    -0.550 OA
ENDBRANCH  13  14
ENDBRANCH  12  13
ENDBRANCH  11  12
ENDBRANCH  10  11
ENDBRANCH   9  10
ENDBRANCH   8   9
ENDBRANCH   7   8
ENDBRANCH   6   7
ENDBRANCH   5   6
ENDBRANCH   4   5
ENDBRANCH   3   4
ENDBRANCH   2   3
ENDBRANCH   1   2
BRANCH   1  17
ATOM     17  C   UNL     1     -23.718   1.516 -34.237  1.00  0.00     0.000 C 
BRANCH  17  18
ATOM     18  C   UNL     1     -22.449   1.169 -33.441  1.00  0.00     0.000 C 
BRANCH  18  19
ATOM     19  C   UNL     1     -22.722   0.250 -32.242  1.00  0.00     0.000 C 
BRANCH  19  20
ATOM     20  C   UNL     1     -22.051  -1.130 -32.384  1.00  0.00     0.000 C 
BRANCH  20  21
ATOM     21  C   UNL     1     -22.419  -2.076 -31.231  1.00  0.00     0.000 C 
BRANCH  21  22
ATOM     22  C   UNL     1     -22.235  -3.555 -31.618  1.00  0.00    -0.000 C 
BRANCH  22  23
ATOM     23  C   UNL     1     -22.501  -4.510 -30.445  1.00  0.00    -0.000 C 
BRANCH  23  24
ATOM     24  C   UNL     1     -22.098  -5.971 -30.745  1.00  0.00    -0.000 C 
BRANCH  24  25
ATOM     25  C   UNL     1     -22.407  -6.908 -29.564  1.00  0.00    -0.000 C 
BRANCH  25  26
ATOM     26  C   UNL     1     -21.148  -7.645 -29.056  1.00  0.00    -0.000 C 
BRANCH  26  27
ATOM     27  C   UNL     1     -20.868  -7.438 -27.558  1.00  0.00    -0.000 C 
BRANCH  27  28
ATOM     28  C   UNL     1     -22.108  -6.982 -26.774  1.00  0.00    -0.000 C 
BRANCH  28  29
ATOM     29  C   UNL     1     -22.909  -8.161 -26.199  1.00  0.00    -0.003 C 
ATOM     30  C   UNL     1     -24.003  -8.651 -27.148  1.00  0.00     0.004 C 
ENDBRANCH  28  29
ENDBRANCH  27  28
ENDBRANCH  26  27
ENDBRANCH  25  26
ENDBRANCH  24  25
ENDBRANCH  23  24
ENDBRANCH  22  23
ENDBRANCH  21  22
ENDBRANCH  20  21
ENDBRANCH  19  20
ENDBRANCH  18  19
ENDBRANCH  17  18
ENDBRANCH   1  17
TORSDOF 26
ENDMDL
MODEL 3
REMARK VINA RESULT:     6.822      3.097      9.927
REMARK INTER + INTRA:          16.416
REMARK INTER:                  17.840
REMARK INTRA:                  -1.423
REMARK UNBOUND:                -0.775
REMARK SMILES CCCCCCCCCCCCCCCCCCCCCCCCCCCC(=O)[O-]
REMARK SMILES IDX 15 1 16 2 17 3 18 4 19 5 20 6 21 7 22 8 23 9 24 10 25 11
REMARK SMILES IDX 26 12 27 13 28 14 29 15 30 16 14 17 13 18 12 19 11 20 10 21
REMARK SMILES IDX 9 22 8 23 7 24 6 25 5 26 4 27 3 28 2 29 1 30
REMARK H PARENT
REMARK Flexibility Score: inf
ROOT
ATOM      1  C   UNL     1     -24.655   3.542 -32.529  1.00  0.00     0.000 C 
ENDROOT
BRANCH   1   2
ATOM      2  C   UNL     1     -24.301   4.819 -33.313  1.00  0.00     0.000 C 
BRANCH   2   3
ATOM      3  C   UNL     1     -23.643   4.534 -34.683  1.00  0.00     0.000 C 
BRANCH   3   4
ATOM      4  C   UNL     1     -24.575   3.837 -35.689  1.00  0.00     0.000 C 
BRANCH   4   5
ATOM      5  C   UNL     1     -25.269   4.826 -36.642  1.00  0.00     0.000 C 
BRANCH   5   6
ATOM      6  C   UNL     1     -24.791   4.670 -38.101  1.00  0.00     0.000 C 
BRANCH   6   7
ATOM      7  C   UNL     1     -23.328   5.095 -38.327  1.00  0.00     0.000 C 
BRANCH   7   8
ATOM      8  C   UNL     1     -22.427   4.020 -38.958  1.00  0.00     0.000 C 
BRANCH   8   9
ATOM      9  C   UNL     1     -23.092   2.634 -39.004  1.00  0.00     0.000 C 
BRANCH   9  10
ATOM     10  C   UNL     1     -22.646   1.718 -37.851  1.00  0.00     0.000 C 
BRANCH  10  11
ATOM     11  C   UNL     1     -22.907   0.221 -38.114  1.00  0.00     0.000 C 
BRANCH  11  12
ATOM     12  C   UNL     1     -21.711  -0.655 -37.699  1.00  0.00     0.006 C 
BRANCH  12  13
ATOM     13  C   UNL     1     -21.847  -2.098 -38.201  1.00  0.00     0.053 C 
BRANCH  13  14
ATOM     14  C   UNL     1     -21.000  -3.042 -37.403  1.00  0.00     0.041 C 
ATOM     15  O   UNL     1     -20.160  -2.597 -36.577  1.00  0.00    -0.550 OA
ATOM     16  O   UNL     1     -21.159  -4.415 -37.549  1.00  0.00    -0.550 OA
ENDBRANCH  13  14
ENDBRANCH  12  13
ENDBRANCH  11  12
ENDBRANCH  10  11
ENDBRANCH   9  10
ENDBRANCH   8   9
ENDBRANCH   7   8
ENDBRANCH   6   7
ENDBRANCH   5   6
ENDBRANCH   4   5
ENDBRANCH   3   4
ENDBRANCH   2   3
ENDBRANCH   1   2
BRANCH   1  17
ATOM     17  C   UNL     1     -25.632   2.615 -33.289  1.00  0.00     0.000 C 
BRANCH  17  18
ATOM     18  C   UNL     1     -25.217   1.140 -33.164  1.00  0.00     0.000 C 
BRANCH  18  19
ATOM     19  C   UNL     1     -23.773   0.959 -32.675  1.00  0.00     0.000 C 
BRANCH  19  20
ATOM     20  C   UNL     1     -23.635  -0.166 -31.631  1.00  0.00     0.000 C 
BRANCH  20  21
ATOM     21  C   UNL     1     -22.859  -1.374 -32.178  1.00  0.00     0.000 C 
BRANCH  21  22
ATOM     22  C   UNL     1     -22.519  -2.390 -31.073  1.00  0.00    -0.000 C 
BRANCH  22  23
ATOM     23  C   UNL     1     -22.519  -3.839 -31.583  1.00  0.00    -0.000 C 
BRANCH  23  24
ATOM     24  C   UNL     1     -22.210  -4.873 -30.478  1.00  0.00    -0.000 C 
BRANCH  24  25
ATOM     25  C   UNL     1     -22.190  -6.312 -31.025  1.00  0.00    -0.000 C 
BRANCH  25  26
ATOM     26  C   UNL     1     -21.816  -7.346 -29.941  1.00  0.00    -0.000 C 
BRANCH  26  27
ATOM     27  C   UNL     1     -21.259  -6.722 -28.650  1.00  0.00    -0.000 C 
BRANCH  27  28
ATOM     28  C   UNL     1     -21.842  -7.357 -27.378  1.00  0.00    -0.000 C 
BRANCH  28  29
ATOM     29  C   UNL     1     -22.975  -8.351 -27.680  1.00  0.00    -0.003 C 
ATOM     30  C   UNL     1     -23.882  -8.599 -26.475  1.00  0.00     0.004 C 
ENDBRANCH  28  29
ENDBRANCH  27  28
ENDBRANCH  26  27
ENDBRANCH  25  26
ENDBRANCH  24  25
ENDBRANCH  23  24
ENDBRANCH  22  23
ENDBRANCH  21  22
ENDBRANCH  20  21
ENDBRANCH  19  20
ENDBRANCH  18  19
ENDBRANCH  17  18
ENDBRANCH   1  17
TORSDOF 26
ENDMDL
MODEL 4
REMARK VINA RESULT:     7.145      3.559     11.288
REMARK INTER + INTRA:          17.229
REMARK INTER:                  16.989
REMARK INTRA:                   0.240
REMARK UNBOUND:                -0.775
REMARK SMILES CCCCCCCCCCCCCCCCCCCCCCCCCCCC(=O)[O-]
REMARK SMILES IDX 15 1 16 2 17 3 18 4 19 5 20 6 21 7 22 8 23 9 24 10 25 11
REMARK SMILES IDX 26 12 27 13 28 14 29 15 30 16 14 17 13 18 12 19 11 20 10 21
REMARK SMILES IDX 9 22 8 23 7 24 6 25 5 26 4 27 3 28 2 29 1 30
REMARK H PARENT
REMARK Flexibility Score: inf
ROOT
ATOM      1  C   UNL     1     -23.079   0.981 -33.148  1.00  0.00     0.000 C 
ENDROOT
BRANCH   1   2
ATOM      2  C   UNL     1     -22.065   2.091 -33.476  1.00  0.00     0.000 C 
BRANCH   2   3
ATOM      3  C   UNL     1     -22.729   3.421 -33.901  1.00  0.00     0.000 C 
BRANCH   3   4
ATOM      4  C   UNL     1     -24.033   3.242 -34.695  1.00  0.00     0.000 C 
BRANCH   4   5
ATOM      5  C   UNL     1     -24.912   4.505 -34.692  1.00  0.00     0.000 C 
BRANCH   5   6
ATOM      6  C   UNL     1     -25.959   4.496 -35.825  1.00  0.00     0.000 C 
BRANCH   6   7
ATOM      7  C   UNL     1     -25.349   4.429 -37.238  1.00  0.00     0.000 C 
BRANCH   7   8
ATOM      8  C   UNL     1     -23.986   5.125 -37.393  1.00  0.00     0.000 C 
BRANCH   8   9
ATOM      9  C   UNL     1     -22.876   4.169 -37.860  1.00  0.00     0.000 C 
BRANCH   9  10
ATOM     10  C   UNL     1     -23.426   2.879 -38.495  1.00  0.00     0.000 C 
BRANCH  10  11
ATOM     11  C   UNL     1     -23.524   1.697 -37.509  1.00  0.00     0.000 C 
BRANCH  11  12
ATOM     12  C   UNL     1     -22.428   0.646 -37.758  1.00  0.00     0.006 C 
BRANCH  12  13
ATOM     13  C   UNL     1     -22.672  -0.156 -39.042  1.00  0.00     0.053 C 
BRANCH  13  14
ATOM     14  C   UNL     1     -22.673  -1.631 -38.781  1.00  0.00     0.041 C 
ATOM     15  O   UNL     1     -23.659  -2.335 -39.124  1.00  0.00    -0.550 OA
ATOM     16  O   UNL     1     -21.572  -2.235 -38.187  1.00  0.00    -0.550 OA
ENDBRANCH  13  14
ENDBRANCH  12  13
ENDBRANCH  11  12
ENDBRANCH  10  11
ENDBRANCH   9  10
ENDBRANCH   8   9
ENDBRANCH   7   8
ENDBRANCH   6   7
ENDBRANCH   5   6
ENDBRANCH   4   5
ENDBRANCH   3   4
ENDBRANCH   2   3
ENDBRANCH   1   2
BRANCH   1  17
ATOM     17  C   UNL     1     -22.495  -0.125 -32.238  1.00  0.00     0.000 C 
BRANCH  17  18
ATOM     18  C   UNL     1     -23.170  -1.482 -32.500  1.00  0.00     0.000 C 
BRANCH  18  19
ATOM     19  C   UNL     1     -22.234  -2.676 -32.265  1.00  0.00     0.000 C 
BRANCH  19  20
ATOM     20  C   UNL     1     -22.351  -3.252 -30.841  1.00  0.00     0.000 C 
BRANCH  20  21
ATOM     21  C   UNL     1     -22.809  -4.719 -30.844  1.00  0.00     0.000 C 
BRANCH  21  22
ATOM     22  C   UNL     1     -21.706  -5.668 -30.344  1.00  0.00    -0.000 C 
BRANCH  22  23
ATOM     23  C   UNL     1     -22.120  -7.146 -30.418  1.00  0.00    -0.000 C 
BRANCH  23  24
ATOM     24  C   UNL     1     -21.520  -8.004 -29.282  1.00  0.00    -0.000 C 
BRANCH  24  25
ATOM     25  C   UNL     1     -20.562  -7.193 -28.391  1.00  0.00    -0.000 C 
BRANCH  25  26
ATOM     26  C   UNL     1     -21.314  -6.344 -27.342  1.00  0.00    -0.000 C 
BRANCH  26  27
ATOM     27  C   UNL     1     -22.339  -7.140 -26.516  1.00  0.00    -0.000 C 
BRANCH  27  28
ATOM     28  C   UNL     1     -22.814  -8.419 -27.224  1.00  0.00    -0.000 C 
BRANCH  28  29
ATOM     29  C   UNL     1     -24.298  -8.722 -26.961  1.00  0.00    -0.003 C 
ATOM     30  C   UNL     1     -24.603  -8.944 -25.479  1.00  0.00     0.004 C 
ENDBRANCH  28  29
ENDBRANCH  27  28
ENDBRANCH  26  27
ENDBRANCH  25  26
ENDBRANCH  24  25
ENDBRANCH  23  24
ENDBRANCH  22  23
ENDBRANCH  21  22
ENDBRANCH  20  21
ENDBRANCH  19  20
ENDBRANCH  18  19
ENDBRANCH  17  18
ENDBRANCH   1  17
TORSDOF 26
ENDMDL
MODEL 5
REMARK VINA RESULT:     7.161      2.023      3.859
REMARK INTER + INTRA:          17.270
REMARK INTER:                  19.128
REMARK INTRA:                  -1.858
REMARK UNBOUND:                -0.775
REMARK SMILES CCCCCCCCCCCCCCCCCCCCCCCCCCCC(=O)[O-]
REMARK SMILES IDX 15 1 16 2 17 3 18 4 19 5 20 6 21 7 22 8 23 9 24 10 25 11
REMARK SMILES IDX 26 12 27 13 28 14 29 15 30 16 14 17 13 18 12 19 11 20 10 21
REMARK SMILES IDX 9 22 8 23 7 24 6 25 5 26 4 27 3 28 2 29 1 30
REMARK H PARENT
REMARK Flexibility Score: inf
ROOT
ATOM      1  C   UNL     1     -23.412   1.429 -33.614  1.00  0.00     0.000 C 
ENDROOT
BRANCH   1   2
ATOM      2  C   UNL     1     -22.339   0.846 -32.677  1.00  0.00     0.000 C 
BRANCH   2   3
ATOM      3  C   UNL     1     -22.910  -0.135 -31.627  1.00  0.00     0.000 C 
BRANCH   3   4
ATOM      4  C   UNL     1     -23.324  -1.498 -32.207  1.00  0.00     0.000 C 
BRANCH   4   5
ATOM      5  C   UNL     1     -22.169  -2.513 -32.226  1.00  0.00     0.000 C 
BRANCH   5   6
ATOM      6  C   UNL     1     -22.577  -3.880 -31.638  1.00  0.00     0.000 C 
BRANCH   6   7
ATOM      7  C   UNL     1     -22.227  -4.048 -30.147  1.00  0.00     0.000 C 
BRANCH   7   8
ATOM      8  C   UNL     1     -21.362  -5.276 -29.815  1.00  0.00     0.000 C 
BRANCH   8   9
ATOM      9  C   UNL     1     -22.007  -6.599 -30.260  1.00  0.00     0.000 C 
BRANCH   9  10
ATOM     10  C   UNL     1     -21.386  -7.828 -29.573  1.00  0.00     0.000 C 
BRANCH  10  11
ATOM     11  C   UNL     1     -20.631  -7.493 -28.270  1.00  0.00     0.000 C 
BRANCH  11  12
ATOM     12  C   UNL     1     -21.507  -7.709 -27.024  1.00  0.00     0.006 C 
BRANCH  12  13
ATOM     13  C   UNL     1     -23.003  -7.744 -27.363  1.00  0.00     0.053 C 
BRANCH  13  14
ATOM     14  C   UNL     1     -23.691  -8.903 -26.708  1.00  0.00     0.041 C 
ATOM     15  O   UNL     1     -24.733  -8.717 -26.025  1.00  0.00    -0.550 OA
ATOM     16  O   UNL     1     -23.201 -10.191 -26.877  1.00  0.00    -0.550 OA
ENDBRANCH  13  14
ENDBRANCH  12  13
ENDBRANCH  11  12
ENDBRANCH  10  11
ENDBRANCH   9  10
ENDBRANCH   8   9
ENDBRANCH   7   8
ENDBRANCH   6   7
ENDBRANCH   5   6
ENDBRANCH   4   5
ENDBRANCH   3   4
ENDBRANCH   2   3
ENDBRANCH   1   2
BRANCH   1  17
ATOM     17  C   UNL     1     -23.893   2.835 -33.185  1.00  0.00     0.000 C 
BRANCH  17  18
ATOM     18  C   UNL     1     -25.393   3.024 -33.463  1.00  0.00     0.000 C 
BRANCH  18  19
ATOM     19  C   UNL     1     -25.923   4.391 -33.006  1.00  0.00     0.000 C 
BRANCH  19  20
ATOM     20  C   UNL     1     -27.034   4.935 -33.925  1.00  0.00     0.000 C 
BRANCH  20  21
ATOM     21  C   UNL     1     -28.298   4.062 -33.888  1.00  0.00     0.000 C 
BRANCH  21  22
ATOM     22  C   UNL     1     -29.037   4.059 -35.238  1.00  0.00    -0.000 C 
BRANCH  22  23
ATOM     23  C   UNL     1     -28.501   5.124 -36.207  1.00  0.00    -0.000 C 
BRANCH  23  24
ATOM     24  C   UNL     1     -28.966   4.911 -37.665  1.00  0.00    -0.000 C 
BRANCH  24  25
ATOM     25  C   UNL     1     -27.852   4.316 -38.544  1.00  0.00    -0.000 C 
BRANCH  25  26
ATOM     26  C   UNL     1     -26.473   4.947 -38.251  1.00  0.00    -0.000 C 
BRANCH  26  27
ATOM     27  C   UNL     1     -25.697   4.251 -37.120  1.00  0.00    -0.000 C 
BRANCH  27  28
ATOM     28  C   UNL     1     -24.444   5.028 -36.687  1.00  0.00    -0.000 C 
BRANCH  28  29
ATOM     29  C   UNL     1     -23.272   4.102 -36.325  1.00  0.00    -0.003 C 
ATOM     30  C   UNL     1     -22.836   3.214 -37.491  1.00  0.00     0.004 C 
ENDBRANCH  28  29
ENDBRANCH  27  28
ENDBRANCH  26  27
ENDBRANCH  25  26
ENDBRANCH  24  25
ENDBRANCH  23  24
ENDBRANCH  22  23
ENDBRANCH  21  22
ENDBRANCH  20  21
ENDBRANCH  19  20
ENDBRANCH  18  19
ENDBRANCH  17  18
ENDBRANCH   1  17
TORSDOF 26
ENDMDL
MODEL 6
REMARK VINA RESULT:     7.236      1.897      3.875
REMARK INTER + INTRA:          17.458
REMARK INTER:                  18.837
REMARK INTRA:                  -1.379
REMARK UNBOUND:                -0.775
REMARK SMILES CCCCCCCCCCCCCCCCCCCCCCCCCCCC(=O)[O-]
REMARK SMILES IDX 15 1 16 2 17 3 18 4 19 5 20 6 21 7 22 8 23 9 24 10 25 11
REMARK SMILES IDX 26 12 27 13 28 14 29 15 30 16 14 17 13 18 12 19 11 20 10 21
REMARK SMILES IDX 9 22 8 23 7 24 6 25 5 26 4 27 3 28 2 29 1 30
REMARK H PARENT
REMARK Flexibility Score: inf
ROOT
ATOM      1  C   UNL     1     -25.444   3.929 -34.063  1.00  0.00     0.000 C 
ENDROOT
BRANCH   1   2
ATOM      2  C   UNL     1     -25.297   2.577 -34.785  1.00  0.00     0.000 C 
BRANCH   2   3
ATOM      3  C   UNL     1     -23.851   2.284 -35.247  1.00  0.00     0.000 C 
BRANCH   3   4
ATOM      4  C   UNL     1     -22.790   3.177 -34.583  1.00  0.00     0.000 C 
BRANCH   4   5
ATOM      5  C   UNL     1     -22.559   2.828 -33.103  1.00  0.00     0.000 C 
BRANCH   5   6
ATOM      6  C   UNL     1     -22.155   1.352 -32.903  1.00  0.00     0.000 C 
BRANCH   6   7
ATOM      7  C   UNL     1     -23.321   0.438 -32.481  1.00  0.00     0.000 C 
BRANCH   7   8
ATOM      8  C   UNL     1     -22.957  -0.655 -31.462  1.00  0.00     0.000 C 
BRANCH   8   9
ATOM      9  C   UNL     1     -22.772  -2.038 -32.109  1.00  0.00     0.000 C 
BRANCH   9  10
ATOM     10  C   UNL     1     -22.883  -3.191 -31.097  1.00  0.00     0.000 C 
BRANCH  10  11
ATOM     11  C   UNL     1     -21.546  -3.913 -30.832  1.00  0.00     0.000 C 
BRANCH  11  12
ATOM     12  C   UNL     1     -21.727  -5.159 -29.946  1.00  0.00     0.006 C 
BRANCH  12  13
ATOM     13  C   UNL     1     -21.963  -6.429 -30.772  1.00  0.00     0.053 C 
BRANCH  13  14
ATOM     14  C   UNL     1     -21.488  -7.654 -30.050  1.00  0.00     0.041 C 
ATOM     15  O   UNL     1     -21.368  -8.746 -30.666  1.00  0.00    -0.550 OA
ATOM     16  O   UNL     1     -21.149  -7.582 -28.705  1.00  0.00    -0.550 OA
ENDBRANCH  13  14
ENDBRANCH  12  13
ENDBRANCH  11  12
ENDBRANCH  10  11
ENDBRANCH   9  10
ENDBRANCH   8   9
ENDBRANCH   7   8
ENDBRANCH   6   7
ENDBRANCH   5   6
ENDBRANCH   4   5
ENDBRANCH   3   4
ENDBRANCH   2   3
ENDBRANCH   1   2
BRANCH   1  17
ATOM     17  C   UNL     1     -26.346   3.852 -32.809  1.00  0.00     0.000 C 
BRANCH  17  18
ATOM     18  C   UNL     1     -27.225   5.106 -32.673  1.00  0.00     0.000 C 
BRANCH  18  19
ATOM     19  C   UNL     1     -28.513   5.033 -33.504  1.00  0.00     0.000 C 
BRANCH  19  20
ATOM     20  C   UNL     1     -28.785   3.620 -34.056  1.00  0.00     0.000 C 
BRANCH  20  21
ATOM     21  C   UNL     1     -28.847   3.599 -35.592  1.00  0.00     0.000 C 
BRANCH  21  22
ATOM     22  C   UNL     1     -28.021   4.737 -36.218  1.00  0.00    -0.000 C 
BRANCH  22  23
ATOM     23  C   UNL     1     -28.486   5.091 -37.639  1.00  0.00    -0.000 C 
BRANCH  23  24
ATOM     24  C   UNL     1     -27.370   4.948 -38.698  1.00  0.00    -0.000 C 
BRANCH  24  25
ATOM     25  C   UNL     1     -26.022   4.558 -38.065  1.00  0.00    -0.000 C 
BRANCH  25  26
ATOM     26  C   UNL     1     -24.973   4.154 -39.124  1.00  0.00    -0.000 C 
BRANCH  26  27
ATOM     27  C   UNL     1     -23.550   3.998 -38.561  1.00  0.00    -0.000 C 
BRANCH  27  28
ATOM     28  C   UNL     1     -22.924   2.631 -38.885  1.00  0.00    -0.000 C 
BRANCH  28  29
ATOM     29  C   UNL     1     -23.135   1.605 -37.760  1.00  0.00    -0.003 C 
ATOM     30  C   UNL     1     -22.397   0.290 -38.012  1.00  0.00     0.004 C 
ENDBRANCH  28  29
ENDBRANCH  27  28
ENDBRANCH  26  27
ENDBRANCH  25  26
ENDBRANCH  24  25
ENDBRANCH  23  24
ENDBRANCH  22  23
ENDBRANCH  21  22
ENDBRANCH  20  21
ENDBRANCH  19  20
ENDBRANCH  18  19
ENDBRANCH  17  18
ENDBRANCH   1  17
TORSDOF 26
ENDMDL
MODEL 7
REMARK VINA RESULT:     7.358      4.039     11.781
REMARK INTER + INTRA:          17.767
REMARK INTER:                  18.075
REMARK INTRA:                  -0.308
REMARK UNBOUND:                -0.775
REMARK SMILES CCCCCCCCCCCCCCCCCCCCCCCCCCCC(=O)[O-]
REMARK SMILES IDX 15 1 16 2 17 3 18 4 19 5 20 6 21 7 22 8 23 9 24 10 25 11
REMARK SMILES IDX 26 12 27 13 28 14 29 15 30 16 14 17 13 18 12 19 11 20 10 21
REMARK SMILES IDX 9 22 8 23 7 24 6 25 5 26 4 27 3 28 2 29 1 30
REMARK H PARENT
REMARK Flexibility Score: inf
ROOT
ATOM      1  C   UNL     1     -23.004   1.295 -33.360  1.00  0.00     0.000 C 
ENDROOT
BRANCH   1   2
ATOM      2  C   UNL     1     -23.869   2.562 -33.486  1.00  0.00     0.000 C 
BRANCH   2   3
ATOM      3  C   UNL     1     -25.358   2.324 -33.144  1.00  0.00     0.000 C 
BRANCH   3   4
ATOM      4  C   UNL     1     -26.174   3.617 -32.980  1.00  0.00     0.000 C 
BRANCH   4   5
ATOM      5  C   UNL     1     -25.605   4.789 -33.800  1.00  0.00     0.000 C 
BRANCH   5   6
ATOM      6  C   UNL     1     -26.392   5.030 -35.105  1.00  0.00     0.000 C 
BRANCH   6   7
ATOM      7  C   UNL     1     -25.504   5.116 -36.362  1.00  0.00     0.000 C 
BRANCH   7   8
ATOM      8  C   UNL     1     -26.260   5.055 -37.699  1.00  0.00     0.000 C 
BRANCH   8   9
ATOM      9  C   UNL     1     -25.325   5.123 -38.918  1.00  0.00     0.000 C 
BRANCH   9  10
ATOM     10  C   UNL     1     -24.460   3.860 -39.079  1.00  0.00     0.000 C 
BRANCH  10  11
ATOM     11  C   UNL     1     -22.945   4.132 -38.985  1.00  0.00     0.000 C 
BRANCH  11  12
ATOM     12  C   UNL     1     -22.542   4.687 -37.607  1.00  0.00     0.006 C 
BRANCH  12  13
ATOM     13  C   UNL     1     -22.443   3.587 -36.544  1.00  0.00     0.053 C 
BRANCH  13  14
ATOM     14  C   UNL     1     -22.862   2.254 -37.087  1.00  0.00     0.041 C 
ATOM     15  O   UNL     1     -22.218   1.725 -38.031  1.00  0.00    -0.550 OA
ATOM     16  O   UNL     1     -23.943   1.583 -36.531  1.00  0.00    -0.550 OA
ENDBRANCH  13  14
ENDBRANCH  12  13
ENDBRANCH  11  12
ENDBRANCH  10  11
ENDBRANCH   9  10
ENDBRANCH   8   9
ENDBRANCH   7   8
ENDBRANCH   6   7
ENDBRANCH   5   6
ENDBRANCH   4   5
ENDBRANCH   3   4
ENDBRANCH   2   3
ENDBRANCH   1   2
BRANCH   1  17
ATOM     17  C   UNL     1     -23.581   0.263 -32.363  1.00  0.00     0.000 C 
BRANCH  17  18
ATOM     18  C   UNL     1     -22.484  -0.665 -31.819  1.00  0.00     0.000 C 
BRANCH  18  19
ATOM     19  C   UNL     1     -22.864  -2.152 -31.884  1.00  0.00     0.000 C 
BRANCH  19  20
ATOM     20  C   UNL     1     -22.776  -2.849 -30.513  1.00  0.00     0.000 C 
BRANCH  20  21
ATOM     21  C   UNL     1     -21.571  -3.798 -30.421  1.00  0.00     0.000 C 
BRANCH  21  22
ATOM     22  C   UNL     1     -21.954  -5.159 -29.814  1.00  0.00    -0.000 C 
BRANCH  22  23
ATOM     23  C   UNL     1     -22.296  -6.208 -30.883  1.00  0.00    -0.000 C 
BRANCH  23  24
ATOM     24  C   UNL     1     -21.578  -7.558 -30.665  1.00  0.00    -0.000 C 
BRANCH  24  25
ATOM     25  C   UNL     1     -21.264  -7.810 -29.179  1.00  0.00    -0.000 C 
BRANCH  25  26
ATOM     26  C   UNL     1     -22.199  -8.868 -28.554  1.00  0.00    -0.000 C 
BRANCH  26  27
ATOM     27  C   UNL     1     -22.545  -8.600 -27.079  1.00  0.00    -0.000 C 
BRANCH  27  28
ATOM     28  C   UNL     1     -23.977  -8.076 -26.886  1.00  0.00    -0.000 C 
BRANCH  28  29
ATOM     29  C   UNL     1     -24.675  -8.705 -25.669  1.00  0.00    -0.003 C 
ATOM     30  C   UNL     1     -25.482  -9.953 -26.029  1.00  0.00     0.004 C 
ENDBRANCH  28  29
ENDBRANCH  27  28
ENDBRANCH  26  27
ENDBRANCH  25  26
ENDBRANCH  24  25
ENDBRANCH  23  24
ENDBRANCH  22  23
ENDBRANCH  21  22
ENDBRANCH  20  21
ENDBRANCH  19  20
ENDBRANCH  18  19
ENDBRANCH  17  18
ENDBRANCH   1  17
TORSDOF 26
ENDMDL
MODEL 8
REMARK VINA RESULT:     7.525      7.527     11.978
REMARK INTER + INTRA:          18.188
REMARK INTER:                  19.310
REMARK INTRA:                  -1.122
REMARK UNBOUND:                -0.775
REMARK SMILES CCCCCCCCCCCCCCCCCCCCCCCCCCCC(=O)[O-]
REMARK SMILES IDX 15 1 16 2 17 3 18 4 19 5 20 6 21 7 22 8 23 9 24 10 25 11
REMARK SMILES IDX 26 12 27 13 28 14 29 15 30 16 14 17 13 18 12 19 11 20 10 21
REMARK SMILES IDX 9 22 8 23 7 24 6 25 5 26 4 27 3 28 2 29 1 30
REMARK H PARENT
REMARK Flexibility Score: inf
ROOT
ATOM      1  C   UNL     1     -17.677  -3.510 -34.284  1.00  0.00     0.000 C 
ENDROOT
BRANCH   1   2
ATOM      2  C   UNL     1     -18.242  -2.736 -35.489  1.00  0.00     0.000 C 
BRANCH   2   3
ATOM      3  C   UNL     1     -19.677  -3.164 -35.874  1.00  0.00     0.000 C 
BRANCH   3   4
ATOM      4  C   UNL     1     -20.169  -2.571 -37.204  1.00  0.00     0.000 C 
BRANCH   4   5
ATOM      5  C   UNL     1     -21.324  -1.571 -37.021  1.00  0.00     0.000 C 
BRANCH   5   6
ATOM      6  C   UNL     1     -21.669  -0.825 -38.327  1.00  0.00     0.000 C 
BRANCH   6   7
ATOM      7  C   UNL     1     -22.939   0.043 -38.232  1.00  0.00     0.000 C 
BRANCH   7   8
ATOM      8  C   UNL     1     -22.728   1.443 -37.631  1.00  0.00     0.000 C 
BRANCH   8   9
ATOM      9  C   UNL     1     -22.421   1.408 -36.125  1.00  0.00     0.000 C 
BRANCH   9  10
ATOM     10  C   UNL     1     -22.999   2.616 -35.368  1.00  0.00     0.000 C 
BRANCH  10  11
ATOM     11  C   UNL     1     -23.768   3.602 -36.272  1.00  0.00     0.000 C 
BRANCH  11  12
ATOM     12  C   UNL     1     -25.090   4.061 -35.632  1.00  0.00     0.006 C 
BRANCH  12  13
ATOM     13  C   UNL     1     -25.533   3.139 -34.489  1.00  0.00     0.053 C 
BRANCH  13  14
ATOM     14  C   UNL     1     -25.470   3.833 -33.163  1.00  0.00     0.041 C 
ATOM     15  O   UNL     1     -26.355   4.669 -32.842  1.00  0.00    -0.550 OA
ATOM     16  O   UNL     1     -24.450   3.535 -32.267  1.00  0.00    -0.550 OA
ENDBRANCH  13  14
ENDBRANCH  12  13
ENDBRANCH  11  12
ENDBRANCH  10  11
ENDBRANCH   9  10
ENDBRANCH   8   9
ENDBRANCH   7   8
ENDBRANCH   6   7
ENDBRANCH   5   6
ENDBRANCH   4   5
ENDBRANCH   3   4
ENDBRANCH   2   3
ENDBRANCH   1   2
BRANCH   1  17
ATOM     17  C   UNL     1     -16.242  -3.078 -33.904  1.00  0.00     0.000 C 
BRANCH  17  18
ATOM     18  C   UNL     1     -15.251  -4.247 -34.035  1.00  0.00     0.000 C 
BRANCH  18  19
ATOM     19  C   UNL     1     -13.850  -3.912 -33.504  1.00  0.00     0.000 C 
BRANCH  19  20
ATOM     20  C   UNL     1     -12.736  -4.238 -34.517  1.00  0.00     0.000 C 
BRANCH  20  21
ATOM     21  C   UNL     1     -11.848  -3.020 -34.816  1.00  0.00     0.000 C 
BRANCH  21  22
ATOM     22  C   UNL     1     -11.117  -3.157 -36.164  1.00  0.00    -0.000 C 
BRANCH  22  23
ATOM     23  C   UNL     1     -10.300  -1.906 -36.522  1.00  0.00    -0.000 C 
BRANCH  23  24
ATOM     24  C   UNL     1     -10.747  -0.645 -35.749  1.00  0.00    -0.000 C 
BRANCH  24  25
ATOM     25  C   UNL     1     -10.125   0.638 -36.329  1.00  0.00    -0.000 C 
BRANCH  25  26
ATOM     26  C   UNL     1     -10.147   0.653 -37.873  1.00  0.00    -0.000 C 
BRANCH  26  27
ATOM     27  C   UNL     1     -10.222   2.064 -38.481  1.00  0.00    -0.000 C 
BRANCH  27  28
ATOM     28  C   UNL     1     -11.087   3.027 -37.653  1.00  0.00    -0.000 C 
BRANCH  28  29
ATOM     29  C   UNL     1     -10.312   4.275 -37.199  1.00  0.00    -0.003 C 
ATOM     30  C   UNL     1     -10.386   4.499 -35.688  1.00  0.00     0.004 C 
ENDBRANCH  28  29
ENDBRANCH  27  28
ENDBRANCH  26  27
ENDBRANCH  25  26
ENDBRANCH  24  25
ENDBRANCH  23  24
ENDBRANCH  22  23
ENDBRANCH  21  22
ENDBRANCH  20  21
ENDBRANCH  19  20
ENDBRANCH  18  19
ENDBRANCH  17  18
ENDBRANCH   1  17
TORSDOF 26
ENDMDL
