MODEL 1
REMARK VINA RESULT:    -5.130      0.000      0.000
REMARK INTER + INTRA:          -5.430
REMARK INTER:                  -5.430
REMARK INTRA:                   0.000
REMARK UNBOUND:                 0.000
REMARK SMILES O=c1ccc2cc(O)c(O)cc2o1
REMARK SMILES IDX 4 1 3 2 2 3 1 4 13 5 12 6 11 7 9 8 7 9 6 10 5 11 8 12 10 14
REMARK H PARENT 8 13 10 15
REMARK Flexibility Score: inf
ROOT
ATOM      1  C   UNL     1      21.055   7.871  17.869  1.00  0.00     0.019 A 
ATOM      2  C   UNL     1      19.743   8.293  17.658  1.00  0.00     0.094 A 
ATOM      3  C   UNL     1      19.101   9.037  18.655  1.00  0.00     0.336 A 
ATOM      4  O   UNL     1      17.916   9.427  18.483  1.00  0.00    -0.246 OA
ATOM      5  O   UNL     1      19.735   9.335  19.786  1.00  0.00    -0.423 OA
ATOM      6  C   UNL     1      20.987   8.951  20.028  1.00  0.00     0.142 A 
ATOM      7  C   UNL     1      21.602   9.293  21.236  1.00  0.00     0.098 A 
ATOM      8  C   UNL     1      22.921   8.892  21.495  1.00  0.00     0.161 A 
ATOM      9  C   UNL     1      23.627   8.144  20.541  1.00  0.00     0.158 A 
ATOM     10  C   UNL     1      23.015   7.798  19.328  1.00  0.00     0.062 A 
ATOM     11  C   UNL     1      21.697   8.198  19.067  1.00  0.00     0.022 A 
ENDROOT
BRANCH   9  12
ATOM     12  O   UNL     1      24.937   7.750  20.806  1.00  0.00    -0.504 OA
ATOM     13  H   UNL     1      25.676   7.874  20.125  1.00  0.00     0.293 HD
ENDBRANCH   9  12
BRANCH   8  14
ATOM     14  O   UNL     1      23.537   9.232  22.698  1.00  0.00    -0.504 OA
ATOM     15  H   UNL     1      24.451   8.873  22.946  1.00  0.00     0.293 HD
ENDBRANCH   8  14
TORSDOF 2
ENDMDL
MODEL 2
REMARK VINA RESULT:    -4.824     15.533     16.149
REMARK INTER + INTRA:          -5.106
REMARK INTER:                  -5.106
REMARK INTRA:                   0.000
REMARK UNBOUND:                 0.000
REMARK SMILES O=c1ccc2cc(O)c(O)cc2o1
REMARK SMILES IDX 4 1 3 2 2 3 1 4 13 5 12 6 11 7 9 8 7 9 6 10 5 11 8 12 10 14
REMARK H PARENT 8 13 10 15
REMARK Flexibility Score: inf
ROOT
ATOM      1  C   UNL     1      18.899  -7.500  17.539  1.00  0.00     0.019 A 
ATOM      2  C   UNL     1      18.131  -6.387  17.881  1.00  0.00     0.094 A 
ATOM      3  C   UNL     1      18.593  -5.524  18.880  1.00  0.00     0.336 A 
ATOM      4  O   UNL     1      17.915  -4.514  19.203  1.00  0.00    -0.246 OA
ATOM      5  O   UNL     1      19.749  -5.765  19.496  1.00  0.00    -0.423 OA
ATOM      6  C   UNL     1      20.512  -6.815  19.201  1.00  0.00     0.142 A 
ATOM      7  C   UNL     1      21.716  -7.017  19.881  1.00  0.00     0.098 A 
ATOM      8  C   UNL     1      22.524  -8.122  19.574  1.00  0.00     0.161 A 
ATOM      9  C   UNL     1      22.124  -9.030  18.583  1.00  0.00     0.158 A 
ATOM     10  C   UNL     1      20.916  -8.832  17.897  1.00  0.00     0.062 A 
ATOM     11  C   UNL     1      20.108  -7.728  18.202  1.00  0.00     0.022 A 
ENDROOT
BRANCH   9  12
ATOM     12  O   UNL     1      22.932 -10.125  18.284  1.00  0.00    -0.504 OA
ATOM     13  H   UNL     1      22.666 -11.067  18.545  1.00  0.00     0.293 HD
ENDBRANCH   9  12
BRANCH   8  14
ATOM     14  O   UNL     1      23.725  -8.325  20.251  1.00  0.00    -0.504 OA
ATOM     15  H   UNL     1      24.601  -7.956  19.900  1.00  0.00     0.293 HD
ENDBRANCH   8  14
TORSDOF 2
ENDMDL
MODEL 3
REMARK VINA RESULT:    -4.748      5.131      7.495
REMARK INTER + INTRA:          -5.025
REMARK INTER:                  -5.025
REMARK INTRA:                   0.000
REMARK UNBOUND:                 0.000
REMARK SMILES O=c1ccc2cc(O)c(O)cc2o1
REMARK SMILES IDX 4 1 3 2 2 3 1 4 13 5 12 6 11 7 9 8 7 9 6 10 5 11 8 12 10 14
REMARK H PARENT 8 13 10 15
REMARK Flexibility Score: inf
ROOT
ATOM      1  C   UNL     1      26.795   3.260  18.253  1.00  0.00     0.019 A 
ATOM      2  C   UNL     1      27.512   2.724  19.322  1.00  0.00     0.094 A 
ATOM      3  C   UNL     1      26.889   2.612  20.570  1.00  0.00     0.336 A 
ATOM      4  O   UNL     1      27.521   2.131  21.546  1.00  0.00    -0.246 OA
ATOM      5  O   UNL     1      25.630   3.013  20.732  1.00  0.00    -0.423 OA
ATOM      6  C   UNL     1      24.910   3.530  19.739  1.00  0.00     0.142 A 
ATOM      7  C   UNL     1      23.592   3.935  19.969  1.00  0.00     0.098 A 
ATOM      8  C   UNL     1      22.828   4.480  18.926  1.00  0.00     0.161 A 
ATOM      9  C   UNL     1      23.388   4.623  17.648  1.00  0.00     0.158 A 
ATOM     10  C   UNL     1      24.710   4.219  17.411  1.00  0.00     0.062 A 
ATOM     11  C   UNL     1      25.474   3.673  18.452  1.00  0.00     0.022 A 
ENDROOT
BRANCH   9  12
ATOM     12  O   UNL     1      22.622   5.165  16.617  1.00  0.00    -0.504 OA
ATOM     13  H   UNL     1      22.924   5.118  15.651  1.00  0.00     0.293 HD
ENDBRANCH   9  12
BRANCH   8  14
ATOM     14  O   UNL     1      21.514   4.883  19.153  1.00  0.00    -0.504 OA
ATOM     15  H   UNL     1      21.266   5.862  19.236  1.00  0.00     0.293 HD
ENDBRANCH   8  14
TORSDOF 2
ENDMDL
MODEL 4
REMARK VINA RESULT:    -4.642     13.603     14.072
REMARK INTER + INTRA:          -4.913
REMARK INTER:                  -4.913
REMARK INTRA:                   0.000
REMARK UNBOUND:                 0.000
REMARK SMILES O=c1ccc2cc(O)c(O)cc2o1
REMARK SMILES IDX 4 1 3 2 2 3 1 4 13 5 12 6 11 7 9 8 7 9 6 10 5 11 8 12 10 14
REMARK H PARENT 8 13 10 15
REMARK Flexibility Score: inf
ROOT
ATOM      1  C   UNL     1      13.149  -3.257  18.274  1.00  0.00     0.019 A 
ATOM      2  C   UNL     1      12.408  -2.792  19.361  1.00  0.00     0.094 A 
ATOM      3  C   UNL     1      13.035  -2.669  20.606  1.00  0.00     0.336 A 
ATOM      4  O   UNL     1      12.383  -2.251  21.599  1.00  0.00    -0.246 OA
ATOM      5  O   UNL     1      14.318  -2.993  20.749  1.00  0.00    -0.423 OA
ATOM      6  C   UNL     1      15.060  -3.440  19.739  1.00  0.00     0.142 A 
ATOM      7  C   UNL     1      16.404  -3.765  19.949  1.00  0.00     0.098 A 
ATOM      8  C   UNL     1      17.191  -4.237  18.888  1.00  0.00     0.161 A 
ATOM      9  C   UNL     1      16.630  -4.386  17.611  1.00  0.00     0.158 A 
ATOM     10  C   UNL     1      15.282  -4.062  17.394  1.00  0.00     0.062 A 
ATOM     11  C   UNL     1      14.495  -3.590  18.453  1.00  0.00     0.022 A 
ENDROOT
BRANCH   9  12
ATOM     12  O   UNL     1      17.418  -4.855  16.562  1.00  0.00    -0.504 OA
ATOM     13  H   UNL     1      17.857  -4.222  15.904  1.00  0.00     0.293 HD
ENDBRANCH   9  12
BRANCH   8  14
ATOM     14  O   UNL     1      18.530  -4.561  19.094  1.00  0.00    -0.504 OA
ATOM     15  H   UNL     1      19.062  -5.083  18.408  1.00  0.00     0.293 HD
ENDBRANCH   8  14
TORSDOF 2
ENDMDL
MODEL 5
REMARK VINA RESULT:    -4.596      6.737      9.472
REMARK INTER + INTRA:          -4.865
REMARK INTER:                  -4.865
REMARK INTRA:                   0.000
REMARK UNBOUND:                 0.000
REMARK SMILES O=c1ccc2cc(O)c(O)cc2o1
REMARK SMILES IDX 4 1 3 2 2 3 1 4 13 5 12 6 11 7 9 8 7 9 6 10 5 11 8 12 10 14
REMARK H PARENT 8 13 10 15
REMARK Flexibility Score: inf
ROOT
ATOM      1  C   UNL     1      14.657   6.568  19.718  1.00  0.00     0.019 A 
ATOM      2  C   UNL     1      16.030   6.720  19.907  1.00  0.00     0.094 A 
ATOM      3  C   UNL     1      16.888   5.686  19.517  1.00  0.00     0.336 A 
ATOM      4  O   UNL     1      18.130   5.804  19.680  1.00  0.00    -0.246 OA
ATOM      5  O   UNL     1      16.397   4.573  18.975  1.00  0.00    -0.423 OA
ATOM      6  C   UNL     1      15.094   4.387  18.777  1.00  0.00     0.142 A 
ATOM      7  C   UNL     1      14.637   3.197  18.203  1.00  0.00     0.098 A 
ATOM      8  C   UNL     1      13.265   2.996  17.992  1.00  0.00     0.161 A 
ATOM      9  C   UNL     1      12.346   3.991  18.358  1.00  0.00     0.158 A 
ATOM     10  C   UNL     1      12.799   5.187  18.934  1.00  0.00     0.062 A 
ATOM     11  C   UNL     1      14.169   5.389  19.146  1.00  0.00     0.022 A 
ENDROOT
BRANCH   9  12
ATOM     12  O   UNL     1      10.984   3.783  18.145  1.00  0.00    -0.504 OA
ATOM     13  H   UNL     1      10.307   4.524  18.284  1.00  0.00     0.293 HD
ENDBRANCH   9  12
BRANCH   8  14
ATOM     14  O   UNL     1      12.807   1.811  17.420  1.00  0.00    -0.504 OA
ATOM     15  H   UNL     1      11.994   1.327  17.782  1.00  0.00     0.293 HD
ENDBRANCH   8  14
TORSDOF 2
ENDMDL
MODEL 6
REMARK VINA RESULT:    -4.560      2.083      2.693
REMARK INTER + INTRA:          -4.827
REMARK INTER:                  -4.827
REMARK INTRA:                   0.000
REMARK UNBOUND:                 0.000
REMARK SMILES O=c1ccc2cc(O)c(O)cc2o1
REMARK SMILES IDX 4 1 3 2 2 3 1 4 13 5 12 6 11 7 9 8 7 9 6 10 5 11 8 12 10 14
REMARK H PARENT 8 13 10 15
REMARK Flexibility Score: inf
ROOT
ATOM      1  C   UNL     1      20.106   8.190  17.500  1.00  0.00     0.019 A 
ATOM      2  C   UNL     1      19.331   9.134  18.171  1.00  0.00     0.094 A 
ATOM      3  C   UNL     1      19.459   9.255  19.560  1.00  0.00     0.336 A 
ATOM      4  O   UNL     1      18.767  10.102  20.183  1.00  0.00    -0.246 OA
ATOM      5  O   UNL     1      20.308   8.477  20.227  1.00  0.00    -0.423 OA
ATOM      6  C   UNL     1      21.065   7.562  19.626  1.00  0.00     0.142 A 
ATOM      7  C   UNL     1      21.939   6.773  20.380  1.00  0.00     0.098 A 
ATOM      8  C   UNL     1      22.740   5.809  19.751  1.00  0.00     0.161 A 
ATOM      9  C   UNL     1      22.665   5.632  18.361  1.00  0.00     0.158 A 
ATOM     10  C   UNL     1      21.790   6.421  17.600  1.00  0.00     0.062 A 
ATOM     11  C   UNL     1      20.990   7.386  18.227  1.00  0.00     0.022 A 
ENDROOT
BRANCH   9  12
ATOM     12  O   UNL     1      23.464   4.672  17.744  1.00  0.00    -0.504 OA
ATOM     13  H   UNL     1      23.102   3.758  17.500  1.00  0.00     0.293 HD
ENDBRANCH   9  12
BRANCH   8  14
ATOM     14  O   UNL     1      23.612   5.021  20.500  1.00  0.00    -0.504 OA
ATOM     15  H   UNL     1      23.558   4.010  20.487  1.00  0.00     0.293 HD
ENDBRANCH   8  14
TORSDOF 2
ENDMDL
MODEL 7
REMARK VINA RESULT:    -4.516     15.098     16.212
REMARK INTER + INTRA:          -4.780
REMARK INTER:                  -4.780
REMARK INTRA:                   0.000
REMARK UNBOUND:                 0.000
REMARK SMILES O=c1ccc2cc(O)c(O)cc2o1
REMARK SMILES IDX 4 1 3 2 2 3 1 4 13 5 12 6 11 7 9 8 7 9 6 10 5 11 8 12 10 14
REMARK H PARENT 8 13 10 15
REMARK Flexibility Score: inf
ROOT
ATOM      1  C   UNL     1      22.761  -8.166  18.702  1.00  0.00     0.019 A 
ATOM      2  C   UNL     1      23.764  -7.588  19.479  1.00  0.00     0.094 A 
ATOM      3  C   UNL     1      23.466  -6.450  20.237  1.00  0.00     0.336 A 
ATOM      4  O   UNL     1      24.358  -5.915  20.945  1.00  0.00    -0.246 OA
ATOM      5  O   UNL     1      22.242  -5.928  20.213  1.00  0.00    -0.423 OA
ATOM      6  C   UNL     1      21.255  -6.447  19.485  1.00  0.00     0.142 A 
ATOM      7  C   UNL     1      19.989  -5.855  19.500  1.00  0.00     0.098 A 
ATOM      8  C   UNL     1      18.946  -6.399  18.735  1.00  0.00     0.161 A 
ATOM      9  C   UNL     1      19.173  -7.539  17.951  1.00  0.00     0.158 A 
ATOM     10  C   UNL     1      20.441  -8.138  17.932  1.00  0.00     0.062 A 
ATOM     11  C   UNL     1      21.484  -7.596  18.696  1.00  0.00     0.022 A 
ENDROOT
BRANCH   9  12
ATOM     12  O   UNL     1      18.132  -8.073  17.194  1.00  0.00    -0.504 OA
ATOM     13  H   UNL     1      17.426  -8.669  17.609  1.00  0.00     0.293 HD
ENDBRANCH   9  12
BRANCH   8  14
ATOM     14  O   UNL     1      17.683  -5.810  18.748  1.00  0.00    -0.504 OA
ATOM     15  H   UNL     1      16.871  -6.305  19.098  1.00  0.00     0.293 HD
ENDBRANCH   8  14
TORSDOF 2
ENDMDL
MODEL 8
REMARK VINA RESULT:    -4.503      8.589     10.223
REMARK INTER + INTRA:          -4.766
REMARK INTER:                  -4.766
REMARK INTRA:                   0.000
REMARK UNBOUND:                 0.000
REMARK SMILES O=c1ccc2cc(O)c(O)cc2o1
REMARK SMILES IDX 4 1 3 2 2 3 1 4 13 5 12 6 11 7 9 8 7 9 6 10 5 11 8 12 10 14
REMARK H PARENT 8 13 10 15
REMARK Flexibility Score: inf
ROOT
ATOM      1  C   UNL     1      15.342   4.036  18.266  1.00  0.00     0.019 A 
ATOM      2  C   UNL     1      15.447   2.904  17.458  1.00  0.00     0.094 A 
ATOM      3  C   UNL     1      14.280   2.237  17.068  1.00  0.00     0.336 A 
ATOM      4  O   UNL     1      14.354   1.214  16.340  1.00  0.00    -0.246 OA
ATOM      5  O   UNL     1      13.088   2.679  17.465  1.00  0.00    -0.423 OA
ATOM      6  C   UNL     1      12.943   3.754  18.236  1.00  0.00     0.142 A 
ATOM      7  C   UNL     1      11.666   4.171  18.621  1.00  0.00     0.098 A 
ATOM      8  C   UNL     1      11.507   5.304  19.433  1.00  0.00     0.161 A 
ATOM      9  C   UNL     1      12.633   6.022  19.862  1.00  0.00     0.158 A 
ATOM     10  C   UNL     1      13.917   5.609  19.479  1.00  0.00     0.062 A 
ATOM     11  C   UNL     1      14.077   4.477  18.667  1.00  0.00     0.022 A 
ENDROOT
BRANCH   9  12
ATOM     12  O   UNL     1      12.467   7.147  20.669  1.00  0.00    -0.504 OA
ATOM     13  H   UNL     1      12.914   7.219  21.575  1.00  0.00     0.293 HD
ENDBRANCH   9  12
BRANCH   8  14
ATOM     14  O   UNL     1      10.235   5.722  19.818  1.00  0.00    -0.504 OA
ATOM     15  H   UNL     1       9.399   5.267  19.471  1.00  0.00     0.293 HD
ENDBRANCH   8  14
TORSDOF 2
ENDMDL
MODEL 9
REMARK VINA RESULT:    -4.436      3.108      5.493
REMARK INTER + INTRA:          -4.696
REMARK INTER:                  -4.696
REMARK INTRA:                   0.000
REMARK UNBOUND:                 0.000
REMARK SMILES O=c1ccc2cc(O)c(O)cc2o1
REMARK SMILES IDX 4 1 3 2 2 3 1 4 13 5 12 6 11 7 9 8 7 9 6 10 5 11 8 12 10 14
REMARK H PARENT 8 13 10 15
REMARK Flexibility Score: inf
ROOT
ATOM      1  C   UNL     1      23.795   4.128  17.545  1.00  0.00     0.019 A 
ATOM      2  C   UNL     1      24.783   3.417  18.224  1.00  0.00     0.094 A 
ATOM      3  C   UNL     1      25.183   3.853  19.493  1.00  0.00     0.336 A 
ATOM      4  O   UNL     1      26.074   3.224  20.122  1.00  0.00    -0.246 OA
ATOM      5  O   UNL     1      24.626   4.931  20.040  1.00  0.00    -0.423 OA
ATOM      6  C   UNL     1      23.680   5.638  19.426  1.00  0.00     0.142 A 
ATOM      7  C   UNL     1      23.132   6.763  20.050  1.00  0.00     0.098 A 
ATOM      8  C   UNL     1      22.135   7.511  19.407  1.00  0.00     0.161 A 
ATOM      9  C   UNL     1      21.685   7.133  18.134  1.00  0.00     0.158 A 
ATOM     10  C   UNL     1      22.231   6.006  17.503  1.00  0.00     0.062 A 
ATOM     11  C   UNL     1      23.227   5.257  18.144  1.00  0.00     0.022 A 
ENDROOT
BRANCH   9  12
ATOM     12  O   UNL     1      20.694   7.882  17.502  1.00  0.00    -0.504 OA
ATOM     13  H   UNL     1      20.603   8.879  17.657  1.00  0.00     0.293 HD
ENDBRANCH   9  12
BRANCH   8  14
ATOM     14  O   UNL     1      21.587   8.632  20.028  1.00  0.00    -0.504 OA
ATOM     15  H   UNL     1      22.136   9.220  20.643  1.00  0.00     0.293 HD
ENDBRANCH   8  14
TORSDOF 2
ENDMDL
