MODEL 1
REMARK VINA RESULT:    -4.345      0.000      0.000
REMARK INTER + INTRA:         -16.115
REMARK INTER:                 -11.456
REMARK INTRA:                  -4.659
REMARK UNBOUND:                -4.659
REMARK SMILES CCCCCCCCCCCCCCCCCCCCCCCCCCCCCC(=O)[O-]
REMARK SMILES IDX 16 1 17 2 18 3 19 4 20 5 21 6 22 7 23 8 24 9 25 10 26 11
REMARK SMILES IDX 27 12 28 13 29 14 30 15 31 16 32 17 15 18 14 19 13 20 12 21
REMARK SMILES IDX 11 22 10 23 9 24 8 25 7 26 6 27 5 28 4 29 3 30 2 31 1 32
REMARK H PARENT
REMARK Flexibility Score: inf
ROOT
ATOM      1  C   UNL     1      13.210  -0.282  42.450  1.00  0.00     0.000 C 
ENDROOT
BRANCH   1   2
ATOM      2  C   UNL     1      12.773  -0.622  43.884  1.00  0.00     0.000 C 
BRANCH   2   3
ATOM      3  C   UNL     1      12.871   0.578  44.840  1.00  0.00     0.000 C 
BRANCH   3   4
ATOM      4  C   UNL     1      11.496   1.116  45.263  1.00  0.00     0.000 C 
BRANCH   4   5
ATOM      5  C   UNL     1      10.918   0.299  46.426  1.00  0.00     0.000 C 
BRANCH   5   6
ATOM      6  C   UNL     1       9.467  -0.118  46.139  1.00  0.00     0.000 C 
BRANCH   6   7
ATOM      7  C   UNL     1       9.122  -0.109  44.637  1.00  0.00     0.000 C 
BRANCH   7   8
ATOM      8  C   UNL     1       9.223  -1.481  43.944  1.00  0.00     0.000 C 
BRANCH   8   9
ATOM      9  C   UNL     1       8.553  -1.500  42.559  1.00  0.00     0.000 C 
BRANCH   9  10
ATOM     10  C   UNL     1       8.524  -0.115  41.886  1.00  0.00     0.000 C 
BRANCH  10  11
ATOM     11  C   UNL     1       8.083  -0.120  40.408  1.00  0.00     0.000 C 
BRANCH  11  12
ATOM     12  C   UNL     1       8.431  -1.430  39.678  1.00  0.00     0.000 C 
BRANCH  12  13
ATOM     13  C   UNL     1       7.288  -1.933  38.776  1.00  0.00     0.006 C 
BRANCH  13  14
ATOM     14  C   UNL     1       7.765  -2.808  37.603  1.00  0.00     0.053 C 
BRANCH  14  15
ATOM     15  C   UNL     1       7.069  -2.480  36.318  1.00  0.00     0.041 C 
ATOM     16  O   UNL     1       6.448  -3.376  35.686  1.00  0.00    -0.550 OA
ATOM     17  O   UNL     1       7.096  -1.181  35.824  1.00  0.00    -0.550 OA
ENDBRANCH  14  15
ENDBRANCH  13  14
ENDBRANCH  12  13
ENDBRANCH  11  12
ENDBRANCH  10  11
ENDBRANCH   9  10
ENDBRANCH   8   9
ENDBRANCH   7   8
ENDBRANCH   6   7
ENDBRANCH   5   6
ENDBRANCH   4   5
ENDBRANCH   3   4
ENDBRANCH   2   3
ENDBRANCH   1   2
BRANCH   1  18
ATOM     18  C   UNL     1      11.992  -0.082  41.539  1.00  0.00     0.000 C 
BRANCH  18  19
ATOM     19  C   UNL     1      11.984  -1.101  40.393  1.00  0.00     0.000 C 
BRANCH  19  20
ATOM     20  C   UNL     1      12.543  -2.451  40.855  1.00  0.00     0.000 C 
BRANCH  20  21
ATOM     21  C   UNL     1      11.526  -3.201  41.724  1.00  0.00     0.000 C 
BRANCH  21  22
ATOM     22  C   UNL     1      11.219  -4.586  41.141  1.00  0.00     0.000 C 
BRANCH  22  23
ATOM     23  C   UNL     1      10.113  -4.506  40.083  1.00  0.00     0.000 C 
BRANCH  23  24
ATOM     24  C   UNL     1       8.906  -5.370  40.479  1.00  0.00    -0.000 C 
BRANCH  24  25
ATOM     25  C   UNL     1       7.847  -4.571  41.270  1.00  0.00    -0.000 C 
BRANCH  25  26
ATOM     26  C   UNL     1       7.572  -5.126  42.681  1.00  0.00    -0.000 C 
BRANCH  26  27
ATOM     27  C   UNL     1       8.585  -6.176  43.170  1.00  0.00    -0.000 C 
BRANCH  27  28
ATOM     28  C   UNL     1       7.925  -7.307  43.979  1.00  0.00    -0.000 C 
BRANCH  28  29
ATOM     29  C   UNL     1       8.418  -8.697  43.549  1.00  0.00    -0.000 C 
BRANCH  29  30
ATOM     30  C   UNL     1       8.503  -8.846  42.019  1.00  0.00    -0.000 C 
BRANCH  30  31
ATOM     31  C   UNL     1       7.119  -8.898  41.356  1.00  0.00    -0.003 C 
ATOM     32  C   UNL     1       6.752 -10.298  40.863  1.00  0.00     0.004 C 
ENDBRANCH  30  31
ENDBRANCH  29  30
ENDBRANCH  28  29
ENDBRANCH  27  28
ENDBRANCH  26  27
ENDBRANCH  25  26
ENDBRANCH  24  25
ENDBRANCH  23  24
ENDBRANCH  22  23
ENDBRANCH  21  22
ENDBRANCH  20  21
ENDBRANCH  19  20
ENDBRANCH  18  19
ENDBRANCH   1  18
TORSDOF 28
ENDMDL
MODEL 2
REMARK VINA RESULT:    -4.317      3.232      6.493
REMARK INTER + INTRA:         -16.042
REMARK INTER:                 -11.620
REMARK INTRA:                  -4.422
REMARK UNBOUND:                -4.659
REMARK SMILES CCCCCCCCCCCCCCCCCCCCCCCCCCCCCC(=O)[O-]
REMARK SMILES IDX 16 1 17 2 18 3 19 4 20 5 21 6 22 7 23 8 24 9 25 10 26 11
REMARK SMILES IDX 27 12 28 13 29 14 30 15 31 16 32 17 15 18 14 19 13 20 12 21
REMARK SMILES IDX 11 22 10 23 9 24 8 25 7 26 6 27 5 28 4 29 3 30 2 31 1 32
REMARK H PARENT
REMARK Flexibility Score: inf
ROOT
ATOM      1  C   UNL     1       8.764   0.358  43.223  1.00  0.00     0.000 C 
ENDROOT
BRANCH   1   2
ATOM      2  C   UNL     1       8.678   0.073  41.715  1.00  0.00     0.000 C 
BRANCH   2   3
ATOM      3  C   UNL     1       8.517  -1.422  41.397  1.00  0.00     0.000 C 
BRANCH   3   4
ATOM      4  C   UNL     1       8.534  -1.715  39.889  1.00  0.00     0.000 C 
BRANCH   4   5
ATOM      5  C   UNL     1       7.445  -2.728  39.511  1.00  0.00     0.000 C 
BRANCH   5   6
ATOM      6  C   UNL     1       6.680  -2.273  38.259  1.00  0.00     0.000 C 
BRANCH   6   7
ATOM      7  C   UNL     1       6.692  -3.321  37.129  1.00  0.00     0.000 C 
BRANCH   7   8
ATOM      8  C   UNL     1       7.643  -2.998  35.962  1.00  0.00     0.000 C 
BRANCH   8   9
ATOM      9  C   UNL     1       8.207  -4.261  35.286  1.00  0.00     0.000 C 
BRANCH   9  10
ATOM     10  C   UNL     1       9.745  -4.336  35.341  1.00  0.00     0.000 C 
BRANCH  10  11
ATOM     11  C   UNL     1      10.468  -3.727  34.123  1.00  0.00     0.000 C 
BRANCH  11  12
ATOM     12  C   UNL     1      10.555  -4.692  32.926  1.00  0.00     0.000 C 
BRANCH  12  13
ATOM     13  C   UNL     1      11.978  -5.236  32.698  1.00  0.00     0.006 C 
BRANCH  13  14
ATOM     14  C   UNL     1      12.023  -6.748  32.408  1.00  0.00     0.053 C 
BRANCH  14  15
ATOM     15  C   UNL     1      11.324  -7.558  33.455  1.00  0.00     0.041 C 
ATOM     16  O   UNL     1      11.561  -7.355  34.676  1.00  0.00    -0.550 OA
ATOM     17  O   UNL     1      10.401  -8.529  33.084  1.00  0.00    -0.550 OA
ENDBRANCH  14  15
ENDBRANCH  13  14
ENDBRANCH  12  13
ENDBRANCH  11  12
ENDBRANCH  10  11
ENDBRANCH   9  10
ENDBRANCH   8   9
ENDBRANCH   7   8
ENDBRANCH   6   7
ENDBRANCH   5   6
ENDBRANCH   4   5
ENDBRANCH   3   4
ENDBRANCH   2   3
ENDBRANCH   1   2
BRANCH   1  18
ATOM     18  C   UNL     1       8.917  -0.944  44.020  1.00  0.00     0.000 C 
BRANCH  18  19
ATOM     19  C   UNL     1       9.465  -0.672  45.426  1.00  0.00     0.000 C 
BRANCH  19  20
ATOM     20  C   UNL     1      10.427   0.521  45.420  1.00  0.00     0.000 C 
BRANCH  20  21
ATOM     21  C   UNL     1      11.870   0.065  45.171  1.00  0.00     0.000 C 
BRANCH  21  22
ATOM     22  C   UNL     1      12.376   0.560  43.810  1.00  0.00     0.000 C 
BRANCH  22  23
ATOM     23  C   UNL     1      13.130  -0.549  43.068  1.00  0.00     0.000 C 
BRANCH  23  24
ATOM     24  C   UNL     1      12.218  -1.255  42.053  1.00  0.00    -0.000 C 
BRANCH  24  25
ATOM     25  C   UNL     1      11.867  -2.696  42.482  1.00  0.00    -0.000 C 
BRANCH  25  26
ATOM     26  C   UNL     1      12.197  -3.762  41.418  1.00  0.00    -0.000 C 
BRANCH  26  27
ATOM     27  C   UNL     1      11.663  -3.453  40.010  1.00  0.00    -0.000 C 
BRANCH  27  28
ATOM     28  C   UNL     1      10.774  -4.579  39.451  1.00  0.00    -0.000 C 
BRANCH  28  29
ATOM     29  C   UNL     1      10.462  -5.654  40.503  1.00  0.00    -0.000 C 
BRANCH  29  30
ATOM     30  C   UNL     1       9.006  -5.584  41.004  1.00  0.00    -0.000 C 
BRANCH  30  31
ATOM     31  C   UNL     1       8.907  -5.080  42.451  1.00  0.00    -0.003 C 
ATOM     32  C   UNL     1       7.467  -4.793  42.879  1.00  0.00     0.004 C 
ENDBRANCH  30  31
ENDBRANCH  29  30
ENDBRANCH  28  29
ENDBRANCH  27  28
ENDBRANCH  26  27
ENDBRANCH  25  26
ENDBRANCH  24  25
ENDBRANCH  23  24
ENDBRANCH  22  23
ENDBRANCH  21  22
ENDBRANCH  20  21
ENDBRANCH  19  20
ENDBRANCH  18  19
ENDBRANCH   1  18
TORSDOF 28
ENDMDL
MODEL 3
REMARK VINA RESULT:    -4.262      3.189      7.692
REMARK INTER + INTRA:         -15.897
REMARK INTER:                 -11.639
REMARK INTRA:                  -4.258
REMARK UNBOUND:                -4.659
REMARK SMILES CCCCCCCCCCCCCCCCCCCCCCCCCCCCCC(=O)[O-]
REMARK SMILES IDX 16 1 17 2 18 3 19 4 20 5 21 6 22 7 23 8 24 9 25 10 26 11
REMARK SMILES IDX 27 12 28 13 29 14 30 15 31 16 32 17 15 18 14 19 13 20 12 21
REMARK SMILES IDX 11 22 10 23 9 24 8 25 7 26 6 27 5 28 4 29 3 30 2 31 1 32
REMARK H PARENT
REMARK Flexibility Score: inf
ROOT
ATOM      1  C   UNL     1       8.934  -0.303  42.758  1.00  0.00     0.000 C 
ENDROOT
BRANCH   1   2
ATOM      2  C   UNL     1       9.249  -1.762  43.124  1.00  0.00     0.000 C 
BRANCH   2   3
ATOM      3  C   UNL     1       8.078  -2.717  42.842  1.00  0.00     0.000 C 
BRANCH   3   4
ATOM      4  C   UNL     1       8.508  -4.191  42.801  1.00  0.00     0.000 C 
BRANCH   4   5
ATOM      5  C   UNL     1       7.334  -5.097  42.406  1.00  0.00     0.000 C 
BRANCH   5   6
ATOM      6  C   UNL     1       7.729  -6.044  41.262  1.00  0.00     0.000 C 
BRANCH   6   7
ATOM      7  C   UNL     1       7.822  -7.518  41.702  1.00  0.00     0.000 C 
BRANCH   7   8
ATOM      8  C   UNL     1       9.190  -7.935  42.273  1.00  0.00     0.000 C 
BRANCH   8   9
ATOM      9  C   UNL     1       9.153  -8.182  43.791  1.00  0.00     0.000 C 
BRANCH   9  10
ATOM     10  C   UNL     1       7.773  -8.651  44.290  1.00  0.00     0.000 C 
BRANCH  10  11
ATOM     11  C   UNL     1       7.580 -10.180  44.325  1.00  0.00     0.000 C 
BRANCH  11  12
ATOM     12  C   UNL     1       6.321 -10.648  43.573  1.00  0.00     0.000 C 
BRANCH  12  13
ATOM     13  C   UNL     1       6.579 -10.906  42.077  1.00  0.00     0.006 C 
BRANCH  13  14
ATOM     14  C   UNL     1       5.324 -11.344  41.299  1.00  0.00     0.053 C 
BRANCH  14  15
ATOM     15  C   UNL     1       5.342 -12.799  40.948  1.00  0.00     0.041 C 
ATOM     16  O   UNL     1       5.028 -13.175  39.786  1.00  0.00    -0.550 OA
ATOM     17  O   UNL     1       5.716 -13.741  41.899  1.00  0.00    -0.550 OA
ENDBRANCH  14  15
ENDBRANCH  13  14
ENDBRANCH  12  13
ENDBRANCH  11  12
ENDBRANCH  10  11
ENDBRANCH   9  10
ENDBRANCH   8   9
ENDBRANCH   7   8
ENDBRANCH   6   7
ENDBRANCH   5   6
ENDBRANCH   4   5
ENDBRANCH   3   4
ENDBRANCH   2   3
ENDBRANCH   1   2
BRANCH   1  18
ATOM     18  C   UNL     1       8.733   0.548  44.018  1.00  0.00     0.000 C 
BRANCH  18  19
ATOM     19  C   UNL     1       9.293  -0.158  45.259  1.00  0.00     0.000 C 
BRANCH  19  20
ATOM     20  C   UNL     1      10.301   0.735  45.991  1.00  0.00     0.000 C 
BRANCH  20  21
ATOM     21  C   UNL     1      11.711   0.134  45.940  1.00  0.00     0.000 C 
BRANCH  21  22
ATOM     22  C   UNL     1      12.436   0.540  44.651  1.00  0.00     0.000 C 
BRANCH  22  23
ATOM     23  C   UNL     1      12.687  -0.677  43.755  1.00  0.00     0.000 C 
BRANCH  23  24
ATOM     24  C   UNL     1      13.047  -0.246  42.325  1.00  0.00    -0.000 C 
BRANCH  24  25
ATOM     25  C   UNL     1      12.410  -1.162  41.258  1.00  0.00    -0.000 C 
BRANCH  25  26
ATOM     26  C   UNL     1      12.340  -2.645  41.669  1.00  0.00    -0.000 C 
BRANCH  26  27
ATOM     27  C   UNL     1      11.460  -3.525  40.766  1.00  0.00    -0.000 C 
BRANCH  27  28
ATOM     28  C   UNL     1      10.820  -2.736  39.609  1.00  0.00    -0.000 C 
BRANCH  28  29
ATOM     29  C   UNL     1      10.217  -3.657  38.538  1.00  0.00    -0.000 C 
BRANCH  29  30
ATOM     30  C   UNL     1       8.704  -3.877  38.732  1.00  0.00    -0.000 C 
BRANCH  30  31
ATOM     31  C   UNL     1       7.979  -2.601  39.183  1.00  0.00    -0.003 C 
ATOM     32  C   UNL     1       6.666  -2.372  38.433  1.00  0.00     0.004 C 
ENDBRANCH  30  31
ENDBRANCH  29  30
ENDBRANCH  28  29
ENDBRANCH  27  28
ENDBRANCH  26  27
ENDBRANCH  25  26
ENDBRANCH  24  25
ENDBRANCH  23  24
ENDBRANCH  22  23
ENDBRANCH  21  22
ENDBRANCH  20  21
ENDBRANCH  19  20
ENDBRANCH  18  19
ENDBRANCH   1  18
TORSDOF 28
ENDMDL
MODEL 4
REMARK VINA RESULT:    -4.250      2.817      5.254
REMARK INTER + INTRA:         -15.866
REMARK INTER:                 -11.252
REMARK INTRA:                  -4.614
REMARK UNBOUND:                -4.659
REMARK SMILES CCCCCCCCCCCCCCCCCCCCCCCCCCCCCC(=O)[O-]
REMARK SMILES IDX 16 1 17 2 18 3 19 4 20 5 21 6 22 7 23 8 24 9 25 10 26 11
REMARK SMILES IDX 27 12 28 13 29 14 30 15 31 16 32 17 15 18 14 19 13 20 12 21
REMARK SMILES IDX 11 22 10 23 9 24 8 25 7 26 6 27 5 28 4 29 3 30 2 31 1 32
REMARK H PARENT
REMARK Flexibility Score: inf
ROOT
ATOM      1  C   UNL     1      12.224  -1.729  42.157  1.00  0.00     0.000 C 
ENDROOT
BRANCH   1   2
ATOM      2  C   UNL     1      12.680  -1.111  43.488  1.00  0.00     0.000 C 
BRANCH   2   3
ATOM      3  C   UNL     1      12.778   0.422  43.434  1.00  0.00     0.000 C 
BRANCH   3   4
ATOM      4  C   UNL     1      11.900   1.113  44.489  1.00  0.00     0.000 C 
BRANCH   4   5
ATOM      5  C   UNL     1      11.989   0.390  45.839  1.00  0.00     0.000 C 
BRANCH   5   6
ATOM      6  C   UNL     1      10.594  -0.026  46.334  1.00  0.00     0.000 C 
BRANCH   6   7
ATOM      7  C   UNL     1       9.466   0.366  45.360  1.00  0.00     0.000 C 
BRANCH   7   8
ATOM      8  C   UNL     1       8.983  -0.772  44.442  1.00  0.00     0.000 C 
BRANCH   8   9
ATOM      9  C   UNL     1       8.978  -0.377  42.954  1.00  0.00     0.000 C 
BRANCH   9  10
ATOM     10  C   UNL     1       8.604  -1.546  42.023  1.00  0.00     0.000 C 
BRANCH  10  11
ATOM     11  C   UNL     1       8.892  -2.948  42.595  1.00  0.00     0.000 C 
BRANCH  11  12
ATOM     12  C   UNL     1       7.714  -3.925  42.425  1.00  0.00     0.000 C 
BRANCH  12  13
ATOM     13  C   UNL     1       8.116  -5.393  42.658  1.00  0.00     0.006 C 
BRANCH  13  14
ATOM     14  C   UNL     1       7.537  -6.367  41.616  1.00  0.00     0.053 C 
BRANCH  14  15
ATOM     15  C   UNL     1       8.214  -7.702  41.634  1.00  0.00     0.041 C 
ATOM     16  O   UNL     1       7.547  -8.754  41.443  1.00  0.00    -0.550 OA
ATOM     17  O   UNL     1       9.585  -7.784  41.849  1.00  0.00    -0.550 OA
ENDBRANCH  14  15
ENDBRANCH  13  14
ENDBRANCH  12  13
ENDBRANCH  11  12
ENDBRANCH  10  11
ENDBRANCH   9  10
ENDBRANCH   8   9
ENDBRANCH   7   8
ENDBRANCH   6   7
ENDBRANCH   5   6
ENDBRANCH   4   5
ENDBRANCH   3   4
ENDBRANCH   2   3
ENDBRANCH   1   2
BRANCH   1  18
ATOM     18  C   UNL     1      12.301  -0.702  41.021  1.00  0.00     0.000 C 
BRANCH  18  19
ATOM     19  C   UNL     1      12.462  -1.392  39.660  1.00  0.00     0.000 C 
BRANCH  19  20
ATOM     20  C   UNL     1      12.517  -2.915  39.820  1.00  0.00     0.000 C 
BRANCH  20  21
ATOM     21  C   UNL     1      11.802  -3.618  38.660  1.00  0.00     0.000 C 
BRANCH  21  22
ATOM     22  C   UNL     1      10.417  -4.117  39.089  1.00  0.00     0.000 C 
BRANCH  22  23
ATOM     23  C   UNL     1       9.327  -3.107  38.711  1.00  0.00     0.000 C 
BRANCH  23  24
ATOM     24  C   UNL     1       7.926  -3.698  38.930  1.00  0.00    -0.000 C 
BRANCH  24  25
ATOM     25  C   UNL     1       6.807  -2.664  38.679  1.00  0.00    -0.000 C 
BRANCH  25  26
ATOM     26  C   UNL     1       6.683  -2.224  37.207  1.00  0.00    -0.000 C 
BRANCH  26  27
ATOM     27  C   UNL     1       6.847  -3.356  36.180  1.00  0.00    -0.000 C 
BRANCH  27  28
ATOM     28  C   UNL     1       7.943  -3.061  35.140  1.00  0.00    -0.000 C 
BRANCH  28  29
ATOM     29  C   UNL     1       8.783  -4.303  34.807  1.00  0.00    -0.000 C 
BRANCH  29  30
ATOM     30  C   UNL     1      10.297  -4.039  34.919  1.00  0.00    -0.000 C 
BRANCH  30  31
ATOM     31  C   UNL     1      11.122  -5.333  34.891  1.00  0.00    -0.003 C 
ATOM     32  C   UNL     1      12.605  -5.082  34.614  1.00  0.00     0.004 C 
ENDBRANCH  30  31
ENDBRANCH  29  30
ENDBRANCH  28  29
ENDBRANCH  27  28
ENDBRANCH  26  27
ENDBRANCH  25  26
ENDBRANCH  24  25
ENDBRANCH  23  24
ENDBRANCH  22  23
ENDBRANCH  21  22
ENDBRANCH  20  21
ENDBRANCH  19  20
ENDBRANCH  18  19
ENDBRANCH   1  18
TORSDOF 28
ENDMDL
MODEL 5
REMARK VINA RESULT:    -4.125      3.135      6.630
REMARK INTER + INTRA:         -15.535
REMARK INTER:                 -10.681
REMARK INTRA:                  -4.855
REMARK UNBOUND:                -4.659
REMARK SMILES CCCCCCCCCCCCCCCCCCCCCCCCCCCCCC(=O)[O-]
REMARK SMILES IDX 16 1 17 2 18 3 19 4 20 5 21 6 22 7 23 8 24 9 25 10 26 11
REMARK SMILES IDX 27 12 28 13 29 14 30 15 31 16 32 17 15 18 14 19 13 20 12 21
REMARK SMILES IDX 11 22 10 23 9 24 8 25 7 26 6 27 5 28 4 29 3 30 2 31 1 32
REMARK H PARENT
REMARK Flexibility Score: inf
ROOT
ATOM      1  C   UNL     1       8.252  -1.628  40.874  1.00  0.00     0.000 C 
ENDROOT
BRANCH   1   2
ATOM      2  C   UNL     1       8.405  -2.122  39.427  1.00  0.00     0.000 C 
BRANCH   2   3
ATOM      3  C   UNL     1       7.230  -3.001  38.967  1.00  0.00     0.000 C 
BRANCH   3   4
ATOM      4  C   UNL     1       6.265  -2.261  38.028  1.00  0.00     0.000 C 
BRANCH   4   5
ATOM      5  C   UNL     1       6.895  -2.046  36.646  1.00  0.00     0.000 C 
BRANCH   5   6
ATOM      6  C   UNL     1       7.075  -3.383  35.908  1.00  0.00     0.000 C 
BRANCH   6   7
ATOM      7  C   UNL     1       8.553  -3.777  35.724  1.00  0.00     0.000 C 
BRANCH   7   8
ATOM      8  C   UNL     1       8.785  -5.002  34.821  1.00  0.00     0.000 C 
BRANCH   8   9
ATOM      9  C   UNL     1       9.994  -4.833  33.884  1.00  0.00     0.000 C 
BRANCH   9  10
ATOM     10  C   UNL     1      11.263  -5.534  34.407  1.00  0.00     0.000 C 
BRANCH  10  11
ATOM     11  C   UNL     1      12.471  -4.603  34.636  1.00  0.00     0.000 C 
BRANCH  11  12
ATOM     12  C   UNL     1      12.316  -3.704  35.876  1.00  0.00     0.000 C 
BRANCH  12  13
ATOM     13  C   UNL     1      11.846  -4.479  37.122  1.00  0.00     0.006 C 
BRANCH  13  14
ATOM     14  C   UNL     1      12.998  -5.098  37.935  1.00  0.00     0.053 C 
BRANCH  14  15
ATOM     15  C   UNL     1      12.826  -6.570  38.150  1.00  0.00     0.041 C 
ATOM     16  O   UNL     1      13.225  -7.389  37.279  1.00  0.00    -0.550 OA
ATOM     17  O   UNL     1      12.235  -7.039  39.318  1.00  0.00    -0.550 OA
ENDBRANCH  14  15
ENDBRANCH  13  14
ENDBRANCH  12  13
ENDBRANCH  11  12
ENDBRANCH  10  11
ENDBRANCH   9  10
ENDBRANCH   8   9
ENDBRANCH   7   8
ENDBRANCH   6   7
ENDBRANCH   5   6
ENDBRANCH   4   5
ENDBRANCH   3   4
ENDBRANCH   2   3
ENDBRANCH   1   2
BRANCH   1  18
ATOM     18  C   UNL     1       8.434  -0.107  40.956  1.00  0.00     0.000 C 
BRANCH  18  19
ATOM     19  C   UNL     1       8.767   0.335  42.386  1.00  0.00     0.000 C 
BRANCH  19  20
ATOM     20  C   UNL     1       9.558  -0.749  43.126  1.00  0.00     0.000 C 
BRANCH  20  21
ATOM     21  C   UNL     1      10.944  -0.239  43.536  1.00  0.00     0.000 C 
BRANCH  21  22
ATOM     22  C   UNL     1      12.053  -1.065  42.872  1.00  0.00     0.000 C 
BRANCH  22  23
ATOM     23  C   UNL     1      12.244  -0.653  41.408  1.00  0.00     0.000 C 
BRANCH  23  24
ATOM     24  C   UNL     1      11.974  -1.833  40.462  1.00  0.00    -0.000 C 
BRANCH  24  25
ATOM     25  C   UNL     1      12.371  -3.188  41.087  1.00  0.00    -0.000 C 
BRANCH  25  26
ATOM     26  C   UNL     1      11.229  -4.224  41.106  1.00  0.00    -0.000 C 
BRANCH  26  27
ATOM     27  C   UNL     1      10.434  -4.283  42.420  1.00  0.00    -0.000 C 
BRANCH  27  28
ATOM     28  C   UNL     1       9.059  -4.955  42.254  1.00  0.00    -0.000 C 
BRANCH  28  29
ATOM     29  C   UNL     1       8.969  -5.792  40.969  1.00  0.00    -0.000 C 
BRANCH  29  30
ATOM     30  C   UNL     1       9.089  -7.304  41.240  1.00  0.00    -0.000 C 
BRANCH  30  31
ATOM     31  C   UNL     1       7.770  -7.919  41.729  1.00  0.00    -0.003 C 
ATOM     32  C   UNL     1       7.769  -9.447  41.661  1.00  0.00     0.004 C 
ENDBRANCH  30  31
ENDBRANCH  29  30
ENDBRANCH  28  29
ENDBRANCH  27  28
ENDBRANCH  26  27
ENDBRANCH  25  26
ENDBRANCH  24  25
ENDBRANCH  23  24
ENDBRANCH  22  23
ENDBRANCH  21  22
ENDBRANCH  20  21
ENDBRANCH  19  20
ENDBRANCH  18  19
ENDBRANCH   1  18
TORSDOF 28
ENDMDL
MODEL 6
REMARK VINA RESULT:    -4.087      2.862      6.493
REMARK INTER + INTRA:         -15.435
REMARK INTER:                 -11.141
REMARK INTRA:                  -4.295
REMARK UNBOUND:                -4.659
REMARK SMILES CCCCCCCCCCCCCCCCCCCCCCCCCCCCCC(=O)[O-]
REMARK SMILES IDX 16 1 17 2 18 3 19 4 20 5 21 6 22 7 23 8 24 9 25 10 26 11
REMARK SMILES IDX 27 12 28 13 29 14 30 15 31 16 32 17 15 18 14 19 13 20 12 21
REMARK SMILES IDX 11 22 10 23 9 24 8 25 7 26 6 27 5 28 4 29 3 30 2 31 1 32
REMARK H PARENT
REMARK Flexibility Score: inf
ROOT
ATOM      1  C   UNL     1       8.704  -0.750  44.948  1.00  0.00     0.000 C 
ENDROOT
BRANCH   1   2
ATOM      2  C   UNL     1       9.050  -0.883  43.457  1.00  0.00     0.000 C 
BRANCH   2   3
ATOM      3  C   UNL     1       9.080  -2.343  42.977  1.00  0.00     0.000 C 
BRANCH   3   4
ATOM      4  C   UNL     1       8.277  -2.563  41.686  1.00  0.00     0.000 C 
BRANCH   4   5
ATOM      5  C   UNL     1       8.232  -1.283  40.840  1.00  0.00     0.000 C 
BRANCH   5   6
ATOM      6  C   UNL     1       7.831  -1.596  39.389  1.00  0.00     0.000 C 
BRANCH   6   7
ATOM      7  C   UNL     1       7.469  -3.078  39.168  1.00  0.00     0.000 C 
BRANCH   7   8
ATOM      8  C   UNL     1       7.887  -3.646  37.800  1.00  0.00     0.000 C 
BRANCH   8   9
ATOM      9  C   UNL     1       7.135  -2.994  36.627  1.00  0.00     0.000 C 
BRANCH   9  10
ATOM     10  C   UNL     1       7.721  -3.371  35.253  1.00  0.00     0.000 C 
BRANCH  10  11
ATOM     11  C   UNL     1       8.695  -4.565  35.269  1.00  0.00     0.000 C 
BRANCH  11  12
ATOM     12  C   UNL     1       9.667  -4.569  34.074  1.00  0.00     0.000 C 
BRANCH  12  13
ATOM     13  C   UNL     1      11.063  -5.105  34.441  1.00  0.00     0.006 C 
BRANCH  13  14
ATOM     14  C   UNL     1      11.495  -6.327  33.610  1.00  0.00     0.053 C 
BRANCH  14  15
ATOM     15  C   UNL     1      10.977  -7.616  34.169  1.00  0.00     0.041 C 
ATOM     16  O   UNL     1       9.744  -7.874  34.131  1.00  0.00    -0.550 OA
ATOM     17  O   UNL     1      11.857  -8.539  34.722  1.00  0.00    -0.550 OA
ENDBRANCH  14  15
ENDBRANCH  13  14
ENDBRANCH  12  13
ENDBRANCH  11  12
ENDBRANCH  10  11
ENDBRANCH   9  10
ENDBRANCH   8   9
ENDBRANCH   7   8
ENDBRANCH   6   7
ENDBRANCH   5   6
ENDBRANCH   4   5
ENDBRANCH   3   4
ENDBRANCH   2   3
ENDBRANCH   1   2
BRANCH   1  18
ATOM     18  C   UNL     1       8.542   0.723  45.344  1.00  0.00     0.000 C 
BRANCH  18  19
ATOM     19  C   UNL     1       9.297   1.034  46.642  1.00  0.00     0.000 C 
BRANCH  19  20
ATOM     20  C   UNL     1      10.576   0.197  46.748  1.00  0.00     0.000 C 
BRANCH  20  21
ATOM     21  C   UNL     1      11.807   1.092  46.940  1.00  0.00     0.000 C 
BRANCH  21  22
ATOM     22  C   UNL     1      12.791   0.931  45.775  1.00  0.00     0.000 C 
BRANCH  22  23
ATOM     23  C   UNL     1      12.355  -0.202  44.839  1.00  0.00     0.000 C 
BRANCH  23  24
ATOM     24  C   UNL     1      12.787   0.079  43.392  1.00  0.00    -0.000 C 
BRANCH  24  25
ATOM     25  C   UNL     1      12.629  -1.158  42.481  1.00  0.00    -0.000 C 
BRANCH  25  26
ATOM     26  C   UNL     1      12.123  -0.828  41.063  1.00  0.00    -0.000 C 
BRANCH  26  27
ATOM     27  C   UNL     1      12.472  -1.876  39.994  1.00  0.00    -0.000 C 
BRANCH  27  28
ATOM     28  C   UNL     1      11.244  -2.676  39.522  1.00  0.00    -0.000 C 
BRANCH  28  29
ATOM     29  C   UNL     1      11.624  -3.829  38.581  1.00  0.00    -0.000 C 
BRANCH  29  30
ATOM     30  C   UNL     1      11.470  -5.209  39.248  1.00  0.00    -0.000 C 
BRANCH  30  31
ATOM     31  C   UNL     1      10.830  -5.121  40.640  1.00  0.00    -0.003 C 
ATOM     32  C   UNL     1       9.477  -5.830  40.715  1.00  0.00     0.004 C 
ENDBRANCH  30  31
ENDBRANCH  29  30
ENDBRANCH  28  29
ENDBRANCH  27  28
ENDBRANCH  26  27
ENDBRANCH  25  26
ENDBRANCH  24  25
ENDBRANCH  23  24
ENDBRANCH  22  23
ENDBRANCH  21  22
ENDBRANCH  20  21
ENDBRANCH  19  20
ENDBRANCH  18  19
ENDBRANCH   1  18
TORSDOF 28
ENDMDL
MODEL 7
REMARK VINA RESULT:    -4.039      4.077      6.655
REMARK INTER + INTRA:         -15.308
REMARK INTER:                 -11.742
REMARK INTRA:                  -3.567
REMARK UNBOUND:                -4.659
REMARK SMILES CCCCCCCCCCCCCCCCCCCCCCCCCCCCCC(=O)[O-]
REMARK SMILES IDX 16 1 17 2 18 3 19 4 20 5 21 6 22 7 23 8 24 9 25 10 26 11
REMARK SMILES IDX 27 12 28 13 29 14 30 15 31 16 32 17 15 18 14 19 13 20 12 21
REMARK SMILES IDX 11 22 10 23 9 24 8 25 7 26 6 27 5 28 4 29 3 30 2 31 1 32
REMARK H PARENT
REMARK Flexibility Score: inf
ROOT
ATOM      1  C   UNL     1       8.237  -2.495  42.060  1.00  0.00     0.000 C 
ENDROOT
BRANCH   1   2
ATOM      2  C   UNL     1       8.626  -2.233  43.523  1.00  0.00     0.000 C 
BRANCH   2   3
ATOM      3  C   UNL     1       8.960  -0.758  43.799  1.00  0.00     0.000 C 
BRANCH   3   4
ATOM      4  C   UNL     1       9.257  -0.482  45.281  1.00  0.00     0.000 C 
BRANCH   4   5
ATOM      5  C   UNL     1      10.690   0.035  45.469  1.00  0.00     0.000 C 
BRANCH   5   6
ATOM      6  C   UNL     1      11.344   0.350  44.114  1.00  0.00     0.000 C 
BRANCH   6   7
ATOM      7  C   UNL     1      12.668  -0.407  43.891  1.00  0.00     0.000 C 
BRANCH   7   8
ATOM      8  C   UNL     1      12.889  -0.908  42.453  1.00  0.00     0.000 C 
BRANCH   8   9
ATOM      9  C   UNL     1      12.048  -2.153  42.118  1.00  0.00     0.000 C 
BRANCH   9  10
ATOM     10  C   UNL     1      12.231  -2.627  40.664  1.00  0.00     0.000 C 
BRANCH  10  11
ATOM     11  C   UNL     1      11.895  -4.112  40.419  1.00  0.00     0.000 C 
BRANCH  11  12
ATOM     12  C   UNL     1      10.703  -4.609  41.256  1.00  0.00     0.000 C 
BRANCH  12  13
ATOM     13  C   UNL     1       9.820  -5.619  40.500  1.00  0.00     0.006 C 
BRANCH  13  14
ATOM     14  C   UNL     1       9.529  -6.905  41.296  1.00  0.00     0.053 C 
BRANCH  14  15
ATOM     15  C   UNL     1       8.102  -6.997  41.741  1.00  0.00     0.041 C 
ATOM     16  O   UNL     1       7.468  -8.079  41.616  1.00  0.00    -0.550 OA
ATOM     17  O   UNL     1       7.475  -5.891  42.303  1.00  0.00    -0.550 OA
ENDBRANCH  14  15
ENDBRANCH  13  14
ENDBRANCH  12  13
ENDBRANCH  11  12
ENDBRANCH  10  11
ENDBRANCH   9  10
ENDBRANCH   8   9
ENDBRANCH   7   8
ENDBRANCH   6   7
ENDBRANCH   5   6
ENDBRANCH   4   5
ENDBRANCH   3   4
ENDBRANCH   2   3
ENDBRANCH   1   2
BRANCH   1  18
ATOM     18  C   UNL     1       8.533  -1.270  41.186  1.00  0.00     0.000 C 
BRANCH  18  19
ATOM     19  C   UNL     1       8.298  -1.578  39.702  1.00  0.00     0.000 C 
BRANCH  19  20
ATOM     20  C   UNL     1       7.726  -2.988  39.517  1.00  0.00     0.000 C 
BRANCH  20  21
ATOM     21  C   UNL     1       8.002  -3.515  38.104  1.00  0.00     0.000 C 
BRANCH  21  22
ATOM     22  C   UNL     1       6.840  -3.185  37.158  1.00  0.00     0.000 C 
BRANCH  22  23
ATOM     23  C   UNL     1       7.244  -3.402  35.695  1.00  0.00     0.000 C 
BRANCH  23  24
ATOM     24  C   UNL     1       8.716  -3.828  35.585  1.00  0.00    -0.000 C 
BRANCH  24  25
ATOM     25  C   UNL     1       8.904  -5.060  34.673  1.00  0.00    -0.000 C 
BRANCH  25  26
ATOM     26  C   UNL     1       9.997  -4.882  33.602  1.00  0.00    -0.000 C 
BRANCH  26  27
ATOM     27  C   UNL     1      10.453  -6.183  32.922  1.00  0.00    -0.000 C 
BRANCH  27  28
ATOM     28  C   UNL     1      10.415  -7.394  33.872  1.00  0.00    -0.000 C 
BRANCH  28  29
ATOM     29  C   UNL     1      11.578  -8.367  33.625  1.00  0.00    -0.000 C 
BRANCH  29  30
ATOM     30  C   UNL     1      12.954  -7.694  33.784  1.00  0.00    -0.000 C 
BRANCH  30  31
ATOM     31  C   UNL     1      13.775  -7.722  32.486  1.00  0.00    -0.003 C 
ATOM     32  C   UNL     1      13.962  -6.333  31.876  1.00  0.00     0.004 C 
ENDBRANCH  30  31
ENDBRANCH  29  30
ENDBRANCH  28  29
ENDBRANCH  27  28
ENDBRANCH  26  27
ENDBRANCH  25  26
ENDBRANCH  24  25
ENDBRANCH  23  24
ENDBRANCH  22  23
ENDBRANCH  21  22
ENDBRANCH  20  21
ENDBRANCH  19  20
ENDBRANCH  18  19
ENDBRANCH   1  18
TORSDOF 28
ENDMDL
MODEL 8
REMARK VINA RESULT:    -4.034      3.298      6.062
REMARK INTER + INTRA:         -15.295
REMARK INTER:                 -11.503
REMARK INTRA:                  -3.793
REMARK UNBOUND:                -4.659
REMARK SMILES CCCCCCCCCCCCCCCCCCCCCCCCCCCCCC(=O)[O-]
REMARK SMILES IDX 16 1 17 2 18 3 19 4 20 5 21 6 22 7 23 8 24 9 25 10 26 11
REMARK SMILES IDX 27 12 28 13 29 14 30 15 31 16 32 17 15 18 14 19 13 20 12 21
REMARK SMILES IDX 11 22 10 23 9 24 8 25 7 26 6 27 5 28 4 29 3 30 2 31 1 32
REMARK H PARENT
REMARK Flexibility Score: inf
ROOT
ATOM      1  C   UNL     1      12.020  -2.423  41.275  1.00  0.00     0.000 C 
ENDROOT
BRANCH   1   2
ATOM      2  C   UNL     1      13.144  -1.445  41.654  1.00  0.00     0.000 C 
BRANCH   2   3
ATOM      3  C   UNL     1      12.909  -0.758  43.009  1.00  0.00     0.000 C 
BRANCH   3   4
ATOM      4  C   UNL     1      11.607   0.058  43.046  1.00  0.00     0.000 C 
BRANCH   4   5
ATOM      5  C   UNL     1      10.806  -0.239  44.320  1.00  0.00     0.000 C 
BRANCH   5   6
ATOM      6  C   UNL     1       9.304  -0.352  44.013  1.00  0.00     0.000 C 
BRANCH   6   7
ATOM      7  C   UNL     1       8.994  -0.346  42.503  1.00  0.00     0.000 C 
BRANCH   7   8
ATOM      8  C   UNL     1       8.591  -1.713  41.923  1.00  0.00     0.000 C 
BRANCH   8   9
ATOM      9  C   UNL     1       8.574  -2.830  42.982  1.00  0.00     0.000 C 
BRANCH   9  10
ATOM     10  C   UNL     1       8.909  -4.216  42.398  1.00  0.00     0.000 C 
BRANCH  10  11
ATOM     11  C   UNL     1       7.919  -5.336  42.777  1.00  0.00     0.000 C 
BRANCH  11  12
ATOM     12  C   UNL     1       7.536  -6.233  41.586  1.00  0.00     0.000 C 
BRANCH  12  13
ATOM     13  C   UNL     1       8.307  -7.566  41.569  1.00  0.00     0.006 C 
BRANCH  13  14
ATOM     14  C   UNL     1       7.561  -8.721  42.262  1.00  0.00     0.053 C 
BRANCH  14  15
ATOM     15  C   UNL     1       7.277  -9.863  41.335  1.00  0.00     0.041 C 
ATOM     16  O   UNL     1       6.089 -10.217  41.112  1.00  0.00    -0.550 OA
ATOM     17  O   UNL     1       8.325 -10.528  40.708  1.00  0.00    -0.550 OA
ENDBRANCH  14  15
ENDBRANCH  13  14
ENDBRANCH  12  13
ENDBRANCH  11  12
ENDBRANCH  10  11
ENDBRANCH   9  10
ENDBRANCH   8   9
ENDBRANCH   7   8
ENDBRANCH   6   7
ENDBRANCH   5   6
ENDBRANCH   4   5
ENDBRANCH   3   4
ENDBRANCH   2   3
ENDBRANCH   1   2
BRANCH   1  18
ATOM     18  C   UNL     1      12.184  -2.914  39.832  1.00  0.00     0.000 C 
BRANCH  18  19
ATOM     19  C   UNL     1      10.914  -2.658  39.011  1.00  0.00     0.000 C 
BRANCH  19  20
ATOM     20  C   UNL     1      10.290  -3.977  38.541  1.00  0.00     0.000 C 
BRANCH  20  21
ATOM     21  C   UNL     1       8.787  -4.015  38.845  1.00  0.00     0.000 C 
BRANCH  21  22
ATOM     22  C   UNL     1       8.151  -2.634  38.644  1.00  0.00     0.000 C 
BRANCH  22  23
ATOM     23  C   UNL     1       6.666  -2.760  38.282  1.00  0.00     0.000 C 
BRANCH  23  24
ATOM     24  C   UNL     1       6.167  -1.504  37.551  1.00  0.00    -0.000 C 
BRANCH  24  25
ATOM     25  C   UNL     1       6.587  -1.485  36.065  1.00  0.00    -0.000 C 
BRANCH  25  26
ATOM     26  C   UNL     1       6.813  -2.886  35.463  1.00  0.00    -0.000 C 
BRANCH  26  27
ATOM     27  C   UNL     1       8.237  -3.143  34.943  1.00  0.00    -0.000 C 
BRANCH  27  28
ATOM     28  C   UNL     1       8.700  -4.593  35.168  1.00  0.00    -0.000 C 
BRANCH  28  29
ATOM     29  C   UNL     1      10.172  -4.803  34.783  1.00  0.00    -0.000 C 
BRANCH  29  30
ATOM     30  C   UNL     1      10.345  -5.833  33.651  1.00  0.00    -0.000 C 
BRANCH  30  31
ATOM     31  C   UNL     1       9.963  -7.255  34.087  1.00  0.00    -0.003 C 
ATOM     32  C   UNL     1      11.020  -8.293  33.710  1.00  0.00     0.004 C 
ENDBRANCH  30  31
ENDBRANCH  29  30
ENDBRANCH  28  29
ENDBRANCH  27  28
ENDBRANCH  26  27
ENDBRANCH  25  26
ENDBRANCH  24  25
ENDBRANCH  23  24
ENDBRANCH  22  23
ENDBRANCH  21  22
ENDBRANCH  20  21
ENDBRANCH  19  20
ENDBRANCH  18  19
ENDBRANCH   1  18
TORSDOF 28
ENDMDL
MODEL 9
REMARK VINA RESULT:    -3.990      4.484      8.483
REMARK INTER + INTRA:         -15.179
REMARK INTER:                 -10.350
REMARK INTRA:                  -4.829
REMARK UNBOUND:                -4.659
REMARK SMILES CCCCCCCCCCCCCCCCCCCCCCCCCCCCCC(=O)[O-]
REMARK SMILES IDX 16 1 17 2 18 3 19 4 20 5 21 6 22 7 23 8 24 9 25 10 26 11
REMARK SMILES IDX 27 12 28 13 29 14 30 15 31 16 32 17 15 18 14 19 13 20 12 21
REMARK SMILES IDX 11 22 10 23 9 24 8 25 7 26 6 27 5 28 4 29 3 30 2 31 1 32
REMARK H PARENT
REMARK Flexibility Score: inf
ROOT
ATOM      1  C   UNL     1       8.841  -3.397  35.091  1.00  0.00     0.000 C 
ENDROOT
BRANCH   1   2
ATOM      2  C   UNL     1       8.617  -4.908  34.923  1.00  0.00     0.000 C 
BRANCH   2   3
ATOM      3  C   UNL     1       9.705  -5.584  34.073  1.00  0.00     0.000 C 
BRANCH   3   4
ATOM      4  C   UNL     1      10.075  -4.770  32.823  1.00  0.00     0.000 C 
BRANCH   4   5
ATOM      5  C   UNL     1      11.515  -5.064  32.381  1.00  0.00     0.000 C 
BRANCH   5   6
ATOM      6  C   UNL     1      12.441  -3.879  32.700  1.00  0.00     0.000 C 
BRANCH   6   7
ATOM      7  C   UNL     1      13.242  -4.072  34.003  1.00  0.00     0.000 C 
BRANCH   7   8
ATOM      8  C   UNL     1      12.808  -3.162  35.166  1.00  0.00     0.000 C 
BRANCH   8   9
ATOM      9  C   UNL     1      12.315  -3.954  36.390  1.00  0.00     0.000 C 
BRANCH   9  10
ATOM     10  C   UNL     1      12.382  -5.479  36.187  1.00  0.00     0.000 C 
BRANCH  10  11
ATOM     11  C   UNL     1      12.908  -6.274  37.399  1.00  0.00     0.000 C 
BRANCH  11  12
ATOM     12  C   UNL     1      14.209  -5.695  37.984  1.00  0.00     0.000 C 
BRANCH  12  13
ATOM     13  C   UNL     1      15.165  -6.783  38.508  1.00  0.00     0.006 C 
BRANCH  13  14
ATOM     14  C   UNL     1      14.592  -8.209  38.411  1.00  0.00     0.053 C 
BRANCH  14  15
ATOM     15  C   UNL     1      14.307  -8.809  39.752  1.00  0.00     0.041 C 
ATOM     16  O   UNL     1      15.217  -8.884  40.620  1.00  0.00    -0.550 OA
ATOM     17  O   UNL     1      13.032  -9.276  40.049  1.00  0.00    -0.550 OA
ENDBRANCH  14  15
ENDBRANCH  13  14
ENDBRANCH  12  13
ENDBRANCH  11  12
ENDBRANCH  10  11
ENDBRANCH   9  10
ENDBRANCH   8   9
ENDBRANCH   7   8
ENDBRANCH   6   7
ENDBRANCH   5   6
ENDBRANCH   4   5
ENDBRANCH   3   4
ENDBRANCH   2   3
ENDBRANCH   1   2
BRANCH   1  18
ATOM     18  C   UNL     1       7.524  -2.680  35.413  1.00  0.00     0.000 C 
BRANCH  18  19
ATOM     19  C   UNL     1       6.792  -3.362  36.575  1.00  0.00     0.000 C 
BRANCH  19  20
ATOM     20  C   UNL     1       6.451  -2.353  37.677  1.00  0.00     0.000 C 
BRANCH  20  21
ATOM     21  C   UNL     1       7.337  -2.562  38.911  1.00  0.00     0.000 C 
BRANCH  21  22
ATOM     22  C   UNL     1       8.154  -3.855  38.788  1.00  0.00     0.000 C 
BRANCH  22  23
ATOM     23  C   UNL     1       9.657  -3.556  38.782  1.00  0.00     0.000 C 
BRANCH  23  24
ATOM     24  C   UNL     1      10.450  -4.692  39.447  1.00  0.00    -0.000 C 
BRANCH  24  25
ATOM     25  C   UNL     1      11.630  -4.168  40.292  1.00  0.00    -0.000 C 
BRANCH  25  26
ATOM     26  C   UNL     1      11.217  -3.637  41.679  1.00  0.00    -0.000 C 
BRANCH  26  27
ATOM     27  C   UNL     1      10.200  -4.513  42.429  1.00  0.00    -0.000 C 
BRANCH  27  28
ATOM     28  C   UNL     1       8.802  -3.873  42.502  1.00  0.00    -0.000 C 
BRANCH  28  29
ATOM     29  C   UNL     1       7.702  -4.904  42.795  1.00  0.00    -0.000 C 
BRANCH  29  30
ATOM     30  C   UNL     1       7.528  -5.923  41.652  1.00  0.00    -0.000 C 
BRANCH  30  31
ATOM     31  C   UNL     1       7.815  -7.363  42.100  1.00  0.00    -0.003 C 
ATOM     32  C   UNL     1       8.215  -7.455  43.573  1.00  0.00     0.004 C 
ENDBRANCH  30  31
ENDBRANCH  29  30
ENDBRANCH  28  29
ENDBRANCH  27  28
ENDBRANCH  26  27
ENDBRANCH  25  26
ENDBRANCH  24  25
ENDBRANCH  23  24
ENDBRANCH  22  23
ENDBRANCH  21  22
ENDBRANCH  20  21
ENDBRANCH  19  20
ENDBRANCH  18  19
ENDBRANCH   1  18
TORSDOF 28
ENDMDL
