MODEL 1
REMARK VINA RESULT:    -6.732      0.000      0.000
REMARK INTER + INTRA:          -6.060
REMARK INTER:                  -7.322
REMARK INTRA:                   1.263
REMARK UNBOUND:                 1.263
REMARK SMILES C[C@@H]1[C@@H](C)CC[C@@]2(C(=O)[O-])CC[C@@]3(C)C(=CC[C@H]4[C@]5(C)CC[C@H](O)C(C)(C)[C@@H]5CC[C@@]43C)[C@@H]12
REMARK SMILES IDX 7 1 6 2 11 3 33 4 5 5 12 6 15 7 2 8 3 9 13 10 16 11 1 12
REMARK SMILES IDX 4 13 14 14 31 15 17 16 18 17 30 18 32 19 19 20 29 21 28 22
REMARK SMILES IDX 21 23 20 24 25 25 22 26 23 27 26 28 27 29 8 30 9 31 10 32
REMARK SMILES IDX 24 33
REMARK H PARENT 24 34
REMARK Flexibility Score: inf
ROOT
ATOM      1  C   UNL     1      11.502  75.083  -3.879  1.00  0.00     0.017 C 
ATOM      2  C   UNL     1      11.989  74.029  -4.905  1.00  0.00     0.014 C 
ATOM      3  C   UNL     1      10.104  75.635  -4.276  1.00  0.00     0.014 C 
ATOM      4  C   UNL     1      11.414  74.459  -2.450  1.00  0.00     0.030 C 
ATOM      5  C   UNL     1      11.199  72.720  -4.857  1.00  0.00     0.004 C 
ATOM      6  C   UNL     1       9.641  76.761  -3.337  1.00  0.00     0.013 C 
ATOM      7  C   UNL     1      10.865  75.493  -1.452  1.00  0.00    -0.063 C 
ATOM      8  C   UNL     1      10.642  73.091  -2.411  1.00  0.00    -0.003 C 
ATOM      9  C   UNL     1      11.241  72.099  -3.452  1.00  0.00    -0.011 C 
ATOM     10  C   UNL     1       9.665  76.409  -1.806  1.00  0.00    -0.006 C 
ATOM     11  C   UNL     1      11.395  75.502  -0.204  1.00  0.00    -0.027 C 
ATOM     12  C   UNL     1      10.660  72.479  -0.993  1.00  0.00     0.008 C 
ATOM     13  C   UNL     1      10.504  70.748  -3.486  1.00  0.00     0.008 C 
ATOM     14  C   UNL     1       8.383  75.554  -1.504  1.00  0.00     0.017 C 
ATOM     15  C   UNL     1       9.754  77.764  -0.926  1.00  0.00    -0.020 C 
ATOM     16  C   UNL     1      11.075  76.511   0.869  1.00  0.00     0.032 C 
ATOM     17  C   UNL     1       9.801  77.350   0.592  1.00  0.00     0.006 C 
ATOM     18  C   UNL     1       8.539  78.702  -1.195  1.00  0.00     0.008 C 
ATOM     19  C   UNL     1      11.056  78.552  -1.321  1.00  0.00     0.012 C 
ATOM     20  C   UNL     1       9.487  78.447   1.715  1.00  0.00    -0.025 C 
ATOM     21  C   UNL     1       8.393  79.843  -0.188  1.00  0.00     0.005 C 
ATOM     22  C   UNL     1       8.291  79.398   1.298  1.00  0.00     0.003 C 
ATOM     23  C   UNL     1       9.134  77.692   3.045  1.00  0.00     0.010 C 
ATOM     24  C   UNL     1      10.718  79.354   2.050  1.00  0.00     0.012 C 
ATOM     25  C   UNL     1       6.851  79.005   1.855  1.00  0.00    -0.006 C 
ATOM     26  C   UNL     1       8.297  78.530   4.010  1.00  0.00     0.033 C 
ATOM     27  C   UNL     1       6.912  78.906   3.435  1.00  0.00     0.120 C 
ATOM     28  C   UNL     1       5.821  80.121   1.519  1.00  0.00     0.014 C 
ATOM     29  C   UNL     1       6.282  77.695   1.238  1.00  0.00     0.014 C 
ENDROOT
BRANCH   1  30
ATOM     30  C   UNL     1      12.536  76.209  -3.919  1.00  0.00     0.048 C 
ATOM     31  O   UNL     1      12.199  77.388  -3.627  1.00  0.00    -0.550 OA
ATOM     32  O   UNL     1      13.830  75.975  -4.372  1.00  0.00    -0.550 OA
ENDBRANCH   1  30
BRANCH  27  33
ATOM     33  O   UNL     1       5.940  78.013   3.929  1.00  0.00    -0.393 OA
ATOM     34  H   UNL     1       5.105  78.532   4.074  1.00  0.00     0.210 HD
ENDBRANCH  27  33
TORSDOF 2
ENDMDL
MODEL 2
REMARK VINA RESULT:    -5.969      2.184      7.534
REMARK INTER + INTRA:          -5.230
REMARK INTER:                  -5.237
REMARK INTRA:                   0.007
REMARK UNBOUND:                 1.263
REMARK SMILES C[C@@H]1[C@@H](C)CC[C@@]2(C(=O)[O-])CC[C@@]3(C)C(=CC[C@H]4[C@]5(C)CC[C@H](O)C(C)(C)[C@@H]5CC[C@@]43C)[C@@H]12
REMARK SMILES IDX 7 1 6 2 11 3 33 4 5 5 12 6 15 7 2 8 3 9 13 10 16 11 1 12
REMARK SMILES IDX 4 13 14 14 31 15 17 16 18 17 30 18 32 19 19 20 29 21 28 22
REMARK SMILES IDX 21 23 20 24 25 25 22 26 23 27 26 28 27 29 8 30 9 31 10 32
REMARK SMILES IDX 24 33
REMARK H PARENT 24 34
REMARK Flexibility Score: inf
ROOT
ATOM      1  C   UNL     1       9.384  78.831   1.495  1.00  0.00     0.017 C 
ATOM      2  C   UNL     1       8.750  79.734   2.584  1.00  0.00     0.014 C 
ATOM      3  C   UNL     1      10.258  77.719   2.141  1.00  0.00     0.014 C 
ATOM      4  C   UNL     1       8.274  78.162   0.623  1.00  0.00     0.030 C 
ATOM      5  C   UNL     1       7.668  79.032   3.405  1.00  0.00     0.004 C 
ATOM      6  C   UNL     1      10.986  76.873   1.083  1.00  0.00     0.013 C 
ATOM      7  C   UNL     1       8.910  77.215  -0.409  1.00  0.00    -0.063 C 
ATOM      8  C   UNL     1       7.139  77.482   1.470  1.00  0.00    -0.003 C 
ATOM      9  C   UNL     1       6.550  78.491   2.500  1.00  0.00    -0.011 C 
ATOM     10  C   UNL     1      10.067  76.255  -0.031  1.00  0.00    -0.006 C 
ATOM     11  C   UNL     1       8.348  77.166  -1.642  1.00  0.00    -0.027 C 
ATOM     12  C   UNL     1       6.027  76.913   0.560  1.00  0.00     0.008 C 
ATOM     13  C   UNL     1       5.453  77.873   3.386  1.00  0.00     0.008 C 
ATOM     14  C   UNL     1       9.373  74.988   0.587  1.00  0.00     0.017 C 
ATOM     15  C   UNL     1      10.939  75.928  -1.353  1.00  0.00    -0.020 C 
ATOM     16  C   UNL     1       8.896  76.395  -2.817  1.00  0.00     0.032 C 
ATOM     17  C   UNL     1       9.965  75.337  -2.439  1.00  0.00     0.006 C 
ATOM     18  C   UNL     1      12.086  74.917  -1.046  1.00  0.00     0.008 C 
ATOM     19  C   UNL     1      11.605  77.253  -1.874  1.00  0.00     0.012 C 
ATOM     20  C   UNL     1      10.571  74.549  -3.694  1.00  0.00    -0.025 C 
ATOM     21  C   UNL     1      12.752  74.329  -2.291  1.00  0.00     0.005 C 
ATOM     22  C   UNL     1      11.784  73.618  -3.279  1.00  0.00     0.003 C 
ATOM     23  C   UNL     1       9.423  73.684  -4.324  1.00  0.00     0.010 C 
ATOM     24  C   UNL     1      11.071  75.498  -4.833  1.00  0.00     0.012 C 
ATOM     25  C   UNL     1      11.437  72.088  -3.001  1.00  0.00    -0.006 C 
ATOM     26  C   UNL     1       9.939  72.496  -5.134  1.00  0.00     0.033 C 
ATOM     27  C   UNL     1      10.721  71.477  -4.275  1.00  0.00     0.120 C 
ATOM     28  C   UNL     1      12.741  71.270  -2.788  1.00  0.00     0.014 C 
ATOM     29  C   UNL     1      10.577  71.869  -1.723  1.00  0.00     0.014 C 
ENDROOT
BRANCH   1  30
ATOM     30  C   UNL     1      10.259  79.754   0.649  1.00  0.00     0.048 C 
ATOM     31  O   UNL     1       9.871  80.122  -0.494  1.00  0.00    -0.550 OA
ATOM     32  O   UNL     1      11.530  80.124   1.075  1.00  0.00    -0.550 OA
ENDBRANCH   1  30
BRANCH  27  33
ATOM     33  O   UNL     1       9.870  70.411  -3.921  1.00  0.00    -0.393 OA
ATOM     34  H   UNL     1       9.652  70.512  -2.957  1.00  0.00     0.210 HD
ENDBRANCH  27  33
TORSDOF 2
ENDMDL
MODEL 3
REMARK VINA RESULT:    -5.656      1.222      1.608
REMARK INTER + INTRA:          -4.889
REMARK INTER:                  -5.471
REMARK INTRA:                   0.582
REMARK UNBOUND:                 1.263
REMARK SMILES C[C@@H]1[C@@H](C)CC[C@@]2(C(=O)[O-])CC[C@@]3(C)C(=CC[C@H]4[C@]5(C)CC[C@H](O)C(C)(C)[C@@H]5CC[C@@]43C)[C@@H]12
REMARK SMILES IDX 7 1 6 2 11 3 33 4 5 5 12 6 15 7 2 8 3 9 13 10 16 11 1 12
REMARK SMILES IDX 4 13 14 14 31 15 17 16 18 17 30 18 32 19 19 20 29 21 28 22
REMARK SMILES IDX 21 23 20 24 25 25 22 26 23 27 26 28 27 29 8 30 9 31 10 32
REMARK SMILES IDX 24 33
REMARK H PARENT 24 34
REMARK Flexibility Score: inf
ROOT
ATOM      1  C   UNL     1      10.901  73.578  -4.645  1.00  0.00     0.017 C 
ATOM      2  C   UNL     1      11.083  72.325  -5.539  1.00  0.00     0.014 C 
ATOM      3  C   UNL     1       9.534  74.263  -4.927  1.00  0.00     0.014 C 
ATOM      4  C   UNL     1      10.973  73.190  -3.134  1.00  0.00     0.030 C 
ATOM      5  C   UNL     1      10.160  71.167  -5.161  1.00  0.00     0.004 C 
ATOM      6  C   UNL     1       9.371  75.569  -4.133  1.00  0.00     0.013 C 
ATOM      7  C   UNL     1      10.723  74.428  -2.256  1.00  0.00    -0.063 C 
ATOM      8  C   UNL     1      10.059  71.970  -2.758  1.00  0.00    -0.003 C 
ATOM      9  C   UNL     1      10.355  70.759  -3.693  1.00  0.00    -0.011 C 
ATOM     10  C   UNL     1       9.602  75.447  -2.584  1.00  0.00    -0.006 C 
ATOM     11  C   UNL     1      11.447  74.542  -1.115  1.00  0.00    -0.027 C 
ATOM     12  C   UNL     1      10.234  71.576  -1.274  1.00  0.00     0.008 C 
ATOM     13  C   UNL     1       9.465  69.539  -3.395  1.00  0.00     0.008 C 
ATOM     14  C   UNL     1       8.292  74.840  -1.964  1.00  0.00     0.017 C 
ATOM     15  C   UNL     1       9.996  76.888  -1.965  1.00  0.00    -0.020 C 
ATOM     16  C   UNL     1      11.431  75.735  -0.192  1.00  0.00     0.032 C 
ATOM     17  C   UNL     1      10.240  76.700  -0.421  1.00  0.00     0.006 C 
ATOM     18  C   UNL     1       8.875  77.944  -2.212  1.00  0.00     0.008 C 
ATOM     19  C   UNL     1      11.301  77.413  -2.667  1.00  0.00     0.012 C 
ATOM     20  C   UNL     1      10.248  77.983   0.536  1.00  0.00    -0.025 C 
ATOM     21  C   UNL     1       9.035  79.229  -1.400  1.00  0.00     0.005 C 
ATOM     22  C   UNL     1       9.124  79.026   0.139  1.00  0.00     0.003 C 
ATOM     23  C   UNL     1      10.028  77.490   2.009  1.00  0.00     0.010 C 
ATOM     24  C   UNL     1      11.618  78.741   0.536  1.00  0.00     0.012 C 
ATOM     25  C   UNL     1       7.757  78.933   0.952  1.00  0.00    -0.006 C 
ATOM     26  C   UNL     1       9.468  78.574   2.929  1.00  0.00     0.033 C 
ATOM     27  C   UNL     1       8.063  79.058   2.502  1.00  0.00     0.120 C 
ATOM     28  C   UNL     1       6.829  80.125   0.585  1.00  0.00     0.014 C 
ATOM     29  C   UNL     1       6.942  77.643   0.651  1.00  0.00     0.014 C 
ENDROOT
BRANCH   1  30
ATOM     30  C   UNL     1      12.043  74.523  -5.020  1.00  0.00     0.048 C 
ATOM     31  O   UNL     1      12.376  74.664  -6.228  1.00  0.00    -0.550 OA
ATOM     32  O   UNL     1      12.793  75.163  -4.039  1.00  0.00    -0.550 OA
ENDBRANCH   1  30
BRANCH  27  33
ATOM     33  O   UNL     1       7.085  78.398   3.271  1.00  0.00    -0.393 OA
ATOM     34  H   UNL     1       6.736  79.052   3.934  1.00  0.00     0.210 HD
ENDBRANCH  27  33
TORSDOF 2
ENDMDL
MODEL 4
REMARK VINA RESULT:    -5.197      2.079      3.292
REMARK INTER + INTRA:          -4.390
REMARK INTER:                  -4.881
REMARK INTRA:                   0.491
REMARK UNBOUND:                 1.263
REMARK SMILES C[C@@H]1[C@@H](C)CC[C@@]2(C(=O)[O-])CC[C@@]3(C)C(=CC[C@H]4[C@]5(C)CC[C@H](O)C(C)(C)[C@@H]5CC[C@@]43C)[C@@H]12
REMARK SMILES IDX 7 1 6 2 11 3 33 4 5 5 12 6 15 7 2 8 3 9 13 10 16 11 1 12
REMARK SMILES IDX 4 13 14 14 31 15 17 16 18 17 30 18 32 19 19 20 29 21 28 22
REMARK SMILES IDX 21 23 20 24 25 25 22 26 23 27 26 28 27 29 8 30 9 31 10 32
REMARK SMILES IDX 24 33
REMARK H PARENT 24 34
REMARK Flexibility Score: inf
ROOT
ATOM      1  C   UNL     1      10.669  73.360  -4.713  1.00  0.00     0.017 C 
ATOM      2  C   UNL     1      11.377  72.355  -5.657  1.00  0.00     0.014 C 
ATOM      3  C   UNL     1      10.080  72.629  -3.473  1.00  0.00     0.014 C 
ATOM      4  C   UNL     1      11.668  74.457  -4.229  1.00  0.00     0.030 C 
ATOM      5  C   UNL     1      12.675  71.788  -5.083  1.00  0.00     0.004 C 
ATOM      6  C   UNL     1       9.279  73.581  -2.571  1.00  0.00     0.013 C 
ATOM      7  C   UNL     1      10.975  75.407  -3.238  1.00  0.00    -0.063 C 
ATOM      8  C   UNL     1      13.021  73.873  -3.681  1.00  0.00    -0.003 C 
ATOM      9  C   UNL     1      13.660  72.911  -4.727  1.00  0.00    -0.011 C 
ATOM     10  C   UNL     1      10.042  74.878  -2.119  1.00  0.00    -0.006 C 
ATOM     11  C   UNL     1      11.295  76.723  -3.305  1.00  0.00    -0.027 C 
ATOM     12  C   UNL     1      14.003  75.002  -3.298  1.00  0.00     0.008 C 
ATOM     13  C   UNL     1      14.975  72.279  -4.235  1.00  0.00     0.008 C 
ATOM     14  C   UNL     1      10.994  74.471  -0.938  1.00  0.00     0.017 C 
ATOM     15  C   UNL     1       8.984  76.035  -1.719  1.00  0.00    -0.020 C 
ATOM     16  C   UNL     1      10.637  77.819  -2.505  1.00  0.00     0.032 C 
ATOM     17  C   UNL     1       9.802  77.314  -1.301  1.00  0.00     0.006 C 
ATOM     18  C   UNL     1       8.053  75.582  -0.553  1.00  0.00     0.008 C 
ATOM     19  C   UNL     1       8.068  76.349  -2.959  1.00  0.00     0.012 C 
ATOM     20  C   UNL     1       9.074  78.478  -0.479  1.00  0.00    -0.025 C 
ATOM     21  C   UNL     1       7.244  76.714   0.079  1.00  0.00     0.005 C 
ATOM     22  C   UNL     1       8.089  77.902   0.620  1.00  0.00     0.003 C 
ATOM     23  C   UNL     1      10.182  79.357   0.201  1.00  0.00     0.010 C 
ATOM     24  C   UNL     1       8.251  79.451  -1.388  1.00  0.00     0.012 C 
ATOM     25  C   UNL     1       8.674  77.780   2.097  1.00  0.00    -0.006 C 
ATOM     26  C   UNL     1       9.678  80.125   1.421  1.00  0.00     0.033 C 
ATOM     27  C   UNL     1       9.208  79.197   2.565  1.00  0.00     0.120 C 
ATOM     28  C   UNL     1       7.548  77.379   3.091  1.00  0.00     0.014 C 
ATOM     29  C   UNL     1       9.781  76.696   2.239  1.00  0.00     0.014 C 
ENDROOT
BRANCH   1  30
ATOM     30  C   UNL     1       9.539  73.977  -5.536  1.00  0.00     0.048 C 
ATOM     31  O   UNL     1       8.353  73.946  -5.108  1.00  0.00    -0.550 OA
ATOM     32  O   UNL     1       9.778  74.491  -6.807  1.00  0.00    -0.550 OA
ENDBRANCH   1  30
BRANCH  27  33
ATOM     33  O   UNL     1      10.238  79.066   3.517  1.00  0.00    -0.393 OA
ATOM     34  H   UNL     1      11.102  79.083   3.025  1.00  0.00     0.210 HD
ENDBRANCH  27  33
TORSDOF 2
ENDMDL
