MODEL 1
REMARK VINA RESULT:    -3.578      0.000      0.000
REMARK INTER + INTRA:         -11.397
REMARK INTER:                  -7.762
REMARK INTRA:                  -3.635
REMARK UNBOUND:                -3.635
REMARK SMILES CCCCCCCCCCCCCCCCCCCCCC(=O)[O-]
REMARK SMILES IDX 12 1 11 2 10 3 9 4 8 5 7 6 6 7 5 8 4 9 3 10 2 11 1 12 13 13
REMARK SMILES IDX 14 14 15 15 16 16 17 17 18 18 19 19 20 20 21 21 22 22 23 23
REMARK SMILES IDX 24 24
REMARK H PARENT
REMARK Flexibility Score: inf
ROOT
ATOM      1  C   UNL     1      -1.112  23.139   0.333  1.00  0.00     0.000 C 
ENDROOT
BRANCH   1   2
ATOM      2  C   UNL     1      -1.841  22.004  -0.409  1.00  0.00     0.000 C 
BRANCH   2   3
ATOM      3  C   UNL     1      -3.380  22.090  -0.392  1.00  0.00     0.000 C 
BRANCH   3   4
ATOM      4  C   UNL     1      -3.962  23.236   0.461  1.00  0.00    -0.000 C 
BRANCH   4   5
ATOM      5  C   UNL     1      -4.242  24.539  -0.311  1.00  0.00    -0.000 C 
BRANCH   5   6
ATOM      6  C   UNL     1      -4.126  25.830   0.523  1.00  0.00    -0.000 C 
BRANCH   6   7
ATOM      7  C   UNL     1      -3.329  25.688   1.833  1.00  0.00    -0.000 C 
BRANCH   7   8
ATOM      8  C   UNL     1      -4.169  26.002   3.080  1.00  0.00    -0.000 C 
BRANCH   8   9
ATOM      9  C   UNL     1      -5.543  26.562   2.689  1.00  0.00    -0.000 C 
BRANCH   9  10
ATOM     10  C   UNL     1      -6.666  25.836   3.438  1.00  0.00    -0.000 C 
BRANCH  10  11
ATOM     11  C   UNL     1      -7.914  25.697   2.559  1.00  0.00    -0.003 C 
ATOM     12  C   UNL     1      -7.658  24.758   1.383  1.00  0.00     0.004 C 
ENDBRANCH  10  11
ENDBRANCH   9  10
ENDBRANCH   8   9
ENDBRANCH   7   8
ENDBRANCH   6   7
ENDBRANCH   5   6
ENDBRANCH   4   5
ENDBRANCH   3   4
ENDBRANCH   2   3
ENDBRANCH   1   2
BRANCH   1  13
ATOM     13  C   UNL     1      -0.129  23.908  -0.567  1.00  0.00     0.000 C 
BRANCH  13  14
ATOM     14  C   UNL     1      -0.826  24.570  -1.767  1.00  0.00     0.000 C 
BRANCH  14  15
ATOM     15  C   UNL     1      -0.698  26.103  -1.756  1.00  0.00     0.000 C 
BRANCH  15  16
ATOM     16  C   UNL     1      -0.523  26.667  -0.337  1.00  0.00     0.000 C 
BRANCH  16  17
ATOM     17  C   UNL     1      -1.136  28.071  -0.180  1.00  0.00     0.000 C 
BRANCH  17  18
ATOM     18  C   UNL     1      -1.073  28.581   1.268  1.00  0.00     0.000 C 
BRANCH  18  19
ATOM     19  C   UNL     1      -2.255  29.502   1.619  1.00  0.00     0.000 C 
BRANCH  19  20
ATOM     20  C   UNL     1      -3.157  29.800   0.407  1.00  0.00     0.006 C 
BRANCH  20  21
ATOM     21  C   UNL     1      -4.657  29.593   0.672  1.00  0.00     0.053 C 
BRANCH  21  22
ATOM     22  C   UNL     1      -5.469  30.782   0.257  1.00  0.00     0.041 C 
ATOM     23  O   UNL     1      -6.727  30.724   0.265  1.00  0.00    -0.550 OA
ATOM     24  O   UNL     1      -4.836  31.964  -0.105  1.00  0.00    -0.550 OA
ENDBRANCH  21  22
ENDBRANCH  20  21
ENDBRANCH  19  20
ENDBRANCH  18  19
ENDBRANCH  17  18
ENDBRANCH  16  17
ENDBRANCH  15  16
ENDBRANCH  14  15
ENDBRANCH  13  14
ENDBRANCH   1  13
TORSDOF 20
ENDMDL
MODEL 2
REMARK VINA RESULT:    -3.566      2.403      5.086
REMARK INTER + INTRA:         -11.370
REMARK INTER:                  -7.513
REMARK INTRA:                  -3.857
REMARK UNBOUND:                -3.635
REMARK SMILES CCCCCCCCCCCCCCCCCCCCCC(=O)[O-]
REMARK SMILES IDX 12 1 11 2 10 3 9 4 8 5 7 6 6 7 5 8 4 9 3 10 2 11 1 12 13 13
REMARK SMILES IDX 14 14 15 15 16 16 17 17 18 18 19 19 20 20 21 21 22 22 23 23
REMARK SMILES IDX 24 24
REMARK H PARENT
REMARK Flexibility Score: inf
ROOT
ATOM      1  C   UNL     1      -3.152  26.435  -1.281  1.00  0.00     0.000 C 
ENDROOT
BRANCH   1   2
ATOM      2  C   UNL     1      -1.987  26.158  -2.247  1.00  0.00     0.000 C 
BRANCH   2   3
ATOM      3  C   UNL     1      -0.905  25.197  -1.713  1.00  0.00     0.000 C 
BRANCH   3   4
ATOM      4  C   UNL     1      -0.840  25.074  -0.177  1.00  0.00    -0.000 C 
BRANCH   4   5
ATOM      5  C   UNL     1      -0.700  23.634   0.351  1.00  0.00    -0.000 C 
BRANCH   5   6
ATOM      6  C   UNL     1      -1.110  22.531  -0.644  1.00  0.00    -0.000 C 
BRANCH   6   7
ATOM      7  C   UNL     1      -2.033  21.442  -0.065  1.00  0.00    -0.000 C 
BRANCH   7   8
ATOM      8  C   UNL     1      -3.387  21.363  -0.785  1.00  0.00    -0.000 C 
BRANCH   8   9
ATOM      9  C   UNL     1      -4.000  22.759  -0.957  1.00  0.00    -0.000 C 
BRANCH   9  10
ATOM     10  C   UNL     1      -4.288  23.055  -2.433  1.00  0.00    -0.000 C 
BRANCH  10  11
ATOM     11  C   UNL     1      -5.780  23.319  -2.660  1.00  0.00    -0.003 C 
ATOM     12  C   UNL     1      -6.204  24.651  -2.046  1.00  0.00     0.004 C 
ENDBRANCH  10  11
ENDBRANCH   9  10
ENDBRANCH   8   9
ENDBRANCH   7   8
ENDBRANCH   6   7
ENDBRANCH   5   6
ENDBRANCH   4   5
ENDBRANCH   3   4
ENDBRANCH   2   3
ENDBRANCH   1   2
BRANCH   1  13
ATOM     13  C   UNL     1      -3.530  27.925  -1.209  1.00  0.00     0.000 C 
BRANCH  13  14
ATOM     14  C   UNL     1      -3.421  28.491   0.216  1.00  0.00     0.000 C 
BRANCH  14  15
ATOM     15  C   UNL     1      -1.992  28.405   0.781  1.00  0.00     0.000 C 
BRANCH  15  16
ATOM     16  C   UNL     1      -1.941  27.682   2.137  1.00  0.00     0.000 C 
BRANCH  16  17
ATOM     17  C   UNL     1      -3.306  27.661   2.847  1.00  0.00     0.000 C 
BRANCH  17  18
ATOM     18  C   UNL     1      -3.680  26.262   3.360  1.00  0.00     0.000 C 
BRANCH  18  19
ATOM     19  C   UNL     1      -3.765  25.223   2.228  1.00  0.00     0.000 C 
BRANCH  19  20
ATOM     20  C   UNL     1      -5.120  25.247   1.497  1.00  0.00     0.006 C 
BRANCH  20  21
ATOM     21  C   UNL     1      -6.313  25.614   2.395  1.00  0.00     0.053 C 
BRANCH  21  22
ATOM     22  C   UNL     1      -7.583  24.971   1.929  1.00  0.00     0.041 C 
ATOM     23  O   UNL     1      -8.698  25.431   2.294  1.00  0.00    -0.550 OA
ATOM     24  O   UNL     1      -7.537  23.886   1.063  1.00  0.00    -0.550 OA
ENDBRANCH  21  22
ENDBRANCH  20  21
ENDBRANCH  19  20
ENDBRANCH  18  19
ENDBRANCH  17  18
ENDBRANCH  16  17
ENDBRANCH  15  16
ENDBRANCH  14  15
ENDBRANCH  13  14
ENDBRANCH   1  13
TORSDOF 20
ENDMDL
MODEL 3
REMARK VINA RESULT:    -3.544      2.495      5.869
REMARK INTER + INTRA:         -11.323
REMARK INTER:                  -8.310
REMARK INTRA:                  -3.014
REMARK UNBOUND:                -3.635
REMARK SMILES CCCCCCCCCCCCCCCCCCCCCC(=O)[O-]
REMARK SMILES IDX 12 1 11 2 10 3 9 4 8 5 7 6 6 7 5 8 4 9 3 10 2 11 1 12 13 13
REMARK SMILES IDX 14 14 15 15 16 16 17 17 18 18 19 19 20 20 21 21 22 22 23 23
REMARK SMILES IDX 24 24
REMARK H PARENT
REMARK Flexibility Score: inf
ROOT
ATOM      1  C   UNL     1      -3.441  30.107   1.762  1.00  0.00     0.000 C 
ENDROOT
BRANCH   1   2
ATOM      2  C   UNL     1      -4.366  29.759   0.582  1.00  0.00     0.000 C 
BRANCH   2   3
ATOM      3  C   UNL     1      -3.646  29.334  -0.714  1.00  0.00     0.000 C 
BRANCH   3   4
ATOM      4  C   UNL     1      -4.457  28.404  -1.638  1.00  0.00    -0.000 C 
BRANCH   4   5
ATOM      5  C   UNL     1      -5.351  27.383  -0.906  1.00  0.00    -0.000 C 
BRANCH   5   6
ATOM      6  C   UNL     1      -4.771  25.958  -0.810  1.00  0.00    -0.000 C 
BRANCH   6   7
ATOM      7  C   UNL     1      -3.403  25.765  -1.491  1.00  0.00    -0.000 C 
BRANCH   7   8
ATOM      8  C   UNL     1      -3.021  24.287  -1.655  1.00  0.00    -0.000 C 
BRANCH   8   9
ATOM      9  C   UNL     1      -2.713  23.646  -0.296  1.00  0.00    -0.000 C 
BRANCH   9  10
ATOM     10  C   UNL     1      -3.719  22.536   0.030  1.00  0.00    -0.000 C 
BRANCH  10  11
ATOM     11  C   UNL     1      -3.095  21.151  -0.173  1.00  0.00    -0.003 C 
ATOM     12  C   UNL     1      -1.602  21.257  -0.471  1.00  0.00     0.004 C 
ENDBRANCH  10  11
ENDBRANCH   9  10
ENDBRANCH   8   9
ENDBRANCH   7   8
ENDBRANCH   6   7
ENDBRANCH   5   6
ENDBRANCH   4   5
ENDBRANCH   3   4
ENDBRANCH   2   3
ENDBRANCH   1   2
BRANCH   1  13
ATOM     13  C   UNL     1      -1.955  29.851   1.453  1.00  0.00     0.000 C 
BRANCH  13  14
ATOM     14  C   UNL     1      -1.319  28.841   2.421  1.00  0.00     0.000 C 
BRANCH  14  15
ATOM     15  C   UNL     1      -2.343  27.849   3.001  1.00  0.00     0.000 C 
BRANCH  15  16
ATOM     16  C   UNL     1      -2.492  26.587   2.137  1.00  0.00     0.000 C 
BRANCH  16  17
ATOM     17  C   UNL     1      -3.576  25.632   2.670  1.00  0.00     0.000 C 
BRANCH  17  18
ATOM     18  C   UNL     1      -4.662  26.364   3.472  1.00  0.00     0.000 C 
BRANCH  18  19
ATOM     19  C   UNL     1      -5.918  26.656   2.633  1.00  0.00     0.000 C 
BRANCH  19  20
ATOM     20  C   UNL     1      -7.221  26.275   3.360  1.00  0.00     0.006 C 
BRANCH  20  21
ATOM     21  C   UNL     1      -8.224  25.501   2.490  1.00  0.00     0.053 C 
BRANCH  21  22
ATOM     22  C   UNL     1      -7.537  24.606   1.504  1.00  0.00     0.041 C 
ATOM     23  O   UNL     1      -6.809  23.659   1.907  1.00  0.00    -0.550 OA
ATOM     24  O   UNL     1      -7.729  24.794   0.142  1.00  0.00    -0.550 OA
ENDBRANCH  21  22
ENDBRANCH  20  21
ENDBRANCH  19  20
ENDBRANCH  18  19
ENDBRANCH  17  18
ENDBRANCH  16  17
ENDBRANCH  15  16
ENDBRANCH  14  15
ENDBRANCH  13  14
ENDBRANCH   1  13
TORSDOF 20
ENDMDL
MODEL 4
REMARK VINA RESULT:    -3.536      3.189      6.798
REMARK INTER + INTRA:         -11.305
REMARK INTER:                  -7.384
REMARK INTRA:                  -3.921
REMARK UNBOUND:                -3.635
REMARK SMILES CCCCCCCCCCCCCCCCCCCCCC(=O)[O-]
REMARK SMILES IDX 12 1 11 2 10 3 9 4 8 5 7 6 6 7 5 8 4 9 3 10 2 11 1 12 13 13
REMARK SMILES IDX 14 14 15 15 16 16 17 17 18 18 19 19 20 20 21 21 22 22 23 23
REMARK SMILES IDX 24 24
REMARK H PARENT
REMARK Flexibility Score: inf
ROOT
ATOM      1  C   UNL     1      -5.210  28.724   0.787  1.00  0.00     0.000 C 
ENDROOT
BRANCH   1   2
ATOM      2  C   UNL     1      -5.266  30.199   0.351  1.00  0.00     0.000 C 
BRANCH   2   3
ATOM      3  C   UNL     1      -4.109  31.079   0.865  1.00  0.00     0.000 C 
BRANCH   3   4
ATOM      4  C   UNL     1      -2.695  30.539   0.570  1.00  0.00    -0.000 C 
BRANCH   4   5
ATOM      5  C   UNL     1      -1.871  31.387  -0.418  1.00  0.00    -0.000 C 
BRANCH   5   6
ATOM      6  C   UNL     1      -2.233  31.194  -1.904  1.00  0.00    -0.000 C 
BRANCH   6   7
ATOM      7  C   UNL     1      -2.606  29.754  -2.301  1.00  0.00    -0.000 C 
BRANCH   7   8
ATOM      8  C   UNL     1      -3.494  29.691  -3.553  1.00  0.00    -0.000 C 
BRANCH   8   9
ATOM      9  C   UNL     1      -4.961  29.967  -3.200  1.00  0.00    -0.000 C 
BRANCH   9  10
ATOM     10  C   UNL     1      -5.403  31.340  -3.719  1.00  0.00    -0.000 C 
BRANCH  10  11
ATOM     11  C   UNL     1      -6.194  32.103  -2.651  1.00  0.00    -0.003 C 
ATOM     12  C   UNL     1      -5.328  33.162  -1.974  1.00  0.00     0.004 C 
ENDBRANCH  10  11
ENDBRANCH   9  10
ENDBRANCH   8   9
ENDBRANCH   7   8
ENDBRANCH   6   7
ENDBRANCH   5   6
ENDBRANCH   4   5
ENDBRANCH   3   4
ENDBRANCH   2   3
ENDBRANCH   1   2
BRANCH   1  13
ATOM     13  C   UNL     1      -5.227  27.748  -0.403  1.00  0.00     0.000 C 
BRANCH  13  14
ATOM     14  C   UNL     1      -4.102  26.703  -0.321  1.00  0.00     0.000 C 
BRANCH  14  15
ATOM     15  C   UNL     1      -3.056  27.040   0.755  1.00  0.00     0.000 C 
BRANCH  15  16
ATOM     16  C   UNL     1      -2.615  25.802   1.553  1.00  0.00     0.000 C 
BRANCH  16  17
ATOM     17  C   UNL     1      -3.725  25.272   2.479  1.00  0.00     0.000 C 
BRANCH  17  18
ATOM     18  C   UNL     1      -4.270  26.354   3.423  1.00  0.00     0.000 C 
BRANCH  18  19
ATOM     19  C   UNL     1      -5.802  26.304   3.554  1.00  0.00     0.000 C 
BRANCH  19  20
ATOM     20  C   UNL     1      -6.422  25.095   2.828  1.00  0.00     0.006 C 
BRANCH  20  21
ATOM     21  C   UNL     1      -7.342  25.468   1.656  1.00  0.00     0.053 C 
BRANCH  21  22
ATOM     22  C   UNL     1      -7.411  24.380   0.629  1.00  0.00     0.041 C 
ATOM     23  O   UNL     1      -8.503  23.795   0.397  1.00  0.00    -0.550 OA
ATOM     24  O   UNL     1      -6.279  24.035  -0.097  1.00  0.00    -0.550 OA
ENDBRANCH  21  22
ENDBRANCH  20  21
ENDBRANCH  19  20
ENDBRANCH  18  19
ENDBRANCH  17  18
ENDBRANCH  16  17
ENDBRANCH  15  16
ENDBRANCH  14  15
ENDBRANCH  13  14
ENDBRANCH   1  13
TORSDOF 20
ENDMDL
MODEL 5
REMARK VINA RESULT:    -3.535      2.513      4.921
REMARK INTER + INTRA:         -11.304
REMARK INTER:                  -8.052
REMARK INTRA:                  -3.252
REMARK UNBOUND:                -3.635
REMARK SMILES CCCCCCCCCCCCCCCCCCCCCC(=O)[O-]
REMARK SMILES IDX 12 1 11 2 10 3 9 4 8 5 7 6 6 7 5 8 4 9 3 10 2 11 1 12 13 13
REMARK SMILES IDX 14 14 15 15 16 16 17 17 18 18 19 19 20 20 21 21 22 22 23 23
REMARK SMILES IDX 24 24
REMARK H PARENT
REMARK Flexibility Score: inf
ROOT
ATOM      1  C   UNL     1      -1.263  21.885  -1.376  1.00  0.00     0.000 C 
ENDROOT
BRANCH   1   2
ATOM      2  C   UNL     1      -0.131  22.888  -1.091  1.00  0.00     0.000 C 
BRANCH   2   3
ATOM      3  C   UNL     1      -0.366  23.818   0.117  1.00  0.00     0.000 C 
BRANCH   3   4
ATOM      4  C   UNL     1      -0.897  25.222  -0.232  1.00  0.00    -0.000 C 
BRANCH   4   5
ATOM      5  C   UNL     1      -1.614  25.948   0.922  1.00  0.00    -0.000 C 
BRANCH   5   6
ATOM      6  C   UNL     1      -2.693  26.960   0.487  1.00  0.00    -0.000 C 
BRANCH   6   7
ATOM      7  C   UNL     1      -2.807  28.212   1.376  1.00  0.00    -0.000 C 
BRANCH   7   8
ATOM      8  C   UNL     1      -3.409  29.416   0.637  1.00  0.00    -0.000 C 
BRANCH   8   9
ATOM      9  C   UNL     1      -4.942  29.383   0.692  1.00  0.00    -0.000 C 
BRANCH   9  10
ATOM     10  C   UNL     1      -5.548  29.688  -0.683  1.00  0.00    -0.000 C 
BRANCH  10  11
ATOM     11  C   UNL     1      -5.006  28.729  -1.748  1.00  0.00    -0.003 C 
ATOM     12  C   UNL     1      -5.857  27.465  -1.837  1.00  0.00     0.004 C 
ENDBRANCH  10  11
ENDBRANCH   9  10
ENDBRANCH   8   9
ENDBRANCH   7   8
ENDBRANCH   6   7
ENDBRANCH   5   6
ENDBRANCH   4   5
ENDBRANCH   3   4
ENDBRANCH   2   3
ENDBRANCH   1   2
BRANCH   1  13
ATOM     13  C   UNL     1      -1.935  21.361  -0.094  1.00  0.00     0.000 C 
BRANCH  13  14
ATOM     14  C   UNL     1      -3.427  21.724  -0.022  1.00  0.00     0.000 C 
BRANCH  14  15
ATOM     15  C   UNL     1      -3.796  22.902  -0.940  1.00  0.00     0.000 C 
BRANCH  15  16
ATOM     16  C   UNL     1      -4.659  23.955  -0.225  1.00  0.00     0.000 C 
BRANCH  16  17
ATOM     17  C   UNL     1      -4.874  23.629   1.264  1.00  0.00     0.000 C 
BRANCH  17  18
ATOM     18  C   UNL     1      -5.120  24.886   2.112  1.00  0.00     0.000 C 
BRANCH  18  19
ATOM     19  C   UNL     1      -6.121  25.852   1.454  1.00  0.00     0.000 C 
BRANCH  19  20
ATOM     20  C   UNL     1      -6.889  26.704   2.482  1.00  0.00     0.006 C 
BRANCH  20  21
ATOM     21  C   UNL     1      -7.808  25.895   3.410  1.00  0.00     0.053 C 
BRANCH  21  22
ATOM     22  C   UNL     1      -7.359  25.960   4.839  1.00  0.00     0.041 C 
ATOM     23  O   UNL     1      -6.219  26.413   5.125  1.00  0.00    -0.550 OA
ATOM     24  O   UNL     1      -8.214  25.554   5.855  1.00  0.00    -0.550 OA
ENDBRANCH  21  22
ENDBRANCH  20  21
ENDBRANCH  19  20
ENDBRANCH  18  19
ENDBRANCH  17  18
ENDBRANCH  16  17
ENDBRANCH  15  16
ENDBRANCH  14  15
ENDBRANCH  13  14
ENDBRANCH   1  13
TORSDOF 20
ENDMDL
MODEL 6
REMARK VINA RESULT:    -3.524      1.438      2.926
REMARK INTER + INTRA:         -11.280
REMARK INTER:                  -7.997
REMARK INTRA:                  -3.284
REMARK UNBOUND:                -3.635
REMARK SMILES CCCCCCCCCCCCCCCCCCCCCC(=O)[O-]
REMARK SMILES IDX 12 1 11 2 10 3 9 4 8 5 7 6 6 7 5 8 4 9 3 10 2 11 1 12 13 13
REMARK SMILES IDX 14 14 15 15 16 16 17 17 18 18 19 19 20 20 21 21 22 22 23 23
REMARK SMILES IDX 24 24
REMARK H PARENT
REMARK Flexibility Score: inf
ROOT
ATOM      1  C   UNL     1      -1.162  25.512  -1.419  1.00  0.00     0.000 C 
ENDROOT
BRANCH   1   2
ATOM      2  C   UNL     1      -0.354  24.689  -0.399  1.00  0.00     0.000 C 
BRANCH   2   3
ATOM      3  C   UNL     1      -1.173  23.674   0.422  1.00  0.00     0.000 C 
BRANCH   3   4
ATOM      4  C   UNL     1      -1.527  22.368  -0.317  1.00  0.00    -0.000 C 
BRANCH   4   5
ATOM      5  C   UNL     1      -3.035  22.067  -0.413  1.00  0.00    -0.000 C 
BRANCH   5   6
ATOM      6  C   UNL     1      -3.936  22.956   0.468  1.00  0.00    -0.000 C 
BRANCH   6   7
ATOM      7  C   UNL     1      -4.862  23.913  -0.305  1.00  0.00    -0.000 C 
BRANCH   7   8
ATOM      8  C   UNL     1      -5.483  24.995   0.590  1.00  0.00    -0.000 C 
BRANCH   8   9
ATOM      9  C   UNL     1      -4.958  24.887   2.027  1.00  0.00    -0.000 C 
BRANCH   9  10
ATOM     10  C   UNL     1      -5.720  25.831   2.963  1.00  0.00    -0.000 C 
BRANCH  10  11
ATOM     11  C   UNL     1      -7.050  26.268   2.341  1.00  0.00    -0.003 C 
ATOM     12  C   UNL     1      -8.234  25.804   3.186  1.00  0.00     0.004 C 
ENDBRANCH  10  11
ENDBRANCH   9  10
ENDBRANCH   8   9
ENDBRANCH   7   8
ENDBRANCH   6   7
ENDBRANCH   5   6
ENDBRANCH   4   5
ENDBRANCH   3   4
ENDBRANCH   2   3
ENDBRANCH   1   2
BRANCH   1  13
ATOM     13  C   UNL     1      -2.299  26.321  -0.770  1.00  0.00     0.000 C 
BRANCH  13  14
ATOM     14  C   UNL     1      -1.775  27.436   0.148  1.00  0.00     0.000 C 
BRANCH  14  15
ATOM     15  C   UNL     1      -2.039  27.152   1.638  1.00  0.00     0.000 C 
BRANCH  15  16
ATOM     16  C   UNL     1      -3.072  28.116   2.245  1.00  0.00     0.000 C 
BRANCH  16  17
ATOM     17  C   UNL     1      -3.598  29.138   1.221  1.00  0.00     0.000 C 
BRANCH  17  18
ATOM     18  C   UNL     1      -5.043  28.847   0.788  1.00  0.00     0.000 C 
BRANCH  18  19
ATOM     19  C   UNL     1      -5.282  29.143  -0.703  1.00  0.00     0.000 C 
BRANCH  19  20
ATOM     20  C   UNL     1      -4.978  30.605  -1.075  1.00  0.00     0.006 C 
BRANCH  20  21
ATOM     21  C   UNL     1      -5.907  31.632  -0.408  1.00  0.00     0.053 C 
BRANCH  21  22
ATOM     22  C   UNL     1      -7.157  31.855  -1.202  1.00  0.00     0.041 C 
ATOM     23  O   UNL     1      -8.195  31.185  -0.953  1.00  0.00    -0.550 OA
ATOM     24  O   UNL     1      -7.187  32.827  -2.193  1.00  0.00    -0.550 OA
ENDBRANCH  21  22
ENDBRANCH  20  21
ENDBRANCH  19  20
ENDBRANCH  18  19
ENDBRANCH  17  18
ENDBRANCH  16  17
ENDBRANCH  15  16
ENDBRANCH  14  15
ENDBRANCH  13  14
ENDBRANCH   1  13
TORSDOF 20
ENDMDL
MODEL 7
REMARK VINA RESULT:    -3.504      2.062      4.185
REMARK INTER + INTRA:         -11.235
REMARK INTER:                  -8.132
REMARK INTRA:                  -3.103
REMARK UNBOUND:                -3.635
REMARK SMILES CCCCCCCCCCCCCCCCCCCCCC(=O)[O-]
REMARK SMILES IDX 12 1 11 2 10 3 9 4 8 5 7 6 6 7 5 8 4 9 3 10 2 11 1 12 13 13
REMARK SMILES IDX 14 14 15 15 16 16 17 17 18 18 19 19 20 20 21 21 22 22 23 23
REMARK SMILES IDX 24 24
REMARK H PARENT
REMARK Flexibility Score: inf
ROOT
ATOM      1  C   UNL     1      -1.749  30.517   1.608  1.00  0.00     0.000 C 
ENDROOT
BRANCH   1   2
ATOM      2  C   UNL     1      -2.676  30.128   2.774  1.00  0.00     0.000 C 
BRANCH   2   3
ATOM      3  C   UNL     1      -2.227  28.897   3.586  1.00  0.00     0.000 C 
BRANCH   3   4
ATOM      4  C   UNL     1      -3.113  27.646   3.423  1.00  0.00    -0.000 C 
BRANCH   4   5
ATOM      5  C   UNL     1      -3.408  27.248   1.963  1.00  0.00    -0.000 C 
BRANCH   5   6
ATOM      6  C   UNL     1      -3.020  25.804   1.589  1.00  0.00    -0.000 C 
BRANCH   6   7
ATOM      7  C   UNL     1      -3.966  25.114   0.589  1.00  0.00    -0.000 C 
BRANCH   7   8
ATOM      8  C   UNL     1      -4.446  23.738   1.074  1.00  0.00    -0.000 C 
BRANCH   8   9
ATOM      9  C   UNL     1      -5.718  23.868   1.920  1.00  0.00    -0.000 C 
BRANCH   9  10
ATOM     10  C   UNL     1      -6.793  24.670   1.178  1.00  0.00    -0.000 C 
BRANCH  10  11
ATOM     11  C   UNL     1      -7.850  25.204   2.151  1.00  0.00    -0.003 C 
ATOM     12  C   UNL     1      -7.398  26.513   2.792  1.00  0.00     0.004 C 
ENDBRANCH  10  11
ENDBRANCH   9  10
ENDBRANCH   8   9
ENDBRANCH   7   8
ENDBRANCH   6   7
ENDBRANCH   5   6
ENDBRANCH   4   5
ENDBRANCH   3   4
ENDBRANCH   2   3
ENDBRANCH   1   2
BRANCH   1  13
ATOM     13  C   UNL     1      -0.336  29.922   1.742  1.00  0.00     0.000 C 
BRANCH  13  14
ATOM     14  C   UNL     1       0.232  29.449   0.395  1.00  0.00     0.000 C 
BRANCH  14  15
ATOM     15  C   UNL     1      -0.566  28.280  -0.210  1.00  0.00     0.000 C 
BRANCH  15  16
ATOM     16  C   UNL     1      -1.386  28.704  -1.439  1.00  0.00     0.000 C 
BRANCH  16  17
ATOM     17  C   UNL     1      -2.730  27.959  -1.535  1.00  0.00     0.000 C 
BRANCH  17  18
ATOM     18  C   UNL     1      -3.789  28.756  -2.312  1.00  0.00     0.000 C 
BRANCH  18  19
ATOM     19  C   UNL     1      -4.137  30.091  -1.631  1.00  0.00     0.000 C 
BRANCH  19  20
ATOM     20  C   UNL     1      -4.943  29.905  -0.332  1.00  0.00     0.006 C 
BRANCH  20  21
ATOM     21  C   UNL     1      -5.461  31.215   0.282  1.00  0.00     0.053 C 
BRANCH  21  22
ATOM     22  C   UNL     1      -6.836  31.556  -0.204  1.00  0.00     0.041 C 
ATOM     23  O   UNL     1      -7.037  31.790  -1.426  1.00  0.00    -0.550 OA
ATOM     24  O   UNL     1      -7.902  31.583   0.686  1.00  0.00    -0.550 OA
ENDBRANCH  21  22
ENDBRANCH  20  21
ENDBRANCH  19  20
ENDBRANCH  18  19
ENDBRANCH  17  18
ENDBRANCH  16  17
ENDBRANCH  15  16
ENDBRANCH  14  15
ENDBRANCH  13  14
ENDBRANCH   1  13
TORSDOF 20
ENDMDL
MODEL 8
REMARK VINA RESULT:    -3.502      1.724      4.530
REMARK INTER + INTRA:         -11.232
REMARK INTER:                  -7.386
REMARK INTRA:                  -3.846
REMARK UNBOUND:                -3.635
REMARK SMILES CCCCCCCCCCCCCCCCCCCCCC(=O)[O-]
REMARK SMILES IDX 12 1 11 2 10 3 9 4 8 5 7 6 6 7 5 8 4 9 3 10 2 11 1 12 13 13
REMARK SMILES IDX 14 14 15 15 16 16 17 17 18 18 19 19 20 20 21 21 22 22 23 23
REMARK SMILES IDX 24 24
REMARK H PARENT
REMARK Flexibility Score: inf
ROOT
ATOM      1  C   UNL     1      -3.289  28.402   2.253  1.00  0.00     0.000 C 
ENDROOT
BRANCH   1   2
ATOM      2  C   UNL     1      -2.488  27.139   2.618  1.00  0.00     0.000 C 
BRANCH   2   3
ATOM      3  C   UNL     1      -3.338  25.915   3.015  1.00  0.00     0.000 C 
BRANCH   3   4
ATOM      4  C   UNL     1      -4.769  26.237   3.488  1.00  0.00    -0.000 C 
BRANCH   4   5
ATOM      5  C   UNL     1      -5.889  25.655   2.605  1.00  0.00    -0.000 C 
BRANCH   5   6
ATOM      6  C   UNL     1      -5.429  25.122   1.234  1.00  0.00    -0.000 C 
BRANCH   6   7
ATOM      7  C   UNL     1      -5.862  25.973   0.026  1.00  0.00    -0.000 C 
BRANCH   7   8
ATOM      8  C   UNL     1      -4.690  26.722  -0.627  1.00  0.00    -0.000 C 
BRANCH   8   9
ATOM      9  C   UNL     1      -3.604  25.744  -1.091  1.00  0.00    -0.000 C 
BRANCH   9  10
ATOM     10  C   UNL     1      -2.204  26.304  -0.814  1.00  0.00    -0.000 C 
BRANCH  10  11
ATOM     11  C   UNL     1      -1.162  25.181  -0.768  1.00  0.00    -0.003 C 
ATOM     12  C   UNL     1      -1.484  24.175   0.334  1.00  0.00     0.004 C 
ENDBRANCH  10  11
ENDBRANCH   9  10
ENDBRANCH   8   9
ENDBRANCH   7   8
ENDBRANCH   6   7
ENDBRANCH   5   6
ENDBRANCH   4   5
ENDBRANCH   3   4
ENDBRANCH   2   3
ENDBRANCH   1   2
BRANCH   1  13
ATOM     13  C   UNL     1      -2.665  29.691   2.815  1.00  0.00     0.000 C 
BRANCH  13  14
ATOM     14  C   UNL     1      -1.133  29.611   2.908  1.00  0.00     0.000 C 
BRANCH  14  15
ATOM     15  C   UNL     1      -0.429  30.446   1.824  1.00  0.00     0.000 C 
BRANCH  15  16
ATOM     16  C   UNL     1      -0.193  29.649   0.530  1.00  0.00     0.000 C 
BRANCH  16  17
ATOM     17  C   UNL     1      -0.833  30.319  -0.699  1.00  0.00     0.000 C 
BRANCH  17  18
ATOM     18  C   UNL     1      -2.261  29.819  -0.964  1.00  0.00     0.000 C 
BRANCH  18  19
ATOM     19  C   UNL     1      -3.302  30.951  -0.899  1.00  0.00     0.000 C 
BRANCH  19  20
ATOM     20  C   UNL     1      -4.733  30.429  -0.672  1.00  0.00     0.006 C 
BRANCH  20  21
ATOM     21  C   UNL     1      -5.529  31.213   0.384  1.00  0.00     0.053 C 
BRANCH  21  22
ATOM     22  C   UNL     1      -6.906  31.560  -0.095  1.00  0.00     0.041 C 
ATOM     23  O   UNL     1      -7.878  31.549   0.707  1.00  0.00    -0.550 OA
ATOM     24  O   UNL     1      -7.110  31.928  -1.418  1.00  0.00    -0.550 OA
ENDBRANCH  21  22
ENDBRANCH  20  21
ENDBRANCH  19  20
ENDBRANCH  18  19
ENDBRANCH  17  18
ENDBRANCH  16  17
ENDBRANCH  15  16
ENDBRANCH  14  15
ENDBRANCH  13  14
ENDBRANCH   1  13
TORSDOF 20
ENDMDL
MODEL 9
REMARK VINA RESULT:    -3.496      1.381      2.382
REMARK INTER + INTRA:         -11.218
REMARK INTER:                  -8.877
REMARK INTRA:                  -2.342
REMARK UNBOUND:                -3.635
REMARK SMILES CCCCCCCCCCCCCCCCCCCCCC(=O)[O-]
REMARK SMILES IDX 12 1 11 2 10 3 9 4 8 5 7 6 6 7 5 8 4 9 3 10 2 11 1 12 13 13
REMARK SMILES IDX 14 14 15 15 16 16 17 17 18 18 19 19 20 20 21 21 22 22 23 23
REMARK SMILES IDX 24 24
REMARK H PARENT
REMARK Flexibility Score: inf
ROOT
ATOM      1  C   UNL     1      -0.058  24.259  -0.786  1.00  0.00     0.000 C 
ENDROOT
BRANCH   1   2
ATOM      2  C   UNL     1      -0.842  23.618   0.373  1.00  0.00     0.000 C 
BRANCH   2   3
ATOM      3  C   UNL     1      -1.884  22.561  -0.046  1.00  0.00     0.000 C 
BRANCH   3   4
ATOM      4  C   UNL     1      -3.247  23.127  -0.492  1.00  0.00    -0.000 C 
BRANCH   4   5
ATOM      5  C   UNL     1      -4.305  23.221   0.624  1.00  0.00    -0.000 C 
BRANCH   5   6
ATOM      6  C   UNL     1      -4.438  24.608   1.283  1.00  0.00    -0.000 C 
BRANCH   6   7
ATOM      7  C   UNL     1      -5.545  25.504   0.697  1.00  0.00    -0.000 C 
BRANCH   7   8
ATOM      8  C   UNL     1      -6.071  26.537   1.704  1.00  0.00    -0.000 C 
BRANCH   8   9
ATOM      9  C   UNL     1      -5.817  26.078   3.145  1.00  0.00    -0.000 C 
BRANCH   9  10
ATOM     10  C   UNL     1      -7.132  25.723   3.849  1.00  0.00    -0.000 C 
BRANCH  10  11
ATOM     11  C   UNL     1      -7.192  26.347   5.248  1.00  0.00    -0.003 C 
ATOM     12  C   UNL     1      -7.637  25.323   6.289  1.00  0.00     0.004 C 
ENDBRANCH  10  11
ENDBRANCH   9  10
ENDBRANCH   8   9
ENDBRANCH   7   8
ENDBRANCH   6   7
ENDBRANCH   5   6
ENDBRANCH   4   5
ENDBRANCH   3   4
ENDBRANCH   2   3
ENDBRANCH   1   2
BRANCH   1  13
ATOM     13  C   UNL     1      -0.216  25.789  -0.841  1.00  0.00     0.000 C 
BRANCH  13  14
ATOM     14  C   UNL     1      -1.552  26.264  -0.248  1.00  0.00     0.000 C 
BRANCH  14  15
ATOM     15  C   UNL     1      -1.381  27.428   0.744  1.00  0.00     0.000 C 
BRANCH  15  16
ATOM     16  C   UNL     1      -2.270  27.272   1.989  1.00  0.00     0.000 C 
BRANCH  16  17
ATOM     17  C   UNL     1      -2.818  28.619   2.494  1.00  0.00     0.000 C 
BRANCH  17  18
ATOM     18  C   UNL     1      -3.779  29.276   1.491  1.00  0.00     0.000 C 
BRANCH  18  19
ATOM     19  C   UNL     1      -3.593  30.801   1.410  1.00  0.00     0.000 C 
BRANCH  19  20
ATOM     20  C   UNL     1      -4.583  31.470   0.439  1.00  0.00     0.006 C 
BRANCH  20  21
ATOM     21  C   UNL     1      -5.788  30.593   0.064  1.00  0.00     0.053 C 
BRANCH  21  22
ATOM     22  C   UNL     1      -7.036  31.403  -0.114  1.00  0.00     0.041 C 
ATOM     23  O   UNL     1      -7.242  32.023  -1.191  1.00  0.00    -0.550 OA
ATOM     24  O   UNL     1      -7.989  31.444   0.896  1.00  0.00    -0.550 OA
ENDBRANCH  21  22
ENDBRANCH  20  21
ENDBRANCH  19  20
ENDBRANCH  18  19
ENDBRANCH  17  18
ENDBRANCH  16  17
ENDBRANCH  15  16
ENDBRANCH  14  15
ENDBRANCH  13  14
ENDBRANCH   1  13
TORSDOF 20
ENDMDL
