MODEL 1
REMARK VINA RESULT:    -4.302      0.000      0.000
REMARK INTER + INTRA:         -10.566
REMARK INTER:                  -8.075
REMARK INTRA:                  -2.492
REMARK UNBOUND:                -2.492
REMARK SMILES CCCCCCCCC=CCCCCCCCC(=O)[O-]
REMARK SMILES IDX 10 1 9 2 11 3 12 4 13 5 14 6 15 7 16 8 17 9 18 10 19 11
REMARK SMILES IDX 20 12 8 13 7 14 6 15 5 16 4 17 3 18 2 19 1 20
REMARK H PARENT
REMARK Flexibility Score: inf
ROOT
ATOM      1  C   UNL     1     128.473 122.466 140.543  1.00  0.00    -0.031 C 
ATOM      2  C   UNL     1     129.466 122.195 141.405  1.00  0.00    -0.031 C 
ENDROOT
BRANCH   1   3
ATOM      3  C   UNL     1     127.034 122.478 140.978  1.00  0.00     0.027 C 
BRANCH   3   4
ATOM      4  C   UNL     1     126.150 121.714 139.982  1.00  0.00     0.004 C 
BRANCH   4   5
ATOM      5  C   UNL     1     126.455 122.075 138.520  1.00  0.00     0.000 C 
BRANCH   5   6
ATOM      6  C   UNL     1     126.288 120.877 137.570  1.00  0.00     0.000 C 
BRANCH   6   7
ATOM      7  C   UNL     1     126.040 121.307 136.114  1.00  0.00     0.000 C 
BRANCH   7   8
ATOM      8  C   UNL     1     126.623 122.693 135.798  1.00  0.00     0.006 C 
BRANCH   8   9
ATOM      9  C   UNL     1     125.720 123.457 134.824  1.00  0.00     0.053 C 
BRANCH   9  10
ATOM     10  C   UNL     1     126.421 123.676 133.521  1.00  0.00     0.041 C 
ATOM     11  O   UNL     1     125.795 123.549 132.436  1.00  0.00    -0.550 OA
ATOM     12  O   UNL     1     127.753 124.067 133.506  1.00  0.00    -0.550 OA
ENDBRANCH   9  10
ENDBRANCH   8   9
ENDBRANCH   7   8
ENDBRANCH   6   7
ENDBRANCH   5   6
ENDBRANCH   4   5
ENDBRANCH   3   4
ENDBRANCH   1   3
BRANCH   2  13
ATOM     13  C   UNL     1     130.906 122.201 140.974  1.00  0.00     0.027 C 
BRANCH  13  14
ATOM     14  C   UNL     1     131.038 122.581 139.493  1.00  0.00     0.004 C 
BRANCH  14  15
ATOM     15  C   UNL     1     131.958 121.628 138.711  1.00  0.00     0.000 C 
BRANCH  15  16
ATOM     16  C   UNL     1     131.378 120.207 138.547  1.00  0.00     0.000 C 
BRANCH  16  17
ATOM     17  C   UNL     1     129.899 120.228 138.130  1.00  0.00    -0.000 C 
BRANCH  17  18
ATOM     18  C   UNL     1     129.147 119.021 138.704  1.00  0.00    -0.000 C 
BRANCH  18  19
ATOM     19  C   UNL     1     129.400 118.883 140.210  1.00  0.00    -0.003 C 
ATOM     20  C   UNL     1     128.105 118.585 140.961  1.00  0.00     0.004 C 
ENDBRANCH  18  19
ENDBRANCH  17  18
ENDBRANCH  16  17
ENDBRANCH  15  16
ENDBRANCH  14  15
ENDBRANCH  13  14
ENDBRANCH   2  13
TORSDOF 15
ENDMDL
MODEL 2
REMARK VINA RESULT:    -4.151      3.133      6.428
REMARK INTER + INTRA:         -10.283
REMARK INTER:                  -8.440
REMARK INTRA:                  -1.842
REMARK UNBOUND:                -2.492
REMARK SMILES CCCCCCCCC=CCCCCCCCC(=O)[O-]
REMARK SMILES IDX 10 1 9 2 11 3 12 4 13 5 14 6 15 7 16 8 17 9 18 10 19 11
REMARK SMILES IDX 20 12 8 13 7 14 6 15 5 16 4 17 3 18 2 19 1 20
REMARK H PARENT
REMARK Flexibility Score: inf
ROOT
ATOM      1  C   UNL     1     127.163 121.046 140.454  1.00  0.00    -0.031 C 
ATOM      2  C   UNL     1     126.714 121.374 139.232  1.00  0.00    -0.031 C 
ENDROOT
BRANCH   1   3
ATOM      3  C   UNL     1     127.430 119.617 140.838  1.00  0.00     0.027 C 
BRANCH   3   4
ATOM      4  C   UNL     1     127.908 118.801 139.627  1.00  0.00     0.004 C 
BRANCH   4   5
ATOM      5  C   UNL     1     129.342 118.276 139.795  1.00  0.00     0.000 C 
BRANCH   5   6
ATOM      6  C   UNL     1     130.402 119.336 139.452  1.00  0.00     0.000 C 
BRANCH   6   7
ATOM      7  C   UNL     1     130.074 120.102 138.159  1.00  0.00     0.000 C 
BRANCH   7   8
ATOM      8  C   UNL     1     130.279 121.618 138.301  1.00  0.00     0.006 C 
BRANCH   8   9
ATOM      9  C   UNL     1     131.758 121.952 138.528  1.00  0.00     0.053 C 
BRANCH   9  10
ATOM     10  C   UNL     1     131.921 122.810 139.741  1.00  0.00     0.041 C 
ATOM     11  O   UNL     1     131.310 122.526 140.805  1.00  0.00    -0.550 OA
ATOM     12  O   UNL     1     132.785 123.897 139.713  1.00  0.00    -0.550 OA
ENDBRANCH   9  10
ENDBRANCH   8   9
ENDBRANCH   7   8
ENDBRANCH   6   7
ENDBRANCH   5   6
ENDBRANCH   4   5
ENDBRANCH   3   4
ENDBRANCH   1   3
BRANCH   2  13
ATOM     13  C   UNL     1     126.465 122.804 138.842  1.00  0.00     0.027 C 
BRANCH  13  14
ATOM     14  C   UNL     1     125.856 122.896 137.436  1.00  0.00     0.004 C 
BRANCH  14  15
ATOM     15  C   UNL     1     126.534 121.953 136.428  1.00  0.00     0.000 C 
BRANCH  15  16
ATOM     16  C   UNL     1     125.725 121.755 135.129  1.00  0.00     0.000 C 
BRANCH  16  17
ATOM     17  C   UNL     1     124.724 122.896 134.888  1.00  0.00    -0.000 C 
BRANCH  17  18
ATOM     18  C   UNL     1     125.133 123.742 133.676  1.00  0.00    -0.000 C 
BRANCH  18  19
ATOM     19  C   UNL     1     126.454 123.244 133.079  1.00  0.00    -0.003 C 
ATOM     20  C   UNL     1     127.598 124.203 133.396  1.00  0.00     0.004 C 
ENDBRANCH  18  19
ENDBRANCH  17  18
ENDBRANCH  16  17
ENDBRANCH  15  16
ENDBRANCH  14  15
ENDBRANCH  13  14
ENDBRANCH   2  13
TORSDOF 15
ENDMDL
MODEL 3
REMARK VINA RESULT:    -4.101      1.048      2.830
REMARK INTER + INTRA:         -10.189
REMARK INTER:                  -7.911
REMARK INTRA:                  -2.278
REMARK UNBOUND:                -2.492
REMARK SMILES CCCCCCCCC=CCCCCCCCC(=O)[O-]
REMARK SMILES IDX 10 1 9 2 11 3 12 4 13 5 14 6 15 7 16 8 17 9 18 10 19 11
REMARK SMILES IDX 20 12 8 13 7 14 6 15 5 16 4 17 3 18 2 19 1 20
REMARK H PARENT
REMARK Flexibility Score: inf
ROOT
ATOM      1  C   UNL     1     127.741 119.792 141.010  1.00  0.00    -0.031 C 
ATOM      2  C   UNL     1     127.530 118.744 140.197  1.00  0.00    -0.031 C 
ENDROOT
BRANCH   1   3
ATOM      3  C   UNL     1     126.602 120.509 141.680  1.00  0.00     0.027 C 
BRANCH   3   4
ATOM      4  C   UNL     1     126.543 121.981 141.242  1.00  0.00     0.004 C 
BRANCH   4   5
ATOM      5  C   UNL     1     126.961 122.181 139.778  1.00  0.00     0.000 C 
BRANCH   5   6
ATOM      6  C   UNL     1     125.850 121.789 138.789  1.00  0.00     0.000 C 
BRANCH   6   7
ATOM      7  C   UNL     1     126.405 121.254 137.458  1.00  0.00     0.000 C 
BRANCH   7   8
ATOM      8  C   UNL     1     126.814 122.376 136.492  1.00  0.00     0.006 C 
BRANCH   8   9
ATOM      9  C   UNL     1     126.135 122.201 135.130  1.00  0.00     0.053 C 
BRANCH   9  10
ATOM     10  C   UNL     1     126.273 123.445 134.311  1.00  0.00     0.041 C 
ATOM     11  O   UNL     1     127.391 123.765 133.829  1.00  0.00    -0.550 OA
ATOM     12  O   UNL     1     125.157 124.226 134.041  1.00  0.00    -0.550 OA
ENDBRANCH   9  10
ENDBRANCH   8   9
ENDBRANCH   7   8
ENDBRANCH   6   7
ENDBRANCH   5   6
ENDBRANCH   4   5
ENDBRANCH   3   4
ENDBRANCH   1   3
BRANCH   2  13
ATOM     13  C   UNL     1     128.670 118.015 139.541  1.00  0.00     0.027 C 
BRANCH  13  14
ATOM     14  C   UNL     1     130.021 118.502 140.082  1.00  0.00     0.004 C 
BRANCH  14  15
ATOM     15  C   UNL     1     130.869 119.219 139.017  1.00  0.00     0.000 C 
BRANCH  15  16
ATOM     16  C   UNL     1     130.036 120.077 138.042  1.00  0.00     0.000 C 
BRANCH  16  17
ATOM     17  C   UNL     1     130.118 121.576 138.371  1.00  0.00    -0.000 C 
BRANCH  17  18
ATOM     18  C   UNL     1     131.567 122.003 138.640  1.00  0.00    -0.000 C 
BRANCH  18  19
ATOM     19  C   UNL     1     131.696 122.677 140.010  1.00  0.00    -0.003 C 
ATOM     20  C   UNL     1     130.551 122.272 140.934  1.00  0.00     0.004 C 
ENDBRANCH  18  19
ENDBRANCH  17  18
ENDBRANCH  16  17
ENDBRANCH  15  16
ENDBRANCH  14  15
ENDBRANCH  13  14
ENDBRANCH   2  13
TORSDOF 15
ENDMDL
MODEL 4
REMARK VINA RESULT:    -4.090      2.900      6.090
REMARK INTER + INTRA:         -10.169
REMARK INTER:                  -8.071
REMARK INTRA:                  -2.098
REMARK UNBOUND:                -2.492
REMARK SMILES CCCCCCCCC=CCCCCCCCC(=O)[O-]
REMARK SMILES IDX 10 1 9 2 11 3 12 4 13 5 14 6 15 7 16 8 17 9 18 10 19 11
REMARK SMILES IDX 20 12 8 13 7 14 6 15 5 16 4 17 3 18 2 19 1 20
REMARK H PARENT
REMARK Flexibility Score: inf
ROOT
ATOM      1  C   UNL     1     129.601 122.578 141.204  1.00  0.00    -0.031 C 
ATOM      2  C   UNL     1     128.559 121.810 140.848  1.00  0.00    -0.031 C 
ENDROOT
BRANCH   1   3
ATOM      3  C   UNL     1     131.020 122.125 140.997  1.00  0.00     0.027 C 
BRANCH   3   4
ATOM      4  C   UNL     1     131.649 122.822 139.782  1.00  0.00     0.004 C 
BRANCH   4   5
ATOM      5  C   UNL     1     131.322 122.116 138.457  1.00  0.00     0.000 C 
BRANCH   5   6
ATOM      6  C   UNL     1     131.371 120.584 138.578  1.00  0.00     0.000 C 
BRANCH   6   7
ATOM      7  C   UNL     1     130.034 119.918 138.213  1.00  0.00     0.000 C 
BRANCH   7   8
ATOM      8  C   UNL     1     129.590 118.873 139.247  1.00  0.00     0.006 C 
BRANCH   8   9
ATOM      9  C   UNL     1     128.245 118.253 138.855  1.00  0.00     0.053 C 
BRANCH   9  10
ATOM     10  C   UNL     1     127.219 118.516 139.912  1.00  0.00     0.041 C 
ATOM     11  O   UNL     1     127.512 118.377 141.128  1.00  0.00    -0.550 OA
ATOM     12  O   UNL     1     125.953 118.962 139.555  1.00  0.00    -0.550 OA
ENDBRANCH   9  10
ENDBRANCH   8   9
ENDBRANCH   7   8
ENDBRANCH   6   7
ENDBRANCH   5   6
ENDBRANCH   4   5
ENDBRANCH   3   4
ENDBRANCH   1   3
BRANCH   2  13
ATOM     13  C   UNL     1     127.140 122.270 141.038  1.00  0.00     0.027 C 
BRANCH  13  14
ATOM     14  C   UNL     1     126.419 122.408 139.690  1.00  0.00     0.004 C 
BRANCH  14  15
ATOM     15  C   UNL     1     127.329 122.097 138.490  1.00  0.00     0.000 C 
BRANCH  15  16
ATOM     16  C   UNL     1     126.585 121.451 137.303  1.00  0.00     0.000 C 
BRANCH  16  17
ATOM     17  C   UNL     1     126.331 122.450 136.163  1.00  0.00    -0.000 C 
BRANCH  17  18
ATOM     18  C   UNL     1     125.879 121.728 134.888  1.00  0.00    -0.000 C 
BRANCH  18  19
ATOM     19  C   UNL     1     125.464 122.731 133.806  1.00  0.00    -0.003 C 
ATOM     20  C   UNL     1     126.673 123.490 133.266  1.00  0.00     0.004 C 
ENDBRANCH  18  19
ENDBRANCH  17  18
ENDBRANCH  16  17
ENDBRANCH  15  16
ENDBRANCH  14  15
ENDBRANCH  13  14
ENDBRANCH   2  13
TORSDOF 15
ENDMDL
MODEL 5
REMARK VINA RESULT:    -4.061      1.278      3.296
REMARK INTER + INTRA:         -10.114
REMARK INTER:                  -8.383
REMARK INTRA:                  -1.732
REMARK UNBOUND:                -2.492
REMARK SMILES CCCCCCCCC=CCCCCCCCC(=O)[O-]
REMARK SMILES IDX 10 1 9 2 11 3 12 4 13 5 14 6 15 7 16 8 17 9 18 10 19 11
REMARK SMILES IDX 20 12 8 13 7 14 6 15 5 16 4 17 3 18 2 19 1 20
REMARK H PARENT
REMARK Flexibility Score: inf
ROOT
ATOM      1  C   UNL     1     127.018 119.239 139.626  1.00  0.00    -0.031 C 
ATOM      2  C   UNL     1     127.807 118.543 138.792  1.00  0.00    -0.031 C 
ENDROOT
BRANCH   1   3
ATOM      3  C   UNL     1     125.797 119.964 139.131  1.00  0.00     0.027 C 
BRANCH   3   4
ATOM      4  C   UNL     1     125.909 121.474 139.391  1.00  0.00     0.004 C 
BRANCH   4   5
ATOM      5  C   UNL     1     127.001 122.143 138.542  1.00  0.00     0.000 C 
BRANCH   5   6
ATOM      6  C   UNL     1     126.723 122.035 137.033  1.00  0.00     0.000 C 
BRANCH   6   7
ATOM      7  C   UNL     1     125.329 122.561 136.651  1.00  0.00     0.000 C 
BRANCH   7   8
ATOM      8  C   UNL     1     125.360 123.489 135.427  1.00  0.00     0.006 C 
BRANCH   8   9
ATOM      9  C   UNL     1     126.307 122.946 134.352  1.00  0.00     0.053 C 
BRANCH   9  10
ATOM     10  C   UNL     1     126.818 124.058 133.492  1.00  0.00     0.041 C 
ATOM     11  O   UNL     1     126.012 124.853 132.941  1.00  0.00    -0.550 OA
ATOM     12  O   UNL     1     128.185 124.247 133.339  1.00  0.00    -0.550 OA
ENDBRANCH   9  10
ENDBRANCH   8   9
ENDBRANCH   7   8
ENDBRANCH   6   7
ENDBRANCH   5   6
ENDBRANCH   4   5
ENDBRANCH   3   4
ENDBRANCH   1   3
BRANCH   2  13
ATOM     13  C   UNL     1     129.017 117.802 139.289  1.00  0.00     0.027 C 
BRANCH  13  14
ATOM     14  C   UNL     1     130.067 118.771 139.849  1.00  0.00     0.004 C 
BRANCH  14  15
ATOM     15  C   UNL     1     130.741 119.620 138.758  1.00  0.00     0.000 C 
BRANCH  15  16
ATOM     16  C   UNL     1     130.406 121.123 138.852  1.00  0.00     0.000 C 
BRANCH  16  17
ATOM     17  C   UNL     1     130.220 121.587 140.305  1.00  0.00    -0.000 C 
BRANCH  17  18
ATOM     18  C   UNL     1     131.269 122.640 140.686  1.00  0.00    -0.000 C 
BRANCH  18  19
ATOM     19  C   UNL     1     132.182 122.960 139.498  1.00  0.00    -0.003 C 
ATOM     20  C   UNL     1     132.942 124.264 139.723  1.00  0.00     0.004 C 
ENDBRANCH  18  19
ENDBRANCH  17  18
ENDBRANCH  16  17
ENDBRANCH  15  16
ENDBRANCH  14  15
ENDBRANCH  13  14
ENDBRANCH   2  13
TORSDOF 15
ENDMDL
MODEL 6
REMARK VINA RESULT:    -4.049      3.071      6.575
REMARK INTER + INTRA:         -10.092
REMARK INTER:                  -7.909
REMARK INTRA:                  -2.183
REMARK UNBOUND:                -2.492
REMARK SMILES CCCCCCCCC=CCCCCCCCC(=O)[O-]
REMARK SMILES IDX 10 1 9 2 11 3 12 4 13 5 14 6 15 7 16 8 17 9 18 10 19 11
REMARK SMILES IDX 20 12 8 13 7 14 6 15 5 16 4 17 3 18 2 19 1 20
REMARK H PARENT
REMARK Flexibility Score: inf
ROOT
ATOM      1  C   UNL     1     127.476 121.338 140.196  1.00  0.00    -0.031 C 
ATOM      2  C   UNL     1     127.420 122.350 139.315  1.00  0.00    -0.031 C 
ENDROOT
BRANCH   1   3
ATOM      3  C   UNL     1     128.502 121.308 141.296  1.00  0.00     0.027 C 
BRANCH   3   4
ATOM      4  C   UNL     1     129.484 122.482 141.166  1.00  0.00     0.004 C 
BRANCH   4   5
ATOM      5  C   UNL     1     130.947 122.023 141.077  1.00  0.00     0.000 C 
BRANCH   5   6
ATOM      6  C   UNL     1     131.624 122.466 139.769  1.00  0.00     0.000 C 
BRANCH   6   7
ATOM      7  C   UNL     1     130.980 121.830 138.525  1.00  0.00     0.000 C 
BRANCH   7   8
ATOM      8  C   UNL     1     131.210 120.313 138.448  1.00  0.00     0.006 C 
BRANCH   8   9
ATOM      9  C   UNL     1     129.879 119.564 138.324  1.00  0.00     0.053 C 
BRANCH   9  10
ATOM     10  C   UNL     1     129.779 118.497 139.368  1.00  0.00     0.041 C 
ATOM     11  O   UNL     1     130.775 118.218 140.086  1.00  0.00    -0.550 OA
ATOM     12  O   UNL     1     128.572 117.844 139.580  1.00  0.00    -0.550 OA
ENDBRANCH   9  10
ENDBRANCH   8   9
ENDBRANCH   7   8
ENDBRANCH   6   7
ENDBRANCH   5   6
ENDBRANCH   4   5
ENDBRANCH   3   4
ENDBRANCH   1   3
BRANCH   2  13
ATOM     13  C   UNL     1     126.383 122.390 138.228  1.00  0.00     0.027 C 
BRANCH  13  14
ATOM     14  C   UNL     1     126.282 121.037 137.511  1.00  0.00     0.004 C 
BRANCH  14  15
ATOM     15  C   UNL     1     124.924 120.826 136.819  1.00  0.00     0.000 C 
BRANCH  15  16
ATOM     16  C   UNL     1     124.432 122.062 136.038  1.00  0.00     0.000 C 
BRANCH  16  17
ATOM     17  C   UNL     1     124.421 121.824 134.520  1.00  0.00    -0.000 C 
BRANCH  17  18
ATOM     18  C   UNL     1     125.802 122.091 133.910  1.00  0.00    -0.000 C 
BRANCH  18  19
ATOM     19  C   UNL     1     126.424 123.364 134.495  1.00  0.00    -0.003 C 
ATOM     20  C   UNL     1     127.380 124.017 133.501  1.00  0.00     0.004 C 
ENDBRANCH  18  19
ENDBRANCH  17  18
ENDBRANCH  16  17
ENDBRANCH  15  16
ENDBRANCH  14  15
ENDBRANCH  13  14
ENDBRANCH   2  13
TORSDOF 15
ENDMDL
MODEL 7
REMARK VINA RESULT:    -4.029      1.154      2.898
REMARK INTER + INTRA:         -10.053
REMARK INTER:                  -7.415
REMARK INTRA:                  -2.639
REMARK UNBOUND:                -2.492
REMARK SMILES CCCCCCCCC=CCCCCCCCC(=O)[O-]
REMARK SMILES IDX 10 1 9 2 11 3 12 4 13 5 14 6 15 7 16 8 17 9 18 10 19 11
REMARK SMILES IDX 20 12 8 13 7 14 6 15 5 16 4 17 3 18 2 19 1 20
REMARK H PARENT
REMARK Flexibility Score: inf
ROOT
ATOM      1  C   UNL     1     128.467 118.678 138.817  1.00  0.00    -0.031 C 
ATOM      2  C   UNL     1     129.601 118.514 139.517  1.00  0.00    -0.031 C 
ENDROOT
BRANCH   1   3
ATOM      3  C   UNL     1     127.213 117.924 139.163  1.00  0.00     0.027 C 
BRANCH   3   4
ATOM      4  C   UNL     1     125.992 118.532 138.456  1.00  0.00     0.004 C 
BRANCH   4   5
ATOM      5  C   UNL     1     126.375 119.382 137.236  1.00  0.00     0.000 C 
BRANCH   5   6
ATOM      6  C   UNL     1     125.819 120.814 137.317  1.00  0.00     0.000 C 
BRANCH   6   7
ATOM      7  C   UNL     1     126.867 121.877 136.945  1.00  0.00     0.000 C 
BRANCH   7   8
ATOM      8  C   UNL     1     126.294 122.987 136.052  1.00  0.00     0.006 C 
BRANCH   8   9
ATOM      9  C   UNL     1     126.235 122.536 134.588  1.00  0.00     0.053 C 
BRANCH   9  10
ATOM     10  C   UNL     1     126.519 123.685 133.674  1.00  0.00     0.041 C 
ATOM     11  O   UNL     1     125.571 124.315 133.135  1.00  0.00    -0.550 OA
ATOM     12  O   UNL     1     127.829 124.090 133.454  1.00  0.00    -0.550 OA
ENDBRANCH   9  10
ENDBRANCH   8   9
ENDBRANCH   7   8
ENDBRANCH   6   7
ENDBRANCH   5   6
ENDBRANCH   4   5
ENDBRANCH   3   4
ENDBRANCH   1   3
BRANCH   2  13
ATOM     13  C   UNL     1     130.850 119.282 139.183  1.00  0.00     0.027 C 
BRANCH  13  14
ATOM     14  C   UNL     1     130.583 120.322 138.087  1.00  0.00     0.004 C 
BRANCH  14  15
ATOM     15  C   UNL     1     130.972 121.749 138.509  1.00  0.00     0.000 C 
BRANCH  15  16
ATOM     16  C   UNL     1     130.494 122.125 139.927  1.00  0.00     0.000 C 
BRANCH  16  17
ATOM     17  C   UNL     1     128.978 122.374 139.982  1.00  0.00    -0.000 C 
BRANCH  17  18
ATOM     18  C   UNL     1     128.324 121.553 141.099  1.00  0.00    -0.000 C 
BRANCH  18  19
ATOM     19  C   UNL     1     126.808 121.456 140.895  1.00  0.00    -0.003 C 
ATOM     20  C   UNL     1     126.222 122.800 140.474  1.00  0.00     0.004 C 
ENDBRANCH  18  19
ENDBRANCH  17  18
ENDBRANCH  16  17
ENDBRANCH  15  16
ENDBRANCH  14  15
ENDBRANCH  13  14
ENDBRANCH   2  13
TORSDOF 15
ENDMDL
MODEL 8
REMARK VINA RESULT:    -3.954      1.418      2.387
REMARK INTER + INTRA:          -9.914
REMARK INTER:                  -7.294
REMARK INTRA:                  -2.620
REMARK UNBOUND:                -2.492
REMARK SMILES CCCCCCCCC=CCCCCCCCC(=O)[O-]
REMARK SMILES IDX 10 1 9 2 11 3 12 4 13 5 14 6 15 7 16 8 17 9 18 10 19 11
REMARK SMILES IDX 20 12 8 13 7 14 6 15 5 16 4 17 3 18 2 19 1 20
REMARK H PARENT
REMARK Flexibility Score: inf
ROOT
ATOM      1  C   UNL     1     128.177 122.064 139.065  1.00  0.00    -0.031 C 
ATOM      2  C   UNL     1     129.444 121.940 139.493  1.00  0.00    -0.031 C 
ENDROOT
BRANCH   1   3
ATOM      3  C   UNL     1     127.070 122.483 139.992  1.00  0.00     0.027 C 
BRANCH   3   4
ATOM      4  C   UNL     1     125.696 122.298 139.330  1.00  0.00     0.004 C 
BRANCH   4   5
ATOM      5  C   UNL     1     125.014 123.633 138.997  1.00  0.00     0.000 C 
BRANCH   5   6
ATOM      6  C   UNL     1     125.238 124.061 137.536  1.00  0.00     0.000 C 
BRANCH   6   7
ATOM      7  C   UNL     1     125.257 122.867 136.567  1.00  0.00     0.000 C 
BRANCH   7   8
ATOM      8  C   UNL     1     126.564 122.776 135.764  1.00  0.00     0.006 C 
BRANCH   8   9
ATOM      9  C   UNL     1     126.278 122.697 134.261  1.00  0.00     0.053 C 
BRANCH   9  10
ATOM     10  C   UNL     1     126.720 123.951 133.576  1.00  0.00     0.041 C 
ATOM     11  O   UNL     1     127.943 124.152 133.353  1.00  0.00    -0.550 OA
ATOM     12  O   UNL     1     125.779 124.874 133.141  1.00  0.00    -0.550 OA
ENDBRANCH   9  10
ENDBRANCH   8   9
ENDBRANCH   7   8
ENDBRANCH   6   7
ENDBRANCH   5   6
ENDBRANCH   4   5
ENDBRANCH   3   4
ENDBRANCH   1   3
BRANCH   2  13
ATOM     13  C   UNL     1     130.554 121.538 138.562  1.00  0.00     0.027 C 
BRANCH  13  14
ATOM     14  C   UNL     1     130.504 120.034 138.259  1.00  0.00     0.004 C 
BRANCH  14  15
ATOM     15  C   UNL     1     130.561 119.166 139.527  1.00  0.00     0.000 C 
BRANCH  15  16
ATOM     16  C   UNL     1     129.429 118.121 139.611  1.00  0.00     0.000 C 
BRANCH  16  17
ATOM     17  C   UNL     1     128.273 118.588 140.509  1.00  0.00    -0.000 C 
BRANCH  17  18
ATOM     18  C   UNL     1     126.947 118.603 139.738  1.00  0.00    -0.000 C 
BRANCH  18  19
ATOM     19  C   UNL     1     127.151 118.153 138.287  1.00  0.00    -0.003 C 
ATOM     20  C   UNL     1     126.697 119.230 137.306  1.00  0.00     0.004 C 
ENDBRANCH  18  19
ENDBRANCH  17  18
ENDBRANCH  16  17
ENDBRANCH  15  16
ENDBRANCH  14  15
ENDBRANCH  13  14
ENDBRANCH   2  13
TORSDOF 15
ENDMDL
MODEL 9
REMARK VINA RESULT:    -3.893      0.861      1.662
REMARK INTER + INTRA:          -9.799
REMARK INTER:                  -7.681
REMARK INTRA:                  -2.118
REMARK UNBOUND:                -2.492
REMARK SMILES CCCCCCCCC=CCCCCCCCC(=O)[O-]
REMARK SMILES IDX 10 1 9 2 11 3 12 4 13 5 14 6 15 7 16 8 17 9 18 10 19 11
REMARK SMILES IDX 20 12 8 13 7 14 6 15 5 16 4 17 3 18 2 19 1 20
REMARK H PARENT
REMARK Flexibility Score: inf
ROOT
ATOM      1  C   UNL     1     127.359 121.955 140.112  1.00  0.00    -0.031 C 
ATOM      2  C   UNL     1     128.578 122.510 140.209  1.00  0.00    -0.031 C 
ENDROOT
BRANCH   1   3
ATOM      3  C   UNL     1     126.427 122.296 138.982  1.00  0.00     0.027 C 
BRANCH   3   4
ATOM      4  C   UNL     1     126.292 121.119 138.004  1.00  0.00     0.004 C 
BRANCH   4   5
ATOM      5  C   UNL     1     124.833 120.832 137.618  1.00  0.00     0.000 C 
BRANCH   5   6
ATOM      6  C   UNL     1     124.710 120.142 136.249  1.00  0.00     0.000 C 
BRANCH   6   7
ATOM      7  C   UNL     1     125.511 120.861 135.151  1.00  0.00     0.000 C 
BRANCH   7   8
ATOM      8  C   UNL     1     124.957 122.257 134.830  1.00  0.00     0.006 C 
BRANCH   8   9
ATOM      9  C   UNL     1     126.047 123.324 134.970  1.00  0.00     0.053 C 
BRANCH   9  10
ATOM     10  C   UNL     1     126.579 123.710 133.625  1.00  0.00     0.041 C 
ATOM     11  O   UNL     1     127.780 124.064 133.498  1.00  0.00    -0.550 OA
ATOM     12  O   UNL     1     125.760 123.633 132.506  1.00  0.00    -0.550 OA
ENDBRANCH   9  10
ENDBRANCH   8   9
ENDBRANCH   7   8
ENDBRANCH   6   7
ENDBRANCH   5   6
ENDBRANCH   4   5
ENDBRANCH   3   4
ENDBRANCH   1   3
BRANCH   2  13
ATOM     13  C   UNL     1     129.517 122.156 141.328  1.00  0.00     0.027 C 
BRANCH  13  14
ATOM     14  C   UNL     1     130.962 122.047 140.823  1.00  0.00     0.004 C 
BRANCH  14  15
ATOM     15  C   UNL     1     131.130 122.545 139.377  1.00  0.00     0.000 C 
BRANCH  15  16
ATOM     16  C   UNL     1     131.550 121.438 138.388  1.00  0.00     0.000 C 
BRANCH  16  17
ATOM     17  C   UNL     1     131.157 120.037 138.884  1.00  0.00    -0.000 C 
BRANCH  17  18
ATOM     18  C   UNL     1     129.773 119.635 138.361  1.00  0.00    -0.000 C 
BRANCH  18  19
ATOM     19  C   UNL     1     129.025 118.779 139.389  1.00  0.00    -0.003 C 
ATOM     20  C   UNL     1     127.848 118.049 138.746  1.00  0.00     0.004 C 
ENDBRANCH  18  19
ENDBRANCH  17  18
ENDBRANCH  16  17
ENDBRANCH  15  16
ENDBRANCH  14  15
ENDBRANCH  13  14
ENDBRANCH   2  13
TORSDOF 15
ENDMDL
