MODEL 1
REMARK VINA RESULT:    -5.113      0.000      0.000
REMARK INTER + INTRA:          -6.571
REMARK INTER:                  -6.160
REMARK INTRA:                  -0.412
REMARK UNBOUND:                -0.412
REMARK SMILES O=c1c(O)c(-c2ccc(O)cc2O)oc2cc(O)cc(O)c12
REMARK SMILES IDX 5 1 3 2 2 3 1 4 22 5 20 6 19 7 17 8 16 9 15 10 14 11 6 12
REMARK SMILES IDX 8 13 7 14 9 15 11 16 12 17 10 18 13 20 4 22 21 24 18 26
REMARK H PARENT 10 19 13 21 4 23 21 25 18 27
REMARK Flexibility Score: inf
ROOT
ATOM      1  C   UNL     1      -2.412   4.386  -4.183  1.00  0.00     0.184 A 
ATOM      2  C   UNL     1      -1.741   3.435  -3.392  1.00  0.00     0.208 A 
ATOM      3  C   UNL     1      -1.073   3.864  -2.235  1.00  0.00     0.238 A 
ATOM      4  O   UNL     1      -0.475   3.020  -1.514  1.00  0.00    -0.285 OA
ATOM      5  C   UNL     1      -1.074   5.233  -1.898  1.00  0.00     0.111 A 
ATOM      6  C   UNL     1      -0.423   5.749  -0.752  1.00  0.00     0.134 A 
ATOM      7  C   UNL     1      -0.463   7.126  -0.488  1.00  0.00     0.093 A 
ATOM      8  C   UNL     1      -1.140   7.996  -1.347  1.00  0.00     0.123 A 
ATOM      9  C   UNL     1      -1.787   7.492  -2.480  1.00  0.00     0.094 A 
ATOM     10  C   UNL     1      -1.758   6.123  -2.759  1.00  0.00     0.146 A 
ATOM     11  O   UNL     1      -2.383   5.670  -3.840  1.00  0.00    -0.451 OA
ENDROOT
BRANCH   1  12
ATOM     12  C   UNL     1      -3.153   4.001  -5.406  1.00  0.00     0.063 A 
ATOM     13  C   UNL     1      -5.234   3.383  -6.508  1.00  0.00     0.047 A 
ATOM     14  C   UNL     1      -4.530   3.720  -5.349  1.00  0.00     0.020 A 
ATOM     15  C   UNL     1      -4.579   3.332  -7.740  1.00  0.00     0.119 A 
ATOM     16  C   UNL     1      -3.211   3.623  -7.811  1.00  0.00     0.093 A 
ATOM     17  C   UNL     1      -2.495   3.960  -6.653  1.00  0.00     0.130 A 
BRANCH  15  18
ATOM     18  O   UNL     1      -5.295   2.995  -8.886  1.00  0.00    -0.508 OA
ATOM     19  H   UNL     1      -4.826   2.719  -9.741  1.00  0.00     0.293 HD
ENDBRANCH  15  18
BRANCH  17  20
ATOM     20  O   UNL     1      -1.131   4.241  -6.737  1.00  0.00    -0.507 OA
ATOM     21  H   UNL     1      -0.699   4.951  -6.157  1.00  0.00     0.293 HD
ENDBRANCH  17  20
ENDBRANCH   1  12
BRANCH   2  22
ATOM     22  O   UNL     1      -1.722   2.091  -3.773  1.00  0.00    -0.502 OA
ATOM     23  H   UNL     1      -0.861   1.568  -3.877  1.00  0.00     0.293 HD
ENDBRANCH   2  22
BRANCH   6  24
ATOM     24  O   UNL     1       0.263   4.906   0.125  1.00  0.00    -0.507 OA
ATOM     25  H   UNL     1      -0.157   4.577   0.985  1.00  0.00     0.293 HD
ENDBRANCH   6  24
BRANCH   8  26
ATOM     26  O   UNL     1      -1.165   9.360  -1.063  1.00  0.00    -0.508 OA
ATOM     27  H   UNL     1      -0.318   9.871  -0.846  1.00  0.00     0.293 HD
ENDBRANCH   8  26
TORSDOF 6
ENDMDL
MODEL 2
REMARK VINA RESULT:    -5.057      1.487      6.773
REMARK INTER + INTRA:          -6.503
REMARK INTER:                  -6.025
REMARK INTRA:                  -0.479
REMARK UNBOUND:                -0.412
REMARK SMILES O=c1c(O)c(-c2ccc(O)cc2O)oc2cc(O)cc(O)c12
REMARK SMILES IDX 5 1 3 2 2 3 1 4 22 5 20 6 19 7 17 8 16 9 15 10 14 11 6 12
REMARK SMILES IDX 8 13 7 14 9 15 11 16 12 17 10 18 13 20 4 22 21 24 18 26
REMARK H PARENT 10 19 13 21 4 23 21 25 18 27
REMARK Flexibility Score: inf
ROOT
ATOM      1  C   UNL     1      -2.127   5.038  -4.192  1.00  0.00     0.184 A 
ATOM      2  C   UNL     1      -1.605   5.023  -5.499  1.00  0.00     0.208 A 
ATOM      3  C   UNL     1      -2.327   4.372  -6.511  1.00  0.00     0.238 A 
ATOM      4  O   UNL     1      -1.871   4.358  -7.687  1.00  0.00    -0.285 OA
ATOM      5  C   UNL     1      -3.545   3.736  -6.197  1.00  0.00     0.111 A 
ATOM      6  C   UNL     1      -4.332   3.055  -7.157  1.00  0.00     0.134 A 
ATOM      7  C   UNL     1      -5.531   2.441  -6.765  1.00  0.00     0.093 A 
ATOM      8  C   UNL     1      -5.957   2.494  -5.436  1.00  0.00     0.123 A 
ATOM      9  C   UNL     1      -5.184   3.166  -4.484  1.00  0.00     0.094 A 
ATOM     10  C   UNL     1      -3.987   3.785  -4.854  1.00  0.00     0.146 A 
ATOM     11  O   UNL     1      -3.274   4.419  -3.931  1.00  0.00    -0.451 OA
ENDROOT
BRANCH   1  12
ATOM     12  C   UNL     1      -1.427   5.723  -3.080  1.00  0.00     0.063 A 
ATOM     13  C   UNL     1      -0.865   7.763  -1.877  1.00  0.00     0.047 A 
ATOM     14  C   UNL     1      -1.502   7.121  -2.942  1.00  0.00     0.020 A 
ATOM     15  C   UNL     1      -0.155   7.022  -0.931  1.00  0.00     0.119 A 
ATOM     16  C   UNL     1      -0.085   5.628  -1.050  1.00  0.00     0.093 A 
ATOM     17  C   UNL     1      -0.720   4.975  -2.117  1.00  0.00     0.130 A 
BRANCH  15  18
ATOM     18  O   UNL     1       0.474   7.678   0.125  1.00  0.00    -0.508 OA
ATOM     19  H   UNL     1       1.441   7.977   0.062  1.00  0.00     0.293 HD
ENDBRANCH  15  18
BRANCH  17  20
ATOM     20  O   UNL     1      -0.638   3.586  -2.228  1.00  0.00    -0.507 OA
ATOM     21  H   UNL     1      -1.214   3.070  -2.883  1.00  0.00     0.293 HD
ENDBRANCH  17  20
ENDBRANCH   1  12
BRANCH   2  22
ATOM     22  O   UNL     1      -0.374   5.626  -5.771  1.00  0.00    -0.502 OA
ATOM     23  H   UNL     1      -0.130   5.970  -6.693  1.00  0.00     0.293 HD
ENDBRANCH   2  22
BRANCH   6  24
ATOM     24  O   UNL     1      -3.933   2.984  -8.493  1.00  0.00    -0.507 OA
ATOM     25  H   UNL     1      -2.974   2.787  -8.752  1.00  0.00     0.293 HD
ENDBRANCH   6  24
BRANCH   8  26
ATOM     26  O   UNL     1      -7.151   1.875  -5.073  1.00  0.00    -0.508 OA
ATOM     27  H   UNL     1      -7.728   1.396  -5.754  1.00  0.00     0.293 HD
ENDBRANCH   8  26
TORSDOF 6
ENDMDL
MODEL 3
REMARK VINA RESULT:    -4.866      1.974      2.439
REMARK INTER + INTRA:          -6.273
REMARK INTER:                  -5.869
REMARK INTRA:                  -0.404
REMARK UNBOUND:                -0.412
REMARK SMILES O=c1c(O)c(-c2ccc(O)cc2O)oc2cc(O)cc(O)c12
REMARK SMILES IDX 5 1 3 2 2 3 1 4 22 5 20 6 19 7 17 8 16 9 15 10 14 11 6 12
REMARK SMILES IDX 8 13 7 14 9 15 11 16 12 17 10 18 13 20 4 22 21 24 18 26
REMARK H PARENT 10 19 13 21 4 23 21 25 18 27
REMARK Flexibility Score: inf
ROOT
ATOM      1  C   UNL     1      -3.604   3.836  -4.840  1.00  0.00     0.184 A 
ATOM      2  C   UNL     1      -4.182   3.224  -3.712  1.00  0.00     0.208 A 
ATOM      3  C   UNL     1      -3.894   3.740  -2.439  1.00  0.00     0.238 A 
ATOM      4  O   UNL     1      -4.412   3.205  -1.421  1.00  0.00    -0.285 OA
ATOM      5  C   UNL     1      -3.025   4.842  -2.315  1.00  0.00     0.111 A 
ATOM      6  C   UNL     1      -2.681   5.421  -1.068  1.00  0.00     0.134 A 
ATOM      7  C   UNL     1      -1.802   6.514  -1.027  1.00  0.00     0.093 A 
ATOM      8  C   UNL     1      -1.263   7.039  -2.204  1.00  0.00     0.123 A 
ATOM      9  C   UNL     1      -1.600   6.473  -3.438  1.00  0.00     0.094 A 
ATOM     10  C   UNL     1      -2.474   5.384  -3.500  1.00  0.00     0.146 A 
ATOM     11  O   UNL     1      -2.781   4.868  -4.684  1.00  0.00    -0.451 OA
ENDROOT
BRANCH   1  12
ATOM     12  C   UNL     1      -3.879   3.356  -6.214  1.00  0.00     0.063 A 
ATOM     13  C   UNL     1      -3.336   1.903  -8.091  1.00  0.00     0.047 A 
ATOM     14  C   UNL     1      -3.060   2.377  -6.806  1.00  0.00     0.020 A 
ATOM     15  C   UNL     1      -4.436   2.391  -8.800  1.00  0.00     0.119 A 
ATOM     16  C   UNL     1      -5.267   3.356  -8.215  1.00  0.00     0.093 A 
ATOM     17  C   UNL     1      -4.996   3.838  -6.926  1.00  0.00     0.130 A 
BRANCH  15  18
ATOM     18  O   UNL     1      -4.698   1.909 -10.080  1.00  0.00    -0.508 OA
ATOM     19  H   UNL     1      -4.484   2.456 -10.906  1.00  0.00     0.293 HD
ENDBRANCH  15  18
BRANCH  17  20
ATOM     20  O   UNL     1      -5.827   4.805  -6.358  1.00  0.00    -0.507 OA
ATOM     21  H   UNL     1      -5.900   4.919  -5.354  1.00  0.00     0.293 HD
ENDBRANCH  17  20
ENDBRANCH   1  12
BRANCH   2  22
ATOM     22  O   UNL     1      -5.007   2.106  -3.862  1.00  0.00    -0.502 OA
ATOM     23  H   UNL     1      -5.732   1.873  -3.194  1.00  0.00     0.293 HD
ENDBRANCH   2  22
BRANCH   6  24
ATOM     24  O   UNL     1      -3.202   4.918   0.125  1.00  0.00    -0.507 OA
ATOM     25  H   UNL     1      -2.603   4.559   0.858  1.00  0.00     0.293 HD
ENDBRANCH   6  24
BRANCH   8  26
ATOM     26  O   UNL     1      -0.393   8.125  -2.135  1.00  0.00    -0.508 OA
ATOM     27  H   UNL     1      -0.623   8.955  -1.602  1.00  0.00     0.293 HD
ENDBRANCH   8  26
TORSDOF 6
ENDMDL
MODEL 4
REMARK VINA RESULT:    -4.536      1.601      6.886
REMARK INTER + INTRA:          -5.876
REMARK INTER:                  -5.469
REMARK INTRA:                  -0.406
REMARK UNBOUND:                -0.412
REMARK SMILES O=c1c(O)c(-c2ccc(O)cc2O)oc2cc(O)cc(O)c12
REMARK SMILES IDX 5 1 3 2 2 3 1 4 22 5 20 6 19 7 17 8 16 9 15 10 14 11 6 12
REMARK SMILES IDX 8 13 7 14 9 15 11 16 12 17 10 18 13 20 4 22 21 24 18 26
REMARK H PARENT 10 19 13 21 4 23 21 25 18 27
REMARK Flexibility Score: inf
ROOT
ATOM      1  C   UNL     1      -2.978   4.114  -4.362  1.00  0.00     0.184 A 
ATOM      2  C   UNL     1      -2.443   4.094  -5.664  1.00  0.00     0.208 A 
ATOM      3  C   UNL     1      -3.295   3.815  -6.743  1.00  0.00     0.238 A 
ATOM      4  O   UNL     1      -2.828   3.802  -7.915  1.00  0.00    -0.285 OA
ATOM      5  C   UNL     1      -4.658   3.547  -6.503  1.00  0.00     0.111 A 
ATOM      6  C   UNL     1      -5.583   3.254  -7.534  1.00  0.00     0.134 A 
ATOM      7  C   UNL     1      -6.923   2.990  -7.213  1.00  0.00     0.093 A 
ATOM      8  C   UNL     1      -7.355   3.014  -5.885  1.00  0.00     0.123 A 
ATOM      9  C   UNL     1      -6.446   3.304  -4.862  1.00  0.00     0.094 A 
ATOM     10  C   UNL     1      -5.107   3.570  -5.162  1.00  0.00     0.146 A 
ATOM     11  O   UNL     1      -4.266   3.845  -4.172  1.00  0.00    -0.451 OA
ENDROOT
BRANCH   1  12
ATOM     12  C   UNL     1      -2.139   4.419  -3.179  1.00  0.00     0.063 A 
ATOM     13  C   UNL     1      -0.640   3.684  -1.408  1.00  0.00     0.047 A 
ATOM     14  C   UNL     1      -1.452   3.392  -2.507  1.00  0.00     0.020 A 
ATOM     15  C   UNL     1      -0.492   5.001  -0.972  1.00  0.00     0.119 A 
ATOM     16  C   UNL     1      -1.161   6.034  -1.642  1.00  0.00     0.093 A 
ATOM     17  C   UNL     1      -1.981   5.750  -2.744  1.00  0.00     0.130 A 
BRANCH  15  18
ATOM     18  O   UNL     1       0.321   5.276   0.125  1.00  0.00    -0.508 OA
ATOM     19  H   UNL     1       0.450   4.602   0.871  1.00  0.00     0.293 HD
ENDBRANCH  15  18
BRANCH  17  20
ATOM     20  O   UNL     1      -2.646   6.788  -3.400  1.00  0.00    -0.507 OA
ATOM     21  H   UNL     1      -2.439   7.760  -3.203  1.00  0.00     0.293 HD
ENDBRANCH  17  20
ENDBRANCH   1  12
BRANCH   2  22
ATOM     22  O   UNL     1      -1.079   4.322  -5.868  1.00  0.00    -0.502 OA
ATOM     23  H   UNL     1      -0.668   5.246  -5.803  1.00  0.00     0.293 HD
ENDBRANCH   2  22
BRANCH   6  24
ATOM     24  O   UNL     1      -5.182   3.221  -8.871  1.00  0.00    -0.507 OA
ATOM     25  H   UNL     1      -4.242   2.956  -9.138  1.00  0.00     0.293 HD
ENDBRANCH   6  24
BRANCH   8  26
ATOM     26  O   UNL     1      -8.691   2.749  -5.592  1.00  0.00    -0.508 OA
ATOM     27  H   UNL     1      -9.019   2.674  -4.636  1.00  0.00     0.293 HD
ENDBRANCH   8  26
TORSDOF 6
ENDMDL
MODEL 5
REMARK VINA RESULT:    -4.518      3.568      7.347
REMARK INTER + INTRA:          -5.855
REMARK INTER:                  -5.651
REMARK INTRA:                  -0.204
REMARK UNBOUND:                -0.412
REMARK SMILES O=c1c(O)c(-c2ccc(O)cc2O)oc2cc(O)cc(O)c12
REMARK SMILES IDX 5 1 3 2 2 3 1 4 22 5 20 6 19 7 17 8 16 9 15 10 14 11 6 12
REMARK SMILES IDX 8 13 7 14 9 15 11 16 12 17 10 18 13 20 4 22 21 24 18 26
REMARK H PARENT 10 19 13 21 4 23 21 25 18 27
REMARK Flexibility Score: inf
ROOT
ATOM      1  C   UNL     1       1.773   5.301  -0.934  1.00  0.00     0.184 A 
ATOM      2  C   UNL     1       1.553   6.620  -0.495  1.00  0.00     0.208 A 
ATOM      3  C   UNL     1       0.276   7.182  -0.648  1.00  0.00     0.238 A 
ATOM      4  O   UNL     1       0.065   8.361  -0.252  1.00  0.00    -0.285 OA
ATOM      5  C   UNL     1      -0.750   6.424  -1.248  1.00  0.00     0.111 A 
ATOM      6  C   UNL     1      -2.064   6.917  -1.442  1.00  0.00     0.134 A 
ATOM      7  C   UNL     1      -3.029   6.103  -2.054  1.00  0.00     0.093 A 
ATOM      8  C   UNL     1      -2.708   4.810  -2.475  1.00  0.00     0.123 A 
ATOM      9  C   UNL     1      -1.413   4.318  -2.284  1.00  0.00     0.094 A 
ATOM     10  C   UNL     1      -0.437   5.113  -1.676  1.00  0.00     0.146 A 
ATOM     11  O   UNL     1       0.784   4.620  -1.504  1.00  0.00    -0.451 OA
ENDROOT
BRANCH   1  12
ATOM     12  C   UNL     1       3.090   4.639  -0.787  1.00  0.00     0.063 A 
ATOM     13  C   UNL     1       4.459   2.836   0.108  1.00  0.00     0.047 A 
ATOM     14  C   UNL     1       3.222   3.475  -0.008  1.00  0.00     0.020 A 
ATOM     15  C   UNL     1       5.578   3.341  -0.558  1.00  0.00     0.119 A 
ATOM     16  C   UNL     1       5.455   4.492  -1.347  1.00  0.00     0.093 A 
ATOM     17  C   UNL     1       4.218   5.141  -1.468  1.00  0.00     0.130 A 
BRANCH  15  18
ATOM     18  O   UNL     1       6.804   2.692  -0.432  1.00  0.00    -0.508 OA
ATOM     19  H   UNL     1       7.041   2.165   0.401  1.00  0.00     0.293 HD
ENDBRANCH  15  18
BRANCH  17  20
ATOM     20  O   UNL     1       4.111   6.291  -2.252  1.00  0.00    -0.507 OA
ATOM     21  H   UNL     1       4.811   7.023  -2.220  1.00  0.00     0.293 HD
ENDBRANCH  17  20
ENDBRANCH   1  12
BRANCH   2  22
ATOM     22  O   UNL     1       2.600   7.362   0.058  1.00  0.00    -0.502 OA
ATOM     23  H   UNL     1       2.995   7.150   0.967  1.00  0.00     0.293 HD
ENDBRANCH   2  22
BRANCH   6  24
ATOM     24  O   UNL     1      -2.416   8.204  -1.034  1.00  0.00    -0.507 OA
ATOM     25  H   UNL     1      -3.170   8.367  -0.377  1.00  0.00     0.293 HD
ENDBRANCH   6  24
BRANCH   8  26
ATOM     26  O   UNL     1      -3.685   4.023  -3.080  1.00  0.00    -0.508 OA
ATOM     27  H   UNL     1      -4.602   3.904  -2.665  1.00  0.00     0.293 HD
ENDBRANCH   8  26
TORSDOF 6
ENDMDL
MODEL 6
REMARK VINA RESULT:    -4.411      2.355      4.004
REMARK INTER + INTRA:          -5.726
REMARK INTER:                  -5.326
REMARK INTRA:                  -0.400
REMARK UNBOUND:                -0.412
REMARK SMILES O=c1c(O)c(-c2ccc(O)cc2O)oc2cc(O)cc(O)c12
REMARK SMILES IDX 5 1 3 2 2 3 1 4 22 5 20 6 19 7 17 8 16 9 15 10 14 11 6 12
REMARK SMILES IDX 8 13 7 14 9 15 11 16 12 17 10 18 13 20 4 22 21 24 18 26
REMARK H PARENT 10 19 13 21 4 23 21 25 18 27
REMARK Flexibility Score: inf
ROOT
ATOM      1  C   UNL     1      -1.480   5.111  -2.088  1.00  0.00     0.184 A 
ATOM      2  C   UNL     1      -1.427   6.487  -1.798  1.00  0.00     0.208 A 
ATOM      3  C   UNL     1      -0.283   7.006  -1.173  1.00  0.00     0.238 A 
ATOM      4  O   UNL     1      -0.221   8.239  -0.915  1.00  0.00    -0.285 OA
ATOM      5  C   UNL     1       0.777   6.141  -0.834  1.00  0.00     0.111 A 
ATOM      6  C   UNL     1       1.964   6.582  -0.199  1.00  0.00     0.134 A 
ATOM      7  C   UNL     1       2.972   5.657   0.112  1.00  0.00     0.093 A 
ATOM      8  C   UNL     1       2.817   4.304  -0.198  1.00  0.00     0.123 A 
ATOM      9  C   UNL     1       1.649   3.862  -0.827  1.00  0.00     0.094 A 
ATOM     10  C   UNL     1       0.633   4.768  -1.145  1.00  0.00     0.146 A 
ATOM     11  O   UNL     1      -0.465   4.324  -1.745  1.00  0.00    -0.451 OA
ENDROOT
BRANCH   1  12
ATOM     12  C   UNL     1      -2.648   4.500  -2.764  1.00  0.00     0.063 A 
ATOM     13  C   UNL     1      -4.885   3.546  -2.661  1.00  0.00     0.047 A 
ATOM     14  C   UNL     1      -3.772   4.096  -2.021  1.00  0.00     0.020 A 
ATOM     15  C   UNL     1      -4.898   3.401  -4.049  1.00  0.00     0.119 A 
ATOM     16  C   UNL     1      -3.790   3.813  -4.801  1.00  0.00     0.093 A 
ATOM     17  C   UNL     1      -2.668   4.364  -4.167  1.00  0.00     0.130 A 
BRANCH  15  18
ATOM     18  O   UNL     1      -6.016   2.851  -4.673  1.00  0.00    -0.508 OA
ATOM     19  H   UNL     1      -6.875   2.678  -4.164  1.00  0.00     0.293 HD
ENDBRANCH  15  18
BRANCH  17  20
ATOM     20  O   UNL     1      -1.568   4.765  -4.927  1.00  0.00    -0.507 OA
ATOM     21  H   UNL     1      -1.151   5.681  -4.815  1.00  0.00     0.293 HD
ENDBRANCH  17  20
ENDBRANCH   1  12
BRANCH   2  22
ATOM     22  O   UNL     1      -2.511   7.314  -2.108  1.00  0.00    -0.502 OA
ATOM     23  H   UNL     1      -2.434   8.324  -2.131  1.00  0.00     0.293 HD
ENDBRANCH   2  22
BRANCH   6  24
ATOM     24  O   UNL     1       2.148   7.927   0.125  1.00  0.00    -0.507 OA
ATOM     25  H   UNL     1       1.386   8.593   0.083  1.00  0.00     0.293 HD
ENDBRANCH   6  24
BRANCH   8  26
ATOM     26  O   UNL     1       3.834   3.406   0.122  1.00  0.00    -0.508 OA
ATOM     27  H   UNL     1       4.673   3.334  -0.441  1.00  0.00     0.293 HD
ENDBRANCH   8  26
TORSDOF 6
ENDMDL
MODEL 7
REMARK VINA RESULT:    -4.337      2.249      6.687
REMARK INTER + INTRA:          -5.636
REMARK INTER:                  -5.231
REMARK INTRA:                  -0.405
REMARK UNBOUND:                -0.412
REMARK SMILES O=c1c(O)c(-c2ccc(O)cc2O)oc2cc(O)cc(O)c12
REMARK SMILES IDX 5 1 3 2 2 3 1 4 22 5 20 6 19 7 17 8 16 9 15 10 14 11 6 12
REMARK SMILES IDX 8 13 7 14 9 15 11 16 12 17 10 18 13 20 4 22 21 24 18 26
REMARK H PARENT 10 19 13 21 4 23 21 25 18 27
REMARK Flexibility Score: inf
ROOT
ATOM      1  C   UNL     1      -2.068   4.918  -2.917  1.00  0.00     0.184 A 
ATOM      2  C   UNL     1      -1.986   4.854  -4.320  1.00  0.00     0.208 A 
ATOM      3  C   UNL     1      -3.018   4.223  -5.032  1.00  0.00     0.238 A 
ATOM      4  O   UNL     1      -2.959   4.166  -6.291  1.00  0.00    -0.285 OA
ATOM      5  C   UNL     1      -4.101   3.655  -4.330  1.00  0.00     0.111 A 
ATOM      6  C   UNL     1      -5.179   2.998  -4.971  1.00  0.00     0.134 A 
ATOM      7  C   UNL     1      -6.218   2.452  -4.202  1.00  0.00     0.093 A 
ATOM      8  C   UNL     1      -6.199   2.549  -2.808  1.00  0.00     0.123 A 
ATOM      9  C   UNL     1      -5.137   3.198  -2.170  1.00  0.00     0.094 A 
ATOM     10  C   UNL     1      -4.093   3.749  -2.919  1.00  0.00     0.146 A 
ATOM     11  O   UNL     1      -3.099   4.363  -2.288  1.00  0.00    -0.451 OA
ENDROOT
BRANCH   1  12
ATOM     12  C   UNL     1      -1.024   5.586  -2.104  1.00  0.00     0.063 A 
ATOM     13  C   UNL     1       1.112   5.514  -0.940  1.00  0.00     0.047 A 
ATOM     14  C   UNL     1       0.115   4.877  -1.682  1.00  0.00     0.020 A 
ATOM     15  C   UNL     1       0.994   6.867  -0.617  1.00  0.00     0.119 A 
ATOM     16  C   UNL     1      -0.129   7.587  -1.044  1.00  0.00     0.093 A 
ATOM     17  C   UNL     1      -1.137   6.955  -1.788  1.00  0.00     0.130 A 
BRANCH  15  18
ATOM     18  O   UNL     1       1.997   7.487   0.123  1.00  0.00    -0.508 OA
ATOM     19  H   UNL     1       2.097   7.326   1.119  1.00  0.00     0.293 HD
ENDBRANCH  15  18
BRANCH  17  20
ATOM     20  O   UNL     1      -2.254   7.682  -2.201  1.00  0.00    -0.507 OA
ATOM     21  H   UNL     1      -2.316   8.684  -2.064  1.00  0.00     0.293 HD
ENDBRANCH  17  20
ENDBRANCH   1  12
BRANCH   2  22
ATOM     22  O   UNL     1      -0.880   5.389  -4.986  1.00  0.00    -0.502 OA
ATOM     23  H   UNL     1      -0.288   6.099  -4.572  1.00  0.00     0.293 HD
ENDBRANCH   2  22
BRANCH   6  24
ATOM     24  O   UNL     1      -5.226   2.883  -6.361  1.00  0.00    -0.507 OA
ATOM     25  H   UNL     1      -5.119   3.689  -6.966  1.00  0.00     0.293 HD
ENDBRANCH   6  24
BRANCH   8  26
ATOM     26  O   UNL     1      -7.242   1.998  -2.068  1.00  0.00    -0.508 OA
ATOM     27  H   UNL     1      -7.319   2.147  -1.068  1.00  0.00     0.293 HD
ENDBRANCH   8  26
TORSDOF 6
ENDMDL
MODEL 8
REMARK VINA RESULT:    -4.211      1.810      6.633
REMARK INTER + INTRA:          -5.484
REMARK INTER:                  -5.090
REMARK INTRA:                  -0.394
REMARK UNBOUND:                -0.412
REMARK SMILES O=c1c(O)c(-c2ccc(O)cc2O)oc2cc(O)cc(O)c12
REMARK SMILES IDX 5 1 3 2 2 3 1 4 22 5 20 6 19 7 17 8 16 9 15 10 14 11 6 12
REMARK SMILES IDX 8 13 7 14 9 15 11 16 12 17 10 18 13 20 4 22 21 24 18 26
REMARK H PARENT 10 19 13 21 4 23 21 25 18 27
REMARK Flexibility Score: inf
ROOT
ATOM      1  C   UNL     1      -2.702   4.831  -3.148  1.00  0.00     0.184 A 
ATOM      2  C   UNL     1      -3.752   4.118  -2.540  1.00  0.00     0.208 A 
ATOM      3  C   UNL     1      -4.622   3.371  -3.349  1.00  0.00     0.238 A 
ATOM      4  O   UNL     1      -5.563   2.722  -2.814  1.00  0.00    -0.285 OA
ATOM      5  C   UNL     1      -4.439   3.362  -4.746  1.00  0.00     0.111 A 
ATOM      6  C   UNL     1      -5.273   2.639  -5.632  1.00  0.00     0.134 A 
ATOM      7  C   UNL     1      -5.029   2.686  -7.013  1.00  0.00     0.093 A 
ATOM      8  C   UNL     1      -3.970   3.441  -7.524  1.00  0.00     0.123 A 
ATOM      9  C   UNL     1      -3.142   4.157  -6.653  1.00  0.00     0.094 A 
ATOM     10  C   UNL     1      -3.368   4.122  -5.274  1.00  0.00     0.146 A 
ATOM     11  O   UNL     1      -2.565   4.808  -4.470  1.00  0.00    -0.451 OA
ENDROOT
BRANCH   1  12
ATOM     12  C   UNL     1      -1.735   5.624  -2.353  1.00  0.00     0.063 A 
ATOM     13  C   UNL     1      -1.057   7.737  -1.352  1.00  0.00     0.047 A 
ATOM     14  C   UNL     1      -1.954   6.995  -2.124  1.00  0.00     0.020 A 
ATOM     15  C   UNL     1       0.063   7.122  -0.789  1.00  0.00     0.119 A 
ATOM     16  C   UNL     1       0.284   5.754  -0.999  1.00  0.00     0.093 A 
ATOM     17  C   UNL     1      -0.610   5.002  -1.775  1.00  0.00     0.130 A 
BRANCH  15  18
ATOM     18  O   UNL     1       0.948   7.875  -0.021  1.00  0.00    -0.508 OA
ATOM     19  H   UNL     1       1.628   7.434   0.589  1.00  0.00     0.293 HD
ENDBRANCH  15  18
BRANCH  17  20
ATOM     20  O   UNL     1      -0.375   3.642  -1.981  1.00  0.00    -0.507 OA
ATOM     21  H   UNL     1      -0.631   3.185  -2.849  1.00  0.00     0.293 HD
ENDBRANCH  17  20
ENDBRANCH   1  12
BRANCH   2  22
ATOM     22  O   UNL     1      -3.935   4.178  -1.156  1.00  0.00    -0.502 OA
ATOM     23  H   UNL     1      -4.837   4.370  -0.735  1.00  0.00     0.293 HD
ENDBRANCH   2  22
BRANCH   6  24
ATOM     24  O   UNL     1      -6.339   1.876  -5.153  1.00  0.00    -0.507 OA
ATOM     25  H   UNL     1      -6.946   2.214  -4.416  1.00  0.00     0.293 HD
ENDBRANCH   6  24
BRANCH   8  26
ATOM     26  O   UNL     1      -3.749   3.472  -8.899  1.00  0.00    -0.508 OA
ATOM     27  H   UNL     1      -3.345   2.681  -9.388  1.00  0.00     0.293 HD
ENDBRANCH   8  26
TORSDOF 6
ENDMDL
MODEL 9
REMARK VINA RESULT:    -4.006      4.227      7.106
REMARK INTER + INTRA:          -5.237
REMARK INTER:                  -4.852
REMARK INTRA:                  -0.385
REMARK UNBOUND:                -0.412
REMARK SMILES O=c1c(O)c(-c2ccc(O)cc2O)oc2cc(O)cc(O)c12
REMARK SMILES IDX 5 1 3 2 2 3 1 4 22 5 20 6 19 7 17 8 16 9 15 10 14 11 6 12
REMARK SMILES IDX 8 13 7 14 9 15 11 16 12 17 10 18 13 20 4 22 21 24 18 26
REMARK H PARENT 10 19 13 21 4 23 21 25 18 27
REMARK Flexibility Score: inf
ROOT
ATOM      1  C   UNL     1      -6.516   3.279  -4.875  1.00  0.00     0.184 A 
ATOM      2  C   UNL     1      -7.049   2.578  -5.973  1.00  0.00     0.208 A 
ATOM      3  C   UNL     1      -6.303   2.506  -7.159  1.00  0.00     0.238 A 
ATOM      4  O   UNL     1      -6.768   1.875  -8.147  1.00  0.00    -0.285 OA
ATOM      5  C   UNL     1      -5.050   3.146  -7.233  1.00  0.00     0.111 A 
ATOM      6  C   UNL     1      -4.236   3.125  -8.392  1.00  0.00     0.134 A 
ATOM      7  C   UNL     1      -3.003   3.793  -8.390  1.00  0.00     0.093 A 
ATOM      8  C   UNL     1      -2.567   4.480  -7.254  1.00  0.00     0.123 A 
ATOM      9  C   UNL     1      -3.365   4.504  -6.106  1.00  0.00     0.094 A 
ATOM     10  C   UNL     1      -4.598   3.844  -6.088  1.00  0.00     0.146 A 
ATOM     11  O   UNL     1      -5.335   3.879  -4.984  1.00  0.00    -0.451 OA
ENDROOT
BRANCH   1  12
ATOM     12  C   UNL     1      -7.240   3.379  -3.587  1.00  0.00     0.063 A 
ATOM     13  C   UNL     1      -9.172   4.120  -2.303  1.00  0.00     0.047 A 
ATOM     14  C   UNL     1      -8.475   4.049  -3.512  1.00  0.00     0.020 A 
ATOM     15  C   UNL     1      -8.654   3.515  -1.156  1.00  0.00     0.119 A 
ATOM     16  C   UNL     1      -7.432   2.833  -1.221  1.00  0.00     0.093 A 
ATOM     17  C   UNL     1      -6.724   2.760  -2.430  1.00  0.00     0.130 A 
BRANCH  15  18
ATOM     18  O   UNL     1      -9.360   3.594   0.042  1.00  0.00    -0.508 OA
ATOM     19  H   UNL     1      -9.054   3.097   0.871  1.00  0.00     0.293 HD
ENDBRANCH  15  18
BRANCH  17  20
ATOM     20  O   UNL     1      -5.505   2.083  -2.481  1.00  0.00    -0.507 OA
ATOM     21  H   UNL     1      -4.622   2.572  -2.392  1.00  0.00     0.293 HD
ENDBRANCH  17  20
ENDBRANCH   1  12
BRANCH   2  22
ATOM     22  O   UNL     1      -8.313   1.989  -5.885  1.00  0.00    -0.502 OA
ATOM     23  H   UNL     1      -9.169   2.528  -5.942  1.00  0.00     0.293 HD
ENDBRANCH   2  22
BRANCH   6  24
ATOM     24  O   UNL     1      -4.644   2.448  -9.543  1.00  0.00    -0.507 OA
ATOM     25  H   UNL     1      -4.042   1.779 -10.008  1.00  0.00     0.293 HD
ENDBRANCH   6  24
BRANCH   8  26
ATOM     26  O   UNL     1      -1.338   5.136  -7.277  1.00  0.00    -0.508 OA
ATOM     27  H   UNL     1      -1.229   6.042  -7.717  1.00  0.00     0.293 HD
ENDBRANCH   8  26
TORSDOF 6
ENDMDL
