MODEL 1
REMARK VINA RESULT:    -5.749      0.000      0.000
REMARK INTER + INTRA:          -7.138
REMARK INTER:                  -6.925
REMARK INTRA:                  -0.212
REMARK UNBOUND:                -0.212
REMARK SMILES O=c1c(O)c(-c2ccc(O)c(O)c2)oc2cc(O)cc(O)c12
REMARK SMILES IDX 5 1 3 2 2 3 1 4 22 5 20 6 19 7 17 8 16 9 15 10 14 11 6 12
REMARK SMILES IDX 7 13 8 14 9 15 13 16 11 17 10 18 12 20 4 22 21 24 18 26
REMARK H PARENT 10 19 12 21 4 23 21 25 18 27
REMARK Flexibility Score: inf
ROOT
ATOM      1  C   UNL     1      25.292  -5.384 -19.605  1.00  0.00     0.180 A 
ATOM      2  C   UNL     1      23.997  -5.573 -20.115  1.00  0.00     0.208 A 
ATOM      3  C   UNL     1      23.410  -6.846 -20.029  1.00  0.00     0.238 A 
ATOM      4  O   UNL     1      22.222  -6.989 -20.419  1.00  0.00    -0.285 OA
ATOM      5  C   UNL     1      24.146  -7.927 -19.487  1.00  0.00     0.111 A 
ATOM      6  C   UNL     1      23.668  -9.269 -19.392  1.00  0.00     0.134 A 
ATOM      7  C   UNL     1      24.445 -10.235 -18.740  1.00  0.00     0.093 A 
ATOM      8  C   UNL     1      25.707  -9.924 -18.236  1.00  0.00     0.123 A 
ATOM      9  C   UNL     1      26.207  -8.628 -18.372  1.00  0.00     0.094 A 
ATOM     10  C   UNL     1      25.441  -7.634 -18.983  1.00  0.00     0.146 A 
ATOM     11  O   UNL     1      25.946  -6.410 -19.073  1.00  0.00    -0.452 OA
ENDROOT
BRANCH   1  12
ATOM     12  C   UNL     1      25.972  -4.069 -19.646  1.00  0.00     0.025 A 
ATOM     13  C   UNL     1      27.135  -3.917 -20.416  1.00  0.00     0.016 A 
ATOM     14  C   UNL     1      27.805  -2.691 -20.453  1.00  0.00     0.051 A 
ATOM     15  C   UNL     1      27.330  -1.604 -19.708  1.00  0.00     0.157 A 
ATOM     16  C   UNL     1      25.510  -2.982 -18.883  1.00  0.00     0.062 A 
ATOM     17  C   UNL     1      26.179  -1.752 -18.915  1.00  0.00     0.158 A 
BRANCH  15  18
ATOM     18  O   UNL     1      27.999  -0.382 -19.748  1.00  0.00    -0.504 OA
ATOM     19  H   UNL     1      27.803   0.307 -20.464  1.00  0.00     0.293 HD
ENDBRANCH  15  18
BRANCH  17  20
ATOM     20  O   UNL     1      25.689  -0.694 -18.150  1.00  0.00    -0.504 OA
ATOM     21  H   UNL     1      24.699  -0.562 -17.987  1.00  0.00     0.293 HD
ENDBRANCH  17  20
ENDBRANCH   1  12
BRANCH   2  22
ATOM     22  O   UNL     1      23.315  -4.511 -20.716  1.00  0.00    -0.502 OA
ATOM     23  H   UNL     1      23.724  -3.592 -20.823  1.00  0.00     0.293 HD
ENDBRANCH   2  22
BRANCH   6  24
ATOM     24  O   UNL     1      22.459  -9.711 -19.939  1.00  0.00    -0.507 OA
ATOM     25  H   UNL     1      22.092 -10.645 -19.850  1.00  0.00     0.293 HD
ENDBRANCH   6  24
BRANCH   8  26
ATOM     26  O   UNL     1      26.460 -10.913 -17.608  1.00  0.00    -0.508 OA
ATOM     27  H   UNL     1      26.412 -11.883 -17.900  1.00  0.00     0.293 HD
ENDBRANCH   8  26
TORSDOF 6
ENDMDL
MODEL 2
REMARK VINA RESULT:    -5.417      1.420      3.037
REMARK INTER + INTRA:          -6.738
REMARK INTER:                  -6.479
REMARK INTRA:                  -0.259
REMARK UNBOUND:                -0.212
REMARK SMILES O=c1c(O)c(-c2ccc(O)c(O)c2)oc2cc(O)cc(O)c12
REMARK SMILES IDX 5 1 3 2 2 3 1 4 22 5 20 6 19 7 17 8 16 9 15 10 14 11 6 12
REMARK SMILES IDX 7 13 8 14 9 15 13 16 11 17 10 18 12 20 4 22 21 24 18 26
REMARK H PARENT 10 19 12 21 4 23 21 25 18 27
REMARK Flexibility Score: inf
ROOT
ATOM      1  C   UNL     1      25.868  -4.795 -19.031  1.00  0.00     0.180 A 
ATOM      2  C   UNL     1      26.596  -5.877 -18.508  1.00  0.00     0.208 A 
ATOM      3  C   UNL     1      26.057  -7.171 -18.605  1.00  0.00     0.238 A 
ATOM      4  O   UNL     1      26.748  -8.142 -18.202  1.00  0.00    -0.285 OA
ATOM      5  C   UNL     1      24.774  -7.360 -19.172  1.00  0.00     0.111 A 
ATOM      6  C   UNL     1      24.112  -8.620 -19.281  1.00  0.00     0.134 A 
ATOM      7  C   UNL     1      22.888  -8.701 -19.957  1.00  0.00     0.093 A 
ATOM      8  C   UNL     1      22.273  -7.562 -20.472  1.00  0.00     0.123 A 
ATOM      9  C   UNL     1      22.885  -6.316 -20.323  1.00  0.00     0.094 A 
ATOM     10  C   UNL     1      24.123  -6.208 -19.688  1.00  0.00     0.146 A 
ATOM     11  O   UNL     1      24.681  -5.007 -19.587  1.00  0.00    -0.452 OA
ENDROOT
BRANCH   1  12
ATOM     12  C   UNL     1      26.375  -3.405 -18.980  1.00  0.00     0.025 A 
ATOM     13  C   UNL     1      27.418  -3.019 -19.838  1.00  0.00     0.016 A 
ATOM     14  C   UNL     1      27.927  -1.719 -19.792  1.00  0.00     0.051 A 
ATOM     15  C   UNL     1      27.412  -0.789 -18.879  1.00  0.00     0.157 A 
ATOM     16  C   UNL     1      25.875  -2.476 -18.050  1.00  0.00     0.062 A 
ATOM     17  C   UNL     1      26.384  -1.172 -18.000  1.00  0.00     0.158 A 
BRANCH  15  18
ATOM     18  O   UNL     1      27.921   0.508 -18.837  1.00  0.00    -0.504 OA
ATOM     19  H   UNL     1      28.360   0.878 -18.003  1.00  0.00     0.293 HD
ENDBRANCH  15  18
BRANCH  17  20
ATOM     20  O   UNL     1      25.860  -0.276 -17.069  1.00  0.00    -0.504 OA
ATOM     21  H   UNL     1      26.405   0.493 -16.699  1.00  0.00     0.293 HD
ENDBRANCH  17  20
ENDBRANCH   1  12
BRANCH   2  22
ATOM     22  O   UNL     1      27.827  -5.661 -17.883  1.00  0.00    -0.502 OA
ATOM     23  H   UNL     1      28.106  -6.154 -17.043  1.00  0.00     0.293 HD
ENDBRANCH   2  22
BRANCH   6  24
ATOM     24  O   UNL     1      24.594  -9.810 -18.726  1.00  0.00    -0.507 OA
ATOM     25  H   UNL     1      24.192 -10.721 -18.875  1.00  0.00     0.293 HD
ENDBRANCH   6  24
BRANCH   8  26
ATOM     26  O   UNL     1      21.047  -7.677 -21.124  1.00  0.00    -0.508 OA
ATOM     27  H   UNL     1      20.623  -6.888 -21.600  1.00  0.00     0.293 HD
ENDBRANCH   8  26
TORSDOF 6
ENDMDL
MODEL 3
REMARK VINA RESULT:    -4.952      1.586      7.163
REMARK INTER + INTRA:          -6.178
REMARK INTER:                  -5.881
REMARK INTRA:                  -0.297
REMARK UNBOUND:                -0.212
REMARK SMILES O=c1c(O)c(-c2ccc(O)c(O)c2)oc2cc(O)cc(O)c12
REMARK SMILES IDX 5 1 3 2 2 3 1 4 22 5 20 6 19 7 17 8 16 9 15 10 14 11 6 12
REMARK SMILES IDX 7 13 8 14 9 15 13 16 11 17 10 18 12 20 4 22 21 24 18 26
REMARK H PARENT 10 19 12 21 4 23 21 25 18 27
REMARK Flexibility Score: inf
ROOT
ATOM      1  C   UNL     1      25.661  -4.717 -19.093  1.00  0.00     0.180 A 
ATOM      2  C   UNL     1      26.570  -4.384 -20.112  1.00  0.00     0.208 A 
ATOM      3  C   UNL     1      27.163  -3.110 -20.104  1.00  0.00     0.238 A 
ATOM      4  O   UNL     1      28.031  -2.845 -20.975  1.00  0.00    -0.285 OA
ATOM      5  C   UNL     1      26.797  -2.167 -19.113  1.00  0.00     0.111 A 
ATOM      6  C   UNL     1      27.300  -0.834 -19.035  1.00  0.00     0.134 A 
ATOM      7  C   UNL     1      26.947  -0.024 -17.949  1.00  0.00     0.093 A 
ATOM      8  C   UNL     1      26.062  -0.476 -16.972  1.00  0.00     0.123 A 
ATOM      9  C   UNL     1      25.521  -1.759 -17.067  1.00  0.00     0.094 A 
ATOM     10  C   UNL     1      25.883  -2.604 -18.118  1.00  0.00     0.146 A 
ATOM     11  O   UNL     1      25.362  -3.824 -18.158  1.00  0.00    -0.452 OA
ENDROOT
BRANCH   1  12
ATOM     12  C   UNL     1      25.007  -6.044 -19.025  1.00  0.00     0.025 A 
ATOM     13  C   UNL     1      25.713  -7.136 -18.496  1.00  0.00     0.016 A 
ATOM     14  C   UNL     1      25.124  -8.401 -18.441  1.00  0.00     0.051 A 
ATOM     15  C   UNL     1      23.825  -8.598 -18.927  1.00  0.00     0.157 A 
ATOM     16  C   UNL     1      23.711  -6.250 -19.531  1.00  0.00     0.062 A 
ATOM     17  C   UNL     1      23.117  -7.517 -19.480  1.00  0.00     0.158 A 
BRANCH  15  18
ATOM     18  O   UNL     1      23.239  -9.861 -18.869  1.00  0.00    -0.504 OA
ATOM     19  H   UNL     1      23.631 -10.602 -18.301  1.00  0.00     0.293 HD
ENDBRANCH  15  18
BRANCH  17  20
ATOM     20  O   UNL     1      21.828  -7.682 -19.986  1.00  0.00    -0.504 OA
ATOM     21  H   UNL     1      21.613  -8.379 -20.689  1.00  0.00     0.293 HD
ENDBRANCH  17  20
ENDBRANCH   1  12
BRANCH   2  22
ATOM     22  O   UNL     1      26.860  -5.301 -21.125  1.00  0.00    -0.502 OA
ATOM     23  H   UNL     1      26.269  -5.420 -21.938  1.00  0.00     0.293 HD
ENDBRANCH   2  22
BRANCH   6  24
ATOM     24  O   UNL     1      28.122  -0.249 -20.004  1.00  0.00    -0.507 OA
ATOM     25  H   UNL     1      27.828   0.005 -20.934  1.00  0.00     0.293 HD
ENDBRANCH   6  24
BRANCH   8  26
ATOM     26  O   UNL     1      25.719   0.362 -15.913  1.00  0.00    -0.508 OA
ATOM     27  H   UNL     1      25.320   1.281 -16.070  1.00  0.00     0.293 HD
ENDBRANCH   8  26
TORSDOF 6
ENDMDL
