MODEL 1
REMARK VINA RESULT:    -3.085      0.000      0.000
REMARK INTER + INTRA:          -3.676
REMARK INTER:                  -3.536
REMARK INTRA:                  -0.140
REMARK UNBOUND:                -0.140
REMARK SMILES O=C([O-])C=Cc1ccc(O)cc1
REMARK SMILES IDX 6 1 7 2 12 3 8 4 11 5 9 6 5 7 4 8 2 9 1 10 3 11 10 12
REMARK H PARENT 10 13
REMARK Flexibility Score: inf
ROOT
ATOM      1  C   UNL     1       3.189   1.189 -18.620  1.00  0.00    -0.025 A 
ATOM      2  C   UNL     1       3.325   0.310 -17.526  1.00  0.00     0.012 A 
ATOM      3  C   UNL     1       3.247   2.574 -18.387  1.00  0.00     0.012 A 
ATOM      4  C   UNL     1       3.538   0.811 -16.238  1.00  0.00     0.047 A 
ATOM      5  C   UNL     1       3.460   3.071 -17.098  1.00  0.00     0.047 A 
ATOM      6  C   UNL     1       3.609   2.190 -16.020  1.00  0.00     0.115 A 
ENDROOT
BRANCH   1   7
ATOM      7  C   UNL     1       2.950   0.711 -20.005  1.00  0.00     0.010 C 
ATOM      8  C   UNL     1       3.231  -0.530 -20.422  1.00  0.00     0.025 C 
BRANCH   8   9
ATOM      9  C   UNL     1       2.988  -0.957 -21.809  1.00  0.00     0.064 C 
ATOM     10  O   UNL     1       2.875  -2.184 -22.072  1.00  0.00    -0.545 OA
ATOM     11  O   UNL     1       2.878  -0.028 -22.838  1.00  0.00    -0.545 OA
ENDBRANCH   8   9
ENDBRANCH   1   7
BRANCH   6  12
ATOM     12  O   UNL     1       3.823   2.673 -14.731  1.00  0.00    -0.508 OA
ATOM     13  H   UNL     1       3.906   2.048 -13.938  1.00  0.00     0.293 HD
ENDBRANCH   6  12
TORSDOF 3
ENDMDL
MODEL 2
REMARK VINA RESULT:    -3.004      1.218      5.998
REMARK INTER + INTRA:          -3.583
REMARK INTER:                  -3.448
REMARK INTRA:                  -0.134
REMARK UNBOUND:                -0.140
REMARK SMILES O=C([O-])C=Cc1ccc(O)cc1
REMARK SMILES IDX 6 1 7 2 12 3 8 4 11 5 9 6 5 7 4 8 2 9 1 10 3 11 10 12
REMARK H PARENT 10 13
REMARK Flexibility Score: inf
ROOT
ATOM      1  C   UNL     1       3.125   1.364 -17.972  1.00  0.00    -0.025 A 
ATOM      2  C   UNL     1       2.958   2.318 -18.997  1.00  0.00     0.012 A 
ATOM      3  C   UNL     1       3.185   0.002 -18.317  1.00  0.00     0.012 A 
ATOM      4  C   UNL     1       2.878   1.913 -20.334  1.00  0.00     0.047 A 
ATOM      5  C   UNL     1       3.106  -0.397 -19.654  1.00  0.00     0.047 A 
ATOM      6  C   UNL     1       2.954   0.558 -20.667  1.00  0.00     0.115 A 
ENDROOT
BRANCH   1   7
ATOM      7  C   UNL     1       3.204   1.738 -16.538  1.00  0.00     0.010 C 
ATOM      8  C   UNL     1       4.182   2.490 -16.018  1.00  0.00     0.025 C 
BRANCH   8   9
ATOM      9  C   UNL     1       4.226   2.827 -14.586  1.00  0.00     0.064 C 
ATOM     10  O   UNL     1       5.280   2.619 -13.930  1.00  0.00    -0.545 OA
ATOM     11  O   UNL     1       3.121   3.374 -13.943  1.00  0.00    -0.545 OA
ENDBRANCH   8   9
ENDBRANCH   1   7
BRANCH   6  12
ATOM     12  O   UNL     1       2.875   0.172 -22.002  1.00  0.00    -0.508 OA
ATOM     13  H   UNL     1       3.673   0.241 -22.622  1.00  0.00     0.293 HD
ENDBRANCH   6  12
TORSDOF 3
ENDMDL
MODEL 3
REMARK VINA RESULT:    -1.792      1.249      5.825
REMARK INTER + INTRA:          -2.194
REMARK INTER:                  -2.058
REMARK INTRA:                  -0.136
REMARK UNBOUND:                -0.140
REMARK SMILES O=C([O-])C=Cc1ccc(O)cc1
REMARK SMILES IDX 6 1 7 2 12 3 8 4 11 5 9 6 5 7 4 8 2 9 1 10 3 11 10 12
REMARK H PARENT 10 13
REMARK Flexibility Score: inf
ROOT
ATOM      1  C   UNL     1       3.079   0.441 -19.693  1.00  0.00    -0.025 A 
ATOM      2  C   UNL     1       2.880   1.571 -20.514  1.00  0.00     0.012 A 
ATOM      3  C   UNL     1       3.249  -0.815 -20.301  1.00  0.00     0.012 A 
ATOM      4  C   UNL     1       2.875   1.442 -21.906  1.00  0.00     0.047 A 
ATOM      5  C   UNL     1       3.245  -0.939 -21.693  1.00  0.00     0.047 A 
ATOM      6  C   UNL     1       3.060   0.191 -22.500  1.00  0.00     0.115 A 
ENDROOT
BRANCH   1   7
ATOM      7  C   UNL     1       3.082   0.520 -18.211  1.00  0.00     0.010 C 
ATOM      8  C   UNL     1       3.808   1.403 -17.514  1.00  0.00     0.025 C 
BRANCH   8   9
ATOM      9  C   UNL     1       3.788   1.437 -16.043  1.00  0.00     0.064 C 
ATOM     10  O   UNL     1       4.384   0.539 -15.392  1.00  0.00    -0.545 OA
ATOM     11  O   UNL     1       3.122   2.447 -15.358  1.00  0.00    -0.545 OA
ENDBRANCH   8   9
ENDBRANCH   1   7
BRANCH   6  12
ATOM     12  O   UNL     1       3.054   0.080 -23.888  1.00  0.00    -0.508 OA
ATOM     13  H   UNL     1       2.548  -0.661 -24.358  1.00  0.00     0.293 HD
ENDBRANCH   6  12
TORSDOF 3
ENDMDL
MODEL 4
REMARK VINA RESULT:    -1.527      1.225      1.693
REMARK INTER + INTRA:          -1.890
REMARK INTER:                  -1.752
REMARK INTRA:                  -0.138
REMARK UNBOUND:                -0.140
REMARK SMILES O=C([O-])C=Cc1ccc(O)cc1
REMARK SMILES IDX 6 1 7 2 12 3 8 4 11 5 9 6 5 7 4 8 2 9 1 10 3 11 10 12
REMARK H PARENT 10 13
REMARK Flexibility Score: inf
ROOT
ATOM      1  C   UNL     1       2.949   0.572 -19.455  1.00  0.00    -0.025 A 
ATOM      2  C   UNL     1       2.945   0.171 -18.104  1.00  0.00     0.012 A 
ATOM      3  C   UNL     1       2.917   1.946 -19.754  1.00  0.00     0.012 A 
ATOM      4  C   UNL     1       2.933   1.125 -17.082  1.00  0.00     0.047 A 
ATOM      5  C   UNL     1       2.906   2.896 -18.729  1.00  0.00     0.047 A 
ATOM      6  C   UNL     1       2.917   2.488 -17.389  1.00  0.00     0.115 A 
ENDROOT
BRANCH   1   7
ATOM      7  C   UNL     1       2.950  -0.398 -20.578  1.00  0.00     0.010 C 
ATOM      8  C   UNL     1       3.922  -1.296 -20.785  1.00  0.00     0.025 C 
BRANCH   8   9
ATOM      9  C   UNL     1       3.886  -2.233 -21.919  1.00  0.00     0.064 C 
ATOM     10  O   UNL     1       2.880  -2.254 -22.677  1.00  0.00    -0.545 OA
ATOM     11  O   UNL     1       4.947  -3.096 -22.171  1.00  0.00    -0.545 OA
ENDBRANCH   8   9
ENDBRANCH   1   7
BRANCH   6  12
ATOM     12  O   UNL     1       2.907   3.426 -16.360  1.00  0.00    -0.508 OA
ATOM     13  H   UNL     1       3.580   4.182 -16.326  1.00  0.00     0.293 HD
ENDBRANCH   6  12
TORSDOF 3
ENDMDL
