MODEL 1
REMARK VINA RESULT:    -5.009      0.000      0.000
REMARK INTER + INTRA:         -15.937
REMARK INTER:                 -12.623
REMARK INTRA:                  -3.314
REMARK UNBOUND:                -3.314
REMARK SMILES CCCCCCCCCCCCCCCCCCCCCCCCCCCC(=O)[O-]
REMARK SMILES IDX 15 1 16 2 17 3 18 4 19 5 20 6 21 7 22 8 23 9 24 10 25 11
REMARK SMILES IDX 26 12 27 13 28 14 29 15 30 16 14 17 13 18 12 19 11 20 10 21
REMARK SMILES IDX 9 22 8 23 7 24 6 25 5 26 4 27 3 28 2 29 1 30
REMARK H PARENT
REMARK Flexibility Score: inf
ROOT
ATOM      1  C   UNL     1      27.412  13.282  35.606  1.00  0.00     0.000 C 
ENDROOT
BRANCH   1   2
ATOM      2  C   UNL     1      27.964  14.354  34.644  1.00  0.00     0.000 C 
BRANCH   2   3
ATOM      3  C   UNL     1      27.566  14.118  33.172  1.00  0.00     0.000 C 
BRANCH   3   4
ATOM      4  C   UNL     1      28.131  12.821  32.565  1.00  0.00     0.000 C 
BRANCH   4   5
ATOM      5  C   UNL     1      29.024  13.084  31.337  1.00  0.00     0.000 C 
BRANCH   5   6
ATOM      6  C   UNL     1      28.273  12.934  30.004  1.00  0.00     0.000 C 
BRANCH   6   7
ATOM      7  C   UNL     1      28.025  11.467  29.582  1.00  0.00     0.000 C 
BRANCH   7   8
ATOM      8  C   UNL     1      26.607  11.198  29.049  1.00  0.00     0.000 C 
BRANCH   8   9
ATOM      9  C   UNL     1      25.604  12.335  29.353  1.00  0.00     0.000 C 
BRANCH   9  10
ATOM     10  C   UNL     1      24.909  12.150  30.712  1.00  0.00     0.000 C 
BRANCH  10  11
ATOM     11  C   UNL     1      24.683  10.673  31.090  1.00  0.00     0.000 C 
BRANCH  11  12
ATOM     12  C   UNL     1      23.433  10.070  30.421  1.00  0.00     0.006 C 
BRANCH  12  13
ATOM     13  C   UNL     1      22.139  10.348  31.208  1.00  0.00     0.053 C 
BRANCH  13  14
ATOM     14  C   UNL     1      21.276  11.360  30.514  1.00  0.00     0.041 C 
ATOM     15  O   UNL     1      20.213  11.768  31.057  1.00  0.00    -0.550 OA
ATOM     16  O   UNL     1      21.624  11.818  29.248  1.00  0.00    -0.550 OA
ENDBRANCH  13  14
ENDBRANCH  12  13
ENDBRANCH  11  12
ENDBRANCH  10  11
ENDBRANCH   9  10
ENDBRANCH   8   9
ENDBRANCH   7   8
ENDBRANCH   6   7
ENDBRANCH   5   6
ENDBRANCH   4   5
ENDBRANCH   3   4
ENDBRANCH   2   3
ENDBRANCH   1   2
BRANCH   1  17
ATOM     17  C   UNL     1      26.147  13.776  36.321  1.00  0.00     0.000 C 
BRANCH  17  18
ATOM     18  C   UNL     1      24.982  12.780  36.205  1.00  0.00     0.000 C 
BRANCH  18  19
ATOM     19  C   UNL     1      24.962  12.036  34.856  1.00  0.00     0.000 C 
BRANCH  19  20
ATOM     20  C   UNL     1      23.679  12.316  34.057  1.00  0.00     0.000 C 
BRANCH  20  21
ATOM     21  C   UNL     1      22.502  12.710  34.969  1.00  0.00     0.000 C 
BRANCH  21  22
ATOM     22  C   UNL     1      21.133  12.345  34.361  1.00  0.00    -0.000 C 
BRANCH  22  23
ATOM     23  C   UNL     1      20.176  13.550  34.322  1.00  0.00    -0.000 C 
BRANCH  23  24
ATOM     24  C   UNL     1      19.444  13.812  35.652  1.00  0.00    -0.000 C 
BRANCH  24  25
ATOM     25  C   UNL     1      18.205  12.935  35.927  1.00  0.00    -0.000 C 
BRANCH  25  26
ATOM     26  C   UNL     1      18.273  12.184  37.269  1.00  0.00    -0.000 C 
BRANCH  26  27
ATOM     27  C   UNL     1      18.003  10.676  37.129  1.00  0.00    -0.000 C 
BRANCH  27  28
ATOM     28  C   UNL     1      19.126   9.897  36.419  1.00  0.00    -0.000 C 
BRANCH  28  29
ATOM     29  C   UNL     1      19.405   8.541  37.085  1.00  0.00    -0.003 C 
ATOM     30  C   UNL     1      18.429   7.470  36.594  1.00  0.00     0.004 C 
ENDBRANCH  28  29
ENDBRANCH  27  28
ENDBRANCH  26  27
ENDBRANCH  25  26
ENDBRANCH  24  25
ENDBRANCH  23  24
ENDBRANCH  22  23
ENDBRANCH  21  22
ENDBRANCH  20  21
ENDBRANCH  19  20
ENDBRANCH  18  19
ENDBRANCH  17  18
ENDBRANCH   1  17
TORSDOF 26
ENDMDL
MODEL 2
REMARK VINA RESULT:    -4.889      2.505      6.692
REMARK INTER + INTRA:         -15.634
REMARK INTER:                 -11.954
REMARK INTRA:                  -3.681
REMARK UNBOUND:                -3.314
REMARK SMILES CCCCCCCCCCCCCCCCCCCCCCCCCCCC(=O)[O-]
REMARK SMILES IDX 15 1 16 2 17 3 18 4 19 5 20 6 21 7 22 8 23 9 24 10 25 11
REMARK SMILES IDX 26 12 27 13 28 14 29 15 30 16 14 17 13 18 12 19 11 20 10 21
REMARK SMILES IDX 9 22 8 23 7 24 6 25 5 26 4 27 3 28 2 29 1 30
REMARK H PARENT
REMARK Flexibility Score: inf
ROOT
ATOM      1  C   UNL     1      27.814  13.216  34.490  1.00  0.00     0.000 C 
ENDROOT
BRANCH   1   2
ATOM      2  C   UNL     1      27.414  11.762  34.815  1.00  0.00     0.000 C 
BRANCH   2   3
ATOM      3  C   UNL     1      25.894  11.510  34.714  1.00  0.00     0.000 C 
BRANCH   3   4
ATOM      4  C   UNL     1      25.137  11.674  36.044  1.00  0.00     0.000 C 
BRANCH   4   5
ATOM      5  C   UNL     1      24.123  12.834  36.007  1.00  0.00     0.000 C 
BRANCH   5   6
ATOM      6  C   UNL     1      23.029  12.644  34.946  1.00  0.00     0.000 C 
BRANCH   6   7
ATOM      7  C   UNL     1      21.602  12.509  35.529  1.00  0.00     0.000 C 
BRANCH   7   8
ATOM      8  C   UNL     1      20.703  13.732  35.275  1.00  0.00     0.000 C 
BRANCH   8   9
ATOM      9  C   UNL     1      19.208  13.477  35.578  1.00  0.00     0.000 C 
BRANCH   9  10
ATOM     10  C   UNL     1      19.008  12.371  36.629  1.00  0.00     0.000 C 
BRANCH  10  11
ATOM     11  C   UNL     1      18.179  11.179  36.115  1.00  0.00     0.000 C 
BRANCH  11  12
ATOM     12  C   UNL     1      19.053   9.994  35.661  1.00  0.00     0.006 C 
BRANCH  12  13
ATOM     13  C   UNL     1      18.401   8.627  35.939  1.00  0.00     0.053 C 
BRANCH  13  14
ATOM     14  C   UNL     1      18.959   7.988  37.176  1.00  0.00     0.041 C 
ATOM     15  O   UNL     1      19.076   8.656  38.240  1.00  0.00    -0.550 OA
ATOM     16  O   UNL     1      19.391   6.667  37.140  1.00  0.00    -0.550 OA
ENDBRANCH  13  14
ENDBRANCH  12  13
ENDBRANCH  11  12
ENDBRANCH  10  11
ENDBRANCH   9  10
ENDBRANCH   8   9
ENDBRANCH   7   8
ENDBRANCH   6   7
ENDBRANCH   5   6
ENDBRANCH   4   5
ENDBRANCH   3   4
ENDBRANCH   2   3
ENDBRANCH   1   2
BRANCH   1  17
ATOM     17  C   UNL     1      27.583  13.536  33.007  1.00  0.00     0.000 C 
BRANCH  17  18
ATOM     18  C   UNL     1      28.768  13.108  32.125  1.00  0.00     0.000 C 
BRANCH  18  19
ATOM     19  C   UNL     1      28.335  12.658  30.717  1.00  0.00     0.000 C 
BRANCH  19  20
ATOM     20  C   UNL     1      27.362  11.469  30.760  1.00  0.00     0.000 C 
BRANCH  20  21
ATOM     21  C   UNL     1      26.306  11.542  29.642  1.00  0.00     0.000 C 
BRANCH  21  22
ATOM     22  C   UNL     1      25.026  12.279  30.083  1.00  0.00    -0.000 C 
BRANCH  22  23
ATOM     23  C   UNL     1      24.693  12.029  31.565  1.00  0.00    -0.000 C 
BRANCH  23  24
ATOM     24  C   UNL     1      23.507  11.072  31.787  1.00  0.00    -0.000 C 
BRANCH  24  25
ATOM     25  C   UNL     1      22.503  10.955  30.622  1.00  0.00    -0.000 C 
BRANCH  25  26
ATOM     26  C   UNL     1      21.116  10.451  31.060  1.00  0.00    -0.000 C 
BRANCH  26  27
ATOM     27  C   UNL     1      20.649  11.057  32.394  1.00  0.00    -0.000 C 
BRANCH  27  28
ATOM     28  C   UNL     1      19.311  11.817  32.309  1.00  0.00    -0.000 C 
BRANCH  28  29
ATOM     29  C   UNL     1      18.941  12.183  30.864  1.00  0.00    -0.003 C 
ATOM     30  C   UNL     1      19.302  13.636  30.550  1.00  0.00     0.004 C 
ENDBRANCH  28  29
ENDBRANCH  27  28
ENDBRANCH  26  27
ENDBRANCH  25  26
ENDBRANCH  24  25
ENDBRANCH  23  24
ENDBRANCH  22  23
ENDBRANCH  21  22
ENDBRANCH  20  21
ENDBRANCH  19  20
ENDBRANCH  18  19
ENDBRANCH  17  18
ENDBRANCH   1  17
TORSDOF 26
ENDMDL
MODEL 3
REMARK VINA RESULT:    -4.782      2.213      7.750
REMARK INTER + INTRA:         -15.363
REMARK INTER:                 -11.378
REMARK INTRA:                  -3.985
REMARK UNBOUND:                -3.314
REMARK SMILES CCCCCCCCCCCCCCCCCCCCCCCCCCCC(=O)[O-]
REMARK SMILES IDX 15 1 16 2 17 3 18 4 19 5 20 6 21 7 22 8 23 9 24 10 25 11
REMARK SMILES IDX 26 12 27 13 28 14 29 15 30 16 14 17 13 18 12 19 11 20 10 21
REMARK SMILES IDX 9 22 8 23 7 24 6 25 5 26 4 27 3 28 2 29 1 30
REMARK H PARENT
REMARK Flexibility Score: inf
ROOT
ATOM      1  C   UNL     1      24.755  12.051  34.655  1.00  0.00     0.000 C 
ENDROOT
BRANCH   1   2
ATOM      2  C   UNL     1      23.567  12.651  35.434  1.00  0.00     0.000 C 
BRANCH   2   3
ATOM      3  C   UNL     1      22.263  12.710  34.610  1.00  0.00     0.000 C 
BRANCH   3   4
ATOM      4  C   UNL     1      20.991  12.910  35.454  1.00  0.00     0.000 C 
BRANCH   4   5
ATOM      5  C   UNL     1      20.433  11.583  36.004  1.00  0.00     0.000 C 
BRANCH   5   6
ATOM      6  C   UNL     1      19.411  10.924  35.064  1.00  0.00     0.000 C 
BRANCH   6   7
ATOM      7  C   UNL     1      18.707  11.913  34.106  1.00  0.00     0.000 C 
BRANCH   7   8
ATOM      8  C   UNL     1      18.339  11.310  32.739  1.00  0.00     0.000 C 
BRANCH   8   9
ATOM      9  C   UNL     1      18.204   9.770  32.756  1.00  0.00     0.000 C 
BRANCH   9  10
ATOM     10  C   UNL     1      19.081   9.097  31.687  1.00  0.00     0.000 C 
BRANCH  10  11
ATOM     11  C   UNL     1      20.155  10.032  31.097  1.00  0.00     0.000 C 
BRANCH  11  12
ATOM     12  C   UNL     1      20.606   9.607  29.686  1.00  0.00     0.006 C 
BRANCH  12  13
ATOM     13  C   UNL     1      20.437   8.098  29.432  1.00  0.00     0.053 C 
BRANCH  13  14
ATOM     14  C   UNL     1      21.759   7.422  29.214  1.00  0.00     0.041 C 
ATOM     15  O   UNL     1      22.797   8.107  29.007  1.00  0.00    -0.550 OA
ATOM     16  O   UNL     1      21.833   6.033  29.196  1.00  0.00    -0.550 OA
ENDBRANCH  13  14
ENDBRANCH  12  13
ENDBRANCH  11  12
ENDBRANCH  10  11
ENDBRANCH   9  10
ENDBRANCH   8   9
ENDBRANCH   7   8
ENDBRANCH   6   7
ENDBRANCH   5   6
ENDBRANCH   4   5
ENDBRANCH   3   4
ENDBRANCH   2   3
ENDBRANCH   1   2
BRANCH   1  17
ATOM     17  C   UNL     1      24.559  12.206  33.140  1.00  0.00     0.000 C 
BRANCH  17  18
ATOM     18  C   UNL     1      25.165  11.035  32.349  1.00  0.00     0.000 C 
BRANCH  18  19
ATOM     19  C   UNL     1      24.224  10.502  31.252  1.00  0.00     0.000 C 
BRANCH  19  20
ATOM     20  C   UNL     1      23.526  11.635  30.484  1.00  0.00     0.000 C 
BRANCH  20  21
ATOM     21  C   UNL     1      24.361  12.125  29.287  1.00  0.00     0.000 C 
BRANCH  21  22
ATOM     22  C   UNL     1      24.893  13.558  29.483  1.00  0.00    -0.000 C 
BRANCH  22  23
ATOM     23  C   UNL     1      26.425  13.594  29.629  1.00  0.00    -0.000 C 
BRANCH  23  24
ATOM     24  C   UNL     1      27.108  12.233  29.397  1.00  0.00    -0.000 C 
BRANCH  24  25
ATOM     25  C   UNL     1      28.365  11.952  30.246  1.00  0.00    -0.000 C 
BRANCH  25  26
ATOM     26  C   UNL     1      28.689  13.075  31.248  1.00  0.00    -0.000 C 
BRANCH  26  27
ATOM     27  C   UNL     1      28.356  12.699  32.702  1.00  0.00    -0.000 C 
BRANCH  27  28
ATOM     28  C   UNL     1      27.818  13.868  33.549  1.00  0.00    -0.000 C 
BRANCH  28  29
ATOM     29  C   UNL     1      28.131  13.698  35.043  1.00  0.00    -0.003 C 
ATOM     30  C   UNL     1      27.303  14.660  35.897  1.00  0.00     0.004 C 
ENDBRANCH  28  29
ENDBRANCH  27  28
ENDBRANCH  26  27
ENDBRANCH  25  26
ENDBRANCH  24  25
ENDBRANCH  23  24
ENDBRANCH  22  23
ENDBRANCH  21  22
ENDBRANCH  20  21
ENDBRANCH  19  20
ENDBRANCH  18  19
ENDBRANCH  17  18
ENDBRANCH   1  17
TORSDOF 26
ENDMDL
MODEL 4
REMARK VINA RESULT:    -4.769      2.238      8.371
REMARK INTER + INTRA:         -15.332
REMARK INTER:                 -11.272
REMARK INTRA:                  -4.061
REMARK UNBOUND:                -3.314
REMARK SMILES CCCCCCCCCCCCCCCCCCCCCCCCCCCC(=O)[O-]
REMARK SMILES IDX 15 1 16 2 17 3 18 4 19 5 20 6 21 7 22 8 23 9 24 10 25 11
REMARK SMILES IDX 26 12 27 13 28 14 29 15 30 16 14 17 13 18 12 19 11 20 10 21
REMARK SMILES IDX 9 22 8 23 7 24 6 25 5 26 4 27 3 28 2 29 1 30
REMARK H PARENT
REMARK Flexibility Score: inf
ROOT
ATOM      1  C   UNL     1      22.623  11.321  31.158  1.00  0.00     0.000 C 
ENDROOT
BRANCH   1   2
ATOM      2  C   UNL     1      21.771  10.036  31.113  1.00  0.00     0.000 C 
BRANCH   2   3
ATOM      3  C   UNL     1      20.557  10.140  30.165  1.00  0.00     0.000 C 
BRANCH   3   4
ATOM      4  C   UNL     1      19.196   9.958  30.859  1.00  0.00     0.000 C 
BRANCH   4   5
ATOM      5  C   UNL     1      19.273  10.191  32.381  1.00  0.00     0.000 C 
BRANCH   5   6
ATOM      6  C   UNL     1      18.128  11.066  32.914  1.00  0.00     0.000 C 
BRANCH   6   7
ATOM      7  C   UNL     1      18.443  12.580  32.925  1.00  0.00     0.000 C 
BRANCH   7   8
ATOM      8  C   UNL     1      19.872  12.920  33.384  1.00  0.00     0.000 C 
BRANCH   8   9
ATOM      9  C   UNL     1      19.930  13.658  34.741  1.00  0.00     0.000 C 
BRANCH   9  10
ATOM     10  C   UNL     1      18.622  13.513  35.538  1.00  0.00     0.000 C 
BRANCH  10  11
ATOM     11  C   UNL     1      18.780  12.695  36.834  1.00  0.00     0.000 C 
BRANCH  11  12
ATOM     12  C   UNL     1      18.287  11.242  36.687  1.00  0.00     0.006 C 
BRANCH  12  13
ATOM     13  C   UNL     1      19.389  10.282  36.203  1.00  0.00     0.053 C 
BRANCH  13  14
ATOM     14  C   UNL     1      19.021   8.848  36.446  1.00  0.00     0.041 C 
ATOM     15  O   UNL     1      18.513   8.157  35.521  1.00  0.00    -0.550 OA
ATOM     16  O   UNL     1      19.198   8.290  37.707  1.00  0.00    -0.550 OA
ENDBRANCH  13  14
ENDBRANCH  12  13
ENDBRANCH  11  12
ENDBRANCH  10  11
ENDBRANCH   9  10
ENDBRANCH   8   9
ENDBRANCH   7   8
ENDBRANCH   6   7
ENDBRANCH   5   6
ENDBRANCH   4   5
ENDBRANCH   3   4
ENDBRANCH   2   3
ENDBRANCH   1   2
BRANCH   1  17
ATOM     17  C   UNL     1      24.042  11.028  31.665  1.00  0.00     0.000 C 
BRANCH  17  18
ATOM     18  C   UNL     1      24.422  11.897  32.875  1.00  0.00     0.000 C 
BRANCH  18  19
ATOM     19  C   UNL     1      23.316  11.953  33.944  1.00  0.00     0.000 C 
BRANCH  19  20
ATOM     20  C   UNL     1      23.694  12.862  35.125  1.00  0.00     0.000 C 
BRANCH  20  21
ATOM     21  C   UNL     1      25.011  12.428  35.793  1.00  0.00     0.000 C 
BRANCH  21  22
ATOM     22  C   UNL     1      25.987  13.603  35.998  1.00  0.00    -0.000 C 
BRANCH  22  23
ATOM     23  C   UNL     1      27.411  13.265  35.520  1.00  0.00    -0.000 C 
BRANCH  23  24
ATOM     24  C   UNL     1      27.701  13.690  34.069  1.00  0.00    -0.000 C 
BRANCH  24  25
ATOM     25  C   UNL     1      28.328  12.612  33.160  1.00  0.00    -0.000 C 
BRANCH  25  26
ATOM     26  C   UNL     1      28.278  12.971  31.663  1.00  0.00    -0.000 C 
BRANCH  26  27
ATOM     27  C   UNL     1      27.634  11.872  30.802  1.00  0.00    -0.000 C 
BRANCH  27  28
ATOM     28  C   UNL     1      26.891  12.398  29.559  1.00  0.00    -0.000 C 
BRANCH  28  29
ATOM     29  C   UNL     1      26.087  13.673  29.857  1.00  0.00    -0.003 C 
ATOM     30  C   UNL     1      24.762  13.685  29.091  1.00  0.00     0.004 C 
ENDBRANCH  28  29
ENDBRANCH  27  28
ENDBRANCH  26  27
ENDBRANCH  25  26
ENDBRANCH  24  25
ENDBRANCH  23  24
ENDBRANCH  22  23
ENDBRANCH  21  22
ENDBRANCH  20  21
ENDBRANCH  19  20
ENDBRANCH  18  19
ENDBRANCH  17  18
ENDBRANCH   1  17
TORSDOF 26
ENDMDL
MODEL 5
REMARK VINA RESULT:    -4.655      1.180      3.004
REMARK INTER + INTRA:         -15.045
REMARK INTER:                 -12.596
REMARK INTRA:                  -2.449
REMARK UNBOUND:                -3.314
REMARK SMILES CCCCCCCCCCCCCCCCCCCCCCCCCCCC(=O)[O-]
REMARK SMILES IDX 15 1 16 2 17 3 18 4 19 5 20 6 21 7 22 8 23 9 24 10 25 11
REMARK SMILES IDX 26 12 27 13 28 14 29 15 30 16 14 17 13 18 12 19 11 20 10 21
REMARK SMILES IDX 9 22 8 23 7 24 6 25 5 26 4 27 3 28 2 29 1 30
REMARK H PARENT
REMARK Flexibility Score: inf
ROOT
ATOM      1  C   UNL     1      23.842  12.526  35.984  1.00  0.00     0.000 C 
ENDROOT
BRANCH   1   2
ATOM      2  C   UNL     1      25.010  11.520  36.009  1.00  0.00     0.000 C 
BRANCH   2   3
ATOM      3  C   UNL     1      25.835  11.507  34.705  1.00  0.00     0.000 C 
BRANCH   3   4
ATOM      4  C   UNL     1      27.344  11.733  34.910  1.00  0.00     0.000 C 
BRANCH   4   5
ATOM      5  C   UNL     1      27.725  13.227  34.900  1.00  0.00     0.000 C 
BRANCH   5   6
ATOM      6  C   UNL     1      28.059  13.753  33.495  1.00  0.00     0.000 C 
BRANCH   6   7
ATOM      7  C   UNL     1      28.301  12.642  32.447  1.00  0.00     0.000 C 
BRANCH   7   8
ATOM      8  C   UNL     1      28.631  13.168  31.039  1.00  0.00     0.000 C 
BRANCH   8   9
ATOM      9  C   UNL     1      27.504  12.930  30.007  1.00  0.00     0.000 C 
BRANCH   9  10
ATOM     10  C   UNL     1      26.179  13.585  30.430  1.00  0.00     0.000 C 
BRANCH  10  11
ATOM     11  C   UNL     1      25.052  13.417  29.393  1.00  0.00     0.000 C 
BRANCH  11  12
ATOM     12  C   UNL     1      24.664  11.943  29.166  1.00  0.00     0.006 C 
BRANCH  12  13
ATOM     13  C   UNL     1      24.226  11.234  30.460  1.00  0.00     0.053 C 
BRANCH  13  14
ATOM     14  C   UNL     1      22.779  10.839  30.413  1.00  0.00     0.041 C 
ATOM     15  O   UNL     1      21.936  11.579  29.838  1.00  0.00    -0.550 OA
ATOM     16  O   UNL     1      22.357   9.673  31.044  1.00  0.00    -0.550 OA
ENDBRANCH  13  14
ENDBRANCH  12  13
ENDBRANCH  11  12
ENDBRANCH  10  11
ENDBRANCH   9  10
ENDBRANCH   8   9
ENDBRANCH   7   8
ENDBRANCH   6   7
ENDBRANCH   5   6
ENDBRANCH   4   5
ENDBRANCH   3   4
ENDBRANCH   2   3
ENDBRANCH   1   2
BRANCH   1  17
ATOM     17  C   UNL     1      23.215  12.612  34.585  1.00  0.00     0.000 C 
BRANCH  17  18
ATOM     18  C   UNL     1      21.679  12.647  34.634  1.00  0.00     0.000 C 
BRANCH  18  19
ATOM     19  C   UNL     1      21.024  11.806  33.521  1.00  0.00     0.000 C 
BRANCH  19  20
ATOM     20  C   UNL     1      19.732  12.448  32.992  1.00  0.00     0.000 C 
BRANCH  20  21
ATOM     21  C   UNL     1      19.203  13.547  33.930  1.00  0.00     0.000 C 
BRANCH  21  22
ATOM     22  C   UNL     1      17.926  13.122  34.681  1.00  0.00    -0.000 C 
BRANCH  22  23
ATOM     23  C   UNL     1      17.993  13.464  36.181  1.00  0.00    -0.000 C 
BRANCH  23  24
ATOM     24  C   UNL     1      18.608  12.351  37.050  1.00  0.00    -0.000 C 
BRANCH  24  25
ATOM     25  C   UNL     1      17.921  10.972  36.971  1.00  0.00    -0.000 C 
BRANCH  25  26
ATOM     26  C   UNL     1      18.346  10.148  35.742  1.00  0.00    -0.000 C 
BRANCH  26  27
ATOM     27  C   UNL     1      18.344   8.632  36.004  1.00  0.00    -0.000 C 
BRANCH  27  28
ATOM     28  C   UNL     1      19.003   8.220  37.334  1.00  0.00    -0.000 C 
BRANCH  28  29
ATOM     29  C   UNL     1      19.260   6.707  37.412  1.00  0.00    -0.003 C 
ATOM     30  C   UNL     1      18.093   5.915  36.819  1.00  0.00     0.004 C 
ENDBRANCH  28  29
ENDBRANCH  27  28
ENDBRANCH  26  27
ENDBRANCH  25  26
ENDBRANCH  24  25
ENDBRANCH  23  24
ENDBRANCH  22  23
ENDBRANCH  21  22
ENDBRANCH  20  21
ENDBRANCH  19  20
ENDBRANCH  18  19
ENDBRANCH  17  18
ENDBRANCH   1  17
TORSDOF 26
ENDMDL
MODEL 6
REMARK VINA RESULT:    -4.640      2.077      3.439
REMARK INTER + INTRA:         -15.006
REMARK INTER:                 -11.578
REMARK INTRA:                  -3.428
REMARK UNBOUND:                -3.314
REMARK SMILES CCCCCCCCCCCCCCCCCCCCCCCCCCCC(=O)[O-]
REMARK SMILES IDX 15 1 16 2 17 3 18 4 19 5 20 6 21 7 22 8 23 9 24 10 25 11
REMARK SMILES IDX 26 12 27 13 28 14 29 15 30 16 14 17 13 18 12 19 11 20 10 21
REMARK SMILES IDX 9 22 8 23 7 24 6 25 5 26 4 27 3 28 2 29 1 30
REMARK H PARENT
REMARK Flexibility Score: inf
ROOT
ATOM      1  C   UNL     1      27.970  13.328  32.878  1.00  0.00     0.000 C 
ENDROOT
BRANCH   1   2
ATOM      2  C   UNL     1      28.775  13.011  31.601  1.00  0.00     0.000 C 
BRANCH   2   3
ATOM      3  C   UNL     1      27.895  12.534  30.426  1.00  0.00     0.000 C 
BRANCH   3   4
ATOM      4  C   UNL     1      27.005  11.322  30.754  1.00  0.00     0.000 C 
BRANCH   4   5
ATOM      5  C   UNL     1      25.995  11.009  29.633  1.00  0.00     0.000 C 
BRANCH   5   6
ATOM      6  C   UNL     1      24.666  10.447  30.160  1.00  0.00     0.000 C 
BRANCH   6   7
ATOM      7  C   UNL     1      24.361  10.822  31.628  1.00  0.00     0.000 C 
BRANCH   7   8
ATOM      8  C   UNL     1      22.892  11.198  31.888  1.00  0.00     0.000 C 
BRANCH   8   9
ATOM      9  C   UNL     1      21.878  10.280  31.167  1.00  0.00     0.000 C 
BRANCH   9  10
ATOM     10  C   UNL     1      20.455  10.863  31.175  1.00  0.00     0.000 C 
BRANCH  10  11
ATOM     11  C   UNL     1      19.802  10.868  32.571  1.00  0.00     0.000 C 
BRANCH  11  12
ATOM     12  C   UNL     1      18.385  10.263  32.569  1.00  0.00     0.006 C 
BRANCH  12  13
ATOM     13  C   UNL     1      18.348   8.825  33.116  1.00  0.00     0.053 C 
BRANCH  13  14
ATOM     14  C   UNL     1      18.120   7.822  32.024  1.00  0.00     0.041 C 
ATOM     15  O   UNL     1      17.962   6.603  32.303  1.00  0.00    -0.550 OA
ATOM     16  O   UNL     1      18.127   8.230  30.694  1.00  0.00    -0.550 OA
ENDBRANCH  13  14
ENDBRANCH  12  13
ENDBRANCH  11  12
ENDBRANCH  10  11
ENDBRANCH   9  10
ENDBRANCH   8   9
ENDBRANCH   7   8
ENDBRANCH   6   7
ENDBRANCH   5   6
ENDBRANCH   4   5
ENDBRANCH   3   4
ENDBRANCH   2   3
ENDBRANCH   1   2
BRANCH   1  17
ATOM     17  C   UNL     1      28.403  12.427  34.043  1.00  0.00     0.000 C 
BRANCH  17  18
ATOM     18  C   UNL     1      27.212  11.711  34.701  1.00  0.00     0.000 C 
BRANCH  18  19
ATOM     19  C   UNL     1      26.157  12.686  35.256  1.00  0.00     0.000 C 
BRANCH  19  20
ATOM     20  C   UNL     1      24.724  12.247  34.916  1.00  0.00     0.000 C 
BRANCH  20  21
ATOM     21  C   UNL     1      23.703  12.740  35.958  1.00  0.00     0.000 C 
BRANCH  21  22
ATOM     22  C   UNL     1      22.294  12.160  35.729  1.00  0.00    -0.000 C 
BRANCH  22  23
ATOM     23  C   UNL     1      21.484  12.985  34.713  1.00  0.00    -0.000 C 
BRANCH  23  24
ATOM     24  C   UNL     1      20.461  13.940  35.355  1.00  0.00    -0.000 C 
BRANCH  24  25
ATOM     25  C   UNL     1      19.004  13.434  35.411  1.00  0.00    -0.000 C 
BRANCH  25  26
ATOM     26  C   UNL     1      18.715  12.539  36.630  1.00  0.00    -0.000 C 
BRANCH  26  27
ATOM     27  C   UNL     1      18.188  11.147  36.242  1.00  0.00    -0.000 C 
BRANCH  27  28
ATOM     28  C   UNL     1      19.181   9.999  36.508  1.00  0.00    -0.000 C 
BRANCH  28  29
ATOM     29  C   UNL     1      18.491   8.754  37.085  1.00  0.00    -0.003 C 
ATOM     30  C   UNL     1      19.342   7.500  36.871  1.00  0.00     0.004 C 
ENDBRANCH  28  29
ENDBRANCH  27  28
ENDBRANCH  26  27
ENDBRANCH  25  26
ENDBRANCH  24  25
ENDBRANCH  23  24
ENDBRANCH  22  23
ENDBRANCH  21  22
ENDBRANCH  20  21
ENDBRANCH  19  20
ENDBRANCH  18  19
ENDBRANCH  17  18
ENDBRANCH   1  17
TORSDOF 26
ENDMDL
MODEL 7
REMARK VINA RESULT:    -4.627      1.518      2.120
REMARK INTER + INTRA:         -14.973
REMARK INTER:                 -11.368
REMARK INTRA:                  -3.606
REMARK UNBOUND:                -3.314
REMARK SMILES CCCCCCCCCCCCCCCCCCCCCCCCCCCC(=O)[O-]
REMARK SMILES IDX 15 1 16 2 17 3 18 4 19 5 20 6 21 7 22 8 23 9 24 10 25 11
REMARK SMILES IDX 26 12 27 13 28 14 29 15 30 16 14 17 13 18 12 19 11 20 10 21
REMARK SMILES IDX 9 22 8 23 7 24 6 25 5 26 4 27 3 28 2 29 1 30
REMARK H PARENT
REMARK Flexibility Score: inf
ROOT
ATOM      1  C   UNL     1      27.634  13.208  35.355  1.00  0.00     0.000 C 
ENDROOT
BRANCH   1   2
ATOM      2  C   UNL     1      27.920  14.138  34.159  1.00  0.00     0.000 C 
BRANCH   2   3
ATOM      3  C   UNL     1      27.388  13.590  32.817  1.00  0.00     0.000 C 
BRANCH   3   4
ATOM      4  C   UNL     1      28.478  13.022  31.891  1.00  0.00     0.000 C 
BRANCH   4   5
ATOM      5  C   UNL     1      28.021  11.748  31.154  1.00  0.00     0.000 C 
BRANCH   5   6
ATOM      6  C   UNL     1      28.047  11.895  29.625  1.00  0.00     0.000 C 
BRANCH   6   7
ATOM      7  C   UNL     1      26.648  12.045  28.983  1.00  0.00     0.000 C 
BRANCH   7   8
ATOM      8  C   UNL     1      26.013  13.433  29.177  1.00  0.00     0.000 C 
BRANCH   8   9
ATOM      9  C   UNL     1      24.485  13.456  28.945  1.00  0.00     0.000 C 
BRANCH   9  10
ATOM     10  C   UNL     1      23.784  12.237  29.569  1.00  0.00     0.000 C 
BRANCH  10  11
ATOM     11  C   UNL     1      24.108  12.040  31.062  1.00  0.00     0.000 C 
BRANCH  11  12
ATOM     12  C   UNL     1      23.490  10.754  31.643  1.00  0.00     0.006 C 
BRANCH  12  13
ATOM     13  C   UNL     1      21.963  10.689  31.464  1.00  0.00     0.053 C 
BRANCH  13  14
ATOM     14  C   UNL     1      21.548   9.487  30.668  1.00  0.00     0.041 C 
ATOM     15  O   UNL     1      22.349   8.962  29.847  1.00  0.00    -0.550 OA
ATOM     16  O   UNL     1      20.262   8.975  30.801  1.00  0.00    -0.550 OA
ENDBRANCH  13  14
ENDBRANCH  12  13
ENDBRANCH  11  12
ENDBRANCH  10  11
ENDBRANCH   9  10
ENDBRANCH   8   9
ENDBRANCH   7   8
ENDBRANCH   6   7
ENDBRANCH   5   6
ENDBRANCH   4   5
ENDBRANCH   3   4
ENDBRANCH   2   3
ENDBRANCH   1   2
BRANCH   1  17
ATOM     17  C   UNL     1      27.286  11.789  34.883  1.00  0.00     0.000 C 
BRANCH  17  18
ATOM     18  C   UNL     1      25.884  11.349  35.335  1.00  0.00     0.000 C 
BRANCH  18  19
ATOM     19  C   UNL     1      24.756  12.059  34.564  1.00  0.00     0.000 C 
BRANCH  19  20
ATOM     20  C   UNL     1      23.673  12.617  35.501  1.00  0.00     0.000 C 
BRANCH  20  21
ATOM     21  C   UNL     1      22.296  12.693  34.818  1.00  0.00     0.000 C 
BRANCH  21  22
ATOM     22  C   UNL     1      21.185  13.175  35.771  1.00  0.00    -0.000 C 
BRANCH  22  23
ATOM     23  C   UNL     1      20.058  13.911  35.025  1.00  0.00    -0.000 C 
BRANCH  23  24
ATOM     24  C   UNL     1      19.777  13.360  33.615  1.00  0.00    -0.000 C 
BRANCH  24  25
ATOM     25  C   UNL     1      18.309  12.993  33.311  1.00  0.00    -0.000 C 
BRANCH  25  26
ATOM     26  C   UNL     1      18.120  11.521  32.902  1.00  0.00    -0.000 C 
BRANCH  26  27
ATOM     27  C   UNL     1      19.024  10.557  33.689  1.00  0.00    -0.000 C 
BRANCH  27  28
ATOM     28  C   UNL     1      18.377   9.983  34.964  1.00  0.00    -0.000 C 
BRANCH  28  29
ATOM     29  C   UNL     1      19.038  10.519  36.244  1.00  0.00    -0.003 C 
ATOM     30  C   UNL     1      18.002  11.139  37.185  1.00  0.00     0.004 C 
ENDBRANCH  28  29
ENDBRANCH  27  28
ENDBRANCH  26  27
ENDBRANCH  25  26
ENDBRANCH  24  25
ENDBRANCH  23  24
ENDBRANCH  22  23
ENDBRANCH  21  22
ENDBRANCH  20  21
ENDBRANCH  19  20
ENDBRANCH  18  19
ENDBRANCH  17  18
ENDBRANCH   1  17
TORSDOF 26
ENDMDL
MODEL 8
REMARK VINA RESULT:    -4.563      2.310      7.791
REMARK INTER + INTRA:         -14.812
REMARK INTER:                 -10.845
REMARK INTRA:                  -3.967
REMARK UNBOUND:                -3.314
REMARK SMILES CCCCCCCCCCCCCCCCCCCCCCCCCCCC(=O)[O-]
REMARK SMILES IDX 15 1 16 2 17 3 18 4 19 5 20 6 21 7 22 8 23 9 24 10 25 11
REMARK SMILES IDX 26 12 27 13 28 14 29 15 30 16 14 17 13 18 12 19 11 20 10 21
REMARK SMILES IDX 9 22 8 23 7 24 6 25 5 26 4 27 3 28 2 29 1 30
REMARK H PARENT
REMARK Flexibility Score: inf
ROOT
ATOM      1  C   UNL     1      23.468  10.473  30.559  1.00  0.00     0.000 C 
ENDROOT
BRANCH   1   2
ATOM      2  C   UNL     1      22.586   9.610  29.633  1.00  0.00     0.000 C 
BRANCH   2   3
ATOM      3  C   UNL     1      21.818   8.500  30.382  1.00  0.00     0.000 C 
BRANCH   3   4
ATOM      4  C   UNL     1      20.288   8.575  30.225  1.00  0.00     0.000 C 
BRANCH   4   5
ATOM      5  C   UNL     1      19.799   9.994  29.877  1.00  0.00     0.000 C 
BRANCH   5   6
ATOM      6  C   UNL     1      18.569  10.423  30.692  1.00  0.00     0.000 C 
BRANCH   6   7
ATOM      7  C   UNL     1      18.907  11.237  31.963  1.00  0.00     0.000 C 
BRANCH   7   8
ATOM      8  C   UNL     1      20.302  11.887  31.940  1.00  0.00     0.000 C 
BRANCH   8   9
ATOM      9  C   UNL     1      21.144  11.595  33.203  1.00  0.00     0.000 C 
BRANCH   9  10
ATOM     10  C   UNL     1      20.913  12.638  34.310  1.00  0.00     0.000 C 
BRANCH  10  11
ATOM     11  C   UNL     1      20.867  12.031  35.725  1.00  0.00     0.000 C 
BRANCH  11  12
ATOM     12  C   UNL     1      19.432  11.720  36.195  1.00  0.00     0.006 C 
BRANCH  12  13
ATOM     13  C   UNL     1      18.930  10.346  35.717  1.00  0.00     0.053 C 
BRANCH  13  14
ATOM     14  C   UNL     1      18.863   9.358  36.844  1.00  0.00     0.041 C 
ATOM     15  O   UNL     1      18.295   9.667  37.927  1.00  0.00    -0.550 OA
ATOM     16  O   UNL     1      19.466   8.112  36.713  1.00  0.00    -0.550 OA
ENDBRANCH  13  14
ENDBRANCH  12  13
ENDBRANCH  11  12
ENDBRANCH  10  11
ENDBRANCH   9  10
ENDBRANCH   8   9
ENDBRANCH   7   8
ENDBRANCH   6   7
ENDBRANCH   5   6
ENDBRANCH   4   5
ENDBRANCH   3   4
ENDBRANCH   2   3
ENDBRANCH   1   2
BRANCH   1  17
ATOM     17  C   UNL     1      23.592  11.908  30.027  1.00  0.00     0.000 C 
BRANCH  17  18
ATOM     18  C   UNL     1      25.056  12.333  29.826  1.00  0.00     0.000 C 
BRANCH  18  19
ATOM     19  C   UNL     1      26.013  11.136  29.677  1.00  0.00     0.000 C 
BRANCH  19  20
ATOM     20  C   UNL     1      27.130  11.149  30.733  1.00  0.00     0.000 C 
BRANCH  20  21
ATOM     21  C   UNL     1      28.369  11.929  30.257  1.00  0.00     0.000 C 
BRANCH  21  22
ATOM     22  C   UNL     1      28.741  13.086  31.204  1.00  0.00    -0.000 C 
BRANCH  22  23
ATOM     23  C   UNL     1      27.761  13.209  32.385  1.00  0.00    -0.000 C 
BRANCH  23  24
ATOM     24  C   UNL     1      28.359  12.790  33.741  1.00  0.00    -0.000 C 
BRANCH  24  25
ATOM     25  C   UNL     1      28.350  13.867  34.846  1.00  0.00    -0.000 C 
BRANCH  25  26
ATOM     26  C   UNL     1      26.943  14.401  35.167  1.00  0.00    -0.000 C 
BRANCH  26  27
ATOM     27  C   UNL     1      26.262  13.649  36.324  1.00  0.00    -0.000 C 
BRANCH  27  28
ATOM     28  C   UNL     1      24.902  13.025  35.957  1.00  0.00    -0.000 C 
BRANCH  28  29
ATOM     29  C   UNL     1      25.056  11.715  35.170  1.00  0.00    -0.003 C 
ATOM     30  C   UNL     1      24.722  11.915  33.690  1.00  0.00     0.004 C 
ENDBRANCH  28  29
ENDBRANCH  27  28
ENDBRANCH  26  27
ENDBRANCH  25  26
ENDBRANCH  24  25
ENDBRANCH  23  24
ENDBRANCH  22  23
ENDBRANCH  21  22
ENDBRANCH  20  21
ENDBRANCH  19  20
ENDBRANCH  18  19
ENDBRANCH  17  18
ENDBRANCH   1  17
TORSDOF 26
ENDMDL
MODEL 9
REMARK VINA RESULT:    -4.558      2.340      8.350
REMARK INTER + INTRA:         -14.800
REMARK INTER:                 -11.313
REMARK INTRA:                  -3.487
REMARK UNBOUND:                -3.314
REMARK SMILES CCCCCCCCCCCCCCCCCCCCCCCCCCCC(=O)[O-]
REMARK SMILES IDX 15 1 16 2 17 3 18 4 19 5 20 6 21 7 22 8 23 9 24 10 25 11
REMARK SMILES IDX 26 12 27 13 28 14 29 15 30 16 14 17 13 18 12 19 11 20 10 21
REMARK SMILES IDX 9 22 8 23 7 24 6 25 5 26 4 27 3 28 2 29 1 30
REMARK H PARENT
REMARK Flexibility Score: inf
ROOT
ATOM      1  C   UNL     1      22.384   9.950  29.770  1.00  0.00     0.000 C 
ENDROOT
BRANCH   1   2
ATOM      2  C   UNL     1      20.897   9.595  29.565  1.00  0.00     0.000 C 
BRANCH   2   3
ATOM      3  C   UNL     1      20.252   8.928  30.798  1.00  0.00     0.000 C 
BRANCH   3   4
ATOM      4  C   UNL     1      18.718   9.045  30.849  1.00  0.00     0.000 C 
BRANCH   4   5
ATOM      5  C   UNL     1      18.231   9.917  32.023  1.00  0.00     0.000 C 
BRANCH   5   6
ATOM      6  C   UNL     1      19.370  10.674  32.723  1.00  0.00     0.000 C 
BRANCH   6   7
ATOM      7  C   UNL     1      19.426  12.182  32.386  1.00  0.00     0.000 C 
BRANCH   7   8
ATOM      8  C   UNL     1      19.793  13.079  33.581  1.00  0.00     0.000 C 
BRANCH   8   9
ATOM      9  C   UNL     1      18.633  13.287  34.581  1.00  0.00     0.000 C 
BRANCH   9  10
ATOM     10  C   UNL     1      19.126  13.369  36.035  1.00  0.00     0.000 C 
BRANCH  10  11
ATOM     11  C   UNL     1      18.532  12.278  36.947  1.00  0.00     0.000 C 
BRANCH  11  12
ATOM     12  C   UNL     1      18.278  10.952  36.205  1.00  0.00     0.006 C 
BRANCH  12  13
ATOM     13  C   UNL     1      19.428   9.942  36.372  1.00  0.00     0.053 C 
BRANCH  13  14
ATOM     14  C   UNL     1      18.923   8.530  36.419  1.00  0.00     0.041 C 
ATOM     15  O   UNL     1      19.241   7.772  37.376  1.00  0.00    -0.550 OA
ATOM     16  O   UNL     1      18.138   8.039  35.381  1.00  0.00    -0.550 OA
ENDBRANCH  13  14
ENDBRANCH  12  13
ENDBRANCH  11  12
ENDBRANCH  10  11
ENDBRANCH   9  10
ENDBRANCH   8   9
ENDBRANCH   7   8
ENDBRANCH   6   7
ENDBRANCH   5   6
ENDBRANCH   4   5
ENDBRANCH   3   4
ENDBRANCH   2   3
ENDBRANCH   1   2
BRANCH   1  17
ATOM     17  C   UNL     1      22.538  11.296  30.492  1.00  0.00     0.000 C 
BRANCH  17  18
ATOM     18  C   UNL     1      22.985  11.128  31.954  1.00  0.00     0.000 C 
BRANCH  18  19
ATOM     19  C   UNL     1      24.469  11.478  32.171  1.00  0.00     0.000 C 
BRANCH  19  20
ATOM     20  C   UNL     1      25.120  12.062  30.907  1.00  0.00     0.000 C 
BRANCH  20  21
ATOM     21  C   UNL     1      26.099  11.073  30.249  1.00  0.00     0.000 C 
BRANCH  21  22
ATOM     22  C   UNL     1      27.504  11.120  30.882  1.00  0.00    -0.000 C 
BRANCH  22  23
ATOM     23  C   UNL     1      28.326  12.323  30.383  1.00  0.00    -0.000 C 
BRANCH  23  24
ATOM     24  C   UNL     1      28.801  13.265  31.505  1.00  0.00    -0.000 C 
BRANCH  24  25
ATOM     25  C   UNL     1      28.471  12.823  32.946  1.00  0.00    -0.000 C 
BRANCH  25  26
ATOM     26  C   UNL     1      27.274  13.575  33.556  1.00  0.00    -0.000 C 
BRANCH  26  27
ATOM     27  C   UNL     1      27.530  14.045  34.998  1.00  0.00    -0.000 C 
BRANCH  27  28
ATOM     28  C   UNL     1      26.373  13.754  35.972  1.00  0.00    -0.000 C 
BRANCH  28  29
ATOM     29  C   UNL     1      25.612  12.470  35.605  1.00  0.00    -0.003 C 
ATOM     30  C   UNL     1      24.100  12.707  35.591  1.00  0.00     0.004 C 
ENDBRANCH  28  29
ENDBRANCH  27  28
ENDBRANCH  26  27
ENDBRANCH  25  26
ENDBRANCH  24  25
ENDBRANCH  23  24
ENDBRANCH  22  23
ENDBRANCH  21  22
ENDBRANCH  20  21
ENDBRANCH  19  20
ENDBRANCH  18  19
ENDBRANCH  17  18
ENDBRANCH   1  17
TORSDOF 26
ENDMDL
