MODEL 1
REMARK VINA RESULT:    -7.058      0.000      0.000
REMARK INTER + INTRA:          -7.439
REMARK INTER:                  -7.677
REMARK INTRA:                   0.239
REMARK UNBOUND:                 0.239
REMARK SMILES CC1(C)CC[C@]2(C(=O)[O-])CC[C@@]3(C)C(=CC[C@H]4[C@]5(C)CC[C@H](O)C(C)(C)[C@@H]5CC[C@@]43C)[C@H]2C1
REMARK SMILES IDX 6 1 5 2 10 3 32 4 4 5 11 6 14 7 33 8 2 9 12 10 15 11 1 12
REMARK SMILES IDX 3 13 13 14 30 15 16 16 17 17 29 18 31 19 18 20 28 21 27 22
REMARK SMILES IDX 20 23 19 24 24 25 21 26 22 27 25 28 26 29 7 30 8 31 9 32
REMARK SMILES IDX 23 33
REMARK H PARENT 23 34
REMARK Flexibility Score: inf
ROOT
ATOM      1  C   UNL     1      19.766  26.037  -7.654  1.00  0.00     0.017 C 
ATOM      2  C   UNL     1      21.126  25.531  -8.198  1.00  0.00     0.014 C 
ATOM      3  C   UNL     1      18.834  24.805  -7.457  1.00  0.00     0.014 C 
ATOM      4  C   UNL     1      19.072  26.944  -8.702  1.00  0.00     0.028 C 
ATOM      5  C   UNL     1      22.021  26.669  -8.694  1.00  0.00     0.007 C 
ATOM      6  C   UNL     1      17.460  25.211  -6.854  1.00  0.00     0.013 C 
ATOM      7  C   UNL     1      17.726  27.468  -8.201  1.00  0.00    -0.064 C 
ATOM      8  C   UNL     1      19.977  28.035  -9.298  1.00  0.00     0.015 C 
ATOM      9  C   UNL     1      21.346  27.523  -9.792  1.00  0.00    -0.035 C 
ATOM     10  C   UNL     1      16.815  26.578  -7.354  1.00  0.00    -0.006 C 
ATOM     11  C   UNL     1      17.309  28.711  -8.446  1.00  0.00    -0.027 C 
ATOM     12  C   UNL     1      22.216  28.765 -10.097  1.00  0.00     0.011 C 
ATOM     13  C   UNL     1      21.186  26.720 -11.120  1.00  0.00     0.011 C 
ATOM     14  C   UNL     1      16.491  27.413  -6.052  1.00  0.00     0.017 C 
ATOM     15  C   UNL     1      15.520  26.365  -8.292  1.00  0.00    -0.020 C 
ATOM     16  C   UNL     1      15.905  28.881  -9.032  1.00  0.00     0.032 C 
ATOM     17  C   UNL     1      14.890  27.774  -8.617  1.00  0.00     0.006 C 
ATOM     18  C   UNL     1      14.450  25.472  -7.600  1.00  0.00     0.008 C 
ATOM     19  C   UNL     1      15.948  25.654  -9.629  1.00  0.00     0.012 C 
ATOM     20  C   UNL     1      13.551  27.808  -9.480  1.00  0.00    -0.025 C 
ATOM     21  C   UNL     1      12.974  25.922  -7.826  1.00  0.00     0.005 C 
ATOM     22  C   UNL     1      12.695  26.498  -9.234  1.00  0.00     0.003 C 
ATOM     23  C   UNL     1      12.736  29.061  -9.048  1.00  0.00     0.010 C 
ATOM     24  C   UNL     1      13.889  27.976 -11.016  1.00  0.00     0.012 C 
ATOM     25  C   UNL     1      11.130  26.592  -9.597  1.00  0.00    -0.006 C 
ATOM     26  C   UNL     1      11.332  29.159  -9.644  1.00  0.00     0.033 C 
ATOM     27  C   UNL     1      10.504  27.991  -9.160  1.00  0.00     0.120 C 
ATOM     28  C   UNL     1      10.304  25.454  -8.899  1.00  0.00     0.014 C 
ATOM     29  C   UNL     1      10.954  26.395 -11.125  1.00  0.00     0.014 C 
ENDROOT
BRANCH   1  30
ATOM     30  C   UNL     1      20.009  26.742  -6.309  1.00  0.00     0.048 C 
ATOM     31  O   UNL     1      20.143  27.986  -6.260  1.00  0.00    -0.550 OA
ATOM     32  O   UNL     1      19.983  26.023  -5.100  1.00  0.00    -0.550 OA
ENDBRANCH   1  30
BRANCH  27  33
ATOM     33  O   UNL     1      10.253  28.169  -7.774  1.00  0.00    -0.393 OA
ATOM     34  H   UNL     1       9.379  28.629  -7.667  1.00  0.00     0.210 HD
ENDBRANCH  27  33
TORSDOF 2
ENDMDL
MODEL 2
REMARK VINA RESULT:    -6.984      1.353      8.133
REMARK INTER + INTRA:          -7.357
REMARK INTER:                  -7.451
REMARK INTRA:                   0.093
REMARK UNBOUND:                 0.239
REMARK SMILES CC1(C)CC[C@]2(C(=O)[O-])CC[C@@]3(C)C(=CC[C@H]4[C@]5(C)CC[C@H](O)C(C)(C)[C@@H]5CC[C@@]43C)[C@H]2C1
REMARK SMILES IDX 6 1 5 2 10 3 32 4 4 5 11 6 14 7 33 8 2 9 12 10 15 11 1 12
REMARK SMILES IDX 3 13 13 14 30 15 16 16 17 17 29 18 31 19 18 20 28 21 27 22
REMARK SMILES IDX 20 23 19 24 24 25 21 26 22 27 25 28 26 29 7 30 8 31 9 32
REMARK SMILES IDX 23 33
REMARK H PARENT 23 34
REMARK Flexibility Score: inf
ROOT
ATOM      1  C   UNL     1      12.125  28.235 -10.170  1.00  0.00     0.017 C 
ATOM      2  C   UNL     1      10.884  27.817 -10.999  1.00  0.00     0.014 C 
ATOM      3  C   UNL     1      13.130  28.942 -11.125  1.00  0.00     0.014 C 
ATOM      4  C   UNL     1      12.853  26.981  -9.623  1.00  0.00     0.028 C 
ATOM      5  C   UNL     1       9.957  26.869 -10.233  1.00  0.00     0.007 C 
ATOM      6  C   UNL     1      14.387  29.453 -10.366  1.00  0.00     0.013 C 
ATOM      7  C   UNL     1      14.083  27.351  -8.794  1.00  0.00    -0.064 C 
ATOM      8  C   UNL     1      11.932  25.958  -8.938  1.00  0.00     0.015 C 
ATOM      9  C   UNL     1      10.678  25.588  -9.755  1.00  0.00    -0.035 C 
ATOM     10  C   UNL     1      14.965  28.533  -9.202  1.00  0.00    -0.006 C 
ATOM     11  C   UNL     1      14.417  26.696  -7.681  1.00  0.00    -0.027 C 
ATOM     12  C   UNL     1       9.745  24.780  -8.821  1.00  0.00     0.011 C 
ATOM     13  C   UNL     1      11.056  24.666 -10.956  1.00  0.00     0.011 C 
ATOM     14  C   UNL     1      15.066  29.454  -7.923  1.00  0.00     0.017 C 
ATOM     15  C   UNL     1      16.371  27.840  -9.579  1.00  0.00    -0.020 C 
ATOM     16  C   UNL     1      15.859  26.195  -7.564  1.00  0.00     0.032 C 
ATOM     17  C   UNL     1      16.912  27.064  -8.316  1.00  0.00     0.006 C 
ATOM     18  C   UNL     1      17.428  28.890 -10.027  1.00  0.00     0.008 C 
ATOM     19  C   UNL     1      16.161  26.832 -10.770  1.00  0.00     0.012 C 
ATOM     20  C   UNL     1      18.332  26.353  -8.432  1.00  0.00    -0.025 C 
ATOM     21  C   UNL     1      18.876  28.625  -9.512  1.00  0.00     0.005 C 
ATOM     22  C   UNL     1      19.264  27.129  -9.451  1.00  0.00     0.003 C 
ATOM     23  C   UNL     1      18.982  26.350  -7.019  1.00  0.00     0.010 C 
ATOM     24  C   UNL     1      18.158  24.843  -8.869  1.00  0.00     0.012 C 
ATOM     25  C   UNL     1      20.847  26.875  -9.305  1.00  0.00    -0.006 C 
ATOM     26  C   UNL     1      20.432  25.867  -6.971  1.00  0.00     0.033 C 
ATOM     27  C   UNL     1      21.296  26.809  -7.777  1.00  0.00     0.120 C 
ATOM     28  C   UNL     1      21.682  28.003 -10.006  1.00  0.00     0.014 C 
ATOM     29  C   UNL     1      21.212  25.546 -10.015  1.00  0.00     0.014 C 
ENDROOT
BRANCH   1  30
ATOM     30  C   UNL     1      11.671  29.202  -9.063  1.00  0.00     0.048 C 
ATOM     31  O   UNL     1      11.396  30.393  -9.335  1.00  0.00    -0.550 OA
ATOM     32  O   UNL     1      11.456  28.749  -7.749  1.00  0.00    -0.550 OA
ENDBRANCH   1  30
BRANCH  27  33
ATOM     33  O   UNL     1      21.371  28.045  -7.084  1.00  0.00    -0.393 OA
ATOM     34  H   UNL     1      20.844  27.971  -6.245  1.00  0.00     0.210 HD
ENDBRANCH  27  33
TORSDOF 2
ENDMDL
MODEL 3
REMARK VINA RESULT:    -6.604      2.227      3.989
REMARK INTER + INTRA:          -6.944
REMARK INTER:                  -7.150
REMARK INTRA:                   0.206
REMARK UNBOUND:                 0.239
REMARK SMILES CC1(C)CC[C@]2(C(=O)[O-])CC[C@@]3(C)C(=CC[C@H]4[C@]5(C)CC[C@H](O)C(C)(C)[C@@H]5CC[C@@]43C)[C@H]2C1
REMARK SMILES IDX 6 1 5 2 10 3 32 4 4 5 11 6 14 7 33 8 2 9 12 10 15 11 1 12
REMARK SMILES IDX 3 13 13 14 30 15 16 16 17 17 29 18 31 19 18 20 28 21 27 22
REMARK SMILES IDX 20 23 19 24 24 25 21 26 22 27 25 28 26 29 7 30 8 31 9 32
REMARK SMILES IDX 23 33
REMARK H PARENT 23 34
REMARK Flexibility Score: inf
ROOT
ATOM      1  C   UNL     1      22.865  26.108 -10.061  1.00  0.00     0.017 C 
ATOM      2  C   UNL     1      24.114  26.647 -10.804  1.00  0.00     0.014 C 
ATOM      3  C   UNL     1      21.855  25.587 -11.125  1.00  0.00     0.014 C 
ATOM      4  C   UNL     1      22.150  27.258  -9.308  1.00  0.00     0.028 C 
ATOM      5  C   UNL     1      25.049  27.437  -9.885  1.00  0.00     0.007 C 
ATOM      6  C   UNL     1      20.590  24.969 -10.467  1.00  0.00     0.013 C 
ATOM      7  C   UNL     1      20.913  26.766  -8.557  1.00  0.00    -0.064 C 
ATOM      8  C   UNL     1      23.081  28.137  -8.456  1.00  0.00     0.015 C 
ATOM      9  C   UNL     1      24.342  28.627  -9.196  1.00  0.00    -0.035 C 
ATOM     10  C   UNL     1      20.019  25.683  -9.163  1.00  0.00    -0.006 C 
ATOM     11  C   UNL     1      20.583  27.224  -7.348  1.00  0.00    -0.027 C 
ATOM     12  C   UNL     1      25.281  29.250  -8.136  1.00  0.00     0.011 C 
ATOM     13  C   UNL     1      23.979  29.746 -10.221  1.00  0.00     0.011 C 
ATOM     14  C   UNL     1      19.902  24.557  -8.061  1.00  0.00     0.017 C 
ATOM     15  C   UNL     1      18.622  26.448  -9.418  1.00  0.00    -0.020 C 
ATOM     16  C   UNL     1      19.146  27.716  -7.149  1.00  0.00     0.032 C 
ATOM     17  C   UNL     1      18.086  27.001  -8.041  1.00  0.00     0.006 C 
ATOM     18  C   UNL     1      17.554  25.503 -10.040  1.00  0.00     0.008 C 
ATOM     19  C   UNL     1      18.848  27.642 -10.417  1.00  0.00     0.012 C 
ATOM     20  C   UNL     1      16.675  27.740  -8.035  1.00  0.00    -0.025 C 
ATOM     21  C   UNL     1      16.107  25.694  -9.490  1.00  0.00     0.005 C 
ATOM     22  C   UNL     1      15.737  27.162  -9.174  1.00  0.00     0.003 C 
ATOM     23  C   UNL     1      16.020  27.507  -6.643  1.00  0.00     0.010 C 
ATOM     24  C   UNL     1      16.868  29.300  -8.206  1.00  0.00     0.012 C 
ATOM     25  C   UNL     1      14.157  27.406  -8.988  1.00  0.00    -0.006 C 
ATOM     26  C   UNL     1      14.576  27.993  -6.515  1.00  0.00     0.033 C 
ATOM     27  C   UNL     1      13.703  27.214  -7.473  1.00  0.00     0.120 C 
ATOM     28  C   UNL     1      13.311  26.425  -9.874  1.00  0.00     0.014 C 
ATOM     29  C   UNL     1      13.810  28.841  -9.460  1.00  0.00     0.014 C 
ENDROOT
BRANCH   1  30
ATOM     30  C   UNL     1      23.304  24.960  -9.136  1.00  0.00     0.048 C 
ATOM     31  O   UNL     1      23.375  25.134  -7.898  1.00  0.00    -0.550 OA
ATOM     32  O   UNL     1      23.536  23.669  -9.645  1.00  0.00    -0.550 OA
ENDBRANCH   1  30
BRANCH  27  33
ATOM     33  O   UNL     1      13.611  25.878  -7.002  1.00  0.00    -0.393 OA
ATOM     34  H   UNL     1      14.417  25.677  -6.458  1.00  0.00     0.210 HD
ENDBRANCH  27  33
TORSDOF 2
ENDMDL
MODEL 4
REMARK VINA RESULT:    -6.552      1.577      2.264
REMARK INTER + INTRA:          -6.888
REMARK INTER:                  -6.985
REMARK INTRA:                   0.097
REMARK UNBOUND:                 0.239
REMARK SMILES CC1(C)CC[C@]2(C(=O)[O-])CC[C@@]3(C)C(=CC[C@H]4[C@]5(C)CC[C@H](O)C(C)(C)[C@@H]5CC[C@@]43C)[C@H]2C1
REMARK SMILES IDX 6 1 5 2 10 3 32 4 4 5 11 6 14 7 33 8 2 9 12 10 15 11 1 12
REMARK SMILES IDX 3 13 13 14 30 15 16 16 17 17 29 18 31 19 18 20 28 21 27 22
REMARK SMILES IDX 20 23 19 24 24 25 21 26 22 27 25 28 26 29 7 30 8 31 9 32
REMARK SMILES IDX 23 33
REMARK H PARENT 23 34
REMARK Flexibility Score: inf
ROOT
ATOM      1  C   UNL     1      20.460  26.034  -9.739  1.00  0.00     0.017 C 
ATOM      2  C   UNL     1      21.837  26.363 -10.368  1.00  0.00     0.014 C 
ATOM      3  C   UNL     1      19.583  25.343 -10.824  1.00  0.00     0.014 C 
ATOM      4  C   UNL     1      19.721  27.339  -9.349  1.00  0.00     0.028 C 
ATOM      5  C   UNL     1      22.679  27.290  -9.488  1.00  0.00     0.007 C 
ATOM      6  C   UNL     1      18.197  24.920 -10.264  1.00  0.00     0.013 C 
ATOM      7  C   UNL     1      18.357  27.057  -8.719  1.00  0.00    -0.064 C 
ATOM      8  C   UNL     1      20.575  28.340  -8.552  1.00  0.00     0.015 C 
ATOM      9  C   UNL     1      21.961  28.621  -9.166  1.00  0.00    -0.035 C 
ATOM     10  C   UNL     1      17.490  25.906  -9.233  1.00  0.00    -0.006 C 
ATOM     11  C   UNL     1      17.885  27.765  -7.692  1.00  0.00    -0.027 C 
ATOM     12  C   UNL     1      22.774  29.414  -8.115  1.00  0.00     0.011 C 
ATOM     13  C   UNL     1      21.828  29.518 -10.435  1.00  0.00     0.011 C 
ATOM     14  C   UNL     1      17.138  25.035  -7.963  1.00  0.00     0.017 C 
ATOM     15  C   UNL     1      16.200  26.653  -9.850  1.00  0.00    -0.020 C 
ATOM     16  C   UNL     1      16.471  28.339  -7.822  1.00  0.00     0.032 C 
ATOM     17  C   UNL     1      15.507  27.497  -8.710  1.00  0.00     0.006 C 
ATOM     18  C   UNL     1      15.174  25.641 -10.434  1.00  0.00     0.008 C 
ATOM     19  C   UNL     1      16.651  27.608 -11.017  1.00  0.00     0.012 C 
ATOM     20  C   UNL     1      14.164  28.272  -9.072  1.00  0.00    -0.025 C 
ATOM     21  C   UNL     1      13.678  25.992 -10.166  1.00  0.00     0.005 C 
ATOM     22  C   UNL     1      13.366  27.507 -10.208  1.00  0.00     0.003 C 
ATOM     23  C   UNL     1      13.298  28.354  -7.782  1.00  0.00     0.010 C 
ATOM     24  C   UNL     1      14.485  29.755  -9.515  1.00  0.00     0.012 C 
ATOM     25  C   UNL     1      11.796  27.841 -10.324  1.00  0.00    -0.006 C 
ATOM     26  C   UNL     1      11.887  28.908  -7.982  1.00  0.00     0.033 C 
ATOM     27  C   UNL     1      11.113  27.981  -8.891  1.00  0.00     0.120 C 
ATOM     28  C   UNL     1      11.025  26.731 -11.121  1.00  0.00     0.014 C 
ATOM     29  C   UNL     1      11.620  29.161 -11.118  1.00  0.00     0.014 C 
ENDROOT
BRANCH   1  30
ATOM     30  C   UNL     1      20.680  25.084  -8.548  1.00  0.00     0.048 C 
ATOM     31  O   UNL     1      21.043  23.902  -8.740  1.00  0.00    -0.550 OA
ATOM     32  O   UNL     1      20.578  25.548  -7.224  1.00  0.00    -0.550 OA
ENDBRANCH   1  30
BRANCH  27  33
ATOM     33  O   UNL     1      10.863  26.775  -8.187  1.00  0.00    -0.393 OA
ATOM     34  H   UNL     1      10.022  26.375  -8.531  1.00  0.00     0.210 HD
ENDBRANCH  27  33
TORSDOF 2
ENDMDL
MODEL 5
REMARK VINA RESULT:    -6.088      1.960      8.275
REMARK INTER + INTRA:          -6.383
REMARK INTER:                  -6.686
REMARK INTRA:                   0.302
REMARK UNBOUND:                 0.239
REMARK SMILES CC1(C)CC[C@]2(C(=O)[O-])CC[C@@]3(C)C(=CC[C@H]4[C@]5(C)CC[C@H](O)C(C)(C)[C@@H]5CC[C@@]43C)[C@H]2C1
REMARK SMILES IDX 6 1 5 2 10 3 32 4 4 5 11 6 14 7 33 8 2 9 12 10 15 11 1 12
REMARK SMILES IDX 3 13 13 14 30 15 16 16 17 17 29 18 31 19 18 20 28 21 27 22
REMARK SMILES IDX 20 23 19 24 24 25 21 26 22 27 25 28 26 29 7 30 8 31 9 32
REMARK SMILES IDX 23 33
REMARK H PARENT 23 34
REMARK Flexibility Score: inf
ROOT
ATOM      1  C   UNL     1      14.470  27.844  -9.854  1.00  0.00     0.017 C 
ATOM      2  C   UNL     1      13.114  27.563 -10.550  1.00  0.00     0.014 C 
ATOM      3  C   UNL     1      15.386  28.598 -10.863  1.00  0.00     0.014 C 
ATOM      4  C   UNL     1      15.190  26.513  -9.523  1.00  0.00     0.028 C 
ATOM      5  C   UNL     1      12.239  26.587  -9.760  1.00  0.00     0.007 C 
ATOM      6  C   UNL     1      16.754  28.977 -10.229  1.00  0.00     0.013 C 
ATOM      7  C   UNL     1      16.533  26.746  -8.830  1.00  0.00    -0.064 C 
ATOM      8  C   UNL     1      14.307  25.468  -8.821  1.00  0.00     0.015 C 
ATOM      9  C   UNL     1      12.941  25.235  -9.499  1.00  0.00    -0.035 C 
ATOM     10  C   UNL     1      17.421  27.923  -9.239  1.00  0.00    -0.006 C 
ATOM     11  C   UNL     1      16.967  25.972  -7.835  1.00  0.00    -0.027 C 
ATOM     12  C   UNL     1      12.089  24.381  -8.530  1.00  0.00     0.011 C 
ATOM     13  C   UNL     1      13.116  24.419 -10.818  1.00  0.00     0.011 C 
ATOM     14  C   UNL     1      17.732  28.710  -7.905  1.00  0.00     0.017 C 
ATOM     15  C   UNL     1      18.729  27.210  -9.858  1.00  0.00    -0.020 C 
ATOM     16  C   UNL     1      18.382  25.400  -7.952  1.00  0.00     0.032 C 
ATOM     17  C   UNL     1      19.379  26.292  -8.751  1.00  0.00     0.006 C 
ATOM     18  C   UNL     1      19.778  28.252 -10.340  1.00  0.00     0.008 C 
ATOM     19  C   UNL     1      18.316  26.334 -11.098  1.00  0.00     0.012 C 
ATOM     20  C   UNL     1      20.732  25.534  -9.115  1.00  0.00    -0.025 C 
ATOM     21  C   UNL     1      21.262  27.875 -10.044  1.00  0.00     0.005 C 
ATOM     22  C   UNL     1      21.571  26.365 -10.171  1.00  0.00     0.003 C 
ATOM     23  C   UNL     1      21.552  25.366  -7.804  1.00  0.00     0.010 C 
ATOM     24  C   UNL     1      20.421  24.083  -9.662  1.00  0.00     0.012 C 
ATOM     25  C   UNL     1      23.143  26.030 -10.255  1.00  0.00    -0.006 C 
ATOM     26  C   UNL     1      22.968  24.817  -7.990  1.00  0.00     0.033 C 
ATOM     27  C   UNL     1      23.775  25.796  -8.811  1.00  0.00     0.120 C 
ATOM     28  C   UNL     1      23.945  27.184 -10.952  1.00  0.00     0.014 C 
ATOM     29  C   UNL     1      23.342  24.762 -11.125  1.00  0.00     0.014 C 
ENDROOT
BRANCH   1  30
ATOM     30  C   UNL     1      14.212  28.717  -8.614  1.00  0.00     0.048 C 
ATOM     31  O   UNL     1      13.979  28.189  -7.503  1.00  0.00    -0.550 OA
ATOM     32  O   UNL     1      14.332  30.118  -8.677  1.00  0.00    -0.550 OA
ENDBRANCH   1  30
BRANCH  27  33
ATOM     33  O   UNL     1      24.005  26.954  -8.023  1.00  0.00    -0.393 OA
ATOM     34  H   UNL     1      23.250  27.584  -8.158  1.00  0.00     0.210 HD
ENDBRANCH  27  33
TORSDOF 2
ENDMDL
MODEL 6
REMARK VINA RESULT:    -5.823      3.416      6.455
REMARK INTER + INTRA:          -6.095
REMARK INTER:                  -6.182
REMARK INTRA:                   0.087
REMARK UNBOUND:                 0.239
REMARK SMILES CC1(C)CC[C@]2(C(=O)[O-])CC[C@@]3(C)C(=CC[C@H]4[C@]5(C)CC[C@H](O)C(C)(C)[C@@H]5CC[C@@]43C)[C@H]2C1
REMARK SMILES IDX 6 1 5 2 10 3 32 4 4 5 11 6 14 7 33 8 2 9 12 10 15 11 1 12
REMARK SMILES IDX 3 13 13 14 30 15 16 16 17 17 29 18 31 19 18 20 28 21 27 22
REMARK SMILES IDX 20 23 19 24 24 25 21 26 22 27 25 28 26 29 7 30 8 31 9 32
REMARK SMILES IDX 23 33
REMARK H PARENT 23 34
REMARK Flexibility Score: inf
ROOT
ATOM      1  C   UNL     1      18.056  27.420  -9.579  1.00  0.00     0.017 C 
ATOM      2  C   UNL     1      18.626  28.357 -10.673  1.00  0.00     0.014 C 
ATOM      3  C   UNL     1      16.777  28.084  -8.990  1.00  0.00     0.014 C 
ATOM      4  C   UNL     1      19.060  27.293  -8.405  1.00  0.00     0.028 C 
ATOM      5  C   UNL     1      20.030  27.948 -11.125  1.00  0.00     0.007 C 
ATOM      6  C   UNL     1      16.098  27.183  -7.920  1.00  0.00     0.013 C 
ATOM      7  C   UNL     1      18.535  26.371  -7.303  1.00  0.00    -0.064 C 
ATOM      8  C   UNL     1      20.504  26.985  -8.833  1.00  0.00     0.015 C 
ATOM      9  C   UNL     1      21.040  27.896  -9.956  1.00  0.00    -0.035 C 
ATOM     10  C   UNL     1      17.050  26.367  -6.939  1.00  0.00    -0.006 C 
ATOM     11  C   UNL     1      19.327  25.521  -6.647  1.00  0.00    -0.027 C 
ATOM     12  C   UNL     1      22.374  27.282 -10.444  1.00  0.00     0.011 C 
ATOM     13  C   UNL     1      21.350  29.322  -9.405  1.00  0.00     0.011 C 
ATOM     14  C   UNL     1      16.589  24.859  -7.035  1.00  0.00     0.017 C 
ATOM     15  C   UNL     1      17.032  26.925  -5.426  1.00  0.00    -0.020 C 
ATOM     16  C   UNL     1      19.277  25.550  -5.117  1.00  0.00     0.032 C 
ATOM     17  C   UNL     1      17.900  25.969  -4.520  1.00  0.00     0.006 C 
ATOM     18  C   UNL     1      15.586  26.998  -4.857  1.00  0.00     0.008 C 
ATOM     19  C   UNL     1      17.635  28.379  -5.392  1.00  0.00     0.012 C 
ATOM     20  C   UNL     1      17.973  26.286  -2.961  1.00  0.00    -0.025 C 
ATOM     21  C   UNL     1      15.447  26.574  -3.362  1.00  0.00     0.005 C 
ATOM     22  C   UNL     1      16.641  26.989  -2.471  1.00  0.00     0.003 C 
ATOM     23  C   UNL     1      18.166  24.938  -2.208  1.00  0.00     0.010 C 
ATOM     24  C   UNL     1      19.233  27.186  -2.639  1.00  0.00     0.012 C 
ATOM     25  C   UNL     1      16.331  26.909  -0.894  1.00  0.00    -0.006 C 
ATOM     26  C   UNL     1      18.076  25.027  -0.684  1.00  0.00     0.033 C 
ATOM     27  C   UNL     1      16.687  25.476  -0.294  1.00  0.00     0.120 C 
ATOM     28  C   UNL     1      14.820  27.200  -0.584  1.00  0.00     0.014 C 
ATOM     29  C   UNL     1      17.152  28.001  -0.162  1.00  0.00     0.014 C 
ENDROOT
BRANCH   1  30
ATOM     30  C   UNL     1      17.705  26.069 -10.225  1.00  0.00     0.048 C 
ATOM     31  O   UNL     1      16.706  25.964 -10.973  1.00  0.00    -0.550 OA
ATOM     32  O   UNL     1      18.549  24.954 -10.075  1.00  0.00    -0.550 OA
ENDBRANCH   1  30
BRANCH  27  33
ATOM     33  O   UNL     1      15.782  24.423  -0.584  1.00  0.00    -0.393 OA
ATOM     34  H   UNL     1      16.283  23.566  -0.588  1.00  0.00     0.210 HD
ENDBRANCH  27  33
TORSDOF 2
ENDMDL
MODEL 7
REMARK VINA RESULT:    -5.787      3.403      7.355
REMARK INTER + INTRA:          -6.056
REMARK INTER:                  -6.146
REMARK INTRA:                   0.090
REMARK UNBOUND:                 0.239
REMARK SMILES CC1(C)CC[C@]2(C(=O)[O-])CC[C@@]3(C)C(=CC[C@H]4[C@]5(C)CC[C@H](O)C(C)(C)[C@@H]5CC[C@@]43C)[C@H]2C1
REMARK SMILES IDX 6 1 5 2 10 3 32 4 4 5 11 6 14 7 33 8 2 9 12 10 15 11 1 12
REMARK SMILES IDX 3 13 13 14 30 15 16 16 17 17 29 18 31 19 18 20 28 21 27 22
REMARK SMILES IDX 20 23 19 24 24 25 21 26 22 27 25 28 26 29 7 30 8 31 9 32
REMARK SMILES IDX 23 33
REMARK H PARENT 23 34
REMARK Flexibility Score: inf
ROOT
ATOM      1  C   UNL     1      16.499  26.553  -9.527  1.00  0.00     0.017 C 
ATOM      2  C   UNL     1      15.996  25.715 -10.729  1.00  0.00     0.014 C 
ATOM      3  C   UNL     1      17.835  25.930  -9.026  1.00  0.00     0.014 C 
ATOM      4  C   UNL     1      15.502  26.452  -8.345  1.00  0.00     0.028 C 
ATOM      5  C   UNL     1      14.558  26.059 -11.125  1.00  0.00     0.007 C 
ATOM      6  C   UNL     1      18.449  26.745  -7.853  1.00  0.00     0.013 C 
ATOM      7  C   UNL     1      15.961  27.270  -7.138  1.00  0.00    -0.064 C 
ATOM      8  C   UNL     1      14.032  26.690  -8.731  1.00  0.00     0.015 C 
ATOM      9  C   UNL     1      13.560  25.883  -9.958  1.00  0.00    -0.035 C 
ATOM     10  C   UNL     1      17.445  27.352  -6.777  1.00  0.00    -0.006 C 
ATOM     11  C   UNL     1      15.109  27.964  -6.381  1.00  0.00    -0.027 C 
ATOM     12  C   UNL     1      12.175  26.440 -10.365  1.00  0.00     0.011 C 
ATOM     13  C   UNL     1      13.374  24.379  -9.588  1.00  0.00     0.011 C 
ATOM     14  C   UNL     1      17.779  28.894  -6.686  1.00  0.00     0.017 C 
ATOM     15  C   UNL     1      17.525  26.614  -5.345  1.00  0.00    -0.020 C 
ATOM     16  C   UNL     1      15.178  27.751  -4.867  1.00  0.00     0.032 C 
ATOM     17  C   UNL     1      16.592  27.377  -4.327  1.00  0.00     0.006 C 
ATOM     18  C   UNL     1      18.978  26.592  -4.790  1.00  0.00     0.008 C 
ATOM     19  C   UNL     1      17.043  25.123  -5.492  1.00  0.00     0.012 C 
ATOM     20  C   UNL     1      16.562  26.864  -2.819  1.00  0.00    -0.025 C 
ATOM     21  C   UNL     1      19.099  26.838  -3.255  1.00  0.00     0.005 C 
ATOM     22  C   UNL     1      17.953  26.218  -2.421  1.00  0.00     0.003 C 
ATOM     23  C   UNL     1      16.268  28.088  -1.905  1.00  0.00     0.010 C 
ATOM     24  C   UNL     1      15.383  25.831  -2.611  1.00  0.00     0.012 C 
ATOM     25  C   UNL     1      18.272  26.129  -0.847  1.00  0.00    -0.006 C 
ATOM     26  C   UNL     1      16.381  27.820  -0.404  1.00  0.00     0.033 C 
ATOM     27  C   UNL     1      17.806  27.442  -0.073  1.00  0.00     0.120 C 
ATOM     28  C   UNL     1      19.805  25.927  -0.577  1.00  0.00     0.014 C 
ATOM     29  C   UNL     1      17.551  24.890  -0.256  1.00  0.00     0.014 C 
ENDROOT
BRANCH   1  30
ATOM     30  C   UNL     1      16.731  27.998 -10.001  1.00  0.00     0.048 C 
ATOM     31  O   UNL     1      17.713  28.278 -10.726  1.00  0.00    -0.550 OA
ATOM     32  O   UNL     1      15.797  29.012  -9.718  1.00  0.00    -0.550 OA
ENDBRANCH   1  30
BRANCH  27  33
ATOM     33  O   UNL     1      18.619  28.594  -0.232  1.00  0.00    -0.393 OA
ATOM     34  H   UNL     1      19.195  28.468  -1.030  1.00  0.00     0.210 HD
ENDBRANCH  27  33
TORSDOF 2
ENDMDL
MODEL 8
REMARK VINA RESULT:    -5.565      2.168      3.571
REMARK INTER + INTRA:          -5.815
REMARK INTER:                  -6.022
REMARK INTRA:                   0.207
REMARK UNBOUND:                 0.239
REMARK SMILES CC1(C)CC[C@]2(C(=O)[O-])CC[C@@]3(C)C(=CC[C@H]4[C@]5(C)CC[C@H](O)C(C)(C)[C@@H]5CC[C@@]43C)[C@H]2C1
REMARK SMILES IDX 6 1 5 2 10 3 32 4 4 5 11 6 14 7 33 8 2 9 12 10 15 11 1 12
REMARK SMILES IDX 3 13 13 14 30 15 16 16 17 17 29 18 31 19 18 20 28 21 27 22
REMARK SMILES IDX 20 23 19 24 24 25 21 26 22 27 25 28 26 29 7 30 8 31 9 32
REMARK SMILES IDX 23 33
REMARK H PARENT 23 34
REMARK Flexibility Score: inf
ROOT
ATOM      1  C   UNL     1      21.709  25.943  -8.626  1.00  0.00     0.017 C 
ATOM      2  C   UNL     1      22.830  25.003  -8.116  1.00  0.00     0.014 C 
ATOM      3  C   UNL     1      21.018  26.590  -7.390  1.00  0.00     0.014 C 
ATOM      4  C   UNL     1      20.614  25.126  -9.359  1.00  0.00     0.028 C 
ATOM      5  C   UNL     1      23.389  24.103  -9.220  1.00  0.00     0.007 C 
ATOM      6  C   UNL     1      19.913  27.600  -7.808  1.00  0.00     0.013 C 
ATOM      7  C   UNL     1      19.489  26.020  -9.882  1.00  0.00    -0.064 C 
ATOM      8  C   UNL     1      21.152  24.134 -10.403  1.00  0.00     0.015 C 
ATOM      9  C   UNL     1      22.299  23.238  -9.894  1.00  0.00    -0.035 C 
ATOM     10  C   UNL     1      19.016  27.226  -9.069  1.00  0.00    -0.006 C 
ATOM     11  C   UNL     1      18.905  25.813 -11.063  1.00  0.00    -0.027 C 
ATOM     12  C   UNL     1      22.893  22.513 -11.125  1.00  0.00     0.011 C 
ATOM     13  C   UNL     1      21.754  22.148  -8.921  1.00  0.00     0.011 C 
ATOM     14  C   UNL     1      19.097  28.463 -10.048  1.00  0.00     0.017 C 
ATOM     15  C   UNL     1      17.498  26.843  -8.678  1.00  0.00    -0.020 C 
ATOM     16  C   UNL     1      17.375  25.756 -11.092  1.00  0.00     0.032 C 
ATOM     17  C   UNL     1      16.672  26.621 -10.003  1.00  0.00     0.006 C 
ATOM     18  C   UNL     1      16.823  27.962  -7.834  1.00  0.00     0.008 C 
ATOM     19  C   UNL     1      17.490  25.524  -7.820  1.00  0.00     0.012 C 
ATOM     20  C   UNL     1      15.118  26.299  -9.865  1.00  0.00    -0.025 C 
ATOM     21  C   UNL     1      15.328  28.237  -8.184  1.00  0.00     0.005 C 
ATOM     22  C   UNL     1      14.522  26.972  -8.560  1.00  0.00     0.003 C 
ATOM     23  C   UNL     1      14.400  26.861 -11.125  1.00  0.00     0.010 C 
ATOM     24  C   UNL     1      14.879  24.736  -9.849  1.00  0.00     0.012 C 
ATOM     25  C   UNL     1      12.927  27.188  -8.536  1.00  0.00    -0.006 C 
ATOM     26  C   UNL     1      12.873  26.803 -11.082  1.00  0.00     0.033 C 
ATOM     27  C   UNL     1      12.374  27.672  -9.950  1.00  0.00     0.120 C 
ATOM     28  C   UNL     1      12.503  28.250  -7.462  1.00  0.00     0.014 C 
ATOM     29  C   UNL     1      12.244  25.855  -8.136  1.00  0.00     0.014 C 
ENDROOT
BRANCH   1  30
ATOM     30  C   UNL     1      22.345  27.030  -9.509  1.00  0.00     0.048 C 
ATOM     31  O   UNL     1      22.238  26.978 -10.756  1.00  0.00    -0.550 OA
ATOM     32  O   UNL     1      22.970  28.154  -8.938  1.00  0.00    -0.550 OA
ENDBRANCH   1  30
BRANCH  27  33
ATOM     33  O   UNL     1      12.611  29.028 -10.294  1.00  0.00    -0.393 OA
ATOM     34  H   UNL     1      12.655  29.564  -9.459  1.00  0.00     0.210 HD
ENDBRANCH  27  33
TORSDOF 2
ENDMDL
