MODEL 1
REMARK VINA RESULT:    -0.206      0.000      0.000
REMARK INTER + INTRA:          -0.377
REMARK INTER:                  -0.242
REMARK INTRA:                  -0.135
REMARK UNBOUND:                -0.135
REMARK SMILES O=C([O-])C=Cc1ccc(O)c(O)c1
REMARK SMILES IDX 6 1 13 2 7 3 11 4 8 5 9 6 5 7 4 8 2 9 1 10 3 11 12 12 10 14
REMARK H PARENT 12 13 10 15
REMARK Flexibility Score: inf
ROOT
ATOM      1  C   UNL     1      23.127  28.922  46.969  1.00  0.00    -0.022 A 
ATOM      2  C   UNL     1      22.455  27.689  46.927  1.00  0.00     0.058 A 
ATOM      3  C   UNL     1      22.370  30.107  47.047  1.00  0.00     0.012 A 
ATOM      4  C   UNL     1      21.054  27.637  46.935  1.00  0.00     0.157 A 
ATOM      5  C   UNL     1      20.973  30.055  47.055  1.00  0.00     0.051 A 
ATOM      6  C   UNL     1      20.311  28.822  46.997  1.00  0.00     0.157 A 
ENDROOT
BRANCH   1   7
ATOM      7  C   UNL     1      24.611  28.921  46.969  1.00  0.00     0.010 C 
ATOM      8  C   UNL     1      25.355  27.806  46.918  1.00  0.00     0.025 C 
BRANCH   8   9
ATOM      9  C   UNL     1      26.827  27.843  46.931  1.00  0.00     0.064 C 
ATOM     10  O   UNL     1      27.507  26.783  46.877  1.00  0.00    -0.545 OA
ATOM     11  O   UNL     1      27.478  29.067  47.004  1.00  0.00    -0.545 OA
ENDBRANCH   8   9
ENDBRANCH   1   7
BRANCH   4  12
ATOM     12  O   UNL     1      20.393  26.411  46.882  1.00  0.00    -0.504 OA
ATOM     13  H   UNL     1      20.503  25.782  46.096  1.00  0.00     0.293 HD
ENDBRANCH   4  12
BRANCH   6  14
ATOM     14  O   UNL     1      18.918  28.767  47.004  1.00  0.00    -0.504 OA
ATOM     15  H   UNL     1      18.359  29.414  46.460  1.00  0.00     0.293 HD
ENDBRANCH   6  14
TORSDOF 4
ENDMDL
MODEL 2
REMARK VINA RESULT:    -0.199      2.749      5.360
REMARK INTER + INTRA:          -0.368
REMARK INTER:                  -0.228
REMARK INTRA:                  -0.140
REMARK UNBOUND:                -0.135
REMARK SMILES O=C([O-])C=Cc1ccc(O)c(O)c1
REMARK SMILES IDX 6 1 13 2 7 3 11 4 8 5 9 6 5 7 4 8 2 9 1 10 3 11 12 12 10 14
REMARK H PARENT 12 13 10 15
REMARK Flexibility Score: inf
ROOT
ATOM      1  C   UNL     1      24.441  27.157  47.213  1.00  0.00    -0.022 A 
ATOM      2  C   UNL     1      23.919  25.860  47.355  1.00  0.00     0.058 A 
ATOM      3  C   UNL     1      25.822  27.312  46.985  1.00  0.00     0.012 A 
ATOM      4  C   UNL     1      24.760  24.740  47.297  1.00  0.00     0.157 A 
ATOM      5  C   UNL     1      26.660  26.196  46.928  1.00  0.00     0.051 A 
ATOM      6  C   UNL     1      26.133  24.908  47.085  1.00  0.00     0.157 A 
ENDROOT
BRANCH   1   7
ATOM      7  C   UNL     1      23.506  28.308  47.271  1.00  0.00     0.010 C 
ATOM      8  C   UNL     1      23.898  29.589  47.213  1.00  0.00     0.025 C 
BRANCH   8   9
ATOM      9  C   UNL     1      22.942  30.707  47.286  1.00  0.00     0.064 C 
ATOM     10  O   UNL     1      23.334  31.890  47.479  1.00  0.00    -0.545 OA
ATOM     11  O   UNL     1      21.585  30.454  47.139  1.00  0.00    -0.545 OA
ENDBRANCH   8   9
ENDBRANCH   1   7
BRANCH   4  12
ATOM     12  O   UNL     1      24.237  23.456  47.448  1.00  0.00    -0.504 OA
ATOM     13  H   UNL     1      23.296  23.304  47.789  1.00  0.00     0.293 HD
ENDBRANCH   4  12
BRANCH   6  14
ATOM     14  O   UNL     1      26.966  23.792  47.029  1.00  0.00    -0.504 OA
ATOM     15  H   UNL     1      27.180  23.248  47.857  1.00  0.00     0.293 HD
ENDBRANCH   6  14
TORSDOF 4
ENDMDL
MODEL 3
REMARK VINA RESULT:    -0.195      1.576      6.148
REMARK INTER + INTRA:          -0.364
REMARK INTER:                  -0.228
REMARK INTRA:                  -0.136
REMARK UNBOUND:                -0.135
REMARK SMILES O=C([O-])C=Cc1ccc(O)c(O)c1
REMARK SMILES IDX 6 1 13 2 7 3 11 4 8 5 9 6 5 7 4 8 2 9 1 10 3 11 12 12 10 14
REMARK H PARENT 12 13 10 15
REMARK Flexibility Score: inf
ROOT
ATOM      1  C   UNL     1      23.538  27.206  47.371  1.00  0.00    -0.022 A 
ATOM      2  C   UNL     1      24.314  28.367  47.214  1.00  0.00     0.058 A 
ATOM      3  C   UNL     1      24.185  25.956  47.406  1.00  0.00     0.012 A 
ATOM      4  C   UNL     1      25.706  28.284  47.068  1.00  0.00     0.157 A 
ATOM      5  C   UNL     1      25.573  25.873  47.260  1.00  0.00     0.051 A 
ATOM      6  C   UNL     1      26.336  27.034  47.089  1.00  0.00     0.157 A 
ENDROOT
BRANCH   1   7
ATOM      7  C   UNL     1      22.070  27.351  47.532  1.00  0.00     0.010 C 
ATOM      8  C   UNL     1      21.179  26.457  47.077  1.00  0.00     0.025 C 
BRANCH   8   9
ATOM      9  C   UNL     1      19.727  26.639  47.245  1.00  0.00     0.064 C 
ATOM     10  O   UNL     1      19.254  27.707  47.718  1.00  0.00    -0.545 OA
ATOM     11  O   UNL     1      18.865  25.615  46.877  1.00  0.00    -0.545 OA
ENDBRANCH   8   9
ENDBRANCH   1   7
BRANCH   4  12
ATOM     12  O   UNL     1      26.468  29.439  46.903  1.00  0.00    -0.504 OA
ATOM     13  H   UNL     1      27.413  29.506  47.261  1.00  0.00     0.293 HD
ENDBRANCH   4  12
BRANCH   6  14
ATOM     14  O   UNL     1      27.720  26.955  46.943  1.00  0.00    -0.504 OA
ATOM     15  H   UNL     1      28.176  27.202  46.073  1.00  0.00     0.293 HD
ENDBRANCH   6  14
TORSDOF 4
ENDMDL
MODEL 4
REMARK VINA RESULT:    -0.189      2.745      4.995
REMARK INTER + INTRA:          -0.357
REMARK INTER:                  -0.216
REMARK INTRA:                  -0.141
REMARK UNBOUND:                -0.135
REMARK SMILES O=C([O-])C=Cc1ccc(O)c(O)c1
REMARK SMILES IDX 6 1 13 2 7 3 11 4 8 5 9 6 5 7 4 8 2 9 1 10 3 11 12 12 10 14
REMARK H PARENT 12 13 10 15
REMARK Flexibility Score: inf
ROOT
ATOM      1  C   UNL     1      24.405  28.208  47.265  1.00  0.00    -0.022 A 
ATOM      2  C   UNL     1      23.699  26.999  47.393  1.00  0.00     0.058 A 
ATOM      3  C   UNL     1      25.786  28.163  46.995  1.00  0.00     0.012 A 
ATOM      4  C   UNL     1      24.361  25.769  47.280  1.00  0.00     0.157 A 
ATOM      5  C   UNL     1      26.446  26.936  46.882  1.00  0.00     0.051 A 
ATOM      6  C   UNL     1      25.737  25.736  47.026  1.00  0.00     0.157 A 
ENDROOT
BRANCH   1   7
ATOM      7  C   UNL     1      23.655  29.483  47.382  1.00  0.00     0.010 C 
ATOM      8  C   UNL     1      24.211  30.692  47.215  1.00  0.00     0.025 C 
BRANCH   8   9
ATOM      9  C   UNL     1      23.437  31.938  47.350  1.00  0.00     0.064 C 
ATOM     10  O   UNL     1      22.212  31.917  47.644  1.00  0.00    -0.545 OA
ATOM     11  O   UNL     1      24.070  33.158  47.151  1.00  0.00    -0.545 OA
ENDBRANCH   8   9
ENDBRANCH   1   7
BRANCH   4  12
ATOM     12  O   UNL     1      23.657  24.574  47.418  1.00  0.00    -0.504 OA
ATOM     13  H   UNL     1      23.891  23.754  46.872  1.00  0.00     0.293 HD
ENDBRANCH   4  12
BRANCH   6  14
ATOM     14  O   UNL     1      26.392  24.511  46.915  1.00  0.00    -0.504 OA
ATOM     15  H   UNL     1      27.333  24.379  47.269  1.00  0.00     0.293 HD
ENDBRANCH   6  14
TORSDOF 4
ENDMDL
MODEL 5
REMARK VINA RESULT:    -0.179      2.563      4.094
REMARK INTER + INTRA:          -0.345
REMARK INTER:                  -0.217
REMARK INTRA:                  -0.128
REMARK UNBOUND:                -0.135
REMARK SMILES O=C([O-])C=Cc1ccc(O)c(O)c1
REMARK SMILES IDX 6 1 13 2 7 3 11 4 8 5 9 6 5 7 4 8 2 9 1 10 3 11 12 12 10 14
REMARK H PARENT 12 13 10 15
REMARK Flexibility Score: inf
ROOT
ATOM      1  C   UNL     1      26.214  27.085  46.946  1.00  0.00    -0.022 A 
ATOM      2  C   UNL     1      26.223  28.490  46.915  1.00  0.00     0.058 A 
ATOM      3  C   UNL     1      24.977  26.413  46.929  1.00  0.00     0.012 A 
ATOM      4  C   UNL     1      25.022  29.213  46.896  1.00  0.00     0.157 A 
ATOM      5  C   UNL     1      23.779  27.133  46.910  1.00  0.00     0.051 A 
ATOM      6  C   UNL     1      23.798  28.534  46.895  1.00  0.00     0.157 A 
ENDROOT
BRANCH   1   7
ATOM      7  C   UNL     1      27.513  26.368  46.955  1.00  0.00     0.010 C 
ATOM      8  C   UNL     1      28.513  26.648  47.804  1.00  0.00     0.025 C 
BRANCH   8   9
ATOM      9  C   UNL     1      29.794  25.922  47.777  1.00  0.00     0.064 C 
ATOM     10  O   UNL     1      29.831  24.669  47.654  1.00  0.00    -0.545 OA
ATOM     11  O   UNL     1      30.982  26.632  47.890  1.00  0.00    -0.545 OA
ENDBRANCH   8   9
ENDBRANCH   1   7
BRANCH   4  12
ATOM     12  O   UNL     1      25.038  30.607  46.876  1.00  0.00    -0.504 OA
ATOM     13  H   UNL     1      25.789  31.122  46.434  1.00  0.00     0.293 HD
ENDBRANCH   4  12
BRANCH   6  14
ATOM     14  O   UNL     1      22.606  29.255  46.876  1.00  0.00    -0.504 OA
ATOM     15  H   UNL     1      22.099  29.464  47.729  1.00  0.00     0.293 HD
ENDBRANCH   6  14
TORSDOF 4
ENDMDL
MODEL 6
REMARK VINA RESULT:    -0.164      2.366      3.425
REMARK INTER + INTRA:          -0.327
REMARK INTER:                  -0.187
REMARK INTRA:                  -0.140
REMARK UNBOUND:                -0.135
REMARK SMILES O=C([O-])C=Cc1ccc(O)c(O)c1
REMARK SMILES IDX 6 1 13 2 7 3 11 4 8 5 9 6 5 7 4 8 2 9 1 10 3 11 12 12 10 14
REMARK H PARENT 12 13 10 15
REMARK Flexibility Score: inf
ROOT
ATOM      1  C   UNL     1      23.619  25.737  47.484  1.00  0.00    -0.022 A 
ATOM      2  C   UNL     1      22.657  26.704  47.824  1.00  0.00     0.058 A 
ATOM      3  C   UNL     1      23.185  24.482  47.015  1.00  0.00     0.012 A 
ATOM      4  C   UNL     1      21.288  26.418  47.723  1.00  0.00     0.157 A 
ATOM      5  C   UNL     1      21.820  24.197  46.914  1.00  0.00     0.051 A 
ATOM      6  C   UNL     1      20.869  25.162  47.269  1.00  0.00     0.157 A 
ENDROOT
BRANCH   1   7
ATOM      7  C   UNL     1      25.055  26.094  47.600  1.00  0.00     0.010 C 
ATOM      8  C   UNL     1      26.044  25.402  47.014  1.00  0.00     0.025 C 
BRANCH   8   9
ATOM      9  C   UNL     1      27.460  25.779  47.160  1.00  0.00     0.064 C 
ATOM     10  O   UNL     1      27.792  26.941  47.517  1.00  0.00    -0.545 OA
ATOM     11  O   UNL     1      28.446  24.838  46.900  1.00  0.00    -0.545 OA
ENDBRANCH   8   9
ENDBRANCH   1   7
BRANCH   4  12
ATOM     12  O   UNL     1      20.340  27.378  48.070  1.00  0.00    -0.504 OA
ATOM     13  H   UNL     1      20.526  28.075  48.781  1.00  0.00     0.293 HD
ENDBRANCH   4  12
BRANCH   6  14
ATOM     14  O   UNL     1      19.507  24.881  47.170  1.00  0.00    -0.504 OA
ATOM     15  H   UNL     1      19.020  24.925  46.282  1.00  0.00     0.293 HD
ENDBRANCH   6  14
TORSDOF 4
ENDMDL
MODEL 7
REMARK VINA RESULT:    -0.157      4.120      6.034
REMARK INTER + INTRA:          -0.319
REMARK INTER:                  -0.182
REMARK INTRA:                  -0.137
REMARK UNBOUND:                -0.135
REMARK SMILES O=C([O-])C=Cc1ccc(O)c(O)c1
REMARK SMILES IDX 6 1 13 2 7 3 11 4 8 5 9 6 5 7 4 8 2 9 1 10 3 11 12 12 10 14
REMARK H PARENT 12 13 10 15
REMARK Flexibility Score: inf
ROOT
ATOM      1  C   UNL     1      27.337  24.652  46.893  1.00  0.00    -0.022 A 
ATOM      2  C   UNL     1      25.944  24.467  46.922  1.00  0.00     0.058 A 
ATOM      3  C   UNL     1      27.849  25.963  46.912  1.00  0.00     0.012 A 
ATOM      4  C   UNL     1      25.077  25.569  46.945  1.00  0.00     0.157 A 
ATOM      5  C   UNL     1      26.985  27.061  46.935  1.00  0.00     0.051 A 
ATOM      6  C   UNL     1      25.598  26.868  46.949  1.00  0.00     0.157 A 
ENDROOT
BRANCH   1   7
ATOM      7  C   UNL     1      28.211  23.452  46.880  1.00  0.00     0.010 C 
ATOM      8  C   UNL     1      29.447  23.426  47.400  1.00  0.00     0.025 C 
BRANCH   8   9
ATOM      9  C   UNL     1      30.291  22.220  47.360  1.00  0.00     0.064 C 
ATOM     10  O   UNL     1      29.830  21.090  47.674  1.00  0.00    -0.545 OA
ATOM     11  O   UNL     1      31.619  22.330  46.969  1.00  0.00    -0.545 OA
ENDBRANCH   8   9
ENDBRANCH   1   7
BRANCH   4  12
ATOM     12  O   UNL     1      23.696  25.379  46.964  1.00  0.00    -0.504 OA
ATOM     13  H   UNL     1      23.285  24.499  47.252  1.00  0.00     0.293 HD
ENDBRANCH   4  12
BRANCH   6  14
ATOM     14  O   UNL     1      24.733  27.961  46.970  1.00  0.00    -0.504 OA
ATOM     15  H   UNL     1      23.937  28.019  46.346  1.00  0.00     0.293 HD
ENDBRANCH   6  14
TORSDOF 4
ENDMDL
MODEL 8
REMARK VINA RESULT:    -0.155      2.568      3.479
REMARK INTER + INTRA:          -0.317
REMARK INTER:                  -0.176
REMARK INTRA:                  -0.141
REMARK UNBOUND:                -0.135
REMARK SMILES O=C([O-])C=Cc1ccc(O)c(O)c1
REMARK SMILES IDX 6 1 13 2 7 3 11 4 8 5 9 6 5 7 4 8 2 9 1 10 3 11 12 12 10 14
REMARK H PARENT 12 13 10 15
REMARK Flexibility Score: inf
ROOT
ATOM      1  C   UNL     1      25.595  26.002  47.258  1.00  0.00    -0.022 A 
ATOM      2  C   UNL     1      24.834  24.826  47.146  1.00  0.00     0.058 A 
ATOM      3  C   UNL     1      24.934  27.217  47.519  1.00  0.00     0.012 A 
ATOM      4  C   UNL     1      23.438  24.863  47.267  1.00  0.00     0.157 A 
ATOM      5  C   UNL     1      23.541  27.255  47.639  1.00  0.00     0.051 A 
ATOM      6  C   UNL     1      22.790  26.080  47.512  1.00  0.00     0.157 A 
ENDROOT
BRANCH   1   7
ATOM      7  C   UNL     1      27.071  25.906  47.133  1.00  0.00     0.010 C 
ATOM      8  C   UNL     1      27.896  26.960  47.225  1.00  0.00     0.025 C 
BRANCH   8   9
ATOM      9  C   UNL     1      29.356  26.829  47.084  1.00  0.00     0.064 C 
ATOM     10  O   UNL     1      29.897  25.703  46.919  1.00  0.00    -0.545 OA
ATOM     11  O   UNL     1      30.151  27.966  47.135  1.00  0.00    -0.545 OA
ENDBRANCH   8   9
ENDBRANCH   1   7
BRANCH   4  12
ATOM     12  O   UNL     1      22.688  23.695  47.145  1.00  0.00    -0.504 OA
ATOM     13  H   UNL     1      23.022  22.903  46.609  1.00  0.00     0.293 HD
ENDBRANCH   4  12
BRANCH   6  14
ATOM     14  O   UNL     1      21.401  26.113  47.630  1.00  0.00    -0.504 OA
ATOM     15  H   UNL     1      20.950  26.391  48.494  1.00  0.00     0.293 HD
ENDBRANCH   6  14
TORSDOF 4
ENDMDL
MODEL 9
REMARK VINA RESULT:    -0.150      3.339      5.167
REMARK INTER + INTRA:          -0.311
REMARK INTER:                  -0.179
REMARK INTRA:                  -0.132
REMARK UNBOUND:                -0.135
REMARK SMILES O=C([O-])C=Cc1ccc(O)c(O)c1
REMARK SMILES IDX 6 1 13 2 7 3 11 4 8 5 9 6 5 7 4 8 2 9 1 10 3 11 12 12 10 14
REMARK H PARENT 12 13 10 15
REMARK Flexibility Score: inf
ROOT
ATOM      1  C   UNL     1      24.588  26.296  47.789  1.00  0.00    -0.022 A 
ATOM      2  C   UNL     1      25.637  25.444  47.402  1.00  0.00     0.058 A 
ATOM      3  C   UNL     1      23.419  25.730  48.333  1.00  0.00     0.012 A 
ATOM      4  C   UNL     1      25.514  24.054  47.529  1.00  0.00     0.157 A 
ATOM      5  C   UNL     1      23.296  24.344  48.460  1.00  0.00     0.051 A 
ATOM      6  C   UNL     1      24.340  23.502  48.057  1.00  0.00     0.157 A 
ENDROOT
BRANCH   1   7
ATOM      7  C   UNL     1      24.774  27.761  47.644  1.00  0.00     0.010 C 
ATOM      8  C   UNL     1      23.859  28.578  47.102  1.00  0.00     0.025 C 
BRANCH   8   9
ATOM      9  C   UNL     1      24.082  30.027  46.963  1.00  0.00     0.064 C 
ATOM     10  O   UNL     1      25.247  30.505  46.911  1.00  0.00    -0.545 OA
ATOM     11  O   UNL     1      22.990  30.881  46.890  1.00  0.00    -0.545 OA
ENDBRANCH   8   9
ENDBRANCH   1   7
BRANCH   4  12
ATOM     12  O   UNL     1      26.554  23.214  47.133  1.00  0.00    -0.504 OA
ATOM     13  H   UNL     1      27.406  23.134  47.675  1.00  0.00     0.293 HD
ENDBRANCH   4  12
BRANCH   6  14
ATOM     14  O   UNL     1      24.221  22.119  48.181  1.00  0.00    -0.504 OA
ATOM     15  H   UNL     1      24.376  21.500  47.393  1.00  0.00     0.293 HD
ENDBRANCH   6  14
TORSDOF 4
ENDMDL
