MODEL 1
REMARK VINA RESULT:    -4.699      0.000      0.000
REMARK INTER + INTRA:         -14.190
REMARK INTER:                 -10.742
REMARK INTRA:                  -3.448
REMARK UNBOUND:                -3.448
REMARK SMILES CCCCCCCCCCCCCCCCCCCCCCCC(=O)[O-]
REMARK SMILES IDX 13 1 14 2 15 3 16 4 17 5 18 6 19 7 20 8 21 9 22 10 23 11
REMARK SMILES IDX 24 12 25 13 26 14 12 15 11 16 10 17 9 18 8 19 7 20 6 21 5 22
REMARK SMILES IDX 4 23 3 24 2 25 1 26
REMARK H PARENT
REMARK Flexibility Score: inf
ROOT
ATOM      1  C   UNL     1     -13.742   4.931   4.234  1.00  0.00     0.000 C 
ENDROOT
BRANCH   1   2
ATOM      2  C   UNL     1     -12.863   3.706   4.527  1.00  0.00     0.000 C 
BRANCH   2   3
ATOM      3  C   UNL     1     -12.990   3.278   5.997  1.00  0.00     0.000 C 
BRANCH   3   4
ATOM      4  C   UNL     1     -11.682   2.706   6.570  1.00  0.00     0.000 C 
BRANCH   4   5
ATOM      5  C   UNL     1     -11.080   3.501   7.748  1.00  0.00     0.000 C 
BRANCH   5   6
ATOM      6  C   UNL     1     -10.952   5.017   7.514  1.00  0.00     0.000 C 
BRANCH   6   7
ATOM      7  C   UNL     1     -10.049   5.416   6.332  1.00  0.00     0.000 C 
BRANCH   7   8
ATOM      8  C   UNL     1     -10.564   6.641   5.545  1.00  0.00     0.000 C 
BRANCH   8   9
ATOM      9  C   UNL     1      -9.434   7.400   4.834  1.00  0.00     0.000 C 
BRANCH   9  10
ATOM     10  C   UNL     1      -8.527   8.113   5.849  1.00  0.00     0.006 C 
BRANCH  10  11
ATOM     11  C   UNL     1      -7.924   9.404   5.280  1.00  0.00     0.053 C 
BRANCH  11  12
ATOM     12  C   UNL     1      -7.337  10.266   6.356  1.00  0.00     0.041 C 
ATOM     13  O   UNL     1      -8.017  10.562   7.374  1.00  0.00    -0.550 OA
ATOM     14  O   UNL     1      -6.049  10.769   6.218  1.00  0.00    -0.550 OA
ENDBRANCH  11  12
ENDBRANCH  10  11
ENDBRANCH   9  10
ENDBRANCH   8   9
ENDBRANCH   7   8
ENDBRANCH   6   7
ENDBRANCH   5   6
ENDBRANCH   4   5
ENDBRANCH   3   4
ENDBRANCH   2   3
ENDBRANCH   1   2
BRANCH   1  15
ATOM     15  C   UNL     1     -14.033   5.767   5.492  1.00  0.00     0.000 C 
BRANCH  15  16
ATOM     16  C   UNL     1     -14.915   6.992   5.193  1.00  0.00     0.000 C 
BRANCH  16  17
ATOM     17  C   UNL     1     -14.128   8.315   5.219  1.00  0.00     0.000 C 
BRANCH  17  18
ATOM     18  C   UNL     1     -14.880   9.536   4.650  1.00  0.00    -0.000 C 
BRANCH  18  19
ATOM     19  C   UNL     1     -15.495   9.336   3.250  1.00  0.00    -0.000 C 
BRANCH  19  20
ATOM     20  C   UNL     1     -15.172  10.445   2.232  1.00  0.00    -0.000 C 
BRANCH  20  21
ATOM     21  C   UNL     1     -13.959  10.157   1.326  1.00  0.00    -0.000 C 
BRANCH  21  22
ATOM     22  C   UNL     1     -12.627  10.724   1.873  1.00  0.00    -0.000 C 
BRANCH  22  23
ATOM     23  C   UNL     1     -12.804  11.959   2.774  1.00  0.00    -0.000 C 
BRANCH  23  24
ATOM     24  C   UNL     1     -11.711  12.058   3.854  1.00  0.00    -0.000 C 
BRANCH  24  25
ATOM     25  C   UNL     1     -11.337  10.686   4.435  1.00  0.00    -0.003 C 
ATOM     26  C   UNL     1     -11.370  10.665   5.964  1.00  0.00     0.004 C 
ENDBRANCH  24  25
ENDBRANCH  23  24
ENDBRANCH  22  23
ENDBRANCH  21  22
ENDBRANCH  20  21
ENDBRANCH  19  20
ENDBRANCH  18  19
ENDBRANCH  17  18
ENDBRANCH  16  17
ENDBRANCH  15  16
ENDBRANCH   1  15
TORSDOF 22
ENDMDL
MODEL 2
REMARK VINA RESULT:    -4.624      0.752      2.218
REMARK INTER + INTRA:         -14.019
REMARK INTER:                 -10.426
REMARK INTRA:                  -3.593
REMARK UNBOUND:                -3.448
REMARK SMILES CCCCCCCCCCCCCCCCCCCCCCCC(=O)[O-]
REMARK SMILES IDX 13 1 14 2 15 3 16 4 17 5 18 6 19 7 20 8 21 9 22 10 23 11
REMARK SMILES IDX 24 12 25 13 26 14 12 15 11 16 10 17 9 18 8 19 7 20 6 21 5 22
REMARK SMILES IDX 4 23 3 24 2 25 1 26
REMARK H PARENT
REMARK Flexibility Score: inf
ROOT
ATOM      1  C   UNL     1     -13.743   4.949   4.169  1.00  0.00     0.000 C 
ENDROOT
BRANCH   1   2
ATOM      2  C   UNL     1     -12.834   3.757   4.505  1.00  0.00     0.000 C 
BRANCH   2   3
ATOM      3  C   UNL     1     -12.992   3.344   5.976  1.00  0.00     0.000 C 
BRANCH   3   4
ATOM      4  C   UNL     1     -11.649   3.037   6.660  1.00  0.00     0.000 C 
BRANCH   4   5
ATOM      5  C   UNL     1     -11.369   3.846   7.944  1.00  0.00     0.000 C 
BRANCH   5   6
ATOM      6  C   UNL     1     -10.502   5.103   7.748  1.00  0.00     0.000 C 
BRANCH   6   7
ATOM      7  C   UNL     1      -9.948   5.291   6.323  1.00  0.00     0.000 C 
BRANCH   7   8
ATOM      8  C   UNL     1     -10.479   6.556   5.614  1.00  0.00     0.000 C 
BRANCH   8   9
ATOM      9  C   UNL     1      -9.366   7.346   4.912  1.00  0.00     0.000 C 
BRANCH   9  10
ATOM     10  C   UNL     1      -8.660   8.293   5.895  1.00  0.00     0.006 C 
BRANCH  10  11
ATOM     11  C   UNL     1      -8.055   9.514   5.190  1.00  0.00     0.053 C 
BRANCH  11  12
ATOM     12  C   UNL     1      -7.709  10.603   6.159  1.00  0.00     0.041 C 
ATOM     13  O   UNL     1      -6.504  10.855   6.428  1.00  0.00    -0.550 OA
ATOM     14  O   UNL     1      -8.719  11.319   6.792  1.00  0.00    -0.550 OA
ENDBRANCH  11  12
ENDBRANCH  10  11
ENDBRANCH   9  10
ENDBRANCH   8   9
ENDBRANCH   7   8
ENDBRANCH   6   7
ENDBRANCH   5   6
ENDBRANCH   4   5
ENDBRANCH   3   4
ENDBRANCH   2   3
ENDBRANCH   1   2
BRANCH   1  15
ATOM     15  C   UNL     1     -14.027   5.841   5.389  1.00  0.00     0.000 C 
BRANCH  15  16
ATOM     16  C   UNL     1     -15.251   6.749   5.182  1.00  0.00     0.000 C 
BRANCH  16  17
ATOM     17  C   UNL     1     -14.881   8.241   5.097  1.00  0.00     0.000 C 
BRANCH  17  18
ATOM     18  C   UNL     1     -13.378   8.553   5.254  1.00  0.00    -0.000 C 
BRANCH  18  19
ATOM     19  C   UNL     1     -13.027   9.553   6.375  1.00  0.00    -0.000 C 
BRANCH  19  20
ATOM     20  C   UNL     1     -12.097  10.705   5.953  1.00  0.00    -0.000 C 
BRANCH  20  21
ATOM     21  C   UNL     1     -11.403  10.508   4.591  1.00  0.00    -0.000 C 
BRANCH  21  22
ATOM     22  C   UNL     1     -11.701  11.633   3.573  1.00  0.00    -0.000 C 
BRANCH  22  23
ATOM     23  C   UNL     1     -13.068  12.310   3.781  1.00  0.00    -0.000 C 
BRANCH  23  24
ATOM     24  C   UNL     1     -14.165  11.701   2.890  1.00  0.00    -0.000 C 
BRANCH  24  25
ATOM     25  C   UNL     1     -13.593  10.764   1.815  1.00  0.00    -0.003 C 
ATOM     26  C   UNL     1     -14.468   9.531   1.584  1.00  0.00     0.004 C 
ENDBRANCH  24  25
ENDBRANCH  23  24
ENDBRANCH  22  23
ENDBRANCH  21  22
ENDBRANCH  20  21
ENDBRANCH  19  20
ENDBRANCH  18  19
ENDBRANCH  17  18
ENDBRANCH  16  17
ENDBRANCH  15  16
ENDBRANCH   1  15
TORSDOF 22
ENDMDL
MODEL 3
REMARK VINA RESULT:    -4.593      2.490      5.668
REMARK INTER + INTRA:         -13.948
REMARK INTER:                 -10.695
REMARK INTRA:                  -3.253
REMARK UNBOUND:                -3.448
REMARK SMILES CCCCCCCCCCCCCCCCCCCCCCCC(=O)[O-]
REMARK SMILES IDX 13 1 14 2 15 3 16 4 17 5 18 6 19 7 20 8 21 9 22 10 23 11
REMARK SMILES IDX 24 12 25 13 26 14 12 15 11 16 10 17 9 18 8 19 7 20 6 21 5 22
REMARK SMILES IDX 4 23 3 24 2 25 1 26
REMARK H PARENT
REMARK Flexibility Score: inf
ROOT
ATOM      1  C   UNL     1     -12.764   3.783   4.616  1.00  0.00     0.000 C 
ENDROOT
BRANCH   1   2
ATOM      2  C   UNL     1     -13.770   4.863   4.189  1.00  0.00     0.000 C 
BRANCH   2   3
ATOM      3  C   UNL     1     -13.880   5.962   5.256  1.00  0.00     0.000 C 
BRANCH   3   4
ATOM      4  C   UNL     1     -14.992   6.982   4.953  1.00  0.00     0.000 C 
BRANCH   4   5
ATOM      5  C   UNL     1     -14.664   8.441   5.332  1.00  0.00     0.000 C 
BRANCH   5   6
ATOM      6  C   UNL     1     -13.406   8.622   6.201  1.00  0.00     0.000 C 
BRANCH   6   7
ATOM      7  C   UNL     1     -13.195  10.048   6.745  1.00  0.00     0.000 C 
BRANCH   7   8
ATOM      8  C   UNL     1     -13.605  11.157   5.751  1.00  0.00     0.000 C 
BRANCH   8   9
ATOM      9  C   UNL     1     -12.406  11.990   5.275  1.00  0.00     0.000 C 
BRANCH   9  10
ATOM     10  C   UNL     1     -12.327  12.011   3.741  1.00  0.00     0.006 C 
BRANCH  10  11
ATOM     11  C   UNL     1     -12.451  10.608   3.134  1.00  0.00     0.053 C 
BRANCH  11  12
ATOM     12  C   UNL     1     -13.110  10.638   1.789  1.00  0.00     0.041 C 
ATOM     13  O   UNL     1     -14.364  10.566   1.695  1.00  0.00    -0.550 OA
ATOM     14  O   UNL     1     -12.337  10.714   0.636  1.00  0.00    -0.550 OA
ENDBRANCH  11  12
ENDBRANCH  10  11
ENDBRANCH   9  10
ENDBRANCH   8   9
ENDBRANCH   7   8
ENDBRANCH   6   7
ENDBRANCH   5   6
ENDBRANCH   4   5
ENDBRANCH   3   4
ENDBRANCH   2   3
ENDBRANCH   1   2
BRANCH   1  15
ATOM     15  C   UNL     1     -12.951   3.343   6.078  1.00  0.00     0.000 C 
BRANCH  15  16
ATOM     16  C   UNL     1     -11.628   2.921   6.740  1.00  0.00     0.000 C 
BRANCH  16  17
ATOM     17  C   UNL     1     -11.216   3.850   7.897  1.00  0.00     0.000 C 
BRANCH  17  18
ATOM     18  C   UNL     1     -10.723   5.248   7.472  1.00  0.00    -0.000 C 
BRANCH  18  19
ATOM     19  C   UNL     1      -9.784   5.271   6.248  1.00  0.00    -0.000 C 
BRANCH  19  20
ATOM     20  C   UNL     1     -10.119   6.337   5.189  1.00  0.00    -0.000 C 
BRANCH  20  21
ATOM     21  C   UNL     1      -9.224   7.591   5.230  1.00  0.00    -0.000 C 
BRANCH  21  22
ATOM     22  C   UNL     1     -10.015   8.919   5.200  1.00  0.00    -0.000 C 
BRANCH  22  23
ATOM     23  C   UNL     1      -9.122  10.172   5.203  1.00  0.00    -0.000 C 
BRANCH  23  24
ATOM     24  C   UNL     1      -7.631   9.831   5.030  1.00  0.00    -0.000 C 
BRANCH  24  25
ATOM     25  C   UNL     1      -6.768  10.382   6.175  1.00  0.00    -0.003 C 
ATOM     26  C   UNL     1      -7.606  10.916   7.338  1.00  0.00     0.004 C 
ENDBRANCH  24  25
ENDBRANCH  23  24
ENDBRANCH  22  23
ENDBRANCH  21  22
ENDBRANCH  20  21
ENDBRANCH  19  20
ENDBRANCH  18  19
ENDBRANCH  17  18
ENDBRANCH  16  17
ENDBRANCH  15  16
ENDBRANCH   1  15
TORSDOF 22
ENDMDL
MODEL 4
REMARK VINA RESULT:    -4.577      2.373      6.925
REMARK INTER + INTRA:         -13.911
REMARK INTER:                 -10.658
REMARK INTRA:                  -3.253
REMARK UNBOUND:                -3.448
REMARK SMILES CCCCCCCCCCCCCCCCCCCCCCCC(=O)[O-]
REMARK SMILES IDX 13 1 14 2 15 3 16 4 17 5 18 6 19 7 20 8 21 9 22 10 23 11
REMARK SMILES IDX 24 12 25 13 26 14 12 15 11 16 10 17 9 18 8 19 7 20 6 21 5 22
REMARK SMILES IDX 4 23 3 24 2 25 1 26
REMARK H PARENT
REMARK Flexibility Score: inf
ROOT
ATOM      1  C   UNL     1      -8.808   8.511   5.811  1.00  0.00     0.000 C 
ENDROOT
BRANCH   1   2
ATOM      2  C   UNL     1      -7.914   9.494   5.041  1.00  0.00     0.000 C 
BRANCH   2   3
ATOM      3  C   UNL     1      -7.215  10.468   6.001  1.00  0.00     0.000 C 
BRANCH   3   4
ATOM      4  C   UNL     1      -7.852  10.491   7.401  1.00  0.00     0.000 C 
BRANCH   4   5
ATOM      5  C   UNL     1      -8.312  11.881   7.889  1.00  0.00     0.000 C 
BRANCH   5   6
ATOM      6  C   UNL     1      -9.581  12.424   7.209  1.00  0.00     0.000 C 
BRANCH   6   7
ATOM      7  C   UNL     1     -10.766  11.440   7.169  1.00  0.00     0.000 C 
BRANCH   7   8
ATOM      8  C   UNL     1     -11.707  11.653   5.962  1.00  0.00     0.000 C 
BRANCH   8   9
ATOM      9  C   UNL     1     -11.040  11.293   4.627  1.00  0.00     0.000 C 
BRANCH   9  10
ATOM     10  C   UNL     1     -11.321  12.367   3.565  1.00  0.00     0.006 C 
BRANCH  10  11
ATOM     11  C   UNL     1     -12.751  12.280   3.016  1.00  0.00     0.053 C 
BRANCH  11  12
ATOM     12  C   UNL     1     -12.999  10.984   2.309  1.00  0.00     0.041 C 
ATOM     13  O   UNL     1     -13.772  10.125   2.810  1.00  0.00    -0.550 OA
ATOM     14  O   UNL     1     -12.351  10.710   1.110  1.00  0.00    -0.550 OA
ENDBRANCH  11  12
ENDBRANCH  10  11
ENDBRANCH   9  10
ENDBRANCH   8   9
ENDBRANCH   7   8
ENDBRANCH   6   7
ENDBRANCH   5   6
ENDBRANCH   4   5
ENDBRANCH   3   4
ENDBRANCH   2   3
ENDBRANCH   1   2
BRANCH   1  15
ATOM     15  C   UNL     1      -9.350   7.380   4.921  1.00  0.00     0.000 C 
BRANCH  15  16
ATOM     16  C   UNL     1     -10.480   6.587   5.599  1.00  0.00     0.000 C 
BRANCH  16  17
ATOM     17  C   UNL     1      -9.971   5.342   6.348  1.00  0.00     0.000 C 
BRANCH  17  18
ATOM     18  C   UNL     1     -10.473   5.200   7.800  1.00  0.00    -0.000 C 
BRANCH  18  19
ATOM     19  C   UNL     1     -11.346   3.958   8.075  1.00  0.00    -0.000 C 
BRANCH  19  20
ATOM     20  C   UNL     1     -11.636   3.079   6.844  1.00  0.00    -0.000 C 
BRANCH  20  21
ATOM     21  C   UNL     1     -13.029   3.285   6.218  1.00  0.00    -0.000 C 
BRANCH  21  22
ATOM     22  C   UNL     1     -12.985   3.713   4.733  1.00  0.00    -0.000 C 
BRANCH  22  23
ATOM     23  C   UNL     1     -13.830   4.960   4.422  1.00  0.00    -0.000 C 
BRANCH  23  24
ATOM     24  C   UNL     1     -13.818   5.980   5.575  1.00  0.00    -0.000 C 
BRANCH  24  25
ATOM     25  C   UNL     1     -14.254   7.381   5.121  1.00  0.00    -0.003 C 
ATOM     26  C   UNL     1     -13.721   8.487   6.034  1.00  0.00     0.004 C 
ENDBRANCH  24  25
ENDBRANCH  23  24
ENDBRANCH  22  23
ENDBRANCH  21  22
ENDBRANCH  20  21
ENDBRANCH  19  20
ENDBRANCH  18  19
ENDBRANCH  17  18
ENDBRANCH  16  17
ENDBRANCH  15  16
ENDBRANCH   1  15
TORSDOF 22
ENDMDL
MODEL 5
REMARK VINA RESULT:    -4.556      2.477      5.376
REMARK INTER + INTRA:         -13.862
REMARK INTER:                 -10.478
REMARK INTRA:                  -3.384
REMARK UNBOUND:                -3.448
REMARK SMILES CCCCCCCCCCCCCCCCCCCCCCCC(=O)[O-]
REMARK SMILES IDX 13 1 14 2 15 3 16 4 17 5 18 6 19 7 20 8 21 9 22 10 23 11
REMARK SMILES IDX 24 12 25 13 26 14 12 15 11 16 10 17 9 18 8 19 7 20 6 21 5 22
REMARK SMILES IDX 4 23 3 24 2 25 1 26
REMARK H PARENT
REMARK Flexibility Score: inf
ROOT
ATOM      1  C   UNL     1     -11.732   2.966   7.224  1.00  0.00     0.000 C 
ENDROOT
BRANCH   1   2
ATOM      2  C   UNL     1     -13.052   3.325   6.526  1.00  0.00     0.000 C 
BRANCH   2   3
ATOM      3  C   UNL     1     -12.847   3.483   5.012  1.00  0.00     0.000 C 
BRANCH   3   4
ATOM      4  C   UNL     1     -13.555   4.722   4.437  1.00  0.00     0.000 C 
BRANCH   4   5
ATOM      5  C   UNL     1     -13.724   5.896   5.423  1.00  0.00     0.000 C 
BRANCH   5   6
ATOM      6  C   UNL     1     -14.947   6.795   5.165  1.00  0.00     0.000 C 
BRANCH   6   7
ATOM      7  C   UNL     1     -14.641   8.303   5.105  1.00  0.00     0.000 C 
BRANCH   7   8
ATOM      8  C   UNL     1     -13.178   8.653   5.459  1.00  0.00     0.000 C 
BRANCH   8   9
ATOM      9  C   UNL     1     -12.912  10.164   5.430  1.00  0.00     0.000 C 
BRANCH   9  10
ATOM     10  C   UNL     1     -11.837  10.514   4.390  1.00  0.00     0.006 C 
BRANCH  10  11
ATOM     11  C   UNL     1     -12.350  11.499   3.332  1.00  0.00     0.053 C 
BRANCH  11  12
ATOM     12  C   UNL     1     -13.026  10.794   2.195  1.00  0.00     0.041 C 
ATOM     13  O   UNL     1     -12.372  10.479   1.166  1.00  0.00    -0.550 OA
ATOM     14  O   UNL     1     -14.386  10.514   2.259  1.00  0.00    -0.550 OA
ENDBRANCH  11  12
ENDBRANCH  10  11
ENDBRANCH   9  10
ENDBRANCH   8   9
ENDBRANCH   7   8
ENDBRANCH   6   7
ENDBRANCH   5   6
ENDBRANCH   4   5
ENDBRANCH   3   4
ENDBRANCH   2   3
ENDBRANCH   1   2
BRANCH   1  15
ATOM     15  C   UNL     1     -11.285   4.037   8.235  1.00  0.00     0.000 C 
BRANCH  15  16
ATOM     16  C   UNL     1     -10.712   5.290   7.550  1.00  0.00     0.000 C 
BRANCH  16  17
ATOM     17  C   UNL     1      -9.836   4.955   6.329  1.00  0.00     0.000 C 
BRANCH  17  18
ATOM     18  C   UNL     1      -9.948   5.944   5.151  1.00  0.00    -0.000 C 
BRANCH  18  19
ATOM     19  C   UNL     1      -9.809   7.434   5.526  1.00  0.00    -0.000 C 
BRANCH  19  20
ATOM     20  C   UNL     1      -9.067   8.300   4.492  1.00  0.00    -0.000 C 
BRANCH  20  21
ATOM     21  C   UNL     1      -8.291   9.492   5.087  1.00  0.00    -0.000 C 
BRANCH  21  22
ATOM     22  C   UNL     1      -8.111   9.411   6.621  1.00  0.00    -0.000 C 
BRANCH  22  23
ATOM     23  C   UNL     1      -8.157  10.780   7.323  1.00  0.00    -0.000 C 
BRANCH  23  24
ATOM     24  C   UNL     1      -9.173  11.738   6.675  1.00  0.00    -0.000 C 
BRANCH  24  25
ATOM     25  C   UNL     1      -9.888  12.620   7.710  1.00  0.00    -0.003 C 
ATOM     26  C   UNL     1     -11.259  12.068   8.105  1.00  0.00     0.004 C 
ENDBRANCH  24  25
ENDBRANCH  23  24
ENDBRANCH  22  23
ENDBRANCH  21  22
ENDBRANCH  20  21
ENDBRANCH  19  20
ENDBRANCH  18  19
ENDBRANCH  17  18
ENDBRANCH  16  17
ENDBRANCH  15  16
ENDBRANCH   1  15
TORSDOF 22
ENDMDL
MODEL 6
REMARK VINA RESULT:    -4.507      2.430      6.270
REMARK INTER + INTRA:         -13.752
REMARK INTER:                 -10.195
REMARK INTRA:                  -3.558
REMARK UNBOUND:                -3.448
REMARK SMILES CCCCCCCCCCCCCCCCCCCCCCCC(=O)[O-]
REMARK SMILES IDX 13 1 14 2 15 3 16 4 17 5 18 6 19 7 20 8 21 9 22 10 23 11
REMARK SMILES IDX 24 12 25 13 26 14 12 15 11 16 10 17 9 18 8 19 7 20 6 21 5 22
REMARK SMILES IDX 4 23 3 24 2 25 1 26
REMARK H PARENT
REMARK Flexibility Score: inf
ROOT
ATOM      1  C   UNL     1     -14.238   5.242   4.164  1.00  0.00     0.000 C 
ENDROOT
BRANCH   1   2
ATOM      2  C   UNL     1     -14.263   6.326   5.253  1.00  0.00     0.000 C 
BRANCH   2   3
ATOM      3  C   UNL     1     -14.915   7.614   4.730  1.00  0.00     0.000 C 
BRANCH   3   4
ATOM      4  C   UNL     1     -14.337   8.884   5.378  1.00  0.00     0.000 C 
BRANCH   4   5
ATOM      5  C   UNL     1     -12.890   8.754   5.898  1.00  0.00     0.000 C 
BRANCH   5   6
ATOM      6  C   UNL     1     -12.061  10.050   5.855  1.00  0.00     0.000 C 
BRANCH   6   7
ATOM      7  C   UNL     1     -11.381  10.340   4.504  1.00  0.00     0.000 C 
BRANCH   7   8
ATOM      8  C   UNL     1     -11.414  11.831   4.101  1.00  0.00     0.000 C 
BRANCH   8   9
ATOM      9  C   UNL     1     -12.838  12.405   4.093  1.00  0.00     0.000 C 
BRANCH   9  10
ATOM     10  C   UNL     1     -13.327  12.644   2.657  1.00  0.00     0.006 C 
BRANCH  10  11
ATOM     11  C   UNL     1     -14.367  11.604   2.218  1.00  0.00     0.053 C 
BRANCH  11  12
ATOM     12  C   UNL     1     -13.732  10.443   1.514  1.00  0.00     0.041 C 
ATOM     13  O   UNL     1     -12.575  10.552   1.028  1.00  0.00    -0.550 OA
ATOM     14  O   UNL     1     -14.431   9.251   1.368  1.00  0.00    -0.550 OA
ENDBRANCH  11  12
ENDBRANCH  10  11
ENDBRANCH   9  10
ENDBRANCH   8   9
ENDBRANCH   7   8
ENDBRANCH   6   7
ENDBRANCH   5   6
ENDBRANCH   4   5
ENDBRANCH   3   4
ENDBRANCH   2   3
ENDBRANCH   1   2
BRANCH   1  15
ATOM     15  C   UNL     1     -13.128   4.201   4.389  1.00  0.00     0.000 C 
BRANCH  15  16
ATOM     16  C   UNL     1     -13.212   3.543   5.777  1.00  0.00     0.000 C 
BRANCH  16  17
ATOM     17  C   UNL     1     -12.005   2.637   6.082  1.00  0.00     0.000 C 
BRANCH  17  18
ATOM     18  C   UNL     1     -11.212   3.008   7.352  1.00  0.00    -0.000 C 
BRANCH  18  19
ATOM     19  C   UNL     1     -11.679   4.292   8.068  1.00  0.00    -0.000 C 
BRANCH  19  20
ATOM     20  C   UNL     1     -10.909   5.569   7.685  1.00  0.00    -0.000 C 
BRANCH  20  21
ATOM     21  C   UNL     1      -9.928   5.403   6.508  1.00  0.00    -0.000 C 
BRANCH  21  22
ATOM     22  C   UNL     1     -10.326   6.209   5.250  1.00  0.00    -0.000 C 
BRANCH  22  23
ATOM     23  C   UNL     1      -9.278   7.251   4.824  1.00  0.00    -0.000 C 
BRANCH  23  24
ATOM     24  C   UNL     1      -8.845   8.158   5.990  1.00  0.00    -0.000 C 
BRANCH  24  25
ATOM     25  C   UNL     1      -7.892   9.276   5.539  1.00  0.00    -0.003 C 
ATOM     26  C   UNL     1      -8.101  10.576   6.317  1.00  0.00     0.004 C 
ENDBRANCH  24  25
ENDBRANCH  23  24
ENDBRANCH  22  23
ENDBRANCH  21  22
ENDBRANCH  20  21
ENDBRANCH  19  20
ENDBRANCH  18  19
ENDBRANCH  17  18
ENDBRANCH  16  17
ENDBRANCH  15  16
ENDBRANCH   1  15
TORSDOF 22
ENDMDL
MODEL 7
REMARK VINA RESULT:    -4.503      1.576      5.810
REMARK INTER + INTRA:         -13.743
REMARK INTER:                 -10.944
REMARK INTRA:                  -2.799
REMARK UNBOUND:                -3.448
REMARK SMILES CCCCCCCCCCCCCCCCCCCCCCCC(=O)[O-]
REMARK SMILES IDX 13 1 14 2 15 3 16 4 17 5 18 6 19 7 20 8 21 9 22 10 23 11
REMARK SMILES IDX 24 12 25 13 26 14 12 15 11 16 10 17 9 18 8 19 7 20 6 21 5 22
REMARK SMILES IDX 4 23 3 24 2 25 1 26
REMARK H PARENT
REMARK Flexibility Score: inf
ROOT
ATOM      1  C   UNL     1     -13.758   4.872   4.409  1.00  0.00     0.000 C 
ENDROOT
BRANCH   1   2
ATOM      2  C   UNL     1     -13.805   6.045   5.399  1.00  0.00     0.000 C 
BRANCH   2   3
ATOM      3  C   UNL     1     -15.051   6.911   5.165  1.00  0.00     0.000 C 
BRANCH   3   4
ATOM      4  C   UNL     1     -14.715   8.315   4.631  1.00  0.00     0.000 C 
BRANCH   4   5
ATOM      5  C   UNL     1     -15.886   9.053   3.949  1.00  0.00     0.000 C 
BRANCH   5   6
ATOM      6  C   UNL     1     -15.474  10.110   2.908  1.00  0.00     0.000 C 
BRANCH   6   7
ATOM      7  C   UNL     1     -14.595   9.579   1.760  1.00  0.00     0.000 C 
BRANCH   7   8
ATOM      8  C   UNL     1     -13.391  10.488   1.430  1.00  0.00     0.000 C 
BRANCH   8   9
ATOM      9  C   UNL     1     -12.413  10.616   2.607  1.00  0.00     0.000 C 
BRANCH   9  10
ATOM     10  C   UNL     1     -12.335  12.069   3.101  1.00  0.00     0.006 C 
BRANCH  10  11
ATOM     11  C   UNL     1     -12.738  12.202   4.576  1.00  0.00     0.053 C 
BRANCH  11  12
ATOM     12  C   UNL     1     -11.591  12.651   5.429  1.00  0.00     0.041 C 
ATOM     13  O   UNL     1     -10.552  13.125   4.897  1.00  0.00    -0.550 OA
ATOM     14  O   UNL     1     -11.657  12.516   6.811  1.00  0.00    -0.550 OA
ENDBRANCH  11  12
ENDBRANCH  10  11
ENDBRANCH   9  10
ENDBRANCH   8   9
ENDBRANCH   7   8
ENDBRANCH   6   7
ENDBRANCH   5   6
ENDBRANCH   4   5
ENDBRANCH   3   4
ENDBRANCH   2   3
ENDBRANCH   1   2
BRANCH   1  15
ATOM     15  C   UNL     1     -12.933   3.684   4.935  1.00  0.00     0.000 C 
BRANCH  15  16
ATOM     16  C   UNL     1     -13.098   3.479   6.451  1.00  0.00     0.000 C 
BRANCH  16  17
ATOM     17  C   UNL     1     -11.792   3.048   7.141  1.00  0.00     0.000 C 
BRANCH  17  18
ATOM     18  C   UNL     1     -11.251   4.034   8.196  1.00  0.00    -0.000 C 
BRANCH  18  19
ATOM     19  C   UNL     1     -10.630   5.328   7.631  1.00  0.00    -0.000 C 
BRANCH  19  20
ATOM     20  C   UNL     1      -9.802   5.146   6.346  1.00  0.00    -0.000 C 
BRANCH  20  21
ATOM     21  C   UNL     1     -10.170   6.108   5.199  1.00  0.00    -0.000 C 
BRANCH  21  22
ATOM     22  C   UNL     1      -9.269   7.363   5.128  1.00  0.00    -0.000 C 
BRANCH  22  23
ATOM     23  C   UNL     1     -10.050   8.688   5.133  1.00  0.00    -0.000 C 
BRANCH  23  24
ATOM     24  C   UNL     1      -9.197   9.871   5.624  1.00  0.00    -0.000 C 
BRANCH  24  25
ATOM     25  C   UNL     1      -7.795   9.881   4.995  1.00  0.00    -0.003 C 
ATOM     26  C   UNL     1      -6.692  10.139   6.023  1.00  0.00     0.004 C 
ENDBRANCH  24  25
ENDBRANCH  23  24
ENDBRANCH  22  23
ENDBRANCH  21  22
ENDBRANCH  20  21
ENDBRANCH  19  20
ENDBRANCH  18  19
ENDBRANCH  17  18
ENDBRANCH  16  17
ENDBRANCH  15  16
ENDBRANCH   1  15
TORSDOF 22
ENDMDL
MODEL 8
REMARK VINA RESULT:    -4.393      1.072      6.050
REMARK INTER + INTRA:         -13.491
REMARK INTER:                 -10.044
REMARK INTRA:                  -3.448
REMARK UNBOUND:                -3.448
REMARK SMILES CCCCCCCCCCCCCCCCCCCCCCCC(=O)[O-]
REMARK SMILES IDX 13 1 14 2 15 3 16 4 17 5 18 6 19 7 20 8 21 9 22 10 23 11
REMARK SMILES IDX 24 12 25 13 26 14 12 15 11 16 10 17 9 18 8 19 7 20 6 21 5 22
REMARK SMILES IDX 4 23 3 24 2 25 1 26
REMARK H PARENT
REMARK Flexibility Score: inf
ROOT
ATOM      1  C   UNL     1     -14.472   9.428   2.222  1.00  0.00     0.000 C 
ENDROOT
BRANCH   1   2
ATOM      2  C   UNL     1     -13.610  10.666   1.932  1.00  0.00     0.000 C 
BRANCH   2   3
ATOM      3  C   UNL     1     -14.328  11.950   2.374  1.00  0.00     0.000 C 
BRANCH   3   4
ATOM      4  C   UNL     1     -13.420  12.898   3.177  1.00  0.00     0.000 C 
BRANCH   4   5
ATOM      5  C   UNL     1     -12.055  12.306   3.587  1.00  0.00     0.000 C 
BRANCH   5   6
ATOM      6  C   UNL     1     -11.850  12.127   5.102  1.00  0.00     0.000 C 
BRANCH   6   7
ATOM      7  C   UNL     1     -11.761  10.663   5.574  1.00  0.00     0.000 C 
BRANCH   7   8
ATOM      8  C   UNL     1     -10.999   9.743   4.596  1.00  0.00     0.000 C 
BRANCH   8   9
ATOM      9  C   UNL     1     -10.336   8.553   5.305  1.00  0.00     0.000 C 
BRANCH   9  10
ATOM     10  C   UNL     1      -8.805   8.643   5.214  1.00  0.00     0.006 C 
BRANCH  10  11
ATOM     11  C   UNL     1      -8.181   9.224   6.489  1.00  0.00     0.053 C 
BRANCH  11  12
ATOM     12  C   UNL     1      -7.630  10.599   6.264  1.00  0.00     0.041 C 
ATOM     13  O   UNL     1      -8.390  11.602   6.305  1.00  0.00    -0.550 OA
ATOM     14  O   UNL     1      -6.281  10.769   5.975  1.00  0.00    -0.550 OA
ENDBRANCH  11  12
ENDBRANCH  10  11
ENDBRANCH   9  10
ENDBRANCH   8   9
ENDBRANCH   7   8
ENDBRANCH   6   7
ENDBRANCH   5   6
ENDBRANCH   4   5
ENDBRANCH   3   4
ENDBRANCH   2   3
ENDBRANCH   1   2
BRANCH   1  15
ATOM     15  C   UNL     1     -15.411   9.628   3.423  1.00  0.00     0.000 C 
BRANCH  15  16
ATOM     16  C   UNL     1     -14.814   9.088   4.734  1.00  0.00     0.000 C 
BRANCH  16  17
ATOM     17  C   UNL     1     -14.828   7.551   4.809  1.00  0.00     0.000 C 
BRANCH  17  18
ATOM     18  C   UNL     1     -13.608   6.917   5.507  1.00  0.00    -0.000 C 
BRANCH  18  19
ATOM     19  C   UNL     1     -13.691   5.392   5.722  1.00  0.00    -0.000 C 
BRANCH  19  20
ATOM     20  C   UNL     1     -13.141   4.539   4.564  1.00  0.00    -0.000 C 
BRANCH  20  21
ATOM     21  C   UNL     1     -11.752   3.923   4.820  1.00  0.00    -0.000 C 
BRANCH  21  22
ATOM     22  C   UNL     1     -10.616   4.968   4.910  1.00  0.00    -0.000 C 
BRANCH  22  23
ATOM     23  C   UNL     1      -9.966   5.059   6.302  1.00  0.00    -0.000 C 
BRANCH  23  24
ATOM     24  C   UNL     1     -10.629   4.114   7.322  1.00  0.00    -0.000 C 
BRANCH  24  25
ATOM     25  C   UNL     1     -11.227   4.871   8.517  1.00  0.00    -0.003 C 
ATOM     26  C   UNL     1     -11.974   3.948   9.482  1.00  0.00     0.004 C 
ENDBRANCH  24  25
ENDBRANCH  23  24
ENDBRANCH  22  23
ENDBRANCH  21  22
ENDBRANCH  20  21
ENDBRANCH  19  20
ENDBRANCH  18  19
ENDBRANCH  17  18
ENDBRANCH  16  17
ENDBRANCH  15  16
ENDBRANCH   1  15
TORSDOF 22
ENDMDL
MODEL 9
REMARK VINA RESULT:    -4.375      1.242      2.564
REMARK INTER + INTRA:         -13.450
REMARK INTER:                  -9.905
REMARK INTRA:                  -3.544
REMARK UNBOUND:                -3.448
REMARK SMILES CCCCCCCCCCCCCCCCCCCCCCCC(=O)[O-]
REMARK SMILES IDX 13 1 14 2 15 3 16 4 17 5 18 6 19 7 20 8 21 9 22 10 23 11
REMARK SMILES IDX 24 12 25 13 26 14 12 15 11 16 10 17 9 18 8 19 7 20 6 21 5 22
REMARK SMILES IDX 4 23 3 24 2 25 1 26
REMARK H PARENT
REMARK Flexibility Score: inf
ROOT
ATOM      1  C   UNL     1     -14.993   6.861   5.131  1.00  0.00     0.000 C 
ENDROOT
BRANCH   1   2
ATOM      2  C   UNL     1     -13.766   5.969   5.371  1.00  0.00     0.000 C 
BRANCH   2   3
ATOM      3  C   UNL     1     -13.856   4.678   4.544  1.00  0.00     0.000 C 
BRANCH   3   4
ATOM      4  C   UNL     1     -12.777   3.648   4.920  1.00  0.00     0.000 C 
BRANCH   4   5
ATOM      5  C   UNL     1     -12.714   3.283   6.418  1.00  0.00     0.000 C 
BRANCH   5   6
ATOM      6  C   UNL     1     -11.322   3.410   7.063  1.00  0.00     0.000 C 
BRANCH   6   7
ATOM      7  C   UNL     1     -10.868   4.855   7.344  1.00  0.00     0.000 C 
BRANCH   7   8
ATOM      8  C   UNL     1      -9.671   5.307   6.478  1.00  0.00     0.000 C 
BRANCH   8   9
ATOM      9  C   UNL     1     -10.112   6.045   5.206  1.00  0.00     0.000 C 
BRANCH   9  10
ATOM     10  C   UNL     1     -10.286   7.547   5.474  1.00  0.00     0.006 C 
BRANCH  10  11
ATOM     11  C   UNL     1      -9.187   8.386   4.808  1.00  0.00     0.053 C 
BRANCH  11  12
ATOM     12  C   UNL     1      -8.854   9.607   5.610  1.00  0.00     0.041 C 
ATOM     13  O   UNL     1      -9.108  10.754   5.155  1.00  0.00    -0.550 OA
ATOM     14  O   UNL     1      -8.232   9.479   6.846  1.00  0.00    -0.550 OA
ENDBRANCH  11  12
ENDBRANCH  10  11
ENDBRANCH   9  10
ENDBRANCH   8   9
ENDBRANCH   7   8
ENDBRANCH   6   7
ENDBRANCH   5   6
ENDBRANCH   4   5
ENDBRANCH   3   4
ENDBRANCH   2   3
ENDBRANCH   1   2
BRANCH   1  15
ATOM     15  C   UNL     1     -14.648   8.150   4.365  1.00  0.00     0.000 C 
BRANCH  15  16
ATOM     16  C   UNL     1     -15.878   9.046   4.137  1.00  0.00     0.000 C 
BRANCH  16  17
ATOM     17  C   UNL     1     -15.735   9.953   2.901  1.00  0.00     0.000 C 
BRANCH  17  18
ATOM     18  C   UNL     1     -14.655   9.516   1.890  1.00  0.00    -0.000 C 
BRANCH  18  19
ATOM     19  C   UNL     1     -13.638  10.608   1.501  1.00  0.00    -0.000 C 
BRANCH  19  20
ATOM     20  C   UNL     1     -12.490  10.817   2.506  1.00  0.00    -0.000 C 
BRANCH  20  21
ATOM     21  C   UNL     1     -12.345  12.259   3.028  1.00  0.00    -0.000 C 
BRANCH  21  22
ATOM     22  C   UNL     1     -12.239  12.354   4.568  1.00  0.00    -0.000 C 
BRANCH  22  23
ATOM     23  C   UNL     1     -13.232  11.445   5.314  1.00  0.00    -0.000 C 
BRANCH  23  24
ATOM     24  C   UNL     1     -12.526  10.450   6.252  1.00  0.00    -0.000 C 
BRANCH  24  25
ATOM     25  C   UNL     1     -13.487   9.830   7.278  1.00  0.00    -0.003 C 
ATOM     26  C   UNL     1     -14.804  10.600   7.389  1.00  0.00     0.004 C 
ENDBRANCH  24  25
ENDBRANCH  23  24
ENDBRANCH  22  23
ENDBRANCH  21  22
ENDBRANCH  20  21
ENDBRANCH  19  20
ENDBRANCH  18  19
ENDBRANCH  17  18
ENDBRANCH  16  17
ENDBRANCH  15  16
ENDBRANCH   1  15
TORSDOF 22
ENDMDL
