MODEL 1
REMARK VINA RESULT:    24.021      0.000      0.000
REMARK INTER + INTRA:          61.086
REMARK INTER:                  60.533
REMARK INTRA:                   0.553
REMARK UNBOUND:                 0.553
REMARK SMILES CCCCCCCCCCCCCCCCCCCCCCCCCCCC(=O)[O-]
REMARK SMILES IDX 15 1 16 2 17 3 18 4 19 5 20 6 21 7 22 8 23 9 24 10 25 11
REMARK SMILES IDX 26 12 27 13 28 14 29 15 30 16 14 17 13 18 12 19 11 20 10 21
REMARK SMILES IDX 9 22 8 23 7 24 6 25 5 26 4 27 3 28 2 29 1 30
REMARK H PARENT
REMARK Flexibility Score: inf
ROOT
ATOM      1  C   UNL     1       0.615  43.503   5.625  1.00  0.00     0.000 C 
ENDROOT
BRANCH   1   2
ATOM      2  C   UNL     1       0.513  44.123   4.223  1.00  0.00     0.000 C 
BRANCH   2   3
ATOM      3  C   UNL     1      -0.518  45.263   4.143  1.00  0.00     0.000 C 
BRANCH   3   4
ATOM      4  C   UNL     1      -0.913  45.685   2.716  1.00  0.00     0.000 C 
BRANCH   4   5
ATOM      5  C   UNL     1      -1.952  46.817   2.694  1.00  0.00     0.000 C 
BRANCH   5   6
ATOM      6  C   UNL     1      -2.697  46.852   1.354  1.00  0.00     0.000 C 
BRANCH   6   7
ATOM      7  C   UNL     1      -4.036  46.106   1.454  1.00  0.00     0.000 C 
BRANCH   7   8
ATOM      8  C   UNL     1      -5.058  46.565   0.398  1.00  0.00     0.000 C 
BRANCH   8   9
ATOM      9  C   UNL     1      -4.454  47.264  -0.835  1.00  0.00     0.000 C 
BRANCH   9  10
ATOM     10  C   UNL     1      -4.757  46.531  -2.150  1.00  0.00     0.000 C 
BRANCH  10  11
ATOM     11  C   UNL     1      -4.418  47.411  -3.362  1.00  0.00     0.000 C 
BRANCH  11  12
ATOM     12  C   UNL     1      -2.923  47.363  -3.720  1.00  0.00     0.006 C 
BRANCH  12  13
ATOM     13  C   UNL     1      -2.109  48.444  -2.998  1.00  0.00     0.053 C 
BRANCH  13  14
ATOM     14  C   UNL     1      -0.652  48.289  -3.298  1.00  0.00     0.041 C 
ATOM     15  O   UNL     1       0.189  49.068  -2.774  1.00  0.00    -0.550 OA
ATOM     16  O   UNL     1      -0.218  47.258  -4.122  1.00  0.00    -0.550 OA
ENDBRANCH  13  14
ENDBRANCH  12  13
ENDBRANCH  11  12
ENDBRANCH  10  11
ENDBRANCH   9  10
ENDBRANCH   8   9
ENDBRANCH   7   8
ENDBRANCH   6   7
ENDBRANCH   5   6
ENDBRANCH   4   5
ENDBRANCH   3   4
ENDBRANCH   2   3
ENDBRANCH   1   2
BRANCH   1  17
ATOM     17  C   UNL     1       2.066  43.141   5.962  1.00  0.00     0.000 C 
BRANCH  17  18
ATOM     18  C   UNL     1       2.372  43.417   7.442  1.00  0.00     0.000 C 
BRANCH  18  19
ATOM     19  C   UNL     1       3.872  43.620   7.720  1.00  0.00     0.000 C 
BRANCH  19  20
ATOM     20  C   UNL     1       4.255  43.701   9.209  1.00  0.00     0.000 C 
BRANCH  20  21
ATOM     21  C   UNL     1       5.236  42.602   9.641  1.00  0.00     0.000 C 
BRANCH  21  22
ATOM     22  C   UNL     1       6.398  42.482   8.642  1.00  0.00    -0.000 C 
BRANCH  22  23
ATOM     23  C   UNL     1       6.145  43.267   7.345  1.00  0.00    -0.000 C 
BRANCH  23  24
ATOM     24  C   UNL     1       7.157  42.924   6.239  1.00  0.00    -0.000 C 
BRANCH  24  25
ATOM     25  C   UNL     1       8.613  43.240   6.650  1.00  0.00    -0.000 C 
BRANCH  25  26
ATOM     26  C   UNL     1       9.620  42.132   6.279  1.00  0.00    -0.000 C 
BRANCH  26  27
ATOM     27  C   UNL     1       9.139  40.694   6.546  1.00  0.00    -0.000 C 
BRANCH  27  28
ATOM     28  C   UNL     1       8.866  39.850   5.282  1.00  0.00    -0.000 C 
BRANCH  28  29
ATOM     29  C   UNL     1       9.868  40.061   4.133  1.00  0.00    -0.003 C 
ATOM     30  C   UNL     1       9.507  41.247   3.238  1.00  0.00     0.004 C 
ENDBRANCH  28  29
ENDBRANCH  27  28
ENDBRANCH  26  27
ENDBRANCH  25  26
ENDBRANCH  24  25
ENDBRANCH  23  24
ENDBRANCH  22  23
ENDBRANCH  21  22
ENDBRANCH  20  21
ENDBRANCH  19  20
ENDBRANCH  18  19
ENDBRANCH  17  18
ENDBRANCH   1  17
TORSDOF 26
ENDMDL
MODEL 2
REMARK VINA RESULT:    24.662      3.845     12.768
REMARK INTER + INTRA:          62.701
REMARK INTER:                  62.707
REMARK INTRA:                  -0.006
REMARK UNBOUND:                 0.553
REMARK SMILES CCCCCCCCCCCCCCCCCCCCCCCCCCCC(=O)[O-]
REMARK SMILES IDX 15 1 16 2 17 3 18 4 19 5 20 6 21 7 22 8 23 9 24 10 25 11
REMARK SMILES IDX 26 12 27 13 28 14 29 15 30 16 14 17 13 18 12 19 11 20 10 21
REMARK SMILES IDX 9 22 8 23 7 24 6 25 5 26 4 27 3 28 2 29 1 30
REMARK H PARENT
REMARK Flexibility Score: inf
ROOT
ATOM      1  C   UNL     1       2.579  43.347   5.608  1.00  0.00     0.000 C 
ENDROOT
BRANCH   1   2
ATOM      2  C   UNL     1       1.869  42.963   6.915  1.00  0.00     0.000 C 
BRANCH   2   3
ATOM      3  C   UNL     1       2.637  43.413   8.171  1.00  0.00     0.000 C 
BRANCH   3   4
ATOM      4  C   UNL     1       4.143  43.653   7.963  1.00  0.00     0.000 C 
BRANCH   4   5
ATOM      5  C   UNL     1       4.909  43.823   9.284  1.00  0.00     0.000 C 
BRANCH   5   6
ATOM      6  C   UNL     1       5.727  42.568   9.611  1.00  0.00     0.000 C 
BRANCH   6   7
ATOM      7  C   UNL     1       6.870  42.382   8.603  1.00  0.00     0.000 C 
BRANCH   7   8
ATOM      8  C   UNL     1       6.470  42.761   7.165  1.00  0.00     0.000 C 
BRANCH   8   9
ATOM      9  C   UNL     1       7.647  42.992   6.200  1.00  0.00     0.000 C 
BRANCH   9  10
ATOM     10  C   UNL     1       9.008  42.633   6.815  1.00  0.00     0.000 C 
BRANCH  10  11
ATOM     11  C   UNL     1       9.341  41.151   6.589  1.00  0.00     0.000 C 
BRANCH  11  12
ATOM     12  C   UNL     1       8.734  40.606   5.285  1.00  0.00     0.006 C 
BRANCH  12  13
ATOM     13  C   UNL     1       9.226  41.364   4.046  1.00  0.00     0.053 C 
BRANCH  13  14
ATOM     14  C   UNL     1       9.970  40.444   3.131  1.00  0.00     0.041 C 
ATOM     15  O   UNL     1      10.018  40.682   1.895  1.00  0.00    -0.550 OA
ATOM     16  O   UNL     1      10.645  39.345   3.649  1.00  0.00    -0.550 OA
ENDBRANCH  13  14
ENDBRANCH  12  13
ENDBRANCH  11  12
ENDBRANCH  10  11
ENDBRANCH   9  10
ENDBRANCH   8   9
ENDBRANCH   7   8
ENDBRANCH   6   7
ENDBRANCH   5   6
ENDBRANCH   4   5
ENDBRANCH   3   4
ENDBRANCH   2   3
ENDBRANCH   1   2
BRANCH   1  17
ATOM     17  C   UNL     1       1.564  43.660   4.503  1.00  0.00     0.000 C 
BRANCH  17  18
ATOM     18  C   UNL     1       1.293  45.170   4.418  1.00  0.00     0.000 C 
BRANCH  18  19
ATOM     19  C   UNL     1      -0.204  45.508   4.299  1.00  0.00     0.000 C 
BRANCH  19  20
ATOM     20  C   UNL     1      -0.827  45.237   2.917  1.00  0.00     0.000 C 
BRANCH  20  21
ATOM     21  C   UNL     1      -1.065  46.517   2.102  1.00  0.00     0.000 C 
BRANCH  21  22
ATOM     22  C   UNL     1      -2.550  46.914   2.127  1.00  0.00    -0.000 C 
BRANCH  22  23
ATOM     23  C   UNL     1      -3.469  45.793   1.617  1.00  0.00    -0.000 C 
BRANCH  23  24
ATOM     24  C   UNL     1      -4.631  46.325   0.760  1.00  0.00    -0.000 C 
BRANCH  24  25
ATOM     25  C   UNL     1      -4.213  47.518  -0.128  1.00  0.00    -0.000 C 
BRANCH  25  26
ATOM     26  C   UNL     1      -3.349  47.118  -1.343  1.00  0.00    -0.000 C 
BRANCH  26  27
ATOM     27  C   UNL     1      -3.471  48.045  -2.565  1.00  0.00    -0.000 C 
BRANCH  27  28
ATOM     28  C   UNL     1      -2.819  47.512  -3.860  1.00  0.00    -0.000 C 
BRANCH  28  29
ATOM     29  C   UNL     1      -1.393  48.027  -4.125  1.00  0.00    -0.003 C 
ATOM     30  C   UNL     1      -0.747  48.653  -2.889  1.00  0.00     0.004 C 
ENDBRANCH  28  29
ENDBRANCH  27  28
ENDBRANCH  26  27
ENDBRANCH  25  26
ENDBRANCH  24  25
ENDBRANCH  23  24
ENDBRANCH  22  23
ENDBRANCH  21  22
ENDBRANCH  20  21
ENDBRANCH  19  20
ENDBRANCH  18  19
ENDBRANCH  17  18
ENDBRANCH   1  17
TORSDOF 26
ENDMDL
MODEL 3
REMARK VINA RESULT:    25.349      3.827     13.329
REMARK INTER + INTRA:          64.430
REMARK INTER:                  64.195
REMARK INTRA:                   0.235
REMARK UNBOUND:                 0.553
REMARK SMILES CCCCCCCCCCCCCCCCCCCCCCCCCCCC(=O)[O-]
REMARK SMILES IDX 15 1 16 2 17 3 18 4 19 5 20 6 21 7 22 8 23 9 24 10 25 11
REMARK SMILES IDX 26 12 27 13 28 14 29 15 30 16 14 17 13 18 12 19 11 20 10 21
REMARK SMILES IDX 9 22 8 23 7 24 6 25 5 26 4 27 3 28 2 29 1 30
REMARK H PARENT
REMARK Flexibility Score: inf
ROOT
ATOM      1  C   UNL     1       0.887  43.598   5.324  1.00  0.00     0.000 C 
ENDROOT
BRANCH   1   2
ATOM      2  C   UNL     1       2.193  43.766   6.115  1.00  0.00     0.000 C 
BRANCH   2   3
ATOM      3  C   UNL     1       2.210  42.959   7.426  1.00  0.00     0.000 C 
BRANCH   3   4
ATOM      4  C   UNL     1       2.716  43.729   8.659  1.00  0.00     0.000 C 
BRANCH   4   5
ATOM      5  C   UNL     1       4.002  43.132   9.251  1.00  0.00     0.000 C 
BRANCH   5   6
ATOM      6  C   UNL     1       5.227  43.536   8.422  1.00  0.00     0.000 C 
BRANCH   6   7
ATOM      7  C   UNL     1       6.199  42.357   8.271  1.00  0.00     0.000 C 
BRANCH   7   8
ATOM      8  C   UNL     1       7.111  42.170   9.498  1.00  0.00     0.000 C 
BRANCH   8   9
ATOM      9  C   UNL     1       8.584  42.563   9.281  1.00  0.00     0.000 C 
BRANCH   9  10
ATOM     10  C   UNL     1       9.223  41.855   8.077  1.00  0.00     0.000 C 
BRANCH  10  11
ATOM     11  C   UNL     1       9.964  42.857   7.179  1.00  0.00     0.000 C 
BRANCH  11  12
ATOM     12  C   UNL     1       9.133  43.271   5.953  1.00  0.00     0.006 C 
BRANCH  12  13
ATOM     13  C   UNL     1       8.032  42.257   5.619  1.00  0.00     0.053 C 
BRANCH  13  14
ATOM     14  C   UNL     1       8.617  41.046   4.966  1.00  0.00     0.041 C 
ATOM     15  O   UNL     1       9.755  41.103   4.429  1.00  0.00    -0.550 OA
ATOM     16  O   UNL     1       7.923  39.841   4.987  1.00  0.00    -0.550 OA
ENDBRANCH  13  14
ENDBRANCH  12  13
ENDBRANCH  11  12
ENDBRANCH  10  11
ENDBRANCH   9  10
ENDBRANCH   8   9
ENDBRANCH   7   8
ENDBRANCH   6   7
ENDBRANCH   5   6
ENDBRANCH   4   5
ENDBRANCH   3   4
ENDBRANCH   2   3
ENDBRANCH   1   2
BRANCH   1  17
ATOM     17  C   UNL     1       0.814  44.599   4.165  1.00  0.00     0.000 C 
BRANCH  17  18
ATOM     18  C   UNL     1      -0.517  45.366   4.184  1.00  0.00     0.000 C 
BRANCH  18  19
ATOM     19  C   UNL     1      -1.056  45.673   2.775  1.00  0.00     0.000 C 
BRANCH  19  20
ATOM     20  C   UNL     1      -2.513  46.170   2.729  1.00  0.00     0.000 C 
BRANCH  20  21
ATOM     21  C   UNL     1      -2.870  46.868   1.408  1.00  0.00     0.000 C 
BRANCH  21  22
ATOM     22  C   UNL     1      -4.139  46.258   0.792  1.00  0.00    -0.000 C 
BRANCH  22  23
ATOM     23  C   UNL     1      -4.669  47.073  -0.399  1.00  0.00    -0.000 C 
BRANCH  23  24
ATOM     24  C   UNL     1      -3.743  46.999  -1.625  1.00  0.00    -0.000 C 
BRANCH  24  25
ATOM     25  C   UNL     1      -4.401  46.273  -2.820  1.00  0.00    -0.000 C 
BRANCH  25  26
ATOM     26  C   UNL     1      -4.698  47.193  -4.021  1.00  0.00    -0.000 C 
BRANCH  26  27
ATOM     27  C   UNL     1      -3.902  48.511  -4.049  1.00  0.00    -0.000 C 
BRANCH  27  28
ATOM     28  C   UNL     1      -2.609  48.513  -3.205  1.00  0.00    -0.000 C 
BRANCH  28  29
ATOM     29  C   UNL     1      -1.304  48.491  -4.022  1.00  0.00    -0.003 C 
ATOM     30  C   UNL     1      -0.189  47.697  -3.342  1.00  0.00     0.004 C 
ENDBRANCH  28  29
ENDBRANCH  27  28
ENDBRANCH  26  27
ENDBRANCH  25  26
ENDBRANCH  24  25
ENDBRANCH  23  24
ENDBRANCH  22  23
ENDBRANCH  21  22
ENDBRANCH  20  21
ENDBRANCH  19  20
ENDBRANCH  18  19
ENDBRANCH  17  18
ENDBRANCH   1  17
TORSDOF 26
ENDMDL
MODEL 4
REMARK VINA RESULT:    26.377      3.873     12.885
REMARK INTER + INTRA:          67.021
REMARK INTER:                  67.184
REMARK INTRA:                  -0.163
REMARK UNBOUND:                 0.553
REMARK SMILES CCCCCCCCCCCCCCCCCCCCCCCCCCCC(=O)[O-]
REMARK SMILES IDX 15 1 16 2 17 3 18 4 19 5 20 6 21 7 22 8 23 9 24 10 25 11
REMARK SMILES IDX 26 12 27 13 28 14 29 15 30 16 14 17 13 18 12 19 11 20 10 21
REMARK SMILES IDX 9 22 8 23 7 24 6 25 5 26 4 27 3 28 2 29 1 30
REMARK H PARENT
REMARK Flexibility Score: inf
ROOT
ATOM      1  C   UNL     1       2.715  43.344   6.208  1.00  0.00     0.000 C 
ENDROOT
BRANCH   1   2
ATOM      2  C   UNL     1       2.512  43.116   7.714  1.00  0.00     0.000 C 
BRANCH   2   3
ATOM      3  C   UNL     1       3.058  44.268   8.576  1.00  0.00     0.000 C 
BRANCH   3   4
ATOM      4  C   UNL     1       4.550  44.160   8.939  1.00  0.00     0.000 C 
BRANCH   4   5
ATOM      5  C   UNL     1       4.936  42.772   9.473  1.00  0.00     0.000 C 
BRANCH   5   6
ATOM      6  C   UNL     1       6.447  42.539   9.357  1.00  0.00     0.000 C 
BRANCH   6   7
ATOM      7  C   UNL     1       6.844  42.239   7.905  1.00  0.00     0.000 C 
BRANCH   7   8
ATOM      8  C   UNL     1       8.238  41.595   7.784  1.00  0.00     0.000 C 
BRANCH   8   9
ATOM      9  C   UNL     1       9.421  42.571   7.926  1.00  0.00     0.000 C 
BRANCH   9  10
ATOM     10  C   UNL     1       9.882  43.155   6.582  1.00  0.00     0.000 C 
BRANCH  10  11
ATOM     11  C   UNL     1       8.987  42.667   5.433  1.00  0.00     0.000 C 
BRANCH  11  12
ATOM     12  C   UNL     1       8.998  41.136   5.291  1.00  0.00     0.006 C 
BRANCH  12  13
ATOM     13  C   UNL     1       8.590  40.673   3.888  1.00  0.00     0.053 C 
BRANCH  13  14
ATOM     14  C   UNL     1       9.778  40.647   2.979  1.00  0.00     0.041 C 
ATOM     15  O   UNL     1      10.878  40.188   3.388  1.00  0.00    -0.550 OA
ATOM     16  O   UNL     1       9.660  41.091   1.668  1.00  0.00    -0.550 OA
ENDBRANCH  13  14
ENDBRANCH  12  13
ENDBRANCH  11  12
ENDBRANCH  10  11
ENDBRANCH   9  10
ENDBRANCH   8   9
ENDBRANCH   7   8
ENDBRANCH   6   7
ENDBRANCH   5   6
ENDBRANCH   4   5
ENDBRANCH   3   4
ENDBRANCH   2   3
ENDBRANCH   1   2
BRANCH   1  17
ATOM     17  C   UNL     1       1.370  43.521   5.493  1.00  0.00     0.000 C 
BRANCH  17  18
ATOM     18  C   UNL     1       1.447  44.643   4.446  1.00  0.00     0.000 C 
BRANCH  18  19
ATOM     19  C   UNL     1       0.212  45.562   4.454  1.00  0.00     0.000 C 
BRANCH  19  20
ATOM     20  C   UNL     1      -0.630  45.532   3.165  1.00  0.00     0.000 C 
BRANCH  20  21
ATOM     21  C   UNL     1      -1.726  46.609   3.136  1.00  0.00     0.000 C 
BRANCH  21  22
ATOM     22  C   UNL     1      -2.021  47.050   1.694  1.00  0.00    -0.000 C 
BRANCH  22  23
ATOM     23  C   UNL     1      -1.534  48.478   1.401  1.00  0.00    -0.000 C 
BRANCH  23  24
ATOM     24  C   UNL     1      -2.690  49.447   1.099  1.00  0.00    -0.000 C 
BRANCH  24  25
ATOM     25  C   UNL     1      -2.442  50.284  -0.175  1.00  0.00    -0.000 C 
BRANCH  25  26
ATOM     26  C   UNL     1      -2.537  49.473  -1.484  1.00  0.00    -0.000 C 
BRANCH  26  27
ATOM     27  C   UNL     1      -1.447  49.781  -2.525  1.00  0.00    -0.000 C 
BRANCH  27  28
ATOM     28  C   UNL     1      -1.551  48.978  -3.841  1.00  0.00    -0.000 C 
BRANCH  28  29
ATOM     29  C   UNL     1      -2.775  48.049  -3.936  1.00  0.00    -0.003 C 
ATOM     30  C   UNL     1      -2.395  46.580  -4.124  1.00  0.00     0.004 C 
ENDBRANCH  28  29
ENDBRANCH  27  28
ENDBRANCH  26  27
ENDBRANCH  25  26
ENDBRANCH  24  25
ENDBRANCH  23  24
ENDBRANCH  22  23
ENDBRANCH  21  22
ENDBRANCH  20  21
ENDBRANCH  19  20
ENDBRANCH  18  19
ENDBRANCH  17  18
ENDBRANCH   1  17
TORSDOF 26
ENDMDL
MODEL 5
REMARK VINA RESULT:    26.625      8.481     11.776
REMARK INTER + INTRA:          67.646
REMARK INTER:                  67.453
REMARK INTRA:                   0.193
REMARK UNBOUND:                 0.553
REMARK SMILES CCCCCCCCCCCCCCCCCCCCCCCCCCCC(=O)[O-]
REMARK SMILES IDX 15 1 16 2 17 3 18 4 19 5 20 6 21 7 22 8 23 9 24 10 25 11
REMARK SMILES IDX 26 12 27 13 28 14 29 15 30 16 14 17 13 18 12 19 11 20 10 21
REMARK SMILES IDX 9 22 8 23 7 24 6 25 5 26 4 27 3 28 2 29 1 30
REMARK H PARENT
REMARK Flexibility Score: inf
ROOT
ATOM      1  C   UNL     1       9.576  42.837   7.150  1.00  0.00     0.000 C 
ENDROOT
BRANCH   1   2
ATOM      2  C   UNL     1       8.570  41.732   6.795  1.00  0.00     0.000 C 
BRANCH   2   3
ATOM      3  C   UNL     1       9.240  40.468   6.227  1.00  0.00     0.000 C 
BRANCH   3   4
ATOM      4  C   UNL     1      10.116  40.697   4.982  1.00  0.00     0.000 C 
BRANCH   4   5
ATOM      5  C   UNL     1       9.728  39.791   3.804  1.00  0.00     0.000 C 
BRANCH   5   6
ATOM      6  C   UNL     1      10.253  40.358   2.479  1.00  0.00     0.000 C 
BRANCH   6   7
ATOM      7  C   UNL     1       9.334  41.474   1.961  1.00  0.00     0.000 C 
BRANCH   7   8
ATOM      8  C   UNL     1       8.131  41.739   2.884  1.00  0.00     0.000 C 
BRANCH   8   9
ATOM      9  C   UNL     1       8.225  43.025   3.725  1.00  0.00     0.000 C 
BRANCH   9  10
ATOM     10  C   UNL     1       6.852  43.576   4.138  1.00  0.00     0.000 C 
BRANCH  10  11
ATOM     11  C   UNL     1       6.899  44.169   5.554  1.00  0.00     0.000 C 
BRANCH  11  12
ATOM     12  C   UNL     1       6.389  43.184   6.619  1.00  0.00     0.006 C 
BRANCH  12  13
ATOM     13  C   UNL     1       5.621  43.883   7.747  1.00  0.00     0.053 C 
BRANCH  13  14
ATOM     14  C   UNL     1       5.387  42.939   8.883  1.00  0.00     0.041 C 
ATOM     15  O   UNL     1       6.356  42.333   9.413  1.00  0.00    -0.550 OA
ATOM     16  O   UNL     1       4.104  42.761   9.386  1.00  0.00    -0.550 OA
ENDBRANCH  13  14
ENDBRANCH  12  13
ENDBRANCH  11  12
ENDBRANCH  10  11
ENDBRANCH   9  10
ENDBRANCH   8   9
ENDBRANCH   7   8
ENDBRANCH   6   7
ENDBRANCH   5   6
ENDBRANCH   4   5
ENDBRANCH   3   4
ENDBRANCH   2   3
ENDBRANCH   1   2
BRANCH   1  17
ATOM     17  C   UNL     1      10.231  42.568   8.509  1.00  0.00     0.000 C 
BRANCH  17  18
ATOM     18  C   UNL     1       9.656  41.298   9.155  1.00  0.00     0.000 C 
BRANCH  18  19
ATOM     19  C   UNL     1      10.740  40.279   9.551  1.00  0.00     0.000 C 
BRANCH  19  20
ATOM     20  C   UNL     1      11.028  40.187  11.061  1.00  0.00     0.000 C 
BRANCH  20  21
ATOM     21  C   UNL     1      10.761  38.791  11.642  1.00  0.00     0.000 C 
BRANCH  21  22
ATOM     22  C   UNL     1      10.801  38.821  13.179  1.00  0.00    -0.000 C 
BRANCH  22  23
ATOM     23  C   UNL     1       9.587  38.125  13.815  1.00  0.00    -0.000 C 
BRANCH  23  24
ATOM     24  C   UNL     1       8.892  38.998  14.873  1.00  0.00    -0.000 C 
BRANCH  24  25
ATOM     25  C   UNL     1       8.097  40.165  14.248  1.00  0.00    -0.000 C 
BRANCH  25  26
ATOM     26  C   UNL     1       6.637  40.258  14.736  1.00  0.00    -0.000 C 
BRANCH  26  27
ATOM     27  C   UNL     1       6.345  39.541  16.066  1.00  0.00    -0.000 C 
BRANCH  27  28
ATOM     28  C   UNL     1       4.999  38.785  16.122  1.00  0.00    -0.000 C 
BRANCH  28  29
ATOM     29  C   UNL     1       4.528  38.203  14.777  1.00  0.00    -0.003 C 
ATOM     30  C   UNL     1       3.035  37.875  14.760  1.00  0.00     0.004 C 
ENDBRANCH  28  29
ENDBRANCH  27  28
ENDBRANCH  26  27
ENDBRANCH  25  26
ENDBRANCH  24  25
ENDBRANCH  23  24
ENDBRANCH  22  23
ENDBRANCH  21  22
ENDBRANCH  20  21
ENDBRANCH  19  20
ENDBRANCH  18  19
ENDBRANCH  17  18
ENDBRANCH   1  17
TORSDOF 26
ENDMDL
MODEL 6
REMARK VINA RESULT:    26.651      9.460     14.173
REMARK INTER + INTRA:          67.712
REMARK INTER:                  69.643
REMARK INTRA:                  -1.930
REMARK UNBOUND:                 0.553
REMARK SMILES CCCCCCCCCCCCCCCCCCCCCCCCCCCC(=O)[O-]
REMARK SMILES IDX 15 1 16 2 17 3 18 4 19 5 20 6 21 7 22 8 23 9 24 10 25 11
REMARK SMILES IDX 26 12 27 13 28 14 29 15 30 16 14 17 13 18 12 19 11 20 10 21
REMARK SMILES IDX 9 22 8 23 7 24 6 25 5 26 4 27 3 28 2 29 1 30
REMARK H PARENT
REMARK Flexibility Score: inf
ROOT
ATOM      1  C   UNL     1      10.742  38.852  12.399  1.00  0.00     0.000 C 
ENDROOT
BRANCH   1   2
ATOM      2  C   UNL     1       9.781  39.222  13.539  1.00  0.00     0.000 C 
BRANCH   2   3
ATOM      3  C   UNL     1      10.263  38.729  14.915  1.00  0.00     0.000 C 
BRANCH   3   4
ATOM      4  C   UNL     1       9.552  39.366  16.122  1.00  0.00     0.000 C 
BRANCH   4   5
ATOM      5  C   UNL     1       8.110  39.793  15.809  1.00  0.00     0.000 C 
BRANCH   5   6
ATOM      6  C   UNL     1       7.122  38.664  16.124  1.00  0.00     0.000 C 
BRANCH   6   7
ATOM      7  C   UNL     1       6.160  38.435  14.949  1.00  0.00     0.000 C 
BRANCH   7   8
ATOM      8  C   UNL     1       4.795  37.875  15.391  1.00  0.00     0.000 C 
BRANCH   8   9
ATOM      9  C   UNL     1       3.656  38.909  15.453  1.00  0.00     0.000 C 
BRANCH   9  10
ATOM     10  C   UNL     1       4.064  40.287  14.911  1.00  0.00     0.000 C 
BRANCH  10  11
ATOM     11  C   UNL     1       2.829  41.121  14.540  1.00  0.00     0.000 C 
BRANCH  11  12
ATOM     12  C   UNL     1       3.201  42.452  13.867  1.00  0.00     0.006 C 
BRANCH  12  13
ATOM     13  C   UNL     1       3.044  43.652  14.809  1.00  0.00     0.053 C 
BRANCH  13  14
ATOM     14  C   UNL     1       1.644  44.176  14.759  1.00  0.00     0.041 C 
ATOM     15  O   UNL     1       1.034  44.251  13.659  1.00  0.00    -0.550 OA
ATOM     16  O   UNL     1       0.997  44.543  15.933  1.00  0.00    -0.550 OA
ENDBRANCH  13  14
ENDBRANCH  12  13
ENDBRANCH  11  12
ENDBRANCH  10  11
ENDBRANCH   9  10
ENDBRANCH   8   9
ENDBRANCH   7   8
ENDBRANCH   6   7
ENDBRANCH   5   6
ENDBRANCH   4   5
ENDBRANCH   3   4
ENDBRANCH   2   3
ENDBRANCH   1   2
BRANCH   1  17
ATOM     17  C   UNL     1      10.597  39.824  11.222  1.00  0.00     0.000 C 
BRANCH  17  18
ATOM     18  C   UNL     1      11.420  39.351  10.014  1.00  0.00     0.000 C 
BRANCH  18  19
ATOM     19  C   UNL     1      10.779  39.722   8.664  1.00  0.00     0.000 C 
BRANCH  19  20
ATOM     20  C   UNL     1      10.010  38.582   7.972  1.00  0.00     0.000 C 
BRANCH  20  21
ATOM     21  C   UNL     1      10.595  38.205   6.602  1.00  0.00     0.000 C 
BRANCH  21  22
ATOM     22  C   UNL     1       9.583  38.487   5.480  1.00  0.00    -0.000 C 
BRANCH  22  23
ATOM     23  C   UNL     1       8.683  39.695   5.785  1.00  0.00    -0.000 C 
BRANCH  23  24
ATOM     24  C   UNL     1       9.158  40.978   5.083  1.00  0.00    -0.000 C 
BRANCH  24  25
ATOM     25  C   UNL     1       9.778  41.996   6.066  1.00  0.00    -0.000 C 
BRANCH  25  26
ATOM     26  C   UNL     1       8.736  42.782   6.889  1.00  0.00    -0.000 C 
BRANCH  26  27
ATOM     27  C   UNL     1       7.410  43.069   6.162  1.00  0.00    -0.000 C 
BRANCH  27  28
ATOM     28  C   UNL     1       6.137  42.666   6.939  1.00  0.00    -0.000 C 
BRANCH  28  29
ATOM     29  C   UNL     1       5.897  43.455   8.239  1.00  0.00    -0.003 C 
ATOM     30  C   UNL     1       5.589  42.552   9.434  1.00  0.00     0.004 C 
ENDBRANCH  28  29
ENDBRANCH  27  28
ENDBRANCH  26  27
ENDBRANCH  25  26
ENDBRANCH  24  25
ENDBRANCH  23  24
ENDBRANCH  22  23
ENDBRANCH  21  22
ENDBRANCH  20  21
ENDBRANCH  19  20
ENDBRANCH  18  19
ENDBRANCH  17  18
ENDBRANCH   1  17
TORSDOF 26
ENDMDL
MODEL 7
REMARK VINA RESULT:    26.735      4.103     12.707
REMARK INTER + INTRA:          67.924
REMARK INTER:                  68.669
REMARK INTRA:                  -0.745
REMARK UNBOUND:                 0.553
REMARK SMILES CCCCCCCCCCCCCCCCCCCCCCCCCCCC(=O)[O-]
REMARK SMILES IDX 15 1 16 2 17 3 18 4 19 5 20 6 21 7 22 8 23 9 24 10 25 11
REMARK SMILES IDX 26 12 27 13 28 14 29 15 30 16 14 17 13 18 12 19 11 20 10 21
REMARK SMILES IDX 9 22 8 23 7 24 6 25 5 26 4 27 3 28 2 29 1 30
REMARK H PARENT
REMARK Flexibility Score: inf
ROOT
ATOM      1  C   UNL     1       2.646  43.024   6.251  1.00  0.00     0.000 C 
ENDROOT
BRANCH   1   2
ATOM      2  C   UNL     1       2.663  43.949   7.477  1.00  0.00     0.000 C 
BRANCH   2   3
ATOM      3  C   UNL     1       2.799  43.183   8.806  1.00  0.00     0.000 C 
BRANCH   3   4
ATOM      4  C   UNL     1       4.060  43.515   9.623  1.00  0.00     0.000 C 
BRANCH   4   5
ATOM      5  C   UNL     1       5.309  42.774   9.121  1.00  0.00     0.000 C 
BRANCH   5   6
ATOM      6  C   UNL     1       5.854  43.420   7.842  1.00  0.00     0.000 C 
BRANCH   6   7
ATOM      7  C   UNL     1       6.948  42.547   7.211  1.00  0.00     0.000 C 
BRANCH   7   8
ATOM      8  C   UNL     1       7.989  42.058   8.234  1.00  0.00     0.000 C 
BRANCH   8   9
ATOM      9  C   UNL     1       9.411  41.864   7.675  1.00  0.00     0.000 C 
BRANCH   9  10
ATOM     10  C   UNL     1       9.736  42.817   6.515  1.00  0.00     0.000 C 
BRANCH  10  11
ATOM     11  C   UNL     1      10.019  42.035   5.223  1.00  0.00     0.000 C 
BRANCH  11  12
ATOM     12  C   UNL     1       8.941  40.978   4.930  1.00  0.00     0.006 C 
BRANCH  12  13
ATOM     13  C   UNL     1       9.507  39.740   4.223  1.00  0.00     0.053 C 
BRANCH  13  14
ATOM     14  C   UNL     1      10.010  40.100   2.861  1.00  0.00     0.041 C 
ATOM     15  O   UNL     1       9.850  41.268   2.415  1.00  0.00    -0.550 OA
ATOM     16  O   UNL     1      10.692  39.158   2.101  1.00  0.00    -0.550 OA
ENDBRANCH  13  14
ENDBRANCH  12  13
ENDBRANCH  11  12
ENDBRANCH  10  11
ENDBRANCH   9  10
ENDBRANCH   8   9
ENDBRANCH   7   8
ENDBRANCH   6   7
ENDBRANCH   5   6
ENDBRANCH   4   5
ENDBRANCH   3   4
ENDBRANCH   2   3
ENDBRANCH   1   2
BRANCH   1  17
ATOM     17  C   UNL     1       1.776  43.610   5.132  1.00  0.00     0.000 C 
BRANCH  17  18
ATOM     18  C   UNL     1       2.457  44.826   4.487  1.00  0.00     0.000 C 
BRANCH  18  19
ATOM     19  C   UNL     1       1.750  45.304   3.205  1.00  0.00     0.000 C 
BRANCH  19  20
ATOM     20  C   UNL     1       2.520  45.039   1.898  1.00  0.00     0.000 C 
BRANCH  20  21
ATOM     21  C   UNL     1       1.863  45.685   0.669  1.00  0.00     0.000 C 
BRANCH  21  22
ATOM     22  C   UNL     1       2.096  47.204   0.660  1.00  0.00    -0.000 C 
BRANCH  22  23
ATOM     23  C   UNL     1       2.356  47.753  -0.752  1.00  0.00    -0.000 C 
BRANCH  23  24
ATOM     24  C   UNL     1       1.541  49.023  -1.052  1.00  0.00    -0.000 C 
BRANCH  24  25
ATOM     25  C   UNL     1       0.298  48.735  -1.924  1.00  0.00    -0.000 C 
BRANCH  25  26
ATOM     26  C   UNL     1       0.550  47.715  -3.053  1.00  0.00    -0.000 C 
BRANCH  26  27
ATOM     27  C   UNL     1      -0.630  47.503  -4.018  1.00  0.00    -0.000 C 
BRANCH  27  28
ATOM     28  C   UNL     1      -1.623  48.682  -4.108  1.00  0.00    -0.000 C 
BRANCH  28  29
ATOM     29  C   UNL     1      -2.903  48.516  -3.269  1.00  0.00    -0.003 C 
ATOM     30  C   UNL     1      -4.148  48.277  -4.124  1.00  0.00     0.004 C 
ENDBRANCH  28  29
ENDBRANCH  27  28
ENDBRANCH  26  27
ENDBRANCH  25  26
ENDBRANCH  24  25
ENDBRANCH  23  24
ENDBRANCH  22  23
ENDBRANCH  21  22
ENDBRANCH  20  21
ENDBRANCH  19  20
ENDBRANCH  18  19
ENDBRANCH  17  18
ENDBRANCH   1  17
TORSDOF 26
ENDMDL
MODEL 8
REMARK VINA RESULT:    26.877      1.557      2.792
REMARK INTER + INTRA:          68.283
REMARK INTER:                  67.745
REMARK INTRA:                   0.538
REMARK UNBOUND:                 0.553
REMARK SMILES CCCCCCCCCCCCCCCCCCCCCCCCCCCC(=O)[O-]
REMARK SMILES IDX 15 1 16 2 17 3 18 4 19 5 20 6 21 7 22 8 23 9 24 10 25 11
REMARK SMILES IDX 26 12 27 13 28 14 29 15 30 16 14 17 13 18 12 19 11 20 10 21
REMARK SMILES IDX 9 22 8 23 7 24 6 25 5 26 4 27 3 28 2 29 1 30
REMARK H PARENT
REMARK Flexibility Score: inf
ROOT
ATOM      1  C   UNL     1       2.992  43.869   7.074  1.00  0.00     0.000 C 
ENDROOT
BRANCH   1   2
ATOM      2  C   UNL     1       2.184  43.254   5.922  1.00  0.00     0.000 C 
BRANCH   2   3
ATOM      3  C   UNL     1       0.664  43.423   6.096  1.00  0.00     0.000 C 
BRANCH   3   4
ATOM      4  C   UNL     1      -0.077  43.967   4.862  1.00  0.00     0.000 C 
BRANCH   4   5
ATOM      5  C   UNL     1       0.799  44.882   3.994  1.00  0.00     0.000 C 
BRANCH   5   6
ATOM      6  C   UNL     1      -0.050  45.650   2.974  1.00  0.00     0.000 C 
BRANCH   6   7
ATOM      7  C   UNL     1      -1.361  46.137   3.609  1.00  0.00     0.000 C 
BRANCH   7   8
ATOM      8  C   UNL     1      -2.280  46.862   2.609  1.00  0.00     0.000 C 
BRANCH   8   9
ATOM      9  C   UNL     1      -1.601  47.972   1.786  1.00  0.00     0.000 C 
BRANCH   9  10
ATOM     10  C   UNL     1      -2.427  49.266   1.726  1.00  0.00     0.000 C 
BRANCH  10  11
ATOM     11  C   UNL     1      -2.430  49.852   0.307  1.00  0.00     0.000 C 
BRANCH  11  12
ATOM     12  C   UNL     1      -2.522  48.765  -0.776  1.00  0.00     0.006 C 
BRANCH  12  13
ATOM     13  C   UNL     1      -1.402  48.874  -1.817  1.00  0.00     0.053 C 
BRANCH  13  14
ATOM     14  C   UNL     1      -1.871  48.372  -3.146  1.00  0.00     0.041 C 
ATOM     15  O   UNL     1      -3.104  48.306  -3.398  1.00  0.00    -0.550 OA
ATOM     16  O   UNL     1      -0.947  48.019  -4.121  1.00  0.00    -0.550 OA
ENDBRANCH  13  14
ENDBRANCH  12  13
ENDBRANCH  11  12
ENDBRANCH  10  11
ENDBRANCH   9  10
ENDBRANCH   8   9
ENDBRANCH   7   8
ENDBRANCH   6   7
ENDBRANCH   5   6
ENDBRANCH   4   5
ENDBRANCH   3   4
ENDBRANCH   2   3
ENDBRANCH   1   2
BRANCH   1  17
ATOM     17  C   UNL     1       2.659  43.185   8.405  1.00  0.00     0.000 C 
BRANCH  17  18
ATOM     18  C   UNL     1       3.914  43.044   9.280  1.00  0.00     0.000 C 
BRANCH  18  19
ATOM     19  C   UNL     1       5.124  43.820   8.729  1.00  0.00     0.000 C 
BRANCH  19  20
ATOM     20  C   UNL     1       6.132  42.974   7.929  1.00  0.00     0.000 C 
BRANCH  20  21
ATOM     21  C   UNL     1       7.151  42.249   8.820  1.00  0.00     0.000 C 
BRANCH  21  22
ATOM     22  C   UNL     1       8.137  41.431   7.970  1.00  0.00    -0.000 C 
BRANCH  22  23
ATOM     23  C   UNL     1       9.243  42.298   7.349  1.00  0.00    -0.000 C 
BRANCH  23  24
ATOM     24  C   UNL     1       8.690  43.554   6.655  1.00  0.00    -0.000 C 
BRANCH  24  25
ATOM     25  C   UNL     1       7.642  43.217   5.571  1.00  0.00    -0.000 C 
BRANCH  25  26
ATOM     26  C   UNL     1       8.206  42.397   4.392  1.00  0.00    -0.000 C 
BRANCH  26  27
ATOM     27  C   UNL     1       8.458  40.909   4.692  1.00  0.00    -0.000 C 
BRANCH  27  28
ATOM     28  C   UNL     1       9.919  40.441   4.507  1.00  0.00    -0.000 C 
BRANCH  28  29
ATOM     29  C   UNL     1      10.229  39.823   3.132  1.00  0.00    -0.003 C 
ATOM     30  C   UNL     1       9.832  40.731   1.967  1.00  0.00     0.004 C 
ENDBRANCH  28  29
ENDBRANCH  27  28
ENDBRANCH  26  27
ENDBRANCH  25  26
ENDBRANCH  24  25
ENDBRANCH  23  24
ENDBRANCH  22  23
ENDBRANCH  21  22
ENDBRANCH  20  21
ENDBRANCH  19  20
ENDBRANCH  18  19
ENDBRANCH  17  18
ENDBRANCH   1  17
TORSDOF 26
ENDMDL
