MODEL 1
REMARK VINA RESULT:    -4.340      0.000      0.000
REMARK INTER + INTRA:         -13.577
REMARK INTER:                  -9.921
REMARK INTRA:                  -3.656
REMARK UNBOUND:                -3.656
REMARK SMILES CCCCCCCCCCCCCCCCCCCCCCCC(=O)[O-]
REMARK SMILES IDX 13 1 14 2 15 3 16 4 17 5 18 6 19 7 20 8 21 9 22 10 23 11
REMARK SMILES IDX 24 12 25 13 26 14 12 15 11 16 10 17 9 18 8 19 7 20 6 21 5 22
REMARK SMILES IDX 4 23 3 24 2 25 1 26
REMARK H PARENT
REMARK Flexibility Score: inf
ROOT
ATOM      1  C   UNL     1     -34.633  84.452 -19.513  1.00  0.00     0.000 C 
ENDROOT
BRANCH   1   2
ATOM      2  C   UNL     1     -35.274  85.193 -18.327  1.00  0.00     0.000 C 
BRANCH   2   3
ATOM      3  C   UNL     1     -36.168  84.277 -17.475  1.00  0.00     0.000 C 
BRANCH   3   4
ATOM      4  C   UNL     1     -37.053  83.355 -18.332  1.00  0.00     0.000 C 
BRANCH   4   5
ATOM      5  C   UNL     1     -36.630  81.875 -18.221  1.00  0.00     0.000 C 
BRANCH   5   6
ATOM      6  C   UNL     1     -36.422  81.185 -19.581  1.00  0.00     0.000 C 
BRANCH   6   7
ATOM      7  C   UNL     1     -34.955  80.805 -19.837  1.00  0.00     0.000 C 
BRANCH   7   8
ATOM      8  C   UNL     1     -34.027  81.155 -18.660  1.00  0.00     0.000 C 
BRANCH   8   9
ATOM      9  C   UNL     1     -32.520  80.951 -18.921  1.00  0.00     0.000 C 
BRANCH   9  10
ATOM     10  C   UNL     1     -31.683  82.242 -18.971  1.00  0.00     0.006 C 
BRANCH  10  11
ATOM     11  C   UNL     1     -31.642  82.873 -20.369  1.00  0.00     0.053 C 
BRANCH  11  12
ATOM     12  C   UNL     1     -30.276  82.729 -20.965  1.00  0.00     0.041 C 
ATOM     13  O   UNL     1     -29.738  83.702 -21.559  1.00  0.00    -0.550 OA
ATOM     14  O   UNL     1     -29.576  81.538 -20.821  1.00  0.00    -0.550 OA
ENDBRANCH  11  12
ENDBRANCH  10  11
ENDBRANCH   9  10
ENDBRANCH   8   9
ENDBRANCH   7   8
ENDBRANCH   6   7
ENDBRANCH   5   6
ENDBRANCH   4   5
ENDBRANCH   3   4
ENDBRANCH   2   3
ENDBRANCH   1   2
BRANCH   1  15
ATOM     15  C   UNL     1     -35.261  84.844 -20.861  1.00  0.00     0.000 C 
BRANCH  15  16
ATOM     16  C   UNL     1     -35.027  83.785 -21.949  1.00  0.00     0.000 C 
BRANCH  16  17
ATOM     17  C   UNL     1     -36.342  83.418 -22.653  1.00  0.00     0.000 C 
BRANCH  17  18
ATOM     18  C   UNL     1     -37.580  84.019 -21.963  1.00  0.00    -0.000 C 
BRANCH  18  19
ATOM     19  C   UNL     1     -38.333  85.087 -22.776  1.00  0.00    -0.000 C 
BRANCH  19  20
ATOM     20  C   UNL     1     -37.559  85.549 -24.021  1.00  0.00    -0.000 C 
BRANCH  20  21
ATOM     21  C   UNL     1     -37.059  87.002 -23.916  1.00  0.00    -0.000 C 
BRANCH  21  22
ATOM     22  C   UNL     1     -35.536  87.170 -23.749  1.00  0.00    -0.000 C 
BRANCH  22  23
ATOM     23  C   UNL     1     -34.724  86.300 -24.722  1.00  0.00    -0.000 C 
BRANCH  23  24
ATOM     24  C   UNL     1     -33.204  86.503 -24.583  1.00  0.00    -0.000 C 
BRANCH  24  25
ATOM     25  C   UNL     1     -32.678  87.858 -25.090  1.00  0.00    -0.003 C 
ATOM     26  C   UNL     1     -31.589  88.453 -24.198  1.00  0.00     0.004 C 
ENDBRANCH  24  25
ENDBRANCH  23  24
ENDBRANCH  22  23
ENDBRANCH  21  22
ENDBRANCH  20  21
ENDBRANCH  19  20
ENDBRANCH  18  19
ENDBRANCH  17  18
ENDBRANCH  16  17
ENDBRANCH  15  16
ENDBRANCH   1  15
TORSDOF 22
ENDMDL
MODEL 2
REMARK VINA RESULT:    -4.136     12.002     15.896
REMARK INTER + INTRA:         -13.111
REMARK INTER:                  -8.798
REMARK INTRA:                  -4.313
REMARK UNBOUND:                -3.656
REMARK SMILES CCCCCCCCCCCCCCCCCCCCCCCC(=O)[O-]
REMARK SMILES IDX 13 1 14 2 15 3 16 4 17 5 18 6 19 7 20 8 21 9 22 10 23 11
REMARK SMILES IDX 24 12 25 13 26 14 12 15 11 16 10 17 9 18 8 19 7 20 6 21 5 22
REMARK SMILES IDX 4 23 3 24 2 25 1 26
REMARK H PARENT
REMARK Flexibility Score: inf
ROOT
ATOM      1  C   UNL     1     -24.035  96.241 -31.860  1.00  0.00     0.000 C 
ENDROOT
BRANCH   1   2
ATOM      2  C   UNL     1     -23.593  95.212 -32.916  1.00  0.00     0.000 C 
BRANCH   2   3
ATOM      3  C   UNL     1     -23.060  93.915 -32.284  1.00  0.00     0.000 C 
BRANCH   3   4
ATOM      4  C   UNL     1     -22.898  92.782 -33.312  1.00  0.00     0.000 C 
BRANCH   4   5
ATOM      5  C   UNL     1     -23.116  91.390 -32.682  1.00  0.00     0.000 C 
BRANCH   5   6
ATOM      6  C   UNL     1     -22.807  91.335 -31.176  1.00  0.00     0.000 C 
BRANCH   6   7
ATOM      7  C   UNL     1     -23.742  90.384 -30.411  1.00  0.00     0.000 C 
BRANCH   7   8
ATOM      8  C   UNL     1     -23.053  89.688 -29.224  1.00  0.00     0.000 C 
BRANCH   8   9
ATOM      9  C   UNL     1     -23.775  88.439 -28.678  1.00  0.00     0.000 C 
BRANCH   9  10
ATOM     10  C   UNL     1     -23.463  88.090 -27.212  1.00  0.00     0.006 C 
BRANCH  10  11
ATOM     11  C   UNL     1     -23.669  89.276 -26.260  1.00  0.00     0.053 C 
BRANCH  11  12
ATOM     12  C   UNL     1     -24.266  88.809 -24.969  1.00  0.00     0.041 C 
ATOM     13  O   UNL     1     -23.772  87.820 -24.363  1.00  0.00    -0.550 OA
ATOM     14  O   UNL     1     -25.337  89.495 -24.409  1.00  0.00    -0.550 OA
ENDBRANCH  11  12
ENDBRANCH  10  11
ENDBRANCH   9  10
ENDBRANCH   8   9
ENDBRANCH   7   8
ENDBRANCH   6   7
ENDBRANCH   5   6
ENDBRANCH   4   5
ENDBRANCH   3   4
ENDBRANCH   2   3
ENDBRANCH   1   2
BRANCH   1  15
ATOM     15  C   UNL     1     -23.667  95.813 -30.430  1.00  0.00     0.000 C 
BRANCH  15  16
ATOM     16  C   UNL     1     -24.708  96.267 -29.395  1.00  0.00     0.000 C 
BRANCH  16  17
ATOM     17  C   UNL     1     -25.042  95.131 -28.417  1.00  0.00     0.000 C 
BRANCH  17  18
ATOM     18  C   UNL     1     -24.259  93.838 -28.706  1.00  0.00    -0.000 C 
BRANCH  18  19
ATOM     19  C   UNL     1     -24.633  92.630 -27.828  1.00  0.00    -0.000 C 
BRANCH  19  20
ATOM     20  C   UNL     1     -26.147  92.372 -27.778  1.00  0.00    -0.000 C 
BRANCH  20  21
ATOM     21  C   UNL     1     -26.511  90.884 -27.940  1.00  0.00    -0.000 C 
BRANCH  21  22
ATOM     22  C   UNL     1     -27.748  90.594 -28.812  1.00  0.00    -0.000 C 
BRANCH  22  23
ATOM     23  C   UNL     1     -27.903  91.578 -29.984  1.00  0.00    -0.000 C 
BRANCH  23  24
ATOM     24  C   UNL     1     -27.046  91.196 -31.205  1.00  0.00    -0.000 C 
BRANCH  24  25
ATOM     25  C   UNL     1     -26.678  92.366 -32.135  1.00  0.00    -0.003 C 
ATOM     26  C   UNL     1     -26.707  93.724 -31.435  1.00  0.00     0.004 C 
ENDBRANCH  24  25
ENDBRANCH  23  24
ENDBRANCH  22  23
ENDBRANCH  21  22
ENDBRANCH  20  21
ENDBRANCH  19  20
ENDBRANCH  18  19
ENDBRANCH  17  18
ENDBRANCH  16  17
ENDBRANCH  15  16
ENDBRANCH   1  15
TORSDOF 22
ENDMDL
MODEL 3
REMARK VINA RESULT:    -4.105     12.021     14.678
REMARK INTER + INTRA:         -13.040
REMARK INTER:                 -10.326
REMARK INTRA:                  -2.714
REMARK UNBOUND:                -3.656
REMARK SMILES CCCCCCCCCCCCCCCCCCCCCCCC(=O)[O-]
REMARK SMILES IDX 13 1 14 2 15 3 16 4 17 5 18 6 19 7 20 8 21 9 22 10 23 11
REMARK SMILES IDX 24 12 25 13 26 14 12 15 11 16 10 17 9 18 8 19 7 20 6 21 5 22
REMARK SMILES IDX 4 23 3 24 2 25 1 26
REMARK H PARENT
REMARK Flexibility Score: inf
ROOT
ATOM      1  C   UNL     1     -24.937  91.632 -28.029  1.00  0.00     0.000 C 
ENDROOT
BRANCH   1   2
ATOM      2  C   UNL     1     -23.665  90.766 -28.043  1.00  0.00     0.000 C 
BRANCH   2   3
ATOM      3  C   UNL     1     -23.836  89.460 -27.249  1.00  0.00     0.000 C 
BRANCH   3   4
ATOM      4  C   UNL     1     -24.770  89.624 -26.038  1.00  0.00     0.000 C 
BRANCH   4   5
ATOM      5  C   UNL     1     -24.231  88.902 -24.785  1.00  0.00     0.000 C 
BRANCH   5   6
ATOM      6  C   UNL     1     -22.697  88.928 -24.666  1.00  0.00     0.000 C 
BRANCH   6   7
ATOM      7  C   UNL     1     -22.089  87.525 -24.504  1.00  0.00     0.000 C 
BRANCH   7   8
ATOM      8  C   UNL     1     -23.138  86.401 -24.574  1.00  0.00     0.000 C 
BRANCH   8   9
ATOM      9  C   UNL     1     -22.987  85.289 -23.515  1.00  0.00     0.000 C 
BRANCH   9  10
ATOM     10  C   UNL     1     -21.618  85.233 -22.814  1.00  0.00     0.006 C 
BRANCH  10  11
ATOM     11  C   UNL     1     -21.121  83.799 -22.591  1.00  0.00     0.053 C 
BRANCH  11  12
ATOM     12  C   UNL     1     -21.677  83.247 -21.315  1.00  0.00     0.041 C 
ATOM     13  O   UNL     1     -21.891  82.010 -21.200  1.00  0.00    -0.550 OA
ATOM     14  O   UNL     1     -21.913  84.090 -20.237  1.00  0.00    -0.550 OA
ENDBRANCH  11  12
ENDBRANCH  10  11
ENDBRANCH   9  10
ENDBRANCH   8   9
ENDBRANCH   7   8
ENDBRANCH   6   7
ENDBRANCH   5   6
ENDBRANCH   4   5
ENDBRANCH   3   4
ENDBRANCH   2   3
ENDBRANCH   1   2
BRANCH   1  15
ATOM     15  C   UNL     1     -24.628  93.134 -28.141  1.00  0.00     0.000 C 
BRANCH  15  16
ATOM     16  C   UNL     1     -25.790  94.012 -27.652  1.00  0.00     0.000 C 
BRANCH  16  17
ATOM     17  C   UNL     1     -25.574  95.481 -28.047  1.00  0.00     0.000 C 
BRANCH  17  18
ATOM     18  C   UNL     1     -24.273  95.706 -28.837  1.00  0.00    -0.000 C 
BRANCH  18  19
ATOM     19  C   UNL     1     -24.438  96.437 -30.183  1.00  0.00    -0.000 C 
BRANCH  19  20
ATOM     20  C   UNL     1     -23.248  96.221 -31.131  1.00  0.00    -0.000 C 
BRANCH  20  21
ATOM     21  C   UNL     1     -23.673  95.756 -32.536  1.00  0.00    -0.000 C 
BRANCH  21  22
ATOM     22  C   UNL     1     -23.322  94.297 -32.887  1.00  0.00    -0.000 C 
BRANCH  22  23
ATOM     23  C   UNL     1     -23.182  93.397 -31.648  1.00  0.00    -0.000 C 
BRANCH  23  24
ATOM     24  C   UNL     1     -24.244  92.283 -31.592  1.00  0.00    -0.000 C 
BRANCH  24  25
ATOM     25  C   UNL     1     -25.600  92.643 -32.224  1.00  0.00    -0.003 C 
ATOM     26  C   UNL     1     -26.487  93.484 -31.307  1.00  0.00     0.004 C 
ENDBRANCH  24  25
ENDBRANCH  23  24
ENDBRANCH  22  23
ENDBRANCH  21  22
ENDBRANCH  20  21
ENDBRANCH  19  20
ENDBRANCH  18  19
ENDBRANCH  17  18
ENDBRANCH  16  17
ENDBRANCH  15  16
ENDBRANCH   1  15
TORSDOF 22
ENDMDL
MODEL 4
REMARK VINA RESULT:    -4.099     11.027     13.849
REMARK INTER + INTRA:         -13.028
REMARK INTER:                 -10.229
REMARK INTRA:                  -2.799
REMARK UNBOUND:                -3.656
REMARK SMILES CCCCCCCCCCCCCCCCCCCCCCCC(=O)[O-]
REMARK SMILES IDX 13 1 14 2 15 3 16 4 17 5 18 6 19 7 20 8 21 9 22 10 23 11
REMARK SMILES IDX 24 12 25 13 26 14 12 15 11 16 10 17 9 18 8 19 7 20 6 21 5 22
REMARK SMILES IDX 4 23 3 24 2 25 1 26
REMARK H PARENT
REMARK Flexibility Score: inf
ROOT
ATOM      1  C   UNL     1     -24.756  88.460 -28.348  1.00  0.00     0.000 C 
ENDROOT
BRANCH   1   2
ATOM      2  C   UNL     1     -25.207  87.250 -27.512  1.00  0.00     0.000 C 
BRANCH   2   3
ATOM      3  C   UNL     1     -25.996  87.662 -26.259  1.00  0.00     0.000 C 
BRANCH   3   4
ATOM      4  C   UNL     1     -25.520  89.005 -25.677  1.00  0.00     0.000 C 
BRANCH   4   5
ATOM      5  C   UNL     1     -24.578  88.815 -24.470  1.00  0.00     0.000 C 
BRANCH   5   6
ATOM      6  C   UNL     1     -23.107  89.153 -24.770  1.00  0.00     0.000 C 
BRANCH   6   7
ATOM      7  C   UNL     1     -22.231  87.900 -24.935  1.00  0.00     0.000 C 
BRANCH   7   8
ATOM      8  C   UNL     1     -22.837  86.650 -24.275  1.00  0.00     0.000 C 
BRANCH   8   9
ATOM      9  C   UNL     1     -21.899  85.887 -23.316  1.00  0.00     0.000 C 
BRANCH   9  10
ATOM     10  C   UNL     1     -22.015  84.353 -23.370  1.00  0.00     0.006 C 
BRANCH  10  11
ATOM     11  C   UNL     1     -21.315  83.660 -22.192  1.00  0.00     0.053 C 
BRANCH  11  12
ATOM     12  C   UNL     1     -22.220  83.618 -21.001  1.00  0.00     0.041 C 
ATOM     13  O   UNL     1     -23.246  82.886 -21.010  1.00  0.00    -0.550 OA
ATOM     14  O   UNL     1     -21.905  84.347 -19.861  1.00  0.00    -0.550 OA
ENDBRANCH  11  12
ENDBRANCH  10  11
ENDBRANCH   9  10
ENDBRANCH   8   9
ENDBRANCH   7   8
ENDBRANCH   6   7
ENDBRANCH   5   6
ENDBRANCH   4   5
ENDBRANCH   3   4
ENDBRANCH   2   3
ENDBRANCH   1   2
BRANCH   1  15
ATOM     15  C   UNL     1     -23.227  88.542 -28.489  1.00  0.00     0.000 C 
BRANCH  15  16
ATOM     16  C   UNL     1     -22.755  89.915 -28.992  1.00  0.00     0.000 C 
BRANCH  16  17
ATOM     17  C   UNL     1     -23.803  90.553 -29.916  1.00  0.00     0.000 C 
BRANCH  17  18
ATOM     18  C   UNL     1     -23.899  92.081 -29.752  1.00  0.00    -0.000 C 
BRANCH  18  19
ATOM     19  C   UNL     1     -24.260  92.570 -28.337  1.00  0.00    -0.000 C 
BRANCH  19  20
ATOM     20  C   UNL     1     -25.611  93.302 -28.284  1.00  0.00    -0.000 C 
BRANCH  20  21
ATOM     21  C   UNL     1     -25.480  94.781 -27.875  1.00  0.00    -0.000 C 
BRANCH  21  22
ATOM     22  C   UNL     1     -24.279  95.533 -28.481  1.00  0.00    -0.000 C 
BRANCH  22  23
ATOM     23  C   UNL     1     -24.594  96.175 -29.842  1.00  0.00    -0.000 C 
BRANCH  23  24
ATOM     24  C   UNL     1     -23.609  95.752 -30.948  1.00  0.00    -0.000 C 
BRANCH  24  25
ATOM     25  C   UNL     1     -24.190  94.805 -32.012  1.00  0.00    -0.003 C 
ATOM     26  C   UNL     1     -25.698  94.599 -31.875  1.00  0.00     0.004 C 
ENDBRANCH  24  25
ENDBRANCH  23  24
ENDBRANCH  22  23
ENDBRANCH  21  22
ENDBRANCH  20  21
ENDBRANCH  19  20
ENDBRANCH  18  19
ENDBRANCH  17  18
ENDBRANCH  16  17
ENDBRANCH  15  16
ENDBRANCH   1  15
TORSDOF 22
ENDMDL
MODEL 5
REMARK VINA RESULT:    -4.096      2.419      5.150
REMARK INTER + INTRA:         -13.020
REMARK INTER:                  -8.994
REMARK INTRA:                  -4.026
REMARK UNBOUND:                -3.656
REMARK SMILES CCCCCCCCCCCCCCCCCCCCCCCC(=O)[O-]
REMARK SMILES IDX 13 1 14 2 15 3 16 4 17 5 18 6 19 7 20 8 21 9 22 10 23 11
REMARK SMILES IDX 24 12 25 13 26 14 12 15 11 16 10 17 9 18 8 19 7 20 6 21 5 22
REMARK SMILES IDX 4 23 3 24 2 25 1 26
REMARK H PARENT
REMARK Flexibility Score: inf
ROOT
ATOM      1  C   UNL     1     -33.939  82.745 -20.751  1.00  0.00     0.000 C 
ENDROOT
BRANCH   1   2
ATOM      2  C   UNL     1     -33.676  81.258 -20.455  1.00  0.00     0.000 C 
BRANCH   2   3
ATOM      3  C   UNL     1     -33.377  80.999 -18.969  1.00  0.00     0.000 C 
BRANCH   3   4
ATOM      4  C   UNL     1     -31.975  80.408 -18.743  1.00  0.00     0.000 C 
BRANCH   4   5
ATOM      5  C   UNL     1     -31.007  80.747 -19.897  1.00  0.00     0.000 C 
BRANCH   5   6
ATOM      6  C   UNL     1     -30.233  82.061 -19.691  1.00  0.00     0.000 C 
BRANCH   6   7
ATOM      7  C   UNL     1     -30.232  82.954 -20.942  1.00  0.00     0.000 C 
BRANCH   7   8
ATOM      8  C   UNL     1     -30.435  82.164 -22.247  1.00  0.00     0.000 C 
BRANCH   8   9
ATOM      9  C   UNL     1     -29.185  82.033 -23.142  1.00  0.00     0.000 C 
BRANCH   9  10
ATOM     10  C   UNL     1     -27.986  81.318 -22.494  1.00  0.00     0.006 C 
BRANCH  10  11
ATOM     11  C   UNL     1     -26.925  80.887 -23.515  1.00  0.00     0.053 C 
BRANCH  11  12
ATOM     12  C   UNL     1     -25.556  81.242 -23.023  1.00  0.00     0.041 C 
ATOM     13  O   UNL     1     -25.341  82.372 -22.507  1.00  0.00    -0.550 OA
ATOM     14  O   UNL     1     -24.529  80.309 -23.089  1.00  0.00    -0.550 OA
ENDBRANCH  11  12
ENDBRANCH  10  11
ENDBRANCH   9  10
ENDBRANCH   8   9
ENDBRANCH   7   8
ENDBRANCH   6   7
ENDBRANCH   5   6
ENDBRANCH   4   5
ENDBRANCH   3   4
ENDBRANCH   2   3
ENDBRANCH   1   2
BRANCH   1  15
ATOM     15  C   UNL     1     -33.745  83.635 -19.513  1.00  0.00     0.000 C 
BRANCH  15  16
ATOM     16  C   UNL     1     -34.851  84.692 -19.369  1.00  0.00     0.000 C 
BRANCH  16  17
ATOM     17  C   UNL     1     -35.535  84.591 -17.997  1.00  0.00     0.000 C 
BRANCH  17  18
ATOM     18  C   UNL     1     -36.825  83.753 -18.030  1.00  0.00    -0.000 C 
BRANCH  18  19
ATOM     19  C   UNL     1     -36.625  82.230 -17.910  1.00  0.00    -0.000 C 
BRANCH  19  20
ATOM     20  C   UNL     1     -37.124  81.462 -19.144  1.00  0.00    -0.000 C 
BRANCH  20  21
ATOM     21  C   UNL     1     -37.627  82.387 -20.268  1.00  0.00    -0.000 C 
BRANCH  21  22
ATOM     22  C   UNL     1     -37.384  81.881 -21.703  1.00  0.00    -0.000 C 
BRANCH  22  23
ATOM     23  C   UNL     1     -37.123  83.017 -22.707  1.00  0.00    -0.000 C 
BRANCH  23  24
ATOM     24  C   UNL     1     -37.522  84.401 -22.163  1.00  0.00    -0.000 C 
BRANCH  24  25
ATOM     25  C   UNL     1     -36.627  85.565 -22.624  1.00  0.00    -0.003 C 
ATOM     26  C   UNL     1     -35.271  85.106 -23.160  1.00  0.00     0.004 C 
ENDBRANCH  24  25
ENDBRANCH  23  24
ENDBRANCH  22  23
ENDBRANCH  21  22
ENDBRANCH  20  21
ENDBRANCH  19  20
ENDBRANCH  18  19
ENDBRANCH  17  18
ENDBRANCH  16  17
ENDBRANCH  15  16
ENDBRANCH   1  15
TORSDOF 22
ENDMDL
MODEL 6
REMARK VINA RESULT:    -4.079      2.412      5.322
REMARK INTER + INTRA:         -12.982
REMARK INTER:                  -9.159
REMARK INTRA:                  -3.823
REMARK UNBOUND:                -3.656
REMARK SMILES CCCCCCCCCCCCCCCCCCCCCCCC(=O)[O-]
REMARK SMILES IDX 13 1 14 2 15 3 16 4 17 5 18 6 19 7 20 8 21 9 22 10 23 11
REMARK SMILES IDX 24 12 25 13 26 14 12 15 11 16 10 17 9 18 8 19 7 20 6 21 5 22
REMARK SMILES IDX 4 23 3 24 2 25 1 26
REMARK H PARENT
REMARK Flexibility Score: inf
ROOT
ATOM      1  C   UNL     1     -33.972  82.820 -20.787  1.00  0.00     0.000 C 
ENDROOT
BRANCH   1   2
ATOM      2  C   UNL     1     -33.613  81.339 -20.575  1.00  0.00     0.000 C 
BRANCH   2   3
ATOM      3  C   UNL     1     -33.376  80.999 -19.095  1.00  0.00     0.000 C 
BRANCH   3   4
ATOM      4  C   UNL     1     -31.960  80.457 -18.832  1.00  0.00     0.000 C 
BRANCH   4   5
ATOM      5  C   UNL     1     -30.987  80.793 -19.982  1.00  0.00     0.000 C 
BRANCH   5   6
ATOM      6  C   UNL     1     -30.088  82.009 -19.698  1.00  0.00     0.000 C 
BRANCH   6   7
ATOM      7  C   UNL     1     -30.354  83.183 -20.654  1.00  0.00     0.000 C 
BRANCH   7   8
ATOM      8  C   UNL     1     -30.119  82.821 -22.132  1.00  0.00     0.000 C 
BRANCH   8   9
ATOM      9  C   UNL     1     -29.076  83.687 -22.868  1.00  0.00     0.000 C 
BRANCH   9  10
ATOM     10  C   UNL     1     -29.200  85.203 -22.633  1.00  0.00     0.006 C 
BRANCH  10  11
ATOM     11  C   UNL     1     -27.965  85.983 -23.106  1.00  0.00     0.053 C 
BRANCH  11  12
ATOM     12  C   UNL     1     -28.380  87.176 -23.910  1.00  0.00     0.041 C 
ATOM     13  O   UNL     1     -28.861  88.190 -23.337  1.00  0.00    -0.550 OA
ATOM     14  O   UNL     1     -28.190  87.188 -25.286  1.00  0.00    -0.550 OA
ENDBRANCH  11  12
ENDBRANCH  10  11
ENDBRANCH   9  10
ENDBRANCH   8   9
ENDBRANCH   7   8
ENDBRANCH   6   7
ENDBRANCH   5   6
ENDBRANCH   4   5
ENDBRANCH   3   4
ENDBRANCH   2   3
ENDBRANCH   1   2
BRANCH   1  15
ATOM     15  C   UNL     1     -33.839  83.649 -19.499  1.00  0.00     0.000 C 
BRANCH  15  16
ATOM     16  C   UNL     1     -34.946  84.706 -19.363  1.00  0.00     0.000 C 
BRANCH  16  17
ATOM     17  C   UNL     1     -35.618  84.625 -17.984  1.00  0.00     0.000 C 
BRANCH  17  18
ATOM     18  C   UNL     1     -36.851  83.704 -17.969  1.00  0.00    -0.000 C 
BRANCH  18  19
ATOM     19  C   UNL     1     -36.549  82.201 -17.828  1.00  0.00    -0.000 C 
BRANCH  19  20
ATOM     20  C   UNL     1     -37.003  81.382 -19.048  1.00  0.00    -0.000 C 
BRANCH  20  21
ATOM     21  C   UNL     1     -37.655  82.244 -20.144  1.00  0.00    -0.000 C 
BRANCH  21  22
ATOM     22  C   UNL     1     -37.443  81.752 -21.589  1.00  0.00    -0.000 C 
BRANCH  22  23
ATOM     23  C   UNL     1     -37.106  82.889 -22.569  1.00  0.00    -0.000 C 
BRANCH  23  24
ATOM     24  C   UNL     1     -37.584  84.267 -22.077  1.00  0.00    -0.000 C 
BRANCH  24  25
ATOM     25  C   UNL     1     -36.762  85.464 -22.587  1.00  0.00    -0.003 C 
ATOM     26  C   UNL     1     -35.419  85.056 -23.192  1.00  0.00     0.004 C 
ENDBRANCH  24  25
ENDBRANCH  23  24
ENDBRANCH  22  23
ENDBRANCH  21  22
ENDBRANCH  20  21
ENDBRANCH  19  20
ENDBRANCH  18  19
ENDBRANCH  17  18
ENDBRANCH  16  17
ENDBRANCH  15  16
ENDBRANCH   1  15
TORSDOF 22
ENDMDL
MODEL 7
REMARK VINA RESULT:    -4.074     12.764     15.935
REMARK INTER + INTRA:         -12.969
REMARK INTER:                  -9.004
REMARK INTRA:                  -3.965
REMARK UNBOUND:                -3.656
REMARK SMILES CCCCCCCCCCCCCCCCCCCCCCCC(=O)[O-]
REMARK SMILES IDX 13 1 14 2 15 3 16 4 17 5 18 6 19 7 20 8 21 9 22 10 23 11
REMARK SMILES IDX 24 12 25 13 26 14 12 15 11 16 10 17 9 18 8 19 7 20 6 21 5 22
REMARK SMILES IDX 4 23 3 24 2 25 1 26
REMARK H PARENT
REMARK Flexibility Score: inf
ROOT
ATOM      1  C   UNL     1     -24.095  96.274 -30.393  1.00  0.00     0.000 C 
ENDROOT
BRANCH   1   2
ATOM      2  C   UNL     1     -24.437  94.896 -29.801  1.00  0.00     0.000 C 
BRANCH   2   3
ATOM      3  C   UNL     1     -25.784  94.893 -29.059  1.00  0.00     0.000 C 
BRANCH   3   4
ATOM      4  C   UNL     1     -25.632  95.203 -27.559  1.00  0.00     0.000 C 
BRANCH   4   5
ATOM      5  C   UNL     1     -26.745  94.548 -26.714  1.00  0.00     0.000 C 
BRANCH   5   6
ATOM      6  C   UNL     1     -27.326  93.268 -27.339  1.00  0.00     0.000 C 
BRANCH   6   7
ATOM      7  C   UNL     1     -26.596  91.995 -26.881  1.00  0.00     0.000 C 
BRANCH   7   8
ATOM      8  C   UNL     1     -25.725  91.369 -27.985  1.00  0.00     0.000 C 
BRANCH   8   9
ATOM      9  C   UNL     1     -24.234  91.765 -27.956  1.00  0.00     0.000 C 
BRANCH   9  10
ATOM     10  C   UNL     1     -23.270  90.651 -27.511  1.00  0.00     0.006 C 
BRANCH  10  11
ATOM     11  C   UNL     1     -23.997  89.384 -27.041  1.00  0.00     0.053 C 
BRANCH  11  12
ATOM     12  C   UNL     1     -23.526  88.990 -25.676  1.00  0.00     0.041 C 
ATOM     13  O   UNL     1     -24.033  87.993 -25.094  1.00  0.00    -0.550 OA
ATOM     14  O   UNL     1     -22.494  89.691 -25.066  1.00  0.00    -0.550 OA
ENDBRANCH  11  12
ENDBRANCH  10  11
ENDBRANCH   9  10
ENDBRANCH   8   9
ENDBRANCH   7   8
ENDBRANCH   6   7
ENDBRANCH   5   6
ENDBRANCH   4   5
ENDBRANCH   3   4
ENDBRANCH   2   3
ENDBRANCH   1   2
BRANCH   1  15
ATOM     15  C   UNL     1     -23.490  96.176 -31.802  1.00  0.00     0.000 C 
BRANCH  15  16
ATOM     16  C   UNL     1     -23.328  94.723 -32.273  1.00  0.00     0.000 C 
BRANCH  16  17
ATOM     17  C   UNL     1     -24.086  94.483 -33.588  1.00  0.00     0.000 C 
BRANCH  17  18
ATOM     18  C   UNL     1     -25.234  95.483 -33.811  1.00  0.00    -0.000 C 
BRANCH  18  19
ATOM     19  C   UNL     1     -26.632  94.983 -33.400  1.00  0.00    -0.000 C 
BRANCH  19  20
ATOM     20  C   UNL     1     -26.698  93.456 -33.236  1.00  0.00    -0.000 C 
BRANCH  20  21
ATOM     21  C   UNL     1     -26.936  93.016 -31.780  1.00  0.00    -0.000 C 
BRANCH  21  22
ATOM     22  C   UNL     1     -26.779  91.507 -31.509  1.00  0.00    -0.000 C 
BRANCH  22  23
ATOM     23  C   UNL     1     -25.572  90.887 -32.233  1.00  0.00    -0.000 C 
BRANCH  23  24
ATOM     24  C   UNL     1     -24.624  90.134 -31.282  1.00  0.00    -0.000 C 
BRANCH  24  25
ATOM     25  C   UNL     1     -23.165  90.626 -31.290  1.00  0.00    -0.003 C 
ATOM     26  C   UNL     1     -22.695  91.090 -32.668  1.00  0.00     0.004 C 
ENDBRANCH  24  25
ENDBRANCH  23  24
ENDBRANCH  22  23
ENDBRANCH  21  22
ENDBRANCH  20  21
ENDBRANCH  19  20
ENDBRANCH  18  19
ENDBRANCH  17  18
ENDBRANCH  16  17
ENDBRANCH  15  16
ENDBRANCH   1  15
TORSDOF 22
ENDMDL
MODEL 8
REMARK VINA RESULT:    -4.020     10.756     12.452
REMARK INTER + INTRA:         -12.846
REMARK INTER:                  -9.250
REMARK INTRA:                  -3.597
REMARK UNBOUND:                -3.656
REMARK SMILES CCCCCCCCCCCCCCCCCCCCCCCC(=O)[O-]
REMARK SMILES IDX 13 1 14 2 15 3 16 4 17 5 18 6 19 7 20 8 21 9 22 10 23 11
REMARK SMILES IDX 24 12 25 13 26 14 12 15 11 16 10 17 9 18 8 19 7 20 6 21 5 22
REMARK SMILES IDX 4 23 3 24 2 25 1 26
REMARK H PARENT
REMARK Flexibility Score: inf
ROOT
ATOM      1  C   UNL     1     -24.978  80.262 -24.669  1.00  0.00     0.000 C 
ENDROOT
BRANCH   1   2
ATOM      2  C   UNL     1     -24.740  80.402 -23.155  1.00  0.00     0.000 C 
BRANCH   2   3
ATOM      3  C   UNL     1     -23.841  79.287 -22.596  1.00  0.00     0.000 C 
BRANCH   3   4
ATOM      4  C   UNL     1     -23.130  78.491 -23.705  1.00  0.00     0.000 C 
BRANCH   4   5
ATOM      5  C   UNL     1     -21.678  78.134 -23.326  1.00  0.00     0.000 C 
BRANCH   5   6
ATOM      6  C   UNL     1     -20.702  79.320 -23.424  1.00  0.00     0.000 C 
BRANCH   6   7
ATOM      7  C   UNL     1     -21.004  80.243 -24.616  1.00  0.00     0.000 C 
BRANCH   7   8
ATOM      8  C   UNL     1     -21.069  81.730 -24.226  1.00  0.00     0.000 C 
BRANCH   8   9
ATOM      9  C   UNL     1     -21.468  82.014 -22.763  1.00  0.00     0.000 C 
BRANCH   9  10
ATOM     10  C   UNL     1     -21.445  83.497 -22.354  1.00  0.00     0.006 C 
BRANCH  10  11
ATOM     11  C   UNL     1     -22.693  83.918 -21.566  1.00  0.00     0.053 C 
BRANCH  11  12
ATOM     12  C   UNL     1     -22.756  83.188 -20.261  1.00  0.00     0.041 C 
ATOM     13  O   UNL     1     -21.897  83.414 -19.367  1.00  0.00    -0.550 OA
ATOM     14  O   UNL     1     -23.790  82.296 -20.012  1.00  0.00    -0.550 OA
ENDBRANCH  11  12
ENDBRANCH  10  11
ENDBRANCH   9  10
ENDBRANCH   8   9
ENDBRANCH   7   8
ENDBRANCH   6   7
ENDBRANCH   5   6
ENDBRANCH   4   5
ENDBRANCH   3   4
ENDBRANCH   2   3
ENDBRANCH   1   2
BRANCH   1  15
ATOM     15  C   UNL     1     -24.511  81.498 -25.454  1.00  0.00     0.000 C 
BRANCH  15  16
ATOM     16  C   UNL     1     -24.855  82.814 -24.740  1.00  0.00     0.000 C 
BRANCH  16  17
ATOM     17  C   UNL     1     -23.918  83.946 -25.188  1.00  0.00     0.000 C 
BRANCH  17  18
ATOM     18  C   UNL     1     -24.622  85.312 -25.269  1.00  0.00    -0.000 C 
BRANCH  18  19
ATOM     19  C   UNL     1     -24.213  86.329 -24.187  1.00  0.00    -0.000 C 
BRANCH  19  20
ATOM     20  C   UNL     1     -22.690  86.500 -24.070  1.00  0.00    -0.000 C 
BRANCH  20  21
ATOM     21  C   UNL     1     -22.184  87.823 -24.676  1.00  0.00    -0.000 C 
BRANCH  21  22
ATOM     22  C   UNL     1     -23.256  88.912 -24.881  1.00  0.00    -0.000 C 
BRANCH  22  23
ATOM     23  C   UNL     1     -23.331  89.418 -26.331  1.00  0.00    -0.000 C 
BRANCH  23  24
ATOM     24  C   UNL     1     -23.629  88.296 -27.343  1.00  0.00    -0.000 C 
BRANCH  24  25
ATOM     25  C   UNL     1     -23.678  88.742 -28.815  1.00  0.00    -0.003 C 
ATOM     26  C   UNL     1     -22.986  90.082 -29.061  1.00  0.00     0.004 C 
ENDBRANCH  24  25
ENDBRANCH  23  24
ENDBRANCH  22  23
ENDBRANCH  21  22
ENDBRANCH  20  21
ENDBRANCH  19  20
ENDBRANCH  18  19
ENDBRANCH  17  18
ENDBRANCH  16  17
ENDBRANCH  15  16
ENDBRANCH   1  15
TORSDOF 22
ENDMDL
MODEL 9
REMARK VINA RESULT:    -3.971      9.536     13.070
REMARK INTER + INTRA:         -12.734
REMARK INTER:                  -8.230
REMARK INTRA:                  -4.504
REMARK UNBOUND:                -3.656
REMARK SMILES CCCCCCCCCCCCCCCCCCCCCCCC(=O)[O-]
REMARK SMILES IDX 13 1 14 2 15 3 16 4 17 5 18 6 19 7 20 8 21 9 22 10 23 11
REMARK SMILES IDX 24 12 25 13 26 14 12 15 11 16 10 17 9 18 8 19 7 20 6 21 5 22
REMARK SMILES IDX 4 23 3 24 2 25 1 26
REMARK H PARENT
REMARK Flexibility Score: inf
ROOT
ATOM      1  C   UNL     1     -25.751  80.902 -23.344  1.00  0.00     0.000 C 
ENDROOT
BRANCH   1   2
ATOM      2  C   UNL     1     -25.157  82.042 -22.499  1.00  0.00     0.000 C 
BRANCH   2   3
ATOM      3  C   UNL     1     -23.901  81.607 -21.727  1.00  0.00     0.000 C 
BRANCH   3   4
ATOM      4  C   UNL     1     -23.618  82.503 -20.507  1.00  0.00     0.000 C 
BRANCH   4   5
ATOM      5  C   UNL     1     -22.124  82.873 -20.391  1.00  0.00     0.000 C 
BRANCH   5   6
ATOM      6  C   UNL     1     -21.772  84.235 -21.014  1.00  0.00     0.000 C 
BRANCH   6   7
ATOM      7  C   UNL     1     -21.381  84.128 -22.497  1.00  0.00     0.000 C 
BRANCH   7   8
ATOM      8  C   UNL     1     -21.379  85.488 -23.219  1.00  0.00     0.000 C 
BRANCH   8   9
ATOM      9  C   UNL     1     -22.765  86.013 -23.646  1.00  0.00     0.000 C 
BRANCH   9  10
ATOM     10  C   UNL     1     -23.750  84.937 -24.139  1.00  0.00     0.006 C 
BRANCH  10  11
ATOM     11  C   UNL     1     -24.851  85.506 -25.045  1.00  0.00     0.053 C 
BRANCH  11  12
ATOM     12  C   UNL     1     -26.137  85.626 -24.288  1.00  0.00     0.041 C 
ATOM     13  O   UNL     1     -26.892  84.625 -24.160  1.00  0.00    -0.550 OA
ATOM     14  O   UNL     1     -26.478  86.828 -23.681  1.00  0.00    -0.550 OA
ENDBRANCH  11  12
ENDBRANCH  10  11
ENDBRANCH   9  10
ENDBRANCH   8   9
ENDBRANCH   7   8
ENDBRANCH   6   7
ENDBRANCH   5   6
ENDBRANCH   4   5
ENDBRANCH   3   4
ENDBRANCH   2   3
ENDBRANCH   1   2
BRANCH   1  15
ATOM     15  C   UNL     1     -24.943  79.600 -23.228  1.00  0.00     0.000 C 
BRANCH  15  16
ATOM     16  C   UNL     1     -25.373  78.546 -24.261  1.00  0.00     0.000 C 
BRANCH  16  17
ATOM     17  C   UNL     1     -24.384  77.371 -24.292  1.00  0.00     0.000 C 
BRANCH  17  18
ATOM     18  C   UNL     1     -23.150  77.599 -23.402  1.00  0.00    -0.000 C 
BRANCH  18  19
ATOM     19  C   UNL     1     -21.798  77.238 -24.045  1.00  0.00    -0.000 C 
BRANCH  19  20
ATOM     20  C   UNL     1     -20.727  78.320 -23.835  1.00  0.00    -0.000 C 
BRANCH  20  21
ATOM     21  C   UNL     1     -21.259  79.560 -23.091  1.00  0.00    -0.000 C 
BRANCH  21  22
ATOM     22  C   UNL     1     -20.636  80.904 -23.513  1.00  0.00    -0.000 C 
BRANCH  22  23
ATOM     23  C   UNL     1     -21.005  81.317 -24.948  1.00  0.00    -0.000 C 
BRANCH  23  24
ATOM     24  C   UNL     1     -22.494  81.679 -25.103  1.00  0.00    -0.000 C 
BRANCH  24  25
ATOM     25  C   UNL     1     -23.159  81.166 -26.393  1.00  0.00    -0.003 C 
ATOM     26  C   UNL     1     -22.784  79.723 -26.730  1.00  0.00     0.004 C 
ENDBRANCH  24  25
ENDBRANCH  23  24
ENDBRANCH  22  23
ENDBRANCH  21  22
ENDBRANCH  20  21
ENDBRANCH  19  20
ENDBRANCH  18  19
ENDBRANCH  17  18
ENDBRANCH  16  17
ENDBRANCH  15  16
ENDBRANCH   1  15
TORSDOF 22
ENDMDL
