MODEL 1
REMARK VINA RESULT:    -7.513      0.000      0.000
REMARK INTER + INTRA:          -8.719
REMARK INTER:                  -8.830
REMARK INTRA:                   0.111
REMARK UNBOUND:                 0.111
REMARK SMILES O=c1c(O)c(-c2ccc(O)cc2)oc2cc(O)cc(O)c12
REMARK SMILES IDX 5 1 3 2 2 3 1 4 21 5 19 6 18 7 16 8 15 9 14 10 13 11 6 12
REMARK SMILES IDX 7 13 8 14 9 15 12 16 11 17 10 18 4 20 20 22 17 24
REMARK H PARENT 10 19 4 21 20 23 17 25
REMARK Flexibility Score: inf
ROOT
ATOM      1  C   UNL     1      29.125  23.359  48.692  1.00  0.00     0.180 A 
ATOM      2  C   UNL     1      30.445  22.882  48.800  1.00  0.00     0.208 A 
ATOM      3  C   UNL     1      30.906  22.439  50.050  1.00  0.00     0.238 A 
ATOM      4  O   UNL     1      32.090  22.021  50.161  1.00  0.00    -0.285 OA
ATOM      5  C   UNL     1      30.038  22.460  51.160  1.00  0.00     0.111 A 
ATOM      6  C   UNL     1      30.424  22.028  52.453  1.00  0.00     0.134 A 
ATOM      7  C   UNL     1      29.497  22.072  53.506  1.00  0.00     0.093 A 
ATOM      8  C   UNL     1      28.198  22.537  53.292  1.00  0.00     0.123 A 
ATOM      9  C   UNL     1      27.811  22.966  52.018  1.00  0.00     0.094 A 
ATOM     10  C   UNL     1      28.720  22.933  50.956  1.00  0.00     0.146 A 
ATOM     11  O   UNL     1      28.330  23.351  49.758  1.00  0.00    -0.452 OA
ENDROOT
BRANCH   1  12
ATOM     12  C   UNL     1      28.572  23.861  47.413  1.00  0.00     0.021 A 
ATOM     13  C   UNL     1      27.244  23.558  47.068  1.00  0.00     0.016 A 
ATOM     14  C   UNL     1      26.694  24.041  45.876  1.00  0.00     0.047 A 
ATOM     15  C   UNL     1      27.457  24.843  45.023  1.00  0.00     0.115 A 
ATOM     16  C   UNL     1      29.328  24.685  46.560  1.00  0.00     0.016 A 
ATOM     17  C   UNL     1      28.775  25.168  45.370  1.00  0.00     0.047 A 
BRANCH  15  18
ATOM     18  O   UNL     1      26.896  25.316  43.839  1.00  0.00    -0.508 OA
ATOM     19  H   UNL     1      26.871  24.746  43.001  1.00  0.00     0.293 HD
ENDBRANCH  15  18
ENDBRANCH   1  12
BRANCH   2  20
ATOM     20  O   UNL     1      31.270  22.825  47.673  1.00  0.00    -0.502 OA
ATOM     21  H   UNL     1      32.044  23.464  47.535  1.00  0.00     0.293 HD
ENDBRANCH   2  20
BRANCH   6  22
ATOM     22  O   UNL     1      31.713  21.556  52.697  1.00  0.00    -0.507 OA
ATOM     23  H   UNL     1      32.474  22.183  52.935  1.00  0.00     0.293 HD
ENDBRANCH   6  22
BRANCH   8  24
ATOM     24  O   UNL     1      27.297  22.570  54.355  1.00  0.00    -0.508 OA
ATOM     25  H   UNL     1      26.725  23.386  54.539  1.00  0.00     0.293 HD
ENDBRANCH   8  24
TORSDOF 5
ENDMDL
MODEL 2
REMARK VINA RESULT:    -6.925     12.489     13.827
REMARK INTER + INTRA:          -8.029
REMARK INTER:                  -7.962
REMARK INTRA:                  -0.067
REMARK UNBOUND:                 0.111
REMARK SMILES O=c1c(O)c(-c2ccc(O)cc2)oc2cc(O)cc(O)c12
REMARK SMILES IDX 5 1 3 2 2 3 1 4 21 5 19 6 18 7 16 8 15 9 14 10 13 11 6 12
REMARK SMILES IDX 7 13 8 14 9 15 12 16 11 17 10 18 4 20 20 22 17 24
REMARK H PARENT 10 19 4 21 20 23 17 25
REMARK Flexibility Score: inf
ROOT
ATOM      1  C   UNL     1      18.714  25.329  40.663  1.00  0.00     0.180 A 
ATOM      2  C   UNL     1      19.759  26.246  40.882  1.00  0.00     0.208 A 
ATOM      3  C   UNL     1      19.785  26.971  42.084  1.00  0.00     0.238 A 
ATOM      4  O   UNL     1      20.711  27.804  42.286  1.00  0.00    -0.285 OA
ATOM      5  C   UNL     1      18.783  26.754  43.051  1.00  0.00     0.111 A 
ATOM      6  C   UNL     1      18.739  27.440  44.289  1.00  0.00     0.134 A 
ATOM      7  C   UNL     1      17.712  27.161  45.203  1.00  0.00     0.093 A 
ATOM      8  C   UNL     1      16.733  26.210  44.905  1.00  0.00     0.123 A 
ATOM      9  C   UNL     1      16.770  25.530  43.684  1.00  0.00     0.094 A 
ATOM     10  C   UNL     1      17.784  25.796  42.758  1.00  0.00     0.146 A 
ATOM     11  O   UNL     1      17.793  25.139  41.604  1.00  0.00    -0.452 OA
ENDROOT
BRANCH   1  12
ATOM     12  C   UNL     1      18.607  24.541  39.414  1.00  0.00     0.021 A 
ATOM     13  C   UNL     1      19.637  23.652  39.067  1.00  0.00     0.016 A 
ATOM     14  C   UNL     1      19.547  22.881  37.904  1.00  0.00     0.047 A 
ATOM     15  C   UNL     1      18.420  22.977  37.082  1.00  0.00     0.115 A 
ATOM     16  C   UNL     1      17.466  24.619  38.593  1.00  0.00     0.016 A 
ATOM     17  C   UNL     1      17.377  23.846  37.432  1.00  0.00     0.047 A 
BRANCH  15  18
ATOM     18  O   UNL     1      18.344  22.204  35.926  1.00  0.00    -0.508 OA
ATOM     19  H   UNL     1      18.176  21.205  35.968  1.00  0.00     0.293 HD
ENDBRANCH  15  18
ENDBRANCH   1  12
BRANCH   2  20
ATOM     20  O   UNL     1      20.769  26.407  39.928  1.00  0.00    -0.502 OA
ATOM     21  H   UNL     1      21.477  25.701  39.764  1.00  0.00     0.293 HD
ENDBRANCH   2  20
BRANCH   6  22
ATOM     22  O   UNL     1      19.704  28.393  44.616  1.00  0.00    -0.507 OA
ATOM     23  H   UNL     1      20.664  28.310  44.300  1.00  0.00     0.293 HD
ENDBRANCH   6  22
BRANCH   8  24
ATOM     24  O   UNL     1      15.724  25.951  45.831  1.00  0.00    -0.508 OA
ATOM     25  H   UNL     1      15.876  26.069  46.826  1.00  0.00     0.293 HD
ENDBRANCH   8  24
TORSDOF 5
ENDMDL
MODEL 3
REMARK VINA RESULT:    -6.924     12.457     13.965
REMARK INTER + INTRA:          -8.027
REMARK INTER:                  -7.801
REMARK INTRA:                  -0.226
REMARK UNBOUND:                 0.111
REMARK SMILES O=c1c(O)c(-c2ccc(O)cc2)oc2cc(O)cc(O)c12
REMARK SMILES IDX 5 1 3 2 2 3 1 4 21 5 19 6 18 7 16 8 15 9 14 10 13 11 6 12
REMARK SMILES IDX 7 13 8 14 9 15 12 16 11 17 10 18 4 20 20 22 17 24
REMARK H PARENT 10 19 4 21 20 23 17 25
REMARK Flexibility Score: inf
ROOT
ATOM      1  C   UNL     1      18.262  24.750  41.258  1.00  0.00     0.180 A 
ATOM      2  C   UNL     1      17.048  24.352  41.849  1.00  0.00     0.208 A 
ATOM      3  C   UNL     1      16.627  24.988  43.028  1.00  0.00     0.238 A 
ATOM      4  O   UNL     1      15.546  24.632  43.572  1.00  0.00    -0.285 OA
ATOM      5  C   UNL     1      17.410  26.020  43.582  1.00  0.00     0.111 A 
ATOM      6  C   UNL     1      17.054  26.714  44.764  1.00  0.00     0.134 A 
ATOM      7  C   UNL     1      17.884  27.737  45.246  1.00  0.00     0.093 A 
ATOM      8  C   UNL     1      19.059  28.080  44.572  1.00  0.00     0.123 A 
ATOM      9  C   UNL     1      19.416  27.397  43.404  1.00  0.00     0.094 A 
ATOM     10  C   UNL     1      18.604  26.373  42.908  1.00  0.00     0.146 A 
ATOM     11  O   UNL     1      18.969  25.738  41.801  1.00  0.00    -0.452 OA
ENDROOT
BRANCH   1  12
ATOM     12  C   UNL     1      18.783  24.115  40.026  1.00  0.00     0.021 A 
ATOM     13  C   UNL     1      19.826  23.178  40.119  1.00  0.00     0.016 A 
ATOM     14  C   UNL     1      20.318  22.549  38.971  1.00  0.00     0.047 A 
ATOM     15  C   UNL     1      19.765  22.837  37.720  1.00  0.00     0.115 A 
ATOM     16  C   UNL     1      18.218  24.385  38.766  1.00  0.00     0.016 A 
ATOM     17  C   UNL     1      18.710  23.754  37.620  1.00  0.00     0.047 A 
BRANCH  15  18
ATOM     18  O   UNL     1      20.266  22.203  36.584  1.00  0.00    -0.508 OA
ATOM     19  H   UNL     1      21.031  21.541  36.642  1.00  0.00     0.293 HD
ENDBRANCH  15  18
ENDBRANCH   1  12
BRANCH   2  20
ATOM     20  O   UNL     1      16.265  23.360  41.253  1.00  0.00    -0.502 OA
ATOM     21  H   UNL     1      15.252  23.372  41.293  1.00  0.00     0.293 HD
ENDBRANCH   2  20
BRANCH   6  22
ATOM     22  O   UNL     1      15.887  26.397  45.458  1.00  0.00    -0.507 OA
ATOM     23  H   UNL     1      15.074  26.017  44.988  1.00  0.00     0.293 HD
ENDBRANCH   6  22
BRANCH   8  24
ATOM     24  O   UNL     1      19.865  29.099  45.073  1.00  0.00    -0.508 OA
ATOM     25  H   UNL     1      20.707  29.393  44.591  1.00  0.00     0.293 HD
ENDBRANCH   8  24
TORSDOF 5
ENDMDL
MODEL 4
REMARK VINA RESULT:    -6.803      1.758      7.042
REMARK INTER + INTRA:          -7.885
REMARK INTER:                  -7.677
REMARK INTRA:                  -0.208
REMARK UNBOUND:                 0.111
REMARK SMILES O=c1c(O)c(-c2ccc(O)cc2)oc2cc(O)cc(O)c12
REMARK SMILES IDX 5 1 3 2 2 3 1 4 21 5 19 6 18 7 16 8 15 9 14 10 13 11 6 12
REMARK SMILES IDX 7 13 8 14 9 15 12 16 11 17 10 18 4 20 20 22 17 24
REMARK H PARENT 10 19 4 21 20 23 17 25
REMARK Flexibility Score: inf
ROOT
ATOM      1  C   UNL     1      29.373  22.690  50.342  1.00  0.00     0.180 A 
ATOM      2  C   UNL     1      28.019  22.391  50.096  1.00  0.00     0.208 A 
ATOM      3  C   UNL     1      27.433  22.833  48.899  1.00  0.00     0.238 A 
ATOM      4  O   UNL     1      26.219  22.580  48.673  1.00  0.00    -0.285 OA
ATOM      5  C   UNL     1      28.210  23.545  47.964  1.00  0.00     0.111 A 
ATOM      6  C   UNL     1      27.697  24.022  46.733  1.00  0.00     0.134 A 
ATOM      7  C   UNL     1      28.539  24.716  45.851  1.00  0.00     0.093 A 
ATOM      8  C   UNL     1      29.879  24.941  46.173  1.00  0.00     0.123 A 
ATOM      9  C   UNL     1      30.392  24.473  47.387  1.00  0.00     0.094 A 
ATOM     10  C   UNL     1      29.569  23.781  48.281  1.00  0.00     0.146 A 
ATOM     11  O   UNL     1      30.079  23.352  49.430  1.00  0.00    -0.452 OA
ENDROOT
BRANCH   1  12
ATOM     12  C   UNL     1      30.057  22.275  51.588  1.00  0.00     0.021 A 
ATOM     13  C   UNL     1      31.081  21.316  51.528  1.00  0.00     0.016 A 
ATOM     14  C   UNL     1      31.757  20.927  52.689  1.00  0.00     0.047 A 
ATOM     15  C   UNL     1      31.427  21.500  53.920  1.00  0.00     0.115 A 
ATOM     16  C   UNL     1      29.744  22.864  52.828  1.00  0.00     0.016 A 
ATOM     17  C   UNL     1      30.421  22.473  53.986  1.00  0.00     0.047 A 
BRANCH  15  18
ATOM     18  O   UNL     1      32.108  21.102  55.069  1.00  0.00    -0.508 OA
ATOM     19  H   UNL     1      32.138  20.130  55.355  1.00  0.00     0.293 HD
ENDBRANCH  15  18
ENDBRANCH   1  12
BRANCH   2  20
ATOM     20  O   UNL     1      27.284  21.639  51.017  1.00  0.00    -0.502 OA
ATOM     21  H   UNL     1      27.605  20.743  51.365  1.00  0.00     0.293 HD
ENDBRANCH   2  20
BRANCH   6  22
ATOM     22  O   UNL     1      26.364  23.812  46.382  1.00  0.00    -0.507 OA
ATOM     23  H   UNL     1      25.774  23.164  46.892  1.00  0.00     0.293 HD
ENDBRANCH   6  22
BRANCH   8  24
ATOM     24  O   UNL     1      30.694  25.632  45.279  1.00  0.00    -0.508 OA
ATOM     25  H   UNL     1      31.663  25.834  45.493  1.00  0.00     0.293 HD
ENDBRANCH   8  24
TORSDOF 5
ENDMDL
MODEL 5
REMARK VINA RESULT:    -6.741      1.546      2.975
REMARK INTER + INTRA:          -7.812
REMARK INTER:                  -8.297
REMARK INTRA:                   0.485
REMARK UNBOUND:                 0.111
REMARK SMILES O=c1c(O)c(-c2ccc(O)cc2)oc2cc(O)cc(O)c12
REMARK SMILES IDX 5 1 3 2 2 3 1 4 21 5 19 6 18 7 16 8 15 9 14 10 13 11 6 12
REMARK SMILES IDX 7 13 8 14 9 15 12 16 11 17 10 18 4 20 20 22 17 24
REMARK H PARENT 10 19 4 21 20 23 17 25
REMARK Flexibility Score: inf
ROOT
ATOM      1  C   UNL     1      28.211  23.490  49.278  1.00  0.00     0.180 A 
ATOM      2  C   UNL     1      27.171  22.769  49.895  1.00  0.00     0.208 A 
ATOM      3  C   UNL     1      27.336  22.338  51.220  1.00  0.00     0.238 A 
ATOM      4  O   UNL     1      26.415  21.681  51.779  1.00  0.00    -0.285 OA
ATOM      5  C   UNL     1      28.524  22.650  51.912  1.00  0.00     0.111 A 
ATOM      6  C   UNL     1      28.768  22.257  53.250  1.00  0.00     0.134 A 
ATOM      7  C   UNL     1      29.973  22.615  53.872  1.00  0.00     0.093 A 
ATOM      8  C   UNL     1      30.936  23.358  53.185  1.00  0.00     0.123 A 
ATOM      9  C   UNL     1      30.702  23.749  51.862  1.00  0.00     0.094 A 
ATOM     10  C   UNL     1      29.508  23.400  51.224  1.00  0.00     0.146 A 
ATOM     11  O   UNL     1      29.312  23.779  49.967  1.00  0.00    -0.452 OA
ENDROOT
BRANCH   1  12
ATOM     12  C   UNL     1      28.120  23.962  47.878  1.00  0.00     0.021 A 
ATOM     13  C   UNL     1      29.258  24.497  47.253  1.00  0.00     0.016 A 
ATOM     14  C   UNL     1      29.200  24.928  45.924  1.00  0.00     0.047 A 
ATOM     15  C   UNL     1      28.011  24.816  45.199  1.00  0.00     0.115 A 
ATOM     16  C   UNL     1      26.931  23.833  47.137  1.00  0.00     0.016 A 
ATOM     17  C   UNL     1      26.876  24.263  45.808  1.00  0.00     0.047 A 
BRANCH  15  18
ATOM     18  O   UNL     1      27.967  25.250  43.876  1.00  0.00    -0.508 OA
ATOM     19  H   UNL     1      27.282  25.928  43.564  1.00  0.00     0.293 HD
ENDBRANCH  15  18
ENDBRANCH   1  12
BRANCH   2  20
ATOM     20  O   UNL     1      25.982  22.515  49.204  1.00  0.00    -0.502 OA
ATOM     21  H   UNL     1      25.169  22.112  49.654  1.00  0.00     0.293 HD
ENDBRANCH   2  20
BRANCH   6  22
ATOM     22  O   UNL     1      27.825  21.516  53.964  1.00  0.00    -0.507 OA
ATOM     23  H   UNL     1      27.132  20.944  53.496  1.00  0.00     0.293 HD
ENDBRANCH   6  22
BRANCH   8  24
ATOM     24  O   UNL     1      32.125  23.701  53.826  1.00  0.00    -0.508 OA
ATOM     25  H   UNL     1      32.221  23.637  54.832  1.00  0.00     0.293 HD
ENDBRANCH   8  24
TORSDOF 5
ENDMDL
MODEL 6
REMARK VINA RESULT:    -6.648     13.630     15.330
REMARK INTER + INTRA:          -7.703
REMARK INTER:                  -7.429
REMARK INTRA:                  -0.274
REMARK UNBOUND:                 0.111
REMARK SMILES O=c1c(O)c(-c2ccc(O)cc2)oc2cc(O)cc(O)c12
REMARK SMILES IDX 5 1 3 2 2 3 1 4 21 5 19 6 18 7 16 8 15 9 14 10 13 11 6 12
REMARK SMILES IDX 7 13 8 14 9 15 12 16 11 17 10 18 4 20 20 22 17 24
REMARK H PARENT 10 19 4 21 20 23 17 25
REMARK Flexibility Score: inf
ROOT
ATOM      1  C   UNL     1      17.140  23.473  42.182  1.00  0.00     0.180 A 
ATOM      2  C   UNL     1      17.305  24.669  42.906  1.00  0.00     0.208 A 
ATOM      3  C   UNL     1      17.929  25.760  42.280  1.00  0.00     0.238 A 
ATOM      4  O   UNL     1      18.092  26.833  42.923  1.00  0.00    -0.285 OA
ATOM      5  C   UNL     1      18.357  25.646  40.942  1.00  0.00     0.111 A 
ATOM      6  C   UNL     1      18.990  26.699  40.239  1.00  0.00     0.134 A 
ATOM      7  C   UNL     1      19.379  26.509  38.904  1.00  0.00     0.093 A 
ATOM      8  C   UNL     1      19.147  25.290  38.261  1.00  0.00     0.123 A 
ATOM      9  C   UNL     1      18.522  24.246  38.951  1.00  0.00     0.094 A 
ATOM     10  C   UNL     1      18.129  24.415  40.282  1.00  0.00     0.146 A 
ATOM     11  O   UNL     1      17.543  23.406  40.916  1.00  0.00    -0.452 OA
ENDROOT
BRANCH   1  12
ATOM     12  C   UNL     1      16.509  22.274  42.778  1.00  0.00     0.021 A 
ATOM     13  C   UNL     1      17.318  21.280  43.354  1.00  0.00     0.016 A 
ATOM     14  C   UNL     1      16.742  20.150  43.942  1.00  0.00     0.047 A 
ATOM     15  C   UNL     1      15.353  20.005  43.976  1.00  0.00     0.115 A 
ATOM     16  C   UNL     1      15.110  22.132  42.833  1.00  0.00     0.016 A 
ATOM     17  C   UNL     1      14.537  21.001  43.423  1.00  0.00     0.047 A 
BRANCH  15  18
ATOM     18  O   UNL     1      14.793  18.873  44.565  1.00  0.00    -0.508 OA
ATOM     19  H   UNL     1      13.789  18.764  44.651  1.00  0.00     0.293 HD
ENDBRANCH  15  18
ENDBRANCH   1  12
BRANCH   2  20
ATOM     20  O   UNL     1      16.827  24.774  44.215  1.00  0.00    -0.502 OA
ATOM     21  H   UNL     1      16.207  24.083  44.623  1.00  0.00     0.293 HD
ENDBRANCH   2  20
BRANCH   6  22
ATOM     22  O   UNL     1      19.234  27.928  40.852  1.00  0.00    -0.507 OA
ATOM     23  H   UNL     1      19.739  27.994  41.729  1.00  0.00     0.293 HD
ENDBRANCH   6  22
BRANCH   8  24
ATOM     24  O   UNL     1      19.542  25.128  36.935  1.00  0.00    -0.508 OA
ATOM     25  H   UNL     1      19.044  24.509  36.306  1.00  0.00     0.293 HD
ENDBRANCH   8  24
TORSDOF 5
ENDMDL
MODEL 7
REMARK VINA RESULT:    -6.589     13.288     14.794
REMARK INTER + INTRA:          -7.634
REMARK INTER:                  -7.398
REMARK INTRA:                  -0.236
REMARK UNBOUND:                 0.111
REMARK SMILES O=c1c(O)c(-c2ccc(O)cc2)oc2cc(O)cc(O)c12
REMARK SMILES IDX 5 1 3 2 2 3 1 4 21 5 19 6 18 7 16 8 15 9 14 10 13 11 6 12
REMARK SMILES IDX 7 13 8 14 9 15 12 16 11 17 10 18 4 20 20 22 17 24
REMARK H PARENT 10 19 4 21 20 23 17 25
REMARK Flexibility Score: inf
ROOT
ATOM      1  C   UNL     1      16.953  23.522  41.999  1.00  0.00     0.180 A 
ATOM      2  C   UNL     1      15.555  23.658  41.908  1.00  0.00     0.208 A 
ATOM      3  C   UNL     1      14.739  22.641  42.427  1.00  0.00     0.238 A 
ATOM      4  O   UNL     1      13.485  22.747  42.340  1.00  0.00    -0.285 OA
ATOM      5  C   UNL     1      15.329  21.520  43.044  1.00  0.00     0.111 A 
ATOM      6  C   UNL     1      14.578  20.454  43.596  1.00  0.00     0.134 A 
ATOM      7  C   UNL     1      15.242  19.376  44.202  1.00  0.00     0.093 A 
ATOM      8  C   UNL     1      16.637  19.345  44.268  1.00  0.00     0.123 A 
ATOM      9  C   UNL     1      17.384  20.395  43.725  1.00  0.00     0.094 A 
ATOM     10  C   UNL     1      16.742  21.476  43.114  1.00  0.00     0.146 A 
ATOM     11  O   UNL     1      17.475  22.457  42.602  1.00  0.00    -0.452 OA
ENDROOT
BRANCH   1  12
ATOM     12  C   UNL     1      17.880  24.542  41.459  1.00  0.00     0.021 A 
ATOM     13  C   UNL     1      18.092  25.732  42.175  1.00  0.00     0.016 A 
ATOM     14  C   UNL     1      18.981  26.700  41.694  1.00  0.00     0.047 A 
ATOM     15  C   UNL     1      19.679  26.484  40.503  1.00  0.00     0.115 A 
ATOM     16  C   UNL     1      18.602  24.322  40.271  1.00  0.00     0.016 A 
ATOM     17  C   UNL     1      19.491  25.290  39.794  1.00  0.00     0.047 A 
BRANCH  15  18
ATOM     18  O   UNL     1      20.561  27.457  40.037  1.00  0.00    -0.508 OA
ATOM     19  H   UNL     1      20.626  28.367  40.478  1.00  0.00     0.293 HD
ENDBRANCH  15  18
ENDBRANCH   1  12
BRANCH   2  20
ATOM     20  O   UNL     1      14.993  24.803  41.335  1.00  0.00    -0.502 OA
ATOM     21  H   UNL     1      15.558  25.538  40.926  1.00  0.00     0.293 HD
ENDBRANCH   2  20
BRANCH   6  22
ATOM     22  O   UNL     1      13.185  20.457  43.547  1.00  0.00    -0.507 OA
ATOM     23  H   UNL     1      12.670  21.189  43.071  1.00  0.00     0.293 HD
ENDBRANCH   6  22
BRANCH   8  24
ATOM     24  O   UNL     1      17.271  18.263  44.876  1.00  0.00    -0.508 OA
ATOM     25  H   UNL     1      16.771  17.407  45.088  1.00  0.00     0.293 HD
ENDBRANCH   8  24
TORSDOF 5
ENDMDL
MODEL 8
REMARK VINA RESULT:    -6.539     12.522     15.381
REMARK INTER + INTRA:          -7.575
REMARK INTER:                  -7.280
REMARK INTRA:                  -0.295
REMARK UNBOUND:                 0.111
REMARK SMILES O=c1c(O)c(-c2ccc(O)cc2)oc2cc(O)cc(O)c12
REMARK SMILES IDX 5 1 3 2 2 3 1 4 21 5 19 6 18 7 16 8 15 9 14 10 13 11 6 12
REMARK SMILES IDX 7 13 8 14 9 15 12 16 11 17 10 18 4 20 20 22 17 24
REMARK H PARENT 10 19 4 21 20 23 17 25
REMARK Flexibility Score: inf
ROOT
ATOM      1  C   UNL     1      15.268  26.990  46.951  1.00  0.00     0.180 A 
ATOM      2  C   UNL     1      14.877  25.879  46.179  1.00  0.00     0.208 A 
ATOM      3  C   UNL     1      15.648  25.525  45.061  1.00  0.00     0.238 A 
ATOM      4  O   UNL     1      15.301  24.539  44.355  1.00  0.00    -0.285 OA
ATOM      5  C   UNL     1      16.802  26.270  44.746  1.00  0.00     0.111 A 
ATOM      6  C   UNL     1      17.635  25.976  43.639  1.00  0.00     0.134 A 
ATOM      7  C   UNL     1      18.773  26.760  43.398  1.00  0.00     0.093 A 
ATOM      8  C   UNL     1      19.094  27.828  44.239  1.00  0.00     0.123 A 
ATOM      9  C   UNL     1      18.275  28.124  45.334  1.00  0.00     0.094 A 
ATOM     10  C   UNL     1      17.135  27.355  45.590  1.00  0.00     0.146 A 
ATOM     11  O   UNL     1      16.371  27.660  46.633  1.00  0.00    -0.452 OA
ENDROOT
BRANCH   1  12
ATOM     12  C   UNL     1      14.497  27.437  48.134  1.00  0.00     0.021 A 
ATOM     13  C   UNL     1      14.911  27.046  49.417  1.00  0.00     0.016 A 
ATOM     14  C   UNL     1      14.211  27.476  50.550  1.00  0.00     0.047 A 
ATOM     15  C   UNL     1      13.100  28.312  50.414  1.00  0.00     0.115 A 
ATOM     16  C   UNL     1      13.389  28.296  48.005  1.00  0.00     0.016 A 
ATOM     17  C   UNL     1      12.692  28.725  49.139  1.00  0.00     0.047 A 
BRANCH  15  18
ATOM     18  O   UNL     1      12.412  28.732  51.551  1.00  0.00    -0.508 OA
ATOM     19  H   UNL     1      11.831  29.562  51.541  1.00  0.00     0.293 HD
ENDBRANCH  15  18
ENDBRANCH   1  12
BRANCH   2  20
ATOM     20  O   UNL     1      13.755  25.127  46.541  1.00  0.00    -0.502 OA
ATOM     21  H   UNL     1      13.644  24.732  47.468  1.00  0.00     0.293 HD
ENDBRANCH   2  20
BRANCH   6  22
ATOM     22  O   UNL     1      17.342  24.916  42.781  1.00  0.00    -0.507 OA
ATOM     23  H   UNL     1      16.404  24.540  42.699  1.00  0.00     0.293 HD
ENDBRANCH   6  22
BRANCH   8  24
ATOM     24  O   UNL     1      20.230  28.591  43.978  1.00  0.00    -0.508 OA
ATOM     25  H   UNL     1      20.763  29.021  44.724  1.00  0.00     0.293 HD
ENDBRANCH   8  24
TORSDOF 5
ENDMDL
MODEL 9
REMARK VINA RESULT:    -6.328     12.773     13.953
REMARK INTER + INTRA:          -7.327
REMARK INTER:                  -7.070
REMARK INTRA:                  -0.258
REMARK UNBOUND:                 0.111
REMARK SMILES O=c1c(O)c(-c2ccc(O)cc2)oc2cc(O)cc(O)c12
REMARK SMILES IDX 5 1 3 2 2 3 1 4 21 5 19 6 18 7 16 8 15 9 14 10 13 11 6 12
REMARK SMILES IDX 7 13 8 14 9 15 12 16 11 17 10 18 4 20 20 22 17 24
REMARK H PARENT 10 19 4 21 20 23 17 25
REMARK Flexibility Score: inf
ROOT
ATOM      1  C   UNL     1      18.547  25.625  41.051  1.00  0.00     0.180 A 
ATOM      2  C   UNL     1      19.336  26.508  41.813  1.00  0.00     0.208 A 
ATOM      3  C   UNL     1      18.904  26.864  43.101  1.00  0.00     0.238 A 
ATOM      4  O   UNL     1      19.596  27.663  43.788  1.00  0.00    -0.285 OA
ATOM      5  C   UNL     1      17.708  26.319  43.611  1.00  0.00     0.111 A 
ATOM      6  C   UNL     1      17.206  26.624  44.899  1.00  0.00     0.134 A 
ATOM      7  C   UNL     1      16.012  26.032  45.338  1.00  0.00     0.093 A 
ATOM      8  C   UNL     1      15.313  25.144  44.517  1.00  0.00     0.123 A 
ATOM      9  C   UNL     1      15.804  24.840  43.243  1.00  0.00     0.094 A 
ATOM     10  C   UNL     1      16.991  25.420  42.786  1.00  0.00     0.146 A 
ATOM     11  O   UNL     1      17.432  25.119  41.571  1.00  0.00    -0.452 OA
ENDROOT
BRANCH   1  12
ATOM     12  C   UNL     1      18.925  25.217  39.679  1.00  0.00     0.021 A 
ATOM     13  C   UNL     1      19.426  23.923  39.456  1.00  0.00     0.016 A 
ATOM     14  C   UNL     1      19.768  23.509  38.164  1.00  0.00     0.047 A 
ATOM     15  C   UNL     1      19.600  24.374  37.080  1.00  0.00     0.115 A 
ATOM     16  C   UNL     1      18.739  26.076  38.580  1.00  0.00     0.016 A 
ATOM     17  C   UNL     1      19.080  25.659  37.290  1.00  0.00     0.047 A 
BRANCH  15  18
ATOM     18  O   UNL     1      19.945  23.948  35.799  1.00  0.00    -0.508 OA
ATOM     19  H   UNL     1      19.886  22.972  35.533  1.00  0.00     0.293 HD
ENDBRANCH  15  18
ENDBRANCH   1  12
BRANCH   2  20
ATOM     20  O   UNL     1      20.543  26.996  41.304  1.00  0.00    -0.502 OA
ATOM     21  H   UNL     1      21.429  26.537  41.478  1.00  0.00     0.293 HD
ENDBRANCH   2  20
BRANCH   6  22
ATOM     22  O   UNL     1      17.882  27.505  45.743  1.00  0.00    -0.507 OA
ATOM     23  H   UNL     1      18.075  28.462  45.470  1.00  0.00     0.293 HD
ENDBRANCH   6  22
BRANCH   8  24
ATOM     24  O   UNL     1      14.130  24.570  44.976  1.00  0.00    -0.508 OA
ATOM     25  H   UNL     1      13.265  24.648  44.454  1.00  0.00     0.293 HD
ENDBRANCH   8  24
TORSDOF 5
ENDMDL
