MODEL 1
REMARK VINA RESULT:    -4.921      0.000      0.000
REMARK INTER + INTRA:          -9.064
REMARK INTER:                  -8.374
REMARK INTRA:                  -0.691
REMARK UNBOUND:                -0.691
REMARK SMILES CCCCCCCCCCCCCC(=O)[O-]
REMARK SMILES IDX 8 1 9 2 10 3 11 4 12 5 13 6 14 7 15 8 16 9 7 10 6 11 5 12
REMARK SMILES IDX 4 13 3 14 2 15 1 16
REMARK H PARENT
REMARK Flexibility Score: inf
ROOT
ATOM      1  C   UNL     1      -0.684   4.327  17.019  1.00  0.00     0.000 C 
ENDROOT
BRANCH   1   2
ATOM      2  C   UNL     1      -1.567   4.193  15.769  1.00  0.00     0.000 C 
BRANCH   2   3
ATOM      3  C   UNL     1      -2.737   3.216  15.970  1.00  0.00     0.000 C 
BRANCH   3   4
ATOM      4  C   UNL     1      -4.094   3.832  15.596  1.00  0.00     0.000 C 
BRANCH   4   5
ATOM      5  C   UNL     1      -4.317   5.156  16.335  1.00  0.00     0.006 C 
BRANCH   5   6
ATOM      6  C   UNL     1      -5.706   5.198  16.980  1.00  0.00     0.053 C 
BRANCH   6   7
ATOM      7  C   UNL     1      -6.008   6.572  17.489  1.00  0.00     0.041 C 
ATOM      8  O   UNL     1      -5.781   7.579  16.769  1.00  0.00    -0.550 OA
ATOM      9  O   UNL     1      -6.586   6.738  18.741  1.00  0.00    -0.550 OA
ENDBRANCH   6   7
ENDBRANCH   5   6
ENDBRANCH   4   5
ENDBRANCH   3   4
ENDBRANCH   2   3
ENDBRANCH   1   2
BRANCH   1  10
ATOM     10  C   UNL     1      -0.538   5.799  17.431  1.00  0.00     0.000 C 
BRANCH  10  11
ATOM     11  C   UNL     1      -0.112   5.965  18.898  1.00  0.00    -0.000 C 
BRANCH  11  12
ATOM     12  C   UNL     1       0.477   7.354  19.190  1.00  0.00    -0.000 C 
BRANCH  12  13
ATOM     13  C   UNL     1       0.329   7.713  20.674  1.00  0.00    -0.000 C 
BRANCH  13  14
ATOM     14  C   UNL     1       1.472   7.108  21.503  1.00  0.00    -0.000 C 
BRANCH  14  15
ATOM     15  C   UNL     1       0.981   6.484  22.818  1.00  0.00    -0.003 C 
ATOM     16  C   UNL     1      -0.528   6.628  23.014  1.00  0.00     0.004 C 
ENDBRANCH  14  15
ENDBRANCH  13  14
ENDBRANCH  12  13
ENDBRANCH  11  12
ENDBRANCH  10  11
ENDBRANCH   1  10
TORSDOF 12
ENDMDL
MODEL 2
REMARK VINA RESULT:    -4.849      2.121      2.995
REMARK INTER + INTRA:          -8.942
REMARK INTER:                  -8.259
REMARK INTRA:                  -0.683
REMARK UNBOUND:                -0.691
REMARK SMILES CCCCCCCCCCCCCC(=O)[O-]
REMARK SMILES IDX 8 1 9 2 10 3 11 4 12 5 13 6 14 7 15 8 16 9 7 10 6 11 5 12
REMARK SMILES IDX 4 13 3 14 2 15 1 16
REMARK H PARENT
REMARK Flexibility Score: inf
ROOT
ATOM      1  C   UNL     1       0.235   7.173  16.501  1.00  0.00     0.000 C 
ENDROOT
BRANCH   1   2
ATOM      2  C   UNL     1       0.527   5.746  16.988  1.00  0.00     0.000 C 
BRANCH   2   3
ATOM      3  C   UNL     1      -0.751   4.929  17.233  1.00  0.00     0.000 C 
BRANCH   3   4
ATOM      4  C   UNL     1      -1.249   4.214  15.967  1.00  0.00     0.000 C 
BRANCH   4   5
ATOM      5  C   UNL     1      -2.776   4.081  15.978  1.00  0.00     0.006 C 
BRANCH   5   6
ATOM      6  C   UNL     1      -3.209   2.767  16.637  1.00  0.00     0.053 C 
BRANCH   6   7
ATOM      7  C   UNL     1      -4.674   2.790  16.940  1.00  0.00     0.041 C 
ATOM      8  O   UNL     1      -5.322   1.714  17.012  1.00  0.00    -0.550 OA
ATOM      9  O   UNL     1      -5.313   3.997  17.193  1.00  0.00    -0.550 OA
ENDBRANCH   6   7
ENDBRANCH   5   6
ENDBRANCH   4   5
ENDBRANCH   3   4
ENDBRANCH   2   3
ENDBRANCH   1   2
BRANCH   1  10
ATOM     10  C   UNL     1       1.525   8.003  16.430  1.00  0.00     0.000 C 
BRANCH  10  11
ATOM     11  C   UNL     1       1.902   8.633  17.780  1.00  0.00    -0.000 C 
BRANCH  11  12
ATOM     12  C   UNL     1       0.760   8.563  18.804  1.00  0.00    -0.000 C 
BRANCH  12  13
ATOM     13  C   UNL     1       1.308   8.439  20.232  1.00  0.00    -0.000 C 
BRANCH  13  14
ATOM     14  C   UNL     1       1.068   7.030  20.792  1.00  0.00    -0.000 C 
BRANCH  14  15
ATOM     15  C   UNL     1      -0.352   6.851  21.352  1.00  0.00    -0.003 C 
ATOM     16  C   UNL     1      -0.366   6.583  22.857  1.00  0.00     0.004 C 
ENDBRANCH  14  15
ENDBRANCH  13  14
ENDBRANCH  12  13
ENDBRANCH  11  12
ENDBRANCH  10  11
ENDBRANCH   1  10
TORSDOF 12
ENDMDL
MODEL 3
REMARK VINA RESULT:    -4.713      2.073      3.448
REMARK INTER + INTRA:          -8.709
REMARK INTER:                  -7.842
REMARK INTRA:                  -0.867
REMARK UNBOUND:                -0.691
REMARK SMILES CCCCCCCCCCCCCC(=O)[O-]
REMARK SMILES IDX 8 1 9 2 10 3 11 4 12 5 13 6 14 7 15 8 16 9 7 10 6 11 5 12
REMARK SMILES IDX 4 13 3 14 2 15 1 16
REMARK H PARENT
REMARK Flexibility Score: inf
ROOT
ATOM      1  C   UNL     1      -0.094   5.225  18.172  1.00  0.00     0.000 C 
ENDROOT
BRANCH   1   2
ATOM      2  C   UNL     1      -0.677   5.435  16.767  1.00  0.00     0.000 C 
BRANCH   2   3
ATOM      3  C   UNL     1      -1.093   4.117  16.094  1.00  0.00     0.000 C 
BRANCH   3   4
ATOM      4  C   UNL     1      -2.601   3.844  16.208  1.00  0.00     0.000 C 
BRANCH   4   5
ATOM      5  C   UNL     1      -3.414   5.038  15.693  1.00  0.00     0.006 C 
BRANCH   5   6
ATOM      6  C   UNL     1      -4.410   5.521  16.752  1.00  0.00     0.053 C 
BRANCH   6   7
ATOM      7  C   UNL     1      -5.814   5.231  16.323  1.00  0.00     0.041 C 
ATOM      8  O   UNL     1      -6.100   4.122  15.801  1.00  0.00    -0.550 OA
ATOM      9  O   UNL     1      -6.817   6.166  16.546  1.00  0.00    -0.550 OA
ENDBRANCH   6   7
ENDBRANCH   5   6
ENDBRANCH   4   5
ENDBRANCH   3   4
ENDBRANCH   2   3
ENDBRANCH   1   2
BRANCH   1  10
ATOM     10  C   UNL     1      -0.505   6.368  19.113  1.00  0.00     0.000 C 
BRANCH  10  11
ATOM     11  C   UNL     1       0.650   6.847  20.006  1.00  0.00    -0.000 C 
BRANCH  11  12
ATOM     12  C   UNL     1       1.078   8.289  19.697  1.00  0.00    -0.000 C 
BRANCH  12  13
ATOM     13  C   UNL     1       0.877   8.616  18.211  1.00  0.00    -0.000 C 
BRANCH  13  14
ATOM     14  C   UNL     1       2.215   8.950  17.535  1.00  0.00    -0.000 C 
BRANCH  14  15
ATOM     15  C   UNL     1       2.034   9.699  16.206  1.00  0.00    -0.003 C 
ATOM     16  C   UNL     1       0.642   9.507  15.603  1.00  0.00     0.004 C 
ENDBRANCH  14  15
ENDBRANCH  13  14
ENDBRANCH  12  13
ENDBRANCH  11  12
ENDBRANCH  10  11
ENDBRANCH   1  10
TORSDOF 12
ENDMDL
MODEL 4
REMARK VINA RESULT:    -4.711      4.681      7.858
REMARK INTER + INTRA:          -8.707
REMARK INTER:                  -7.134
REMARK INTRA:                  -1.573
REMARK UNBOUND:                -0.691
REMARK SMILES CCCCCCCCCCCCCC(=O)[O-]
REMARK SMILES IDX 8 1 9 2 10 3 11 4 12 5 13 6 14 7 15 8 16 9 7 10 6 11 5 12
REMARK SMILES IDX 4 13 3 14 2 15 1 16
REMARK H PARENT
REMARK Flexibility Score: inf
ROOT
ATOM      1  C   UNL     1      -6.592   7.238  17.568  1.00  0.00     0.000 C 
ENDROOT
BRANCH   1   2
ATOM      2  C   UNL     1      -5.755   6.021  17.991  1.00  0.00     0.000 C 
BRANCH   2   3
ATOM      3  C   UNL     1      -5.027   5.362  16.809  1.00  0.00     0.000 C 
BRANCH   3   4
ATOM      4  C   UNL     1      -5.413   3.887  16.622  1.00  0.00     0.000 C 
BRANCH   4   5
ATOM      5  C   UNL     1      -4.168   2.992  16.609  1.00  0.00     0.006 C 
BRANCH   5   6
ATOM      6  C   UNL     1      -3.110   3.536  15.644  1.00  0.00     0.053 C 
BRANCH   6   7
ATOM      7  C   UNL     1      -1.744   3.421  16.243  1.00  0.00     0.041 C 
ATOM      8  O   UNL     1      -0.834   4.222  15.906  1.00  0.00    -0.550 OA
ATOM      9  O   UNL     1      -1.490   2.459  17.212  1.00  0.00    -0.550 OA
ENDBRANCH   6   7
ENDBRANCH   5   6
ENDBRANCH   4   5
ENDBRANCH   3   4
ENDBRANCH   2   3
ENDBRANCH   1   2
BRANCH   1  10
ATOM     10  C   UNL     1      -6.263   7.656  16.127  1.00  0.00     0.000 C 
BRANCH  10  11
ATOM     11  C   UNL     1      -7.490   7.623  15.204  1.00  0.00    -0.000 C 
BRANCH  11  12
ATOM     12  C   UNL     1      -8.344   6.362  15.400  1.00  0.00    -0.000 C 
BRANCH  12  13
ATOM     13  C   UNL     1      -8.672   5.705  14.052  1.00  0.00    -0.000 C 
BRANCH  13  14
ATOM     14  C   UNL     1      -7.737   4.520  13.776  1.00  0.00    -0.000 C 
BRANCH  14  15
ATOM     15  C   UNL     1      -6.535   4.907  12.900  1.00  0.00    -0.003 C 
ATOM     16  C   UNL     1      -5.491   3.795  12.803  1.00  0.00     0.004 C 
ENDBRANCH  14  15
ENDBRANCH  13  14
ENDBRANCH  12  13
ENDBRANCH  11  12
ENDBRANCH  10  11
ENDBRANCH   1  10
TORSDOF 12
ENDMDL
MODEL 5
REMARK VINA RESULT:    -4.649      4.954      8.014
REMARK INTER + INTRA:          -8.601
REMARK INTER:                  -6.778
REMARK INTRA:                  -1.822
REMARK UNBOUND:                -0.691
REMARK SMILES CCCCCCCCCCCCCC(=O)[O-]
REMARK SMILES IDX 8 1 9 2 10 3 11 4 12 5 13 6 14 7 15 8 16 9 7 10 6 11 5 12
REMARK SMILES IDX 4 13 3 14 2 15 1 16
REMARK H PARENT
REMARK Flexibility Score: inf
ROOT
ATOM      1  C   UNL     1      -4.970   7.427  14.675  1.00  0.00     0.000 C 
ENDROOT
BRANCH   1   2
ATOM      2  C   UNL     1      -4.436   6.054  15.111  1.00  0.00     0.000 C 
BRANCH   2   3
ATOM      3  C   UNL     1      -4.700   5.758  16.595  1.00  0.00     0.000 C 
BRANCH   3   4
ATOM      4  C   UNL     1      -5.471   4.447  16.810  1.00  0.00     0.000 C 
BRANCH   4   5
ATOM      5  C   UNL     1      -4.834   3.301  16.015  1.00  0.00     0.006 C 
BRANCH   5   6
ATOM      6  C   UNL     1      -3.840   2.519  16.879  1.00  0.00     0.053 C 
BRANCH   6   7
ATOM      7  C   UNL     1      -2.440   2.745  16.402  1.00  0.00     0.041 C 
ATOM      8  O   UNL     1      -2.225   3.433  15.370  1.00  0.00    -0.550 OA
ATOM      9  O   UNL     1      -1.368   2.239  17.127  1.00  0.00    -0.550 OA
ENDBRANCH   6   7
ENDBRANCH   5   6
ENDBRANCH   4   5
ENDBRANCH   3   4
ENDBRANCH   2   3
ENDBRANCH   1   2
BRANCH   1  10
ATOM     10  C   UNL     1      -6.356   7.694  15.282  1.00  0.00     0.000 C 
BRANCH  10  11
ATOM     11  C   UNL     1      -7.501   7.176  14.397  1.00  0.00    -0.000 C 
BRANCH  11  12
ATOM     12  C   UNL     1      -8.104   5.863  14.919  1.00  0.00    -0.000 C 
BRANCH  12  13
ATOM     13  C   UNL     1      -8.136   4.796  13.816  1.00  0.00    -0.000 C 
BRANCH  13  14
ATOM     14  C   UNL     1      -7.724   5.393  12.462  1.00  0.00    -0.000 C 
BRANCH  14  15
ATOM     15  C   UNL     1      -6.809   4.457  11.658  1.00  0.00    -0.003 C 
ATOM     16  C   UNL     1      -5.654   3.899  12.491  1.00  0.00     0.004 C 
ENDBRANCH  14  15
ENDBRANCH  13  14
ENDBRANCH  12  13
ENDBRANCH  11  12
ENDBRANCH  10  11
ENDBRANCH   1  10
TORSDOF 12
ENDMDL
MODEL 6
REMARK VINA RESULT:    -4.642      2.958      6.759
REMARK INTER + INTRA:          -8.590
REMARK INTER:                  -7.805
REMARK INTRA:                  -0.785
REMARK UNBOUND:                -0.691
REMARK SMILES CCCCCCCCCCCCCC(=O)[O-]
REMARK SMILES IDX 8 1 9 2 10 3 11 4 12 5 13 6 14 7 15 8 16 9 7 10 6 11 5 12
REMARK SMILES IDX 4 13 3 14 2 15 1 16
REMARK H PARENT
REMARK Flexibility Score: inf
ROOT
ATOM      1  C   UNL     1      -2.623   3.441  15.619  1.00  0.00     0.000 C 
ENDROOT
BRANCH   1   2
ATOM      2  C   UNL     1      -1.325   3.866  16.321  1.00  0.00     0.000 C 
BRANCH   2   3
ATOM      3  C   UNL     1      -1.463   5.204  17.065  1.00  0.00     0.000 C 
BRANCH   3   4
ATOM      4  C   UNL     1      -0.106   5.861  17.359  1.00  0.00     0.000 C 
BRANCH   4   5
ATOM      5  C   UNL     1       0.265   5.715  18.840  1.00  0.00     0.006 C 
BRANCH   5   6
ATOM      6  C   UNL     1      -0.098   6.980  19.624  1.00  0.00     0.053 C 
BRANCH   6   7
ATOM      7  C   UNL     1       0.341   6.858  21.049  1.00  0.00     0.041 C 
ATOM      8  O   UNL     1       1.566   6.881  21.339  1.00  0.00    -0.550 OA
ATOM      9  O   UNL     1      -0.604   6.770  22.063  1.00  0.00    -0.550 OA
ENDBRANCH   6   7
ENDBRANCH   5   6
ENDBRANCH   4   5
ENDBRANCH   3   4
ENDBRANCH   2   3
ENDBRANCH   1   2
BRANCH   1  10
ATOM     10  C   UNL     1      -3.665   2.958  16.640  1.00  0.00     0.000 C 
BRANCH  10  11
ATOM     11  C   UNL     1      -5.103   3.325  16.239  1.00  0.00    -0.000 C 
BRANCH  11  12
ATOM     12  C   UNL     1      -5.250   4.803  15.849  1.00  0.00    -0.000 C 
BRANCH  12  13
ATOM     13  C   UNL     1      -5.026   5.716  17.062  1.00  0.00    -0.000 C 
BRANCH  13  14
ATOM     14  C   UNL     1      -6.319   6.447  17.447  1.00  0.00    -0.000 C 
BRANCH  14  15
ATOM     15  C   UNL     1      -7.016   7.091  16.239  1.00  0.00    -0.003 C 
ATOM     16  C   UNL     1      -8.484   6.683  16.116  1.00  0.00     0.004 C 
ENDBRANCH  14  15
ENDBRANCH  13  14
ENDBRANCH  12  13
ENDBRANCH  11  12
ENDBRANCH  10  11
ENDBRANCH   1  10
TORSDOF 12
ENDMDL
MODEL 7
REMARK VINA RESULT:    -4.637      4.630      7.300
REMARK INTER + INTRA:          -8.581
REMARK INTER:                  -6.932
REMARK INTRA:                  -1.649
REMARK UNBOUND:                -0.691
REMARK SMILES CCCCCCCCCCCCCC(=O)[O-]
REMARK SMILES IDX 8 1 9 2 10 3 11 4 12 5 13 6 14 7 15 8 16 9 7 10 6 11 5 12
REMARK SMILES IDX 4 13 3 14 2 15 1 16
REMARK H PARENT
REMARK Flexibility Score: inf
ROOT
ATOM      1  C   UNL     1      -6.129   4.734  12.107  1.00  0.00     0.000 C 
ENDROOT
BRANCH   1   2
ATOM      2  C   UNL     1      -5.377   3.734  12.997  1.00  0.00     0.000 C 
BRANCH   2   3
ATOM      3  C   UNL     1      -4.913   4.353  14.325  1.00  0.00     0.000 C 
BRANCH   3   4
ATOM      4  C   UNL     1      -5.338   3.523  15.546  1.00  0.00     0.000 C 
BRANCH   4   5
ATOM      5  C   UNL     1      -4.131   3.196  16.433  1.00  0.00     0.006 C 
BRANCH   5   6
ATOM      6  C   UNL     1      -2.817   3.494  15.704  1.00  0.00     0.053 C 
BRANCH   6   7
ATOM      7  C   UNL     1      -1.649   3.247  16.606  1.00  0.00     0.041 C 
ATOM      8  O   UNL     1      -1.496   2.123  17.152  1.00  0.00    -0.550 OA
ATOM      9  O   UNL     1      -0.700   4.242  16.804  1.00  0.00    -0.550 OA
ENDBRANCH   6   7
ENDBRANCH   5   6
ENDBRANCH   4   5
ENDBRANCH   3   4
ENDBRANCH   2   3
ENDBRANCH   1   2
BRANCH   1  10
ATOM     10  C   UNL     1      -7.612   4.810  12.500  1.00  0.00     0.000 C 
BRANCH  10  11
ATOM     11  C   UNL     1      -7.944   6.057  13.333  1.00  0.00    -0.000 C 
BRANCH  11  12
ATOM     12  C   UNL     1      -8.710   5.723  14.621  1.00  0.00    -0.000 C 
BRANCH  12  13
ATOM     13  C   UNL     1      -8.089   6.433  15.831  1.00  0.00    -0.000 C 
BRANCH  13  14
ATOM     14  C   UNL     1      -6.904   7.311  15.404  1.00  0.00    -0.000 C 
BRANCH  14  15
ATOM     15  C   UNL     1      -5.787   7.349  16.459  1.00  0.00    -0.003 C 
ATOM     16  C   UNL     1      -6.067   6.432  17.650  1.00  0.00     0.004 C 
ENDBRANCH  14  15
ENDBRANCH  13  14
ENDBRANCH  12  13
ENDBRANCH  11  12
ENDBRANCH  10  11
ENDBRANCH   1  10
TORSDOF 12
ENDMDL
MODEL 8
REMARK VINA RESULT:    -4.586      5.447      8.353
REMARK INTER + INTRA:          -8.493
REMARK INTER:                  -6.346
REMARK INTRA:                  -2.147
REMARK UNBOUND:                -0.691
REMARK SMILES CCCCCCCCCCCCCC(=O)[O-]
REMARK SMILES IDX 8 1 9 2 10 3 11 4 12 5 13 6 14 7 15 8 16 9 7 10 6 11 5 12
REMARK SMILES IDX 4 13 3 14 2 15 1 16
REMARK H PARENT
REMARK Flexibility Score: inf
ROOT
ATOM      1  C   UNL     1      -7.488   7.512  15.123  1.00  0.00     0.000 C 
ENDROOT
BRANCH   1   2
ATOM      2  C   UNL     1      -5.957   7.487  15.254  1.00  0.00     0.000 C 
BRANCH   2   3
ATOM      3  C   UNL     1      -5.432   6.161  15.827  1.00  0.00     0.000 C 
BRANCH   3   4
ATOM      4  C   UNL     1      -4.174   5.659  15.103  1.00  0.00     0.000 C 
BRANCH   4   5
ATOM      5  C   UNL     1      -4.273   4.158  14.808  1.00  0.00     0.006 C 
BRANCH   5   6
ATOM      6  C   UNL     1      -5.288   3.482  15.735  1.00  0.00     0.053 C 
BRANCH   6   7
ATOM      7  C   UNL     1      -4.591   2.594  16.718  1.00  0.00     0.041 C 
ATOM      8  O   UNL     1      -5.254   1.809  17.444  1.00  0.00    -0.550 OA
ATOM      9  O   UNL     1      -3.204   2.597  16.795  1.00  0.00    -0.550 OA
ENDBRANCH   6   7
ENDBRANCH   5   6
ENDBRANCH   4   5
ENDBRANCH   3   4
ENDBRANCH   2   3
ENDBRANCH   1   2
BRANCH   1  10
ATOM     10  C   UNL     1      -8.092   6.148  15.487  1.00  0.00     0.000 C 
BRANCH  10  11
ATOM     11  C   UNL     1      -8.996   5.584  14.381  1.00  0.00    -0.000 C 
BRANCH  11  12
ATOM     12  C   UNL     1      -8.282   5.485  13.025  1.00  0.00    -0.000 C 
BRANCH  12  13
ATOM     13  C   UNL     1      -7.534   4.152  12.894  1.00  0.00    -0.000 C 
BRANCH  13  14
ATOM     14  C   UNL     1      -6.363   4.273  11.907  1.00  0.00    -0.000 C 
BRANCH  14  15
ATOM     15  C   UNL     1      -6.289   5.657  11.246  1.00  0.00    -0.003 C 
ATOM     16  C   UNL     1      -4.995   6.402  11.576  1.00  0.00     0.004 C 
ENDBRANCH  14  15
ENDBRANCH  13  14
ENDBRANCH  12  13
ENDBRANCH  11  12
ENDBRANCH  10  11
ENDBRANCH   1  10
TORSDOF 12
ENDMDL
MODEL 9
REMARK VINA RESULT:    -4.574      4.590      7.998
REMARK INTER + INTRA:          -8.474
REMARK INTER:                  -6.805
REMARK INTRA:                  -1.669
REMARK UNBOUND:                -0.691
REMARK SMILES CCCCCCCCCCCCCC(=O)[O-]
REMARK SMILES IDX 8 1 9 2 10 3 11 4 12 5 13 6 14 7 15 8 16 9 7 10 6 11 5 12
REMARK SMILES IDX 4 13 3 14 2 15 1 16
REMARK H PARENT
REMARK Flexibility Score: inf
ROOT
ATOM      1  C   UNL     1      -5.791   6.121  17.130  1.00  0.00     0.000 C 
ENDROOT
BRANCH   1   2
ATOM      2  C   UNL     1      -4.926   6.367  15.885  1.00  0.00     0.000 C 
BRANCH   2   3
ATOM      3  C   UNL     1      -4.375   5.067  15.277  1.00  0.00     0.000 C 
BRANCH   3   4
ATOM      4  C   UNL     1      -5.045   3.812  15.857  1.00  0.00     0.000 C 
BRANCH   4   5
ATOM      5  C   UNL     1      -4.029   2.947  16.612  1.00  0.00     0.006 C 
BRANCH   5   6
ATOM      6  C   UNL     1      -2.657   2.991  15.931  1.00  0.00     0.053 C 
BRANCH   6   7
ATOM      7  C   UNL     1      -1.563   2.907  16.948  1.00  0.00     0.041 C 
ATOM      8  O   UNL     1      -1.301   1.810  17.507  1.00  0.00    -0.550 OA
ATOM      9  O   UNL     1      -0.800   4.029  17.243  1.00  0.00    -0.550 OA
ENDBRANCH   6   7
ENDBRANCH   5   6
ENDBRANCH   4   5
ENDBRANCH   3   4
ENDBRANCH   2   3
ENDBRANCH   1   2
BRANCH   1  10
ATOM     10  C   UNL     1      -7.126   6.874  17.027  1.00  0.00     0.000 C 
BRANCH  10  11
ATOM     11  C   UNL     1      -7.577   7.089  15.574  1.00  0.00    -0.000 C 
BRANCH  11  12
ATOM     12  C   UNL     1      -8.398   5.912  15.029  1.00  0.00    -0.000 C 
BRANCH  12  13
ATOM     13  C   UNL     1      -8.124   5.696  13.535  1.00  0.00    -0.000 C 
BRANCH  13  14
ATOM     14  C   UNL     1      -7.680   4.252  13.260  1.00  0.00    -0.000 C 
BRANCH  14  15
ATOM     15  C   UNL     1      -6.434   4.177  12.365  1.00  0.00    -0.003 C 
ATOM     16  C   UNL     1      -5.931   5.556  11.936  1.00  0.00     0.004 C 
ENDBRANCH  14  15
ENDBRANCH  13  14
ENDBRANCH  12  13
ENDBRANCH  11  12
ENDBRANCH  10  11
ENDBRANCH   1  10
TORSDOF 12
ENDMDL
