MODEL 1
REMARK VINA RESULT:    -5.260      0.000      0.000
REMARK INTER + INTRA:         -17.740
REMARK INTER:                 -13.871
REMARK INTRA:                  -3.868
REMARK UNBOUND:                -3.868
REMARK SMILES CCCCCCCCCCCCCCCCCCCCCCCCCCCCCC(=O)[O-]
REMARK SMILES IDX 16 1 17 2 18 3 19 4 20 5 21 6 22 7 23 8 24 9 25 10 26 11
REMARK SMILES IDX 27 12 28 13 29 14 30 15 31 16 32 17 15 18 14 19 13 20 12 21
REMARK SMILES IDX 11 22 10 23 9 24 8 25 7 26 6 27 5 28 4 29 3 30 2 31 1 32
REMARK H PARENT
REMARK Flexibility Score: inf
ROOT
ATOM      1  C   UNL     1     132.524 137.242 137.343  1.00  0.00     0.000 C 
ENDROOT
BRANCH   1   2
ATOM      2  C   UNL     1     131.786 136.522 138.482  1.00  0.00     0.000 C 
BRANCH   2   3
ATOM      3  C   UNL     1     131.996 134.999 138.456  1.00  0.00     0.000 C 
BRANCH   3   4
ATOM      4  C   UNL     1     133.320 134.572 139.115  1.00  0.00     0.000 C 
BRANCH   4   5
ATOM      5  C   UNL     1     133.312 134.766 140.639  1.00  0.00     0.000 C 
BRANCH   5   6
ATOM      6  C   UNL     1     134.526 135.568 141.141  1.00  0.00     0.000 C 
BRANCH   6   7
ATOM      7  C   UNL     1     135.670 135.615 140.116  1.00  0.00     0.000 C 
BRANCH   7   8
ATOM      8  C   UNL     1     136.810 136.555 140.535  1.00  0.00     0.000 C 
BRANCH   8   9
ATOM      9  C   UNL     1     137.501 137.159 139.303  1.00  0.00     0.000 C 
BRANCH   9  10
ATOM     10  C   UNL     1     138.822 136.451 138.957  1.00  0.00     0.000 C 
BRANCH  10  11
ATOM     11  C   UNL     1     139.784 136.386 140.158  1.00  0.00     0.000 C 
BRANCH  11  12
ATOM     12  C   UNL     1     140.740 135.185 140.084  1.00  0.00     0.000 C 
BRANCH  12  13
ATOM     13  C   UNL     1     140.434 134.257 138.895  1.00  0.00     0.006 C 
BRANCH  13  14
ATOM     14  C   UNL     1     139.848 132.912 139.347  1.00  0.00     0.053 C 
BRANCH  14  15
ATOM     15  C   UNL     1     138.378 133.008 139.622  1.00  0.00     0.041 C 
ATOM     16  O   UNL     1     137.550 132.924 138.677  1.00  0.00    -0.550 OA
ATOM     17  O   UNL     1     137.924 133.227 140.916  1.00  0.00    -0.550 OA
ENDBRANCH  14  15
ENDBRANCH  13  14
ENDBRANCH  12  13
ENDBRANCH  11  12
ENDBRANCH  10  11
ENDBRANCH   9  10
ENDBRANCH   8   9
ENDBRANCH   7   8
ENDBRANCH   6   7
ENDBRANCH   5   6
ENDBRANCH   4   5
ENDBRANCH   3   4
ENDBRANCH   2   3
ENDBRANCH   1   2
BRANCH   1  18
ATOM     18  C   UNL     1     133.666 138.112 137.893  1.00  0.00     0.000 C 
BRANCH  18  19
ATOM     19  C   UNL     1     133.495 138.478 139.381  1.00  0.00     0.000 C 
BRANCH  19  20
ATOM     20  C   UNL     1     134.612 139.352 139.989  1.00  0.00     0.000 C 
BRANCH  20  21
ATOM     21  C   UNL     1     134.440 139.676 141.485  1.00  0.00     0.000 C 
BRANCH  21  22
ATOM     22  C   UNL     1     133.045 140.219 141.844  1.00  0.00     0.000 C 
BRANCH  22  23
ATOM     23  C   UNL     1     132.691 141.505 141.080  1.00  0.00     0.000 C 
BRANCH  23  24
ATOM     24  C   UNL     1     131.184 141.629 140.794  1.00  0.00    -0.000 C 
BRANCH  24  25
ATOM     25  C   UNL     1     130.852 141.425 139.307  1.00  0.00    -0.000 C 
BRANCH  25  26
ATOM     26  C   UNL     1     129.856 140.275 139.073  1.00  0.00    -0.000 C 
BRANCH  26  27
ATOM     27  C   UNL     1     128.395 140.768 139.013  1.00  0.00    -0.000 C 
BRANCH  27  28
ATOM     28  C   UNL     1     128.259 142.298 138.918  1.00  0.00    -0.000 C 
BRANCH  28  29
ATOM     29  C   UNL     1     127.537 142.908 140.127  1.00  0.00    -0.000 C 
BRANCH  29  30
ATOM     30  C   UNL     1     126.156 143.452 139.729  1.00  0.00    -0.000 C 
BRANCH  30  31
ATOM     31  C   UNL     1     126.043 144.974 139.913  1.00  0.00    -0.003 C 
ATOM     32  C   UNL     1     125.982 145.729 138.585  1.00  0.00     0.004 C 
ENDBRANCH  30  31
ENDBRANCH  29  30
ENDBRANCH  28  29
ENDBRANCH  27  28
ENDBRANCH  26  27
ENDBRANCH  25  26
ENDBRANCH  24  25
ENDBRANCH  23  24
ENDBRANCH  22  23
ENDBRANCH  21  22
ENDBRANCH  20  21
ENDBRANCH  19  20
ENDBRANCH  18  19
ENDBRANCH   1  18
TORSDOF 28
ENDMDL
MODEL 2
REMARK VINA RESULT:    -5.137      3.295     11.326
REMARK INTER + INTRA:         -17.413
REMARK INTER:                 -14.636
REMARK INTRA:                  -2.777
REMARK UNBOUND:                -3.868
REMARK SMILES CCCCCCCCCCCCCCCCCCCCCCCCCCCCCC(=O)[O-]
REMARK SMILES IDX 16 1 17 2 18 3 19 4 20 5 21 6 22 7 23 8 24 9 25 10 26 11
REMARK SMILES IDX 27 12 28 13 29 14 30 15 31 16 32 17 15 18 14 19 13 20 12 21
REMARK SMILES IDX 11 22 10 23 9 24 8 25 7 26 6 27 5 28 4 29 3 30 2 31 1 32
REMARK H PARENT
REMARK Flexibility Score: inf
ROOT
ATOM      1  C   UNL     1     130.928 141.215 138.849  1.00  0.00     0.000 C 
ENDROOT
BRANCH   1   2
ATOM      2  C   UNL     1     129.504 141.783 138.960  1.00  0.00     0.000 C 
BRANCH   2   3
ATOM      3  C   UNL     1     128.843 141.468 140.312  1.00  0.00     0.000 C 
BRANCH   3   4
ATOM      4  C   UNL     1     128.262 142.720 140.993  1.00  0.00     0.000 C 
BRANCH   4   5
ATOM      5  C   UNL     1     126.840 143.048 140.516  1.00  0.00     0.000 C 
BRANCH   5   6
ATOM      6  C   UNL     1     126.734 144.448 139.884  1.00  0.00     0.000 C 
BRANCH   6   7
ATOM      7  C   UNL     1     126.111 144.418 138.479  1.00  0.00     0.000 C 
BRANCH   7   8
ATOM      8  C   UNL     1     126.283 143.063 137.777  1.00  0.00     0.000 C 
BRANCH   8   9
ATOM      9  C   UNL     1     125.876 143.158 136.299  1.00  0.00     0.000 C 
BRANCH   9  10
ATOM     10  C   UNL     1     125.263 141.852 135.767  1.00  0.00     0.000 C 
BRANCH  10  11
ATOM     11  C   UNL     1     125.425 140.683 136.756  1.00  0.00     0.000 C 
BRANCH  11  12
ATOM     12  C   UNL     1     125.477 139.317 136.052  1.00  0.00     0.000 C 
BRANCH  12  13
ATOM     13  C   UNL     1     126.494 138.359 136.695  1.00  0.00     0.006 C 
BRANCH  13  14
ATOM     14  C   UNL     1     127.757 139.090 137.172  1.00  0.00     0.053 C 
BRANCH  14  15
ATOM     15  C   UNL     1     128.492 138.311 138.220  1.00  0.00     0.041 C 
ATOM     16  O   UNL     1     129.687 137.963 138.030  1.00  0.00    -0.550 OA
ATOM     17  O   UNL     1     127.846 137.936 139.390  1.00  0.00    -0.550 OA
ENDBRANCH  14  15
ENDBRANCH  13  14
ENDBRANCH  12  13
ENDBRANCH  11  12
ENDBRANCH  10  11
ENDBRANCH   9  10
ENDBRANCH   8   9
ENDBRANCH   7   8
ENDBRANCH   6   7
ENDBRANCH   5   6
ENDBRANCH   4   5
ENDBRANCH   3   4
ENDBRANCH   2   3
ENDBRANCH   1   2
BRANCH   1  18
ATOM     18  C   UNL     1     131.647 141.269 140.206  1.00  0.00     0.000 C 
BRANCH  18  19
ATOM     19  C   UNL     1     132.816 140.271 140.320  1.00  0.00     0.000 C 
BRANCH  19  20
ATOM     20  C   UNL     1     133.604 140.310 141.647  1.00  0.00     0.000 C 
BRANCH  20  21
ATOM     21  C   UNL     1     134.507 141.544 141.827  1.00  0.00     0.000 C 
BRANCH  21  22
ATOM     22  C   UNL     1     135.987 141.197 142.077  1.00  0.00     0.000 C 
BRANCH  22  23
ATOM     23  C   UNL     1     136.617 140.405 140.920  1.00  0.00     0.000 C 
BRANCH  23  24
ATOM     24  C   UNL     1     137.023 138.979 141.331  1.00  0.00    -0.000 C 
BRANCH  24  25
ATOM     25  C   UNL     1     136.657 137.935 140.263  1.00  0.00    -0.000 C 
BRANCH  25  26
ATOM     26  C   UNL     1     137.880 137.152 139.756  1.00  0.00    -0.000 C 
BRANCH  26  27
ATOM     27  C   UNL     1     138.845 136.768 140.897  1.00  0.00    -0.000 C 
BRANCH  27  28
ATOM     28  C   UNL     1     140.119 136.050 140.418  1.00  0.00    -0.000 C 
BRANCH  28  29
ATOM     29  C   UNL     1     139.985 134.522 140.436  1.00  0.00    -0.000 C 
BRANCH  29  30
ATOM     30  C   UNL     1     140.496 133.906 139.124  1.00  0.00    -0.000 C 
BRANCH  30  31
ATOM     31  C   UNL     1     139.361 133.586 138.138  1.00  0.00    -0.003 C 
ATOM     32  C   UNL     1     138.030 133.307 138.837  1.00  0.00     0.004 C 
ENDBRANCH  30  31
ENDBRANCH  29  30
ENDBRANCH  28  29
ENDBRANCH  27  28
ENDBRANCH  26  27
ENDBRANCH  25  26
ENDBRANCH  24  25
ENDBRANCH  23  24
ENDBRANCH  22  23
ENDBRANCH  21  22
ENDBRANCH  20  21
ENDBRANCH  19  20
ENDBRANCH  18  19
ENDBRANCH   1  18
TORSDOF 28
ENDMDL
MODEL 3
REMARK VINA RESULT:    -5.049      2.311      4.343
REMARK INTER + INTRA:         -17.181
REMARK INTER:                 -11.525
REMARK INTRA:                  -5.656
REMARK UNBOUND:                -3.868
REMARK SMILES CCCCCCCCCCCCCCCCCCCCCCCCCCCCCC(=O)[O-]
REMARK SMILES IDX 16 1 17 2 18 3 19 4 20 5 21 6 22 7 23 8 24 9 25 10 26 11
REMARK SMILES IDX 27 12 28 13 29 14 30 15 31 16 32 17 15 18 14 19 13 20 12 21
REMARK SMILES IDX 11 22 10 23 9 24 8 25 7 26 6 27 5 28 4 29 3 30 2 31 1 32
REMARK H PARENT
REMARK Flexibility Score: inf
ROOT
ATOM      1  C   UNL     1     132.669 133.310 138.737  1.00  0.00     0.000 C 
ENDROOT
BRANCH   1   2
ATOM      2  C   UNL     1     132.177 134.652 138.174  1.00  0.00     0.000 C 
BRANCH   2   3
ATOM      3  C   UNL     1     132.878 135.859 138.819  1.00  0.00     0.000 C 
BRANCH   3   4
ATOM      4  C   UNL     1     133.711 135.471 140.053  1.00  0.00     0.000 C 
BRANCH   4   5
ATOM      5  C   UNL     1     133.471 136.405 141.248  1.00  0.00     0.000 C 
BRANCH   5   6
ATOM      6  C   UNL     1     132.737 137.698 140.852  1.00  0.00     0.000 C 
BRANCH   6   7
ATOM      7  C   UNL     1     133.668 138.921 140.812  1.00  0.00     0.000 C 
BRANCH   7   8
ATOM      8  C   UNL     1     134.298 139.148 139.430  1.00  0.00     0.000 C 
BRANCH   8   9
ATOM      9  C   UNL     1     135.831 139.177 139.527  1.00  0.00     0.000 C 
BRANCH   9  10
ATOM     10  C   UNL     1     136.349 138.661 140.880  1.00  0.00     0.000 C 
BRANCH  10  11
ATOM     11  C   UNL     1     137.598 137.774 140.730  1.00  0.00     0.000 C 
BRANCH  11  12
ATOM     12  C   UNL     1     137.735 137.181 139.318  1.00  0.00     0.000 C 
BRANCH  12  13
ATOM     13  C   UNL     1     138.213 135.719 139.335  1.00  0.00     0.006 C 
BRANCH  13  14
ATOM     14  C   UNL     1     139.546 135.537 138.595  1.00  0.00     0.053 C 
BRANCH  14  15
ATOM     15  C   UNL     1     139.721 134.134 138.097  1.00  0.00     0.041 C 
ATOM     16  O   UNL     1     139.243 133.793 136.984  1.00  0.00    -0.550 OA
ATOM     17  O   UNL     1     140.381 133.196 138.878  1.00  0.00    -0.550 OA
ENDBRANCH  14  15
ENDBRANCH  13  14
ENDBRANCH  12  13
ENDBRANCH  11  12
ENDBRANCH  10  11
ENDBRANCH   9  10
ENDBRANCH   8   9
ENDBRANCH   7   8
ENDBRANCH   6   7
ENDBRANCH   5   6
ENDBRANCH   4   5
ENDBRANCH   3   4
ENDBRANCH   2   3
ENDBRANCH   1   2
BRANCH   1  18
ATOM     18  C   UNL     1     131.493 132.469 139.258  1.00  0.00     0.000 C 
BRANCH  18  19
ATOM     19  C   UNL     1     131.563 132.190 140.772  1.00  0.00     0.000 C 
BRANCH  19  20
ATOM     20  C   UNL     1     130.757 133.152 141.671  1.00  0.00     0.000 C 
BRANCH  20  21
ATOM     21  C   UNL     1     129.890 134.174 140.911  1.00  0.00     0.000 C 
BRANCH  21  22
ATOM     22  C   UNL     1     129.915 135.585 141.527  1.00  0.00     0.000 C 
BRANCH  22  23
ATOM     23  C   UNL     1     129.021 136.582 140.771  1.00  0.00     0.000 C 
BRANCH  23  24
ATOM     24  C   UNL     1     129.354 136.655 139.271  1.00  0.00    -0.000 C 
BRANCH  24  25
ATOM     25  C   UNL     1     128.387 137.569 138.500  1.00  0.00    -0.000 C 
BRANCH  25  26
ATOM     26  C   UNL     1     129.117 138.615 137.640  1.00  0.00    -0.000 C 
BRANCH  26  27
ATOM     27  C   UNL     1     130.571 138.843 138.103  1.00  0.00    -0.000 C 
BRANCH  27  28
ATOM     28  C   UNL     1     130.976 140.326 138.175  1.00  0.00    -0.000 C 
BRANCH  28  29
ATOM     29  C   UNL     1     130.079 141.144 139.113  1.00  0.00    -0.000 C 
BRANCH  29  30
ATOM     30  C   UNL     1     130.646 141.165 140.541  1.00  0.00    -0.000 C 
BRANCH  30  31
ATOM     31  C   UNL     1     129.924 140.184 141.481  1.00  0.00    -0.003 C 
ATOM     32  C   UNL     1     128.402 140.263 141.363  1.00  0.00     0.004 C 
ENDBRANCH  30  31
ENDBRANCH  29  30
ENDBRANCH  28  29
ENDBRANCH  27  28
ENDBRANCH  26  27
ENDBRANCH  25  26
ENDBRANCH  24  25
ENDBRANCH  23  24
ENDBRANCH  22  23
ENDBRANCH  21  22
ENDBRANCH  20  21
ENDBRANCH  19  20
ENDBRANCH  18  19
ENDBRANCH   1  18
TORSDOF 28
ENDMDL
MODEL 4
REMARK VINA RESULT:    -5.020      5.241      9.536
REMARK INTER + INTRA:         -17.107
REMARK INTER:                 -12.472
REMARK INTRA:                  -4.635
REMARK UNBOUND:                -3.868
REMARK SMILES CCCCCCCCCCCCCCCCCCCCCCCCCCCCCC(=O)[O-]
REMARK SMILES IDX 16 1 17 2 18 3 19 4 20 5 21 6 22 7 23 8 24 9 25 10 26 11
REMARK SMILES IDX 27 12 28 13 29 14 30 15 31 16 32 17 15 18 14 19 13 20 12 21
REMARK SMILES IDX 11 22 10 23 9 24 8 25 7 26 6 27 5 28 4 29 3 30 2 31 1 32
REMARK H PARENT
REMARK Flexibility Score: inf
ROOT
ATOM      1  C   UNL     1     131.204 136.057 139.335  1.00  0.00     0.000 C 
ENDROOT
BRANCH   1   2
ATOM      2  C   UNL     1     129.839 136.503 138.789  1.00  0.00     0.000 C 
BRANCH   2   3
ATOM      3  C   UNL     1     129.069 137.400 139.772  1.00  0.00     0.000 C 
BRANCH   3   4
ATOM      4  C   UNL     1     128.722 138.775 139.173  1.00  0.00     0.000 C 
BRANCH   4   5
ATOM      5  C   UNL     1     129.698 139.201 138.065  1.00  0.00     0.000 C 
BRANCH   5   6
ATOM      6  C   UNL     1     131.042 139.705 138.621  1.00  0.00     0.000 C 
BRANCH   6   7
ATOM      7  C   UNL     1     131.051 141.223 138.865  1.00  0.00     0.000 C 
BRANCH   7   8
ATOM      8  C   UNL     1     131.499 141.597 140.285  1.00  0.00     0.000 C 
BRANCH   8   9
ATOM      9  C   UNL     1     130.508 141.062 141.329  1.00  0.00     0.000 C 
BRANCH   9  10
ATOM     10  C   UNL     1     129.548 142.147 141.846  1.00  0.00     0.000 C 
BRANCH  10  11
ATOM     11  C   UNL     1     128.106 141.939 141.349  1.00  0.00     0.000 C 
BRANCH  11  12
ATOM     12  C   UNL     1     127.651 143.042 140.378  1.00  0.00     0.000 C 
BRANCH  12  13
ATOM     13  C   UNL     1     127.648 142.575 138.912  1.00  0.00     0.006 C 
BRANCH  13  14
ATOM     14  C   UNL     1     126.460 143.145 138.126  1.00  0.00     0.053 C 
BRANCH  14  15
ATOM     15  C   UNL     1     126.140 142.316 136.919  1.00  0.00     0.041 C 
ATOM     16  O   UNL     1     125.774 142.870 135.849  1.00  0.00    -0.550 OA
ATOM     17  O   UNL     1     126.210 140.932 136.987  1.00  0.00    -0.550 OA
ENDBRANCH  14  15
ENDBRANCH  13  14
ENDBRANCH  12  13
ENDBRANCH  11  12
ENDBRANCH  10  11
ENDBRANCH   9  10
ENDBRANCH   8   9
ENDBRANCH   7   8
ENDBRANCH   6   7
ENDBRANCH   5   6
ENDBRANCH   4   5
ENDBRANCH   3   4
ENDBRANCH   2   3
ENDBRANCH   1   2
BRANCH   1  18
ATOM     18  C   UNL     1     131.944 135.181 138.312  1.00  0.00     0.000 C 
BRANCH  18  19
ATOM     19  C   UNL     1     132.813 134.085 138.959  1.00  0.00     0.000 C 
BRANCH  19  20
ATOM     20  C   UNL     1     132.325 132.635 138.755  1.00  0.00     0.000 C 
BRANCH  20  21
ATOM     21  C   UNL     1     131.025 132.278 139.500  1.00  0.00     0.000 C 
BRANCH  21  22
ATOM     22  C   UNL     1     131.106 132.489 141.023  1.00  0.00     0.000 C 
BRANCH  22  23
ATOM     23  C   UNL     1     129.853 133.169 141.599  1.00  0.00     0.000 C 
BRANCH  23  24
ATOM     24  C   UNL     1     128.809 133.498 140.519  1.00  0.00    -0.000 C 
BRANCH  24  25
ATOM     25  C   UNL     1     127.379 133.143 140.959  1.00  0.00    -0.000 C 
BRANCH  25  26
ATOM     26  C   UNL     1     126.329 134.127 140.414  1.00  0.00    -0.000 C 
BRANCH  26  27
ATOM     27  C   UNL     1     126.232 135.411 141.264  1.00  0.00    -0.000 C 
BRANCH  27  28
ATOM     28  C   UNL     1     125.617 136.606 140.516  1.00  0.00    -0.000 C 
BRANCH  28  29
ATOM     29  C   UNL     1     124.317 136.247 139.784  1.00  0.00    -0.000 C 
BRANCH  29  30
ATOM     30  C   UNL     1     124.390 136.643 138.301  1.00  0.00    -0.000 C 
BRANCH  30  31
ATOM     31  C   UNL     1     125.750 137.249 137.915  1.00  0.00    -0.003 C 
ATOM     32  C   UNL     1     126.559 136.343 136.986  1.00  0.00     0.004 C 
ENDBRANCH  30  31
ENDBRANCH  29  30
ENDBRANCH  28  29
ENDBRANCH  27  28
ENDBRANCH  26  27
ENDBRANCH  25  26
ENDBRANCH  24  25
ENDBRANCH  23  24
ENDBRANCH  22  23
ENDBRANCH  21  22
ENDBRANCH  20  21
ENDBRANCH  19  20
ENDBRANCH  18  19
ENDBRANCH   1  18
TORSDOF 28
ENDMDL
MODEL 5
REMARK VINA RESULT:    -4.986      3.475      9.661
REMARK INTER + INTRA:         -17.015
REMARK INTER:                 -11.990
REMARK INTRA:                  -5.025
REMARK UNBOUND:                -3.868
REMARK SMILES CCCCCCCCCCCCCCCCCCCCCCCCCCCCCC(=O)[O-]
REMARK SMILES IDX 16 1 17 2 18 3 19 4 20 5 21 6 22 7 23 8 24 9 25 10 26 11
REMARK SMILES IDX 27 12 28 13 29 14 30 15 31 16 32 17 15 18 14 19 13 20 12 21
REMARK SMILES IDX 11 22 10 23 9 24 8 25 7 26 6 27 5 28 4 29 3 30 2 31 1 32
REMARK H PARENT
REMARK Flexibility Score: inf
ROOT
ATOM      1  C   UNL     1     133.104 135.755 140.520  1.00  0.00     0.000 C 
ENDROOT
BRANCH   1   2
ATOM      2  C   UNL     1     133.572 134.490 139.785  1.00  0.00     0.000 C 
BRANCH   2   3
ATOM      3  C   UNL     1     132.589 134.038 138.693  1.00  0.00     0.000 C 
BRANCH   3   4
ATOM      4  C   UNL     1     132.131 132.580 138.875  1.00  0.00     0.000 C 
BRANCH   4   5
ATOM      5  C   UNL     1     131.360 132.359 140.185  1.00  0.00     0.000 C 
BRANCH   5   6
ATOM      6  C   UNL     1     129.991 133.061 140.193  1.00  0.00     0.000 C 
BRANCH   6   7
ATOM      7  C   UNL     1     129.759 133.894 141.464  1.00  0.00     0.000 C 
BRANCH   7   8
ATOM      8  C   UNL     1     129.471 135.373 141.165  1.00  0.00     0.000 C 
BRANCH   8   9
ATOM      9  C   UNL     1     129.505 135.641 139.653  1.00  0.00     0.000 C 
BRANCH   9  10
ATOM     10  C   UNL     1     128.740 136.916 139.260  1.00  0.00     0.000 C 
BRANCH  10  11
ATOM     11  C   UNL     1     129.558 137.826 138.325  1.00  0.00     0.000 C 
BRANCH  11  12
ATOM     12  C   UNL     1     129.043 139.274 138.310  1.00  0.00     0.000 C 
BRANCH  12  13
ATOM     13  C   UNL     1     130.182 140.307 138.357  1.00  0.00     0.006 C 
BRANCH  13  14
ATOM     14  C   UNL     1     129.772 141.588 139.098  1.00  0.00     0.053 C 
BRANCH  14  15
ATOM     15  C   UNL     1     129.538 141.338 140.557  1.00  0.00     0.041 C 
ATOM     16  O   UNL     1     130.479 140.932 141.289  1.00  0.00    -0.550 OA
ATOM     17  O   UNL     1     128.274 141.518 141.100  1.00  0.00    -0.550 OA
ENDBRANCH  14  15
ENDBRANCH  13  14
ENDBRANCH  12  13
ENDBRANCH  11  12
ENDBRANCH  10  11
ENDBRANCH   9  10
ENDBRANCH   8   9
ENDBRANCH   7   8
ENDBRANCH   6   7
ENDBRANCH   5   6
ENDBRANCH   4   5
ENDBRANCH   3   4
ENDBRANCH   2   3
ENDBRANCH   1   2
BRANCH   1  18
ATOM     18  C   UNL     1     133.038 136.953 139.560  1.00  0.00     0.000 C 
BRANCH  18  19
ATOM     19  C   UNL     1     132.640 138.272 140.252  1.00  0.00     0.000 C 
BRANCH  19  20
ATOM     20  C   UNL     1     133.439 139.522 139.824  1.00  0.00     0.000 C 
BRANCH  20  21
ATOM     21  C   UNL     1     134.951 139.293 139.642  1.00  0.00     0.000 C 
BRANCH  21  22
ATOM     22  C   UNL     1     135.817 140.030 140.680  1.00  0.00     0.000 C 
BRANCH  22  23
ATOM     23  C   UNL     1     136.655 139.074 141.545  1.00  0.00     0.000 C 
BRANCH  23  24
ATOM     24  C   UNL     1     135.987 137.702 141.728  1.00  0.00    -0.000 C 
BRANCH  24  25
ATOM     25  C   UNL     1     136.930 136.539 141.377  1.00  0.00    -0.000 C 
BRANCH  25  26
ATOM     26  C   UNL     1     136.915 136.194 139.878  1.00  0.00    -0.000 C 
BRANCH  26  27
ATOM     27  C   UNL     1     138.134 136.776 139.131  1.00  0.00    -0.000 C 
BRANCH  27  28
ATOM     28  C   UNL     1     139.386 136.932 140.011  1.00  0.00    -0.000 C 
BRANCH  28  29
ATOM     29  C   UNL     1     140.464 135.884 139.705  1.00  0.00    -0.000 C 
BRANCH  29  30
ATOM     30  C   UNL     1     140.280 134.631 140.576  1.00  0.00    -0.000 C 
BRANCH  30  31
ATOM     31  C   UNL     1     139.678 133.450 139.796  1.00  0.00    -0.003 C 
ATOM     32  C   UNL     1     140.058 133.463 138.315  1.00  0.00     0.004 C 
ENDBRANCH  30  31
ENDBRANCH  29  30
ENDBRANCH  28  29
ENDBRANCH  27  28
ENDBRANCH  26  27
ENDBRANCH  25  26
ENDBRANCH  24  25
ENDBRANCH  23  24
ENDBRANCH  22  23
ENDBRANCH  21  22
ENDBRANCH  20  21
ENDBRANCH  19  20
ENDBRANCH  18  19
ENDBRANCH   1  18
TORSDOF 28
ENDMDL
MODEL 6
REMARK VINA RESULT:    -4.932      4.096      8.880
REMARK INTER + INTRA:         -16.873
REMARK INTER:                 -11.445
REMARK INTRA:                  -5.427
REMARK UNBOUND:                -3.868
REMARK SMILES CCCCCCCCCCCCCCCCCCCCCCCCCCCCCC(=O)[O-]
REMARK SMILES IDX 16 1 17 2 18 3 19 4 20 5 21 6 22 7 23 8 24 9 25 10 26 11
REMARK SMILES IDX 27 12 28 13 29 14 30 15 31 16 32 17 15 18 14 19 13 20 12 21
REMARK SMILES IDX 11 22 10 23 9 24 8 25 7 26 6 27 5 28 4 29 3 30 2 31 1 32
REMARK H PARENT
REMARK Flexibility Score: inf
ROOT
ATOM      1  C   UNL     1     124.529 139.000 136.086  1.00  0.00     0.000 C 
ENDROOT
BRANCH   1   2
ATOM      2  C   UNL     1     124.575 140.498 135.749  1.00  0.00     0.000 C 
BRANCH   2   3
ATOM      3  C   UNL     1     125.703 141.239 136.486  1.00  0.00     0.000 C 
BRANCH   3   4
ATOM      4  C   UNL     1     125.758 142.736 136.133  1.00  0.00     0.000 C 
BRANCH   4   5
ATOM      5  C   UNL     1     126.153 143.613 137.330  1.00  0.00     0.000 C 
BRANCH   5   6
ATOM      6  C   UNL     1     126.291 142.809 138.635  1.00  0.00     0.000 C 
BRANCH   6   7
ATOM      7  C   UNL     1     127.675 142.968 139.285  1.00  0.00     0.000 C 
BRANCH   7   8
ATOM      8  C   UNL     1     127.717 142.458 140.733  1.00  0.00     0.000 C 
BRANCH   8   9
ATOM      9  C   UNL     1     129.124 142.622 141.329  1.00  0.00     0.000 C 
BRANCH   9  10
ATOM     10  C   UNL     1     129.881 141.288 141.437  1.00  0.00     0.000 C 
BRANCH  10  11
ATOM     11  C   UNL     1     131.260 141.340 140.755  1.00  0.00     0.000 C 
BRANCH  11  12
ATOM     12  C   UNL     1     131.167 141.219 139.225  1.00  0.00     0.000 C 
BRANCH  12  13
ATOM     13  C   UNL     1     131.982 140.036 138.675  1.00  0.00     0.006 C 
BRANCH  13  14
ATOM     14  C   UNL     1     132.713 139.270 139.786  1.00  0.00     0.053 C 
BRANCH  14  15
ATOM     15  C   UNL     1     134.135 138.972 139.417  1.00  0.00     0.041 C 
ATOM     16  O   UNL     1     134.395 138.066 138.582  1.00  0.00    -0.550 OA
ATOM     17  O   UNL     1     135.172 139.668 140.021  1.00  0.00    -0.550 OA
ENDBRANCH  14  15
ENDBRANCH  13  14
ENDBRANCH  12  13
ENDBRANCH  11  12
ENDBRANCH  10  11
ENDBRANCH   9  10
ENDBRANCH   8   9
ENDBRANCH   7   8
ENDBRANCH   6   7
ENDBRANCH   5   6
ENDBRANCH   4   5
ENDBRANCH   3   4
ENDBRANCH   2   3
ENDBRANCH   1   2
BRANCH   1  18
ATOM     18  C   UNL     1     125.714 138.258 135.448  1.00  0.00     0.000 C 
BRANCH  18  19
ATOM     19  C   UNL     1     125.659 136.730 135.644  1.00  0.00     0.000 C 
BRANCH  19  20
ATOM     20  C   UNL     1     126.496 136.174 136.815  1.00  0.00     0.000 C 
BRANCH  20  21
ATOM     21  C   UNL     1     125.675 135.666 138.015  1.00  0.00     0.000 C 
BRANCH  21  22
ATOM     22  C   UNL     1     125.327 136.764 139.036  1.00  0.00     0.000 C 
BRANCH  22  23
ATOM     23  C   UNL     1     125.381 136.266 140.490  1.00  0.00     0.000 C 
BRANCH  23  24
ATOM     24  C   UNL     1     126.105 134.916 140.627  1.00  0.00    -0.000 C 
BRANCH  24  25
ATOM     25  C   UNL     1     127.498 135.061 141.260  1.00  0.00    -0.000 C 
BRANCH  25  26
ATOM     26  C   UNL     1     128.634 134.715 140.280  1.00  0.00    -0.000 C 
BRANCH  26  27
ATOM     27  C   UNL     1     129.975 135.360 140.687  1.00  0.00    -0.000 C 
BRANCH  27  28
ATOM     28  C   UNL     1     129.988 136.894 140.573  1.00  0.00    -0.000 C 
BRANCH  28  29
ATOM     29  C   UNL     1     129.320 137.401 139.288  1.00  0.00    -0.000 C 
BRANCH  29  30
ATOM     30  C   UNL     1     128.322 138.529 139.591  1.00  0.00    -0.000 C 
BRANCH  30  31
ATOM     31  C   UNL     1     128.054 139.428 138.372  1.00  0.00    -0.003 C 
ATOM     32  C   UNL     1     128.829 138.987 137.130  1.00  0.00     0.004 C 
ENDBRANCH  30  31
ENDBRANCH  29  30
ENDBRANCH  28  29
ENDBRANCH  27  28
ENDBRANCH  26  27
ENDBRANCH  25  26
ENDBRANCH  24  25
ENDBRANCH  23  24
ENDBRANCH  22  23
ENDBRANCH  21  22
ENDBRANCH  20  21
ENDBRANCH  19  20
ENDBRANCH  18  19
ENDBRANCH   1  18
TORSDOF 28
ENDMDL
MODEL 7
REMARK VINA RESULT:    -4.913      1.850      3.906
REMARK INTER + INTRA:         -16.824
REMARK INTER:                 -12.273
REMARK INTRA:                  -4.551
REMARK UNBOUND:                -3.868
REMARK SMILES CCCCCCCCCCCCCCCCCCCCCCCCCCCCCC(=O)[O-]
REMARK SMILES IDX 16 1 17 2 18 3 19 4 20 5 21 6 22 7 23 8 24 9 25 10 26 11
REMARK SMILES IDX 27 12 28 13 29 14 30 15 31 16 32 17 15 18 14 19 13 20 12 21
REMARK SMILES IDX 11 22 10 23 9 24 8 25 7 26 6 27 5 28 4 29 3 30 2 31 1 32
REMARK H PARENT
REMARK Flexibility Score: inf
ROOT
ATOM      1  C   UNL     1     132.642 133.109 138.888  1.00  0.00     0.000 C 
ENDROOT
BRANCH   1   2
ATOM      2  C   UNL     1     132.305 134.510 138.357  1.00  0.00     0.000 C 
BRANCH   2   3
ATOM      3  C   UNL     1     133.156 135.613 139.008  1.00  0.00     0.000 C 
BRANCH   3   4
ATOM      4  C   UNL     1     133.658 135.224 140.410  1.00  0.00     0.000 C 
BRANCH   4   5
ATOM      5  C   UNL     1     133.119 136.149 141.511  1.00  0.00     0.000 C 
BRANCH   5   6
ATOM      6  C   UNL     1     132.314 137.334 140.949  1.00  0.00     0.000 C 
BRANCH   6   7
ATOM      7  C   UNL     1     133.014 138.684 141.170  1.00  0.00     0.000 C 
BRANCH   7   8
ATOM      8  C   UNL     1     133.523 139.315 139.865  1.00  0.00     0.000 C 
BRANCH   8   9
ATOM      9  C   UNL     1     135.018 139.024 139.664  1.00  0.00     0.000 C 
BRANCH   9  10
ATOM     10  C   UNL     1     135.748 138.733 140.986  1.00  0.00     0.000 C 
BRANCH  10  11
ATOM     11  C   UNL     1     136.883 137.707 140.816  1.00  0.00     0.000 C 
BRANCH  11  12
ATOM     12  C   UNL     1     136.917 137.092 139.407  1.00  0.00     0.000 C 
BRANCH  12  13
ATOM     13  C   UNL     1     138.314 136.577 139.020  1.00  0.00     0.006 C 
BRANCH  13  14
ATOM     14  C   UNL     1     138.890 135.621 140.074  1.00  0.00     0.053 C 
BRANCH  14  15
ATOM     15  C   UNL     1     138.709 134.185 139.685  1.00  0.00     0.041 C 
ATOM     16  O   UNL     1     139.684 133.389 139.728  1.00  0.00    -0.550 OA
ATOM     17  O   UNL     1     137.474 133.735 139.239  1.00  0.00    -0.550 OA
ENDBRANCH  14  15
ENDBRANCH  13  14
ENDBRANCH  12  13
ENDBRANCH  11  12
ENDBRANCH  10  11
ENDBRANCH   9  10
ENDBRANCH   8   9
ENDBRANCH   7   8
ENDBRANCH   6   7
ENDBRANCH   5   6
ENDBRANCH   4   5
ENDBRANCH   3   4
ENDBRANCH   2   3
ENDBRANCH   1   2
BRANCH   1  18
ATOM     18  C   UNL     1     131.362 132.327 139.224  1.00  0.00     0.000 C 
BRANCH  18  19
ATOM     19  C   UNL     1     130.762 132.696 140.595  1.00  0.00     0.000 C 
BRANCH  19  20
ATOM     20  C   UNL     1     129.420 133.459 140.557  1.00  0.00     0.000 C 
BRANCH  20  21
ATOM     21  C   UNL     1     129.537 134.984 140.738  1.00  0.00     0.000 C 
BRANCH  21  22
ATOM     22  C   UNL     1     128.616 135.790 139.804  1.00  0.00     0.000 C 
BRANCH  22  23
ATOM     23  C   UNL     1     129.388 136.534 138.702  1.00  0.00     0.000 C 
BRANCH  23  24
ATOM     24  C   UNL     1     128.856 137.957 138.465  1.00  0.00    -0.000 C 
BRANCH  24  25
ATOM     25  C   UNL     1     129.669 139.020 139.221  1.00  0.00    -0.000 C 
BRANCH  25  26
ATOM     26  C   UNL     1     128.880 139.663 140.375  1.00  0.00    -0.000 C 
BRANCH  26  27
ATOM     27  C   UNL     1     129.491 141.005 140.828  1.00  0.00    -0.000 C 
BRANCH  27  28
ATOM     28  C   UNL     1     128.590 142.222 140.552  1.00  0.00    -0.000 C 
BRANCH  28  29
ATOM     29  C   UNL     1     128.352 142.461 139.056  1.00  0.00    -0.000 C 
BRANCH  29  30
ATOM     30  C   UNL     1     126.876 142.782 138.775  1.00  0.00    -0.000 C 
BRANCH  30  31
ATOM     31  C   UNL     1     126.202 143.534 139.935  1.00  0.00    -0.003 C 
ATOM     32  C   UNL     1     126.097 145.038 139.684  1.00  0.00     0.004 C 
ENDBRANCH  30  31
ENDBRANCH  29  30
ENDBRANCH  28  29
ENDBRANCH  27  28
ENDBRANCH  26  27
ENDBRANCH  25  26
ENDBRANCH  24  25
ENDBRANCH  23  24
ENDBRANCH  22  23
ENDBRANCH  21  22
ENDBRANCH  20  21
ENDBRANCH  19  20
ENDBRANCH  18  19
ENDBRANCH   1  18
TORSDOF 28
ENDMDL
MODEL 8
REMARK VINA RESULT:    -4.872      4.605      9.990
REMARK INTER + INTRA:         -16.715
REMARK INTER:                 -11.884
REMARK INTRA:                  -4.831
REMARK UNBOUND:                -3.868
REMARK SMILES CCCCCCCCCCCCCCCCCCCCCCCCCCCCCC(=O)[O-]
REMARK SMILES IDX 16 1 17 2 18 3 19 4 20 5 21 6 22 7 23 8 24 9 25 10 26 11
REMARK SMILES IDX 27 12 28 13 29 14 30 15 31 16 32 17 15 18 14 19 13 20 12 21
REMARK SMILES IDX 11 22 10 23 9 24 8 25 7 26 6 27 5 28 4 29 3 30 2 31 1 32
REMARK H PARENT
REMARK Flexibility Score: inf
ROOT
ATOM      1  C   UNL     1     129.494 138.547 137.906  1.00  0.00     0.000 C 
ENDROOT
BRANCH   1   2
ATOM      2  C   UNL     1     128.563 138.986 139.047  1.00  0.00     0.000 C 
BRANCH   2   3
ATOM      3  C   UNL     1     128.029 137.800 139.867  1.00  0.00     0.000 C 
BRANCH   3   4
ATOM      4  C   UNL     1     127.919 136.508 139.037  1.00  0.00     0.000 C 
BRANCH   4   5
ATOM      5  C   UNL     1     126.544 135.835 139.167  1.00  0.00     0.000 C 
BRANCH   5   6
ATOM      6  C   UNL     1     125.666 136.033 137.919  1.00  0.00     0.000 C 
BRANCH   6   7
ATOM      7  C   UNL     1     126.492 136.187 136.632  1.00  0.00     0.000 C 
BRANCH   7   8
ATOM      8  C   UNL     1     126.101 137.428 135.816  1.00  0.00     0.000 C 
BRANCH   8   9
ATOM      9  C   UNL     1     125.572 138.541 136.734  1.00  0.00     0.000 C 
BRANCH   9  10
ATOM     10  C   UNL     1     126.308 139.877 136.531  1.00  0.00     0.000 C 
BRANCH  10  11
ATOM     11  C   UNL     1     125.350 141.081 136.539  1.00  0.00     0.000 C 
BRANCH  11  12
ATOM     12  C   UNL     1     126.092 142.427 136.493  1.00  0.00     0.000 C 
BRANCH  12  13
ATOM     13  C   UNL     1     126.147 143.120 137.865  1.00  0.00     0.006 C 
BRANCH  13  14
ATOM     14  C   UNL     1     127.403 142.735 138.658  1.00  0.00     0.053 C 
BRANCH  14  15
ATOM     15  C   UNL     1     127.292 143.120 140.102  1.00  0.00     0.041 C 
ATOM     16  O   UNL     1     127.576 142.288 141.004  1.00  0.00    -0.550 OA
ATOM     17  O   UNL     1     126.841 144.385 140.453  1.00  0.00    -0.550 OA
ENDBRANCH  14  15
ENDBRANCH  13  14
ENDBRANCH  12  13
ENDBRANCH  11  12
ENDBRANCH  10  11
ENDBRANCH   9  10
ENDBRANCH   8   9
ENDBRANCH   7   8
ENDBRANCH   6   7
ENDBRANCH   5   6
ENDBRANCH   4   5
ENDBRANCH   3   4
ENDBRANCH   2   3
ENDBRANCH   1   2
BRANCH   1  18
ATOM     18  C   UNL     1     130.560 139.619 137.626  1.00  0.00     0.000 C 
BRANCH  18  19
ATOM     19  C   UNL     1     130.506 140.808 138.606  1.00  0.00     0.000 C 
BRANCH  19  20
ATOM     20  C   UNL     1     131.754 141.003 139.493  1.00  0.00     0.000 C 
BRANCH  20  21
ATOM     21  C   UNL     1     131.691 140.300 140.863  1.00  0.00     0.000 C 
BRANCH  21  22
ATOM     22  C   UNL     1     132.939 140.530 141.734  1.00  0.00     0.000 C 
BRANCH  22  23
ATOM     23  C   UNL     1     133.722 141.791 141.334  1.00  0.00     0.000 C 
BRANCH  23  24
ATOM     24  C   UNL     1     135.109 141.862 141.996  1.00  0.00    -0.000 C 
BRANCH  24  25
ATOM     25  C   UNL     1     136.170 141.067 141.218  1.00  0.00    -0.000 C 
BRANCH  25  26
ATOM     26  C   UNL     1     136.289 139.610 141.696  1.00  0.00    -0.000 C 
BRANCH  26  27
ATOM     27  C   UNL     1     136.340 138.610 140.522  1.00  0.00    -0.000 C 
BRANCH  27  28
ATOM     28  C   UNL     1     135.736 139.155 139.216  1.00  0.00    -0.000 C 
BRANCH  28  29
ATOM     29  C   UNL     1     134.377 138.527 138.880  1.00  0.00    -0.000 C 
BRANCH  29  30
ATOM     30  C   UNL     1     133.975 137.482 139.932  1.00  0.00    -0.000 C 
BRANCH  30  31
ATOM     31  C   UNL     1     132.639 136.794 139.605  1.00  0.00    -0.003 C 
ATOM     32  C   UNL     1     132.503 136.440 138.124  1.00  0.00     0.004 C 
ENDBRANCH  30  31
ENDBRANCH  29  30
ENDBRANCH  28  29
ENDBRANCH  27  28
ENDBRANCH  26  27
ENDBRANCH  25  26
ENDBRANCH  24  25
ENDBRANCH  23  24
ENDBRANCH  22  23
ENDBRANCH  21  22
ENDBRANCH  20  21
ENDBRANCH  19  20
ENDBRANCH  18  19
ENDBRANCH   1  18
TORSDOF 28
ENDMDL
MODEL 9
REMARK VINA RESULT:    -4.844      1.682      6.271
REMARK INTER + INTRA:         -16.641
REMARK INTER:                 -12.313
REMARK INTRA:                  -4.328
REMARK UNBOUND:                -3.868
REMARK SMILES CCCCCCCCCCCCCCCCCCCCCCCCCCCCCC(=O)[O-]
REMARK SMILES IDX 16 1 17 2 18 3 19 4 20 5 21 6 22 7 23 8 24 9 25 10 26 11
REMARK SMILES IDX 27 12 28 13 29 14 30 15 31 16 32 17 15 18 14 19 13 20 12 21
REMARK SMILES IDX 11 22 10 23 9 24 8 25 7 26 6 27 5 28 4 29 3 30 2 31 1 32
REMARK H PARENT
REMARK Flexibility Score: inf
ROOT
ATOM      1  C   UNL     1     128.398 140.915 141.496  1.00  0.00     0.000 C 
ENDROOT
BRANCH   1   2
ATOM      2  C   UNL     1     129.769 140.285 141.208  1.00  0.00     0.000 C 
BRANCH   2   3
ATOM      3  C   UNL     1     130.711 141.233 140.447  1.00  0.00     0.000 C 
BRANCH   3   4
ATOM      4  C   UNL     1     131.740 140.481 139.585  1.00  0.00     0.000 C 
BRANCH   4   5
ATOM      5  C   UNL     1     133.031 140.157 140.351  1.00  0.00     0.000 C 
BRANCH   5   6
ATOM      6  C   UNL     1     133.374 141.219 141.411  1.00  0.00     0.000 C 
BRANCH   6   7
ATOM      7  C   UNL     1     134.754 140.994 142.050  1.00  0.00     0.000 C 
BRANCH   7   8
ATOM      8  C   UNL     1     135.193 139.522 142.022  1.00  0.00     0.000 C 
BRANCH   8   9
ATOM      9  C   UNL     1     136.627 139.390 141.486  1.00  0.00     0.000 C 
BRANCH   9  10
ATOM     10  C   UNL     1     136.707 138.534 140.211  1.00  0.00     0.000 C 
BRANCH  10  11
ATOM     11  C   UNL     1     137.743 137.401 140.329  1.00  0.00     0.000 C 
BRANCH  11  12
ATOM     12  C   UNL     1     138.127 136.808 138.964  1.00  0.00     0.000 C 
BRANCH  12  13
ATOM     13  C   UNL     1     139.455 136.033 139.009  1.00  0.00     0.006 C 
BRANCH  13  14
ATOM     14  C   UNL     1     139.412 134.759 138.153  1.00  0.00     0.053 C 
BRANCH  14  15
ATOM     15  C   UNL     1     138.902 133.582 138.927  1.00  0.00     0.041 C 
ATOM     16  O   UNL     1     137.663 133.410 139.076  1.00  0.00    -0.550 OA
ATOM     17  O   UNL     1     139.794 132.696 139.515  1.00  0.00    -0.550 OA
ENDBRANCH  14  15
ENDBRANCH  13  14
ENDBRANCH  12  13
ENDBRANCH  11  12
ENDBRANCH  10  11
ENDBRANCH   9  10
ENDBRANCH   8   9
ENDBRANCH   7   8
ENDBRANCH   6   7
ENDBRANCH   5   6
ENDBRANCH   4   5
ENDBRANCH   3   4
ENDBRANCH   2   3
ENDBRANCH   1   2
BRANCH   1  18
ATOM     18  C   UNL     1     128.430 142.432 141.254  1.00  0.00     0.000 C 
BRANCH  18  19
ATOM     19  C   UNL     1     127.337 142.921 140.283  1.00  0.00     0.000 C 
BRANCH  19  20
ATOM     20  C   UNL     1     127.645 142.742 138.781  1.00  0.00     0.000 C 
BRANCH  20  21
ATOM     21  C   UNL     1     126.529 142.061 137.967  1.00  0.00     0.000 C 
BRANCH  21  22
ATOM     22  C   UNL     1     126.896 140.649 137.475  1.00  0.00     0.000 C 
BRANCH  22  23
ATOM     23  C   UNL     1     128.321 140.230 137.872  1.00  0.00     0.000 C 
BRANCH  23  24
ATOM     24  C   UNL     1     128.685 138.821 137.374  1.00  0.00    -0.000 C 
BRANCH  24  25
ATOM     25  C   UNL     1     127.759 137.739 137.953  1.00  0.00    -0.000 C 
BRANCH  25  26
ATOM     26  C   UNL     1     128.526 136.660 138.738  1.00  0.00    -0.000 C 
BRANCH  26  27
ATOM     27  C   UNL     1     129.892 137.165 139.246  1.00  0.00    -0.000 C 
BRANCH  27  28
ATOM     28  C   UNL     1     131.086 136.328 138.755  1.00  0.00    -0.000 C 
BRANCH  28  29
ATOM     29  C   UNL     1     132.050 137.127 137.868  1.00  0.00    -0.000 C 
BRANCH  29  30
ATOM     30  C   UNL     1     133.480 137.085 138.428  1.00  0.00    -0.000 C 
BRANCH  30  31
ATOM     31  C   UNL     1     133.558 136.406 139.805  1.00  0.00    -0.003 C 
ATOM     32  C   UNL     1     134.670 135.361 139.889  1.00  0.00     0.004 C 
ENDBRANCH  30  31
ENDBRANCH  29  30
ENDBRANCH  28  29
ENDBRANCH  27  28
ENDBRANCH  26  27
ENDBRANCH  25  26
ENDBRANCH  24  25
ENDBRANCH  23  24
ENDBRANCH  22  23
ENDBRANCH  21  22
ENDBRANCH  20  21
ENDBRANCH  19  20
ENDBRANCH  18  19
ENDBRANCH   1  18
TORSDOF 28
ENDMDL
