MODEL 1
REMARK VINA RESULT:    -5.719      0.000      0.000
REMARK INTER + INTRA:         -11.472
REMARK INTER:                  -9.730
REMARK INTRA:                  -1.742
REMARK UNBOUND:                -1.742
REMARK SMILES CCCCCCCCCCCCCC(=O)[O-]
REMARK SMILES IDX 8 1 9 2 10 3 11 4 12 5 13 6 14 7 15 8 16 9 7 10 6 11 5 12
REMARK SMILES IDX 4 13 3 14 2 15 1 16
REMARK H PARENT
REMARK Flexibility Score: inf
ROOT
ATOM      1  C   UNL     1     -18.197  -9.242   0.852  1.00  0.00     0.000 C 
ENDROOT
BRANCH   1   2
ATOM      2  C   UNL     1     -19.069  -9.216  -0.413  1.00  0.00     0.000 C 
BRANCH   2   3
ATOM      3  C   UNL     1     -19.042 -10.546  -1.182  1.00  0.00     0.000 C 
BRANCH   3   4
ATOM      4  C   UNL     1     -19.018 -11.768  -0.248  1.00  0.00     0.000 C 
BRANCH   4   5
ATOM      5  C   UNL     1     -18.158 -12.916  -0.801  1.00  0.00     0.006 C 
BRANCH   5   6
ATOM      6  C   UNL     1     -16.735 -12.470  -1.162  1.00  0.00     0.053 C 
BRANCH   6   7
ATOM      7  C   UNL     1     -16.462 -12.719  -2.611  1.00  0.00     0.041 C 
ATOM      8  O   UNL     1     -15.622 -12.012  -3.228  1.00  0.00    -0.550 OA
ATOM      9  O   UNL     1     -17.171 -13.698  -3.296  1.00  0.00    -0.550 OA
ENDBRANCH   6   7
ENDBRANCH   5   6
ENDBRANCH   4   5
ENDBRANCH   3   4
ENDBRANCH   2   3
ENDBRANCH   1   2
BRANCH   1  10
ATOM     10  C   UNL     1     -17.665  -7.842   1.183  1.00  0.00     0.000 C 
BRANCH  10  11
ATOM     11  C   UNL     1     -16.284  -7.614   0.549  1.00  0.00    -0.000 C 
BRANCH  11  12
ATOM     12  C   UNL     1     -15.564  -8.928   0.205  1.00  0.00    -0.000 C 
BRANCH  12  13
ATOM     13  C   UNL     1     -15.171  -9.015  -1.279  1.00  0.00    -0.000 C 
BRANCH  13  14
ATOM     14  C   UNL     1     -15.952  -8.027  -2.164  1.00  0.00    -0.000 C 
BRANCH  14  15
ATOM     15  C   UNL     1     -16.761  -8.675  -3.303  1.00  0.00    -0.003 C 
ATOM     16  C   UNL     1     -16.478  -8.052  -4.669  1.00  0.00     0.004 C 
ENDBRANCH  14  15
ENDBRANCH  13  14
ENDBRANCH  12  13
ENDBRANCH  11  12
ENDBRANCH  10  11
ENDBRANCH   1  10
TORSDOF 12
ENDMDL
MODEL 2
REMARK VINA RESULT:    -5.717      2.279      2.588
REMARK INTER + INTRA:         -11.469
REMARK INTER:                  -9.580
REMARK INTRA:                  -1.889
REMARK UNBOUND:                -1.742
REMARK SMILES CCCCCCCCCCCCCC(=O)[O-]
REMARK SMILES IDX 8 1 9 2 10 3 11 4 12 5 13 6 14 7 15 8 16 9 7 10 6 11 5 12
REMARK SMILES IDX 4 13 3 14 2 15 1 16
REMARK H PARENT
REMARK Flexibility Score: inf
ROOT
ATOM      1  C   UNL     1     -18.960  -9.497  -0.618  1.00  0.00     0.000 C 
ENDROOT
BRANCH   1   2
ATOM      2  C   UNL     1     -18.952 -11.001  -0.935  1.00  0.00     0.000 C 
BRANCH   2   3
ATOM      3  C   UNL     1     -18.013 -11.358  -2.099  1.00  0.00     0.000 C 
BRANCH   3   4
ATOM      4  C   UNL     1     -16.879 -12.306  -1.672  1.00  0.00     0.000 C 
BRANCH   4   5
ATOM      5  C   UNL     1     -17.019 -12.775  -0.215  1.00  0.00     0.006 C 
BRANCH   5   6
ATOM      6  C   UNL     1     -16.112 -13.969   0.113  1.00  0.00     0.053 C 
BRANCH   6   7
ATOM      7  C   UNL     1     -15.311 -13.692   1.345  1.00  0.00     0.041 C 
ATOM      8  O   UNL     1     -14.307 -12.935   1.291  1.00  0.00    -0.550 OA
ATOM      9  O   UNL     1     -15.643 -14.310   2.544  1.00  0.00    -0.550 OA
ENDBRANCH   6   7
ENDBRANCH   5   6
ENDBRANCH   4   5
ENDBRANCH   3   4
ENDBRANCH   2   3
ENDBRANCH   1   2
BRANCH   1  10
ATOM     10  C   UNL     1     -18.219  -9.208   0.694  1.00  0.00     0.000 C 
BRANCH  10  11
ATOM     11  C   UNL     1     -17.000  -8.306   0.450  1.00  0.00    -0.000 C 
BRANCH  11  12
ATOM     12  C   UNL     1     -15.732  -9.102   0.103  1.00  0.00    -0.000 C 
BRANCH  12  13
ATOM     13  C   UNL     1     -15.171  -8.743  -1.284  1.00  0.00    -0.000 C 
BRANCH  13  14
ATOM     14  C   UNL     1     -16.145  -7.895  -2.122  1.00  0.00    -0.000 C 
BRANCH  14  15
ATOM     15  C   UNL     1     -16.291  -8.334  -3.591  1.00  0.00    -0.003 C 
ATOM     16  C   UNL     1     -15.291  -9.416  -3.994  1.00  0.00     0.004 C 
ENDBRANCH  14  15
ENDBRANCH  13  14
ENDBRANCH  12  13
ENDBRANCH  11  12
ENDBRANCH  10  11
ENDBRANCH   1  10
TORSDOF 12
ENDMDL
MODEL 3
REMARK VINA RESULT:    -5.684      1.042      1.243
REMARK INTER + INTRA:         -11.413
REMARK INTER:                  -9.496
REMARK INTRA:                  -1.917
REMARK UNBOUND:                -1.742
REMARK SMILES CCCCCCCCCCCCCC(=O)[O-]
REMARK SMILES IDX 8 1 9 2 10 3 11 4 12 5 13 6 14 7 15 8 16 9 7 10 6 11 5 12
REMARK SMILES IDX 4 13 3 14 2 15 1 16
REMARK H PARENT
REMARK Flexibility Score: inf
ROOT
ATOM      1  C   UNL     1     -18.123  -9.339   0.765  1.00  0.00     0.000 C 
ENDROOT
BRANCH   1   2
ATOM      2  C   UNL     1     -18.993  -9.228  -0.497  1.00  0.00     0.000 C 
BRANCH   2   3
ATOM      3  C   UNL     1     -18.980 -10.511  -1.344  1.00  0.00     0.000 C 
BRANCH   3   4
ATOM      4  C   UNL     1     -18.197 -11.653  -0.674  1.00  0.00     0.000 C 
BRANCH   4   5
ATOM      5  C   UNL     1     -16.853 -11.932  -1.366  1.00  0.00     0.006 C 
BRANCH   5   6
ATOM      6  C   UNL     1     -17.023 -12.518  -2.774  1.00  0.00     0.053 C 
BRANCH   6   7
ATOM      7  C   UNL     1     -17.729 -13.835  -2.710  1.00  0.00     0.041 C 
ATOM      8  O   UNL     1     -17.133 -14.851  -2.266  1.00  0.00    -0.550 OA
ATOM      9  O   UNL     1     -19.028 -13.953  -3.186  1.00  0.00    -0.550 OA
ENDBRANCH   6   7
ENDBRANCH   5   6
ENDBRANCH   4   5
ENDBRANCH   3   4
ENDBRANCH   2   3
ENDBRANCH   1   2
BRANCH   1  10
ATOM     10  C   UNL     1     -17.655  -7.955   1.234  1.00  0.00     0.000 C 
BRANCH  10  11
ATOM     11  C   UNL     1     -16.377  -7.528   0.496  1.00  0.00    -0.000 C 
BRANCH  11  12
ATOM     12  C   UNL     1     -15.486  -8.720   0.112  1.00  0.00    -0.000 C 
BRANCH  12  13
ATOM     13  C   UNL     1     -15.017  -8.659  -1.352  1.00  0.00    -0.000 C 
BRANCH  13  14
ATOM     14  C   UNL     1     -16.045  -7.992  -2.282  1.00  0.00    -0.000 C 
BRANCH  14  15
ATOM     15  C   UNL     1     -16.507  -8.858  -3.468  1.00  0.00    -0.003 C 
ATOM     16  C   UNL     1     -16.684  -8.062  -4.760  1.00  0.00     0.004 C 
ENDBRANCH  14  15
ENDBRANCH  13  14
ENDBRANCH  12  13
ENDBRANCH  11  12
ENDBRANCH  10  11
ENDBRANCH   1  10
TORSDOF 12
ENDMDL
MODEL 4
REMARK VINA RESULT:    -5.676      1.682      4.661
REMARK INTER + INTRA:         -11.400
REMARK INTER:                  -9.987
REMARK INTRA:                  -1.413
REMARK UNBOUND:                -1.742
REMARK SMILES CCCCCCCCCCCCCC(=O)[O-]
REMARK SMILES IDX 8 1 9 2 10 3 11 4 12 5 13 6 14 7 15 8 16 9 7 10 6 11 5 12
REMARK SMILES IDX 4 13 3 14 2 15 1 16
REMARK H PARENT
REMARK Flexibility Score: inf
ROOT
ATOM      1  C   UNL     1     -18.028  -9.372   0.673  1.00  0.00     0.000 C 
ENDROOT
BRANCH   1   2
ATOM      2  C   UNL     1     -17.716  -7.981   1.244  1.00  0.00     0.000 C 
BRANCH   2   3
ATOM      3  C   UNL     1     -16.407  -7.392   0.694  1.00  0.00     0.000 C 
BRANCH   3   4
ATOM      4  C   UNL     1     -15.551  -8.439  -0.040  1.00  0.00     0.000 C 
BRANCH   4   5
ATOM      5  C   UNL     1     -15.170  -7.997  -1.462  1.00  0.00     0.006 C 
BRANCH   5   6
ATOM      6  C   UNL     1     -16.373  -7.963  -2.415  1.00  0.00     0.053 C 
BRANCH   6   7
ATOM      7  C   UNL     1     -15.971  -8.427  -3.779  1.00  0.00     0.041 C 
ATOM      8  O   UNL     1     -16.550  -7.970  -4.799  1.00  0.00    -0.550 OA
ATOM      9  O   UNL     1     -14.993  -9.403  -3.922  1.00  0.00    -0.550 OA
ENDBRANCH   6   7
ENDBRANCH   5   6
ENDBRANCH   4   5
ENDBRANCH   3   4
ENDBRANCH   2   3
ENDBRANCH   1   2
BRANCH   1  10
ATOM     10  C   UNL     1     -19.079  -9.287  -0.441  1.00  0.00     0.000 C 
BRANCH  10  11
ATOM     11  C   UNL     1     -18.965 -10.483  -1.398  1.00  0.00    -0.000 C 
BRANCH  11  12
ATOM     12  C   UNL     1     -17.664 -11.279  -1.202  1.00  0.00    -0.000 C 
BRANCH  12  13
ATOM     13  C   UNL     1     -17.923 -12.750  -0.836  1.00  0.00    -0.000 C 
BRANCH  13  14
ATOM     14  C   UNL     1     -19.134 -13.347  -1.575  1.00  0.00    -0.000 C 
BRANCH  14  15
ATOM     15  C   UNL     1     -18.806 -14.022  -2.920  1.00  0.00    -0.003 C 
ATOM     16  C   UNL     1     -17.426 -14.678  -2.940  1.00  0.00     0.004 C 
ENDBRANCH  14  15
ENDBRANCH  13  14
ENDBRANCH  12  13
ENDBRANCH  11  12
ENDBRANCH  10  11
ENDBRANCH   1  10
TORSDOF 12
ENDMDL
MODEL 5
REMARK VINA RESULT:    -5.613      1.425      1.696
REMARK INTER + INTRA:         -11.293
REMARK INTER:                  -9.148
REMARK INTRA:                  -2.145
REMARK UNBOUND:                -1.742
REMARK SMILES CCCCCCCCCCCCCC(=O)[O-]
REMARK SMILES IDX 8 1 9 2 10 3 11 4 12 5 13 6 14 7 15 8 16 9 7 10 6 11 5 12
REMARK SMILES IDX 4 13 3 14 2 15 1 16
REMARK H PARENT
REMARK Flexibility Score: inf
ROOT
ATOM      1  C   UNL     1     -18.226  -9.417   0.679  1.00  0.00     0.000 C 
ENDROOT
BRANCH   1   2
ATOM      2  C   UNL     1     -18.964  -9.261  -0.660  1.00  0.00     0.000 C 
BRANCH   2   3
ATOM      3  C   UNL     1     -18.627 -10.380  -1.659  1.00  0.00     0.000 C 
BRANCH   3   4
ATOM      4  C   UNL     1     -17.558 -11.347  -1.123  1.00  0.00     0.000 C 
BRANCH   4   5
ATOM      5  C   UNL     1     -16.701 -11.959  -2.244  1.00  0.00     0.006 C 
BRANCH   5   6
ATOM      6  C   UNL     1     -15.428 -12.632  -1.715  1.00  0.00     0.053 C 
BRANCH   6   7
ATOM      7  C   UNL     1     -15.767 -13.901  -1.000  1.00  0.00     0.041 C 
ATOM      8  O   UNL     1     -16.396 -14.815  -1.595  1.00  0.00    -0.550 OA
ATOM      9  O   UNL     1     -15.433 -14.056   0.339  1.00  0.00    -0.550 OA
ENDBRANCH   6   7
ENDBRANCH   5   6
ENDBRANCH   4   5
ENDBRANCH   3   4
ENDBRANCH   2   3
ENDBRANCH   1   2
BRANCH   1  10
ATOM     10  C   UNL     1     -17.828  -8.050   1.250  1.00  0.00     0.000 C 
BRANCH  10  11
ATOM     11  C   UNL     1     -16.407  -7.664   0.813  1.00  0.00    -0.000 C 
BRANCH  11  12
ATOM     12  C   UNL     1     -15.505  -8.887   0.580  1.00  0.00    -0.000 C 
BRANCH  12  13
ATOM     13  C   UNL     1     -14.761  -8.823  -0.765  1.00  0.00    -0.000 C 
BRANCH  13  14
ATOM     14  C   UNL     1     -15.558  -8.086  -1.856  1.00  0.00    -0.000 C 
BRANCH  14  15
ATOM     15  C   UNL     1     -15.389  -8.651  -3.278  1.00  0.00    -0.003 C 
ATOM     16  C   UNL     1     -16.575  -8.343  -4.190  1.00  0.00     0.004 C 
ENDBRANCH  14  15
ENDBRANCH  13  14
ENDBRANCH  12  13
ENDBRANCH  11  12
ENDBRANCH  10  11
ENDBRANCH   1  10
TORSDOF 12
ENDMDL
MODEL 6
REMARK VINA RESULT:    -5.590      2.077      4.743
REMARK INTER + INTRA:         -11.254
REMARK INTER:                  -9.518
REMARK INTRA:                  -1.736
REMARK UNBOUND:                -1.742
REMARK SMILES CCCCCCCCCCCCCC(=O)[O-]
REMARK SMILES IDX 8 1 9 2 10 3 11 4 12 5 13 6 14 7 15 8 16 9 7 10 6 11 5 12
REMARK SMILES IDX 4 13 3 14 2 15 1 16
REMARK H PARENT
REMARK Flexibility Score: inf
ROOT
ATOM      1  C   UNL     1     -18.753 -10.582  -1.002  1.00  0.00     0.000 C 
ENDROOT
BRANCH   1   2
ATOM      2  C   UNL     1     -18.828  -9.154  -0.442  1.00  0.00     0.000 C 
BRANCH   2   3
ATOM      3  C   UNL     1     -18.058  -8.991   0.878  1.00  0.00     0.000 C 
BRANCH   3   4
ATOM      4  C   UNL     1     -17.017  -7.860   0.818  1.00  0.00     0.000 C 
BRANCH   4   5
ATOM      5  C   UNL     1     -15.727  -8.283   0.097  1.00  0.00     0.006 C 
BRANCH   5   6
ATOM      6  C   UNL     1     -15.550  -7.584  -1.258  1.00  0.00     0.053 C 
BRANCH   6   7
ATOM      7  C   UNL     1     -14.588  -8.344  -2.115  1.00  0.00     0.041 C 
ATOM      8  O   UNL     1     -13.421  -8.577  -1.704  1.00  0.00    -0.550 OA
ATOM      9  O   UNL     1     -14.963  -8.753  -3.389  1.00  0.00    -0.550 OA
ENDBRANCH   6   7
ENDBRANCH   5   6
ENDBRANCH   4   5
ENDBRANCH   3   4
ENDBRANCH   2   3
ENDBRANCH   1   2
BRANCH   1  10
ATOM     10  C   UNL     1     -17.610 -10.716  -2.017  1.00  0.00     0.000 C 
BRANCH  10  11
ATOM     11  C   UNL     1     -16.458 -11.553  -1.441  1.00  0.00    -0.000 C 
BRANCH  11  12
ATOM     12  C   UNL     1     -16.896 -12.432  -0.258  1.00  0.00    -0.000 C 
BRANCH  12  13
ATOM     13  C   UNL     1     -16.917 -13.929  -0.611  1.00  0.00    -0.000 C 
BRANCH  13  14
ATOM     14  C   UNL     1     -16.388 -14.217  -2.028  1.00  0.00    -0.000 C 
BRANCH  14  15
ATOM     15  C   UNL     1     -17.433 -14.776  -3.011  1.00  0.00    -0.003 C 
ATOM     16  C   UNL     1     -18.804 -14.117  -2.866  1.00  0.00     0.004 C 
ENDBRANCH  14  15
ENDBRANCH  13  14
ENDBRANCH  12  13
ENDBRANCH  11  12
ENDBRANCH  10  11
ENDBRANCH   1  10
TORSDOF 12
ENDMDL
MODEL 7
REMARK VINA RESULT:    -5.548      2.368      5.345
REMARK INTER + INTRA:         -11.182
REMARK INTER:                  -9.718
REMARK INTRA:                  -1.464
REMARK UNBOUND:                -1.742
REMARK SMILES CCCCCCCCCCCCCC(=O)[O-]
REMARK SMILES IDX 8 1 9 2 10 3 11 4 12 5 13 6 14 7 15 8 16 9 7 10 6 11 5 12
REMARK SMILES IDX 4 13 3 14 2 15 1 16
REMARK H PARENT
REMARK Flexibility Score: inf
ROOT
ATOM      1  C   UNL     1     -18.736 -12.118  -0.262  1.00  0.00     0.000 C 
ENDROOT
BRANCH   1   2
ATOM      2  C   UNL     1     -18.039 -10.912  -0.910  1.00  0.00     0.000 C 
BRANCH   2   3
ATOM      3  C   UNL     1     -18.849  -9.612  -0.774  1.00  0.00     0.000 C 
BRANCH   3   4
ATOM      4  C   UNL     1     -18.376  -8.742   0.403  1.00  0.00     0.000 C 
BRANCH   4   5
ATOM      5  C   UNL     1     -16.856  -8.817   0.618  1.00  0.00     0.006 C 
BRANCH   5   6
ATOM      6  C   UNL     1     -16.119  -7.586   0.073  1.00  0.00     0.053 C 
BRANCH   6   7
ATOM      7  C   UNL     1     -15.587  -7.861  -1.297  1.00  0.00     0.041 C 
ATOM      8  O   UNL     1     -16.321  -7.700  -2.306  1.00  0.00    -0.550 OA
ATOM      9  O   UNL     1     -14.295  -8.345  -1.457  1.00  0.00    -0.550 OA
ENDBRANCH   6   7
ENDBRANCH   5   6
ENDBRANCH   4   5
ENDBRANCH   3   4
ENDBRANCH   2   3
ENDBRANCH   1   2
BRANCH   1  10
ATOM     10  C   UNL     1     -18.966 -13.236  -1.287  1.00  0.00     0.000 C 
BRANCH  10  11
ATOM     11  C   UNL     1     -17.937 -13.160  -2.425  1.00  0.00    -0.000 C 
BRANCH  11  12
ATOM     12  C   UNL     1     -17.081 -14.432  -2.536  1.00  0.00    -0.000 C 
BRANCH  12  13
ATOM     13  C   UNL     1     -16.342 -14.762  -1.228  1.00  0.00    -0.000 C 
BRANCH  13  14
ATOM     14  C   UNL     1     -15.050 -13.944  -1.047  1.00  0.00    -0.000 C 
BRANCH  14  15
ATOM     15  C   UNL     1     -14.937 -13.198   0.295  1.00  0.00    -0.003 C 
ATOM     16  C   UNL     1     -15.695 -13.886   1.429  1.00  0.00     0.004 C 
ENDBRANCH  14  15
ENDBRANCH  13  14
ENDBRANCH  12  13
ENDBRANCH  11  12
ENDBRANCH  10  11
ENDBRANCH   1  10
TORSDOF 12
ENDMDL
MODEL 8
REMARK VINA RESULT:    -5.483      2.050      5.181
REMARK INTER + INTRA:         -11.071
REMARK INTER:                  -9.526
REMARK INTRA:                  -1.545
REMARK UNBOUND:                -1.742
REMARK SMILES CCCCCCCCCCCCCC(=O)[O-]
REMARK SMILES IDX 8 1 9 2 10 3 11 4 12 5 13 6 14 7 15 8 16 9 7 10 6 11 5 12
REMARK SMILES IDX 4 13 3 14 2 15 1 16
REMARK H PARENT
REMARK Flexibility Score: inf
ROOT
ATOM      1  C   UNL     1     -18.978 -12.902  -1.535  1.00  0.00     0.000 C 
ENDROOT
BRANCH   1   2
ATOM      2  C   UNL     1     -19.002 -11.886  -0.382  1.00  0.00     0.000 C 
BRANCH   2   3
ATOM      3  C   UNL     1     -17.846 -10.876  -0.456  1.00  0.00     0.000 C 
BRANCH   3   4
ATOM      4  C   UNL     1     -18.307  -9.483  -0.918  1.00  0.00     0.000 C 
BRANCH   4   5
ATOM      5  C   UNL     1     -17.158  -8.645  -1.501  1.00  0.00     0.006 C 
BRANCH   5   6
ATOM      6  C   UNL     1     -16.860  -8.985  -2.967  1.00  0.00     0.053 C 
BRANCH   6   7
ATOM      7  C   UNL     1     -15.523  -9.645  -3.087  1.00  0.00     0.041 C 
ATOM      8  O   UNL     1     -14.906 -10.018  -2.056  1.00  0.00    -0.550 OA
ATOM      9  O   UNL     1     -14.935  -9.804  -4.336  1.00  0.00    -0.550 OA
ENDBRANCH   6   7
ENDBRANCH   5   6
ENDBRANCH   4   5
ENDBRANCH   3   4
ENDBRANCH   2   3
ENDBRANCH   1   2
BRANCH   1  10
ATOM     10  C   UNL     1     -17.672 -12.798  -2.333  1.00  0.00     0.000 C 
BRANCH  10  11
ATOM     11  C   UNL     1     -17.081 -14.190  -2.603  1.00  0.00    -0.000 C 
BRANCH  11  12
ATOM     12  C   UNL     1     -16.283 -14.738  -1.409  1.00  0.00    -0.000 C 
BRANCH  12  13
ATOM     13  C   UNL     1     -14.936 -14.020  -1.219  1.00  0.00    -0.000 C 
BRANCH  13  14
ATOM     14  C   UNL     1     -14.825 -13.307   0.141  1.00  0.00    -0.000 C 
BRANCH  14  15
ATOM     15  C   UNL     1     -15.983 -13.587   1.118  1.00  0.00    -0.003 C 
ATOM     16  C   UNL     1     -15.548 -14.376   2.352  1.00  0.00     0.004 C 
ENDBRANCH  14  15
ENDBRANCH  13  14
ENDBRANCH  12  13
ENDBRANCH  11  12
ENDBRANCH  10  11
ENDBRANCH   1  10
TORSDOF 12
ENDMDL
MODEL 9
REMARK VINA RESULT:    -5.479      2.480      5.112
REMARK INTER + INTRA:         -11.065
REMARK INTER:                  -9.356
REMARK INTRA:                  -1.709
REMARK UNBOUND:                -1.742
REMARK SMILES CCCCCCCCCCCCCC(=O)[O-]
REMARK SMILES IDX 8 1 9 2 10 3 11 4 12 5 13 6 14 7 15 8 16 9 7 10 6 11 5 12
REMARK SMILES IDX 4 13 3 14 2 15 1 16
REMARK H PARENT
REMARK Flexibility Score: inf
ROOT
ATOM      1  C   UNL     1     -18.595 -11.194  -0.251  1.00  0.00     0.000 C 
ENDROOT
BRANCH   1   2
ATOM      2  C   UNL     1     -18.592 -10.216  -1.436  1.00  0.00     0.000 C 
BRANCH   2   3
ATOM      3  C   UNL     1     -17.388 -10.416  -2.370  1.00  0.00     0.000 C 
BRANCH   3   4
ATOM      4  C   UNL     1     -16.795  -9.085  -2.863  1.00  0.00     0.000 C 
BRANCH   4   5
ATOM      5  C   UNL     1     -15.575  -8.642  -2.040  1.00  0.00     0.006 C 
BRANCH   5   6
ATOM      6  C   UNL     1     -15.936  -7.640  -0.936  1.00  0.00     0.053 C 
BRANCH   6   7
ATOM      7  C   UNL     1     -15.919  -8.308   0.402  1.00  0.00     0.041 C 
ATOM      8  O   UNL     1     -16.838  -8.085   1.232  1.00  0.00    -0.550 OA
ATOM      9  O   UNL     1     -14.862  -9.138   0.752  1.00  0.00    -0.550 OA
ENDBRANCH   6   7
ENDBRANCH   5   6
ENDBRANCH   4   5
ENDBRANCH   3   4
ENDBRANCH   2   3
ENDBRANCH   1   2
BRANCH   1  10
ATOM     10  C   UNL     1     -17.184 -11.730   0.023  1.00  0.00     0.000 C 
BRANCH  10  11
ATOM     11  C   UNL     1     -17.193 -13.260   0.156  1.00  0.00    -0.000 C 
BRANCH  11  12
ATOM     12  C   UNL     1     -15.842 -13.896  -0.212  1.00  0.00    -0.000 C 
BRANCH  12  13
ATOM     13  C   UNL     1     -15.936 -14.807  -1.448  1.00  0.00    -0.000 C 
BRANCH  13  14
ATOM     14  C   UNL     1     -16.587 -14.110  -2.656  1.00  0.00    -0.000 C 
BRANCH  14  15
ATOM     15  C   UNL     1     -17.885 -14.766  -3.163  1.00  0.00    -0.003 C 
ATOM     16  C   UNL     1     -19.122 -13.899  -2.937  1.00  0.00     0.004 C 
ENDBRANCH  14  15
ENDBRANCH  13  14
ENDBRANCH  12  13
ENDBRANCH  11  12
ENDBRANCH  10  11
ENDBRANCH   1  10
TORSDOF 12
ENDMDL
