MODEL 1
REMARK VINA RESULT:    -7.433      0.000      0.000
REMARK INTER + INTRA:          -9.236
REMARK INTER:                  -8.954
REMARK INTRA:                  -0.283
REMARK UNBOUND:                -0.283
REMARK SMILES O=c1c(O)c(-c2ccc(O)c(O)c2)oc2cc(O)cc(O)c12
REMARK SMILES IDX 5 1 3 2 2 3 1 4 22 5 20 6 19 7 17 8 16 9 15 10 14 11 6 12
REMARK SMILES IDX 7 13 8 14 9 15 13 16 11 17 10 18 12 20 4 22 21 24 18 26
REMARK H PARENT 10 19 12 21 4 23 21 25 18 27
REMARK Flexibility Score: inf
ROOT
ATOM      1  C   UNL     1     -11.701 -43.448 -10.022  1.00  0.00     0.180 A 
ATOM      2  C   UNL     1     -11.391 -44.724 -10.532  1.00  0.00     0.208 A 
ATOM      3  C   UNL     1     -10.115 -44.946 -11.073  1.00  0.00     0.238 A 
ATOM      4  O   UNL     1      -9.831 -46.082 -11.542  1.00  0.00    -0.285 OA
ATOM      5  C   UNL     1      -9.169 -43.902 -11.079  1.00  0.00     0.111 A 
ATOM      6  C   UNL     1      -7.861 -44.045 -11.602  1.00  0.00     0.134 A 
ATOM      7  C   UNL     1      -6.973 -42.958 -11.562  1.00  0.00     0.093 A 
ATOM      8  C   UNL     1      -7.368 -41.735 -11.010  1.00  0.00     0.123 A 
ATOM      9  C   UNL     1      -8.656 -41.590 -10.493  1.00  0.00     0.094 A 
ATOM     10  C   UNL     1      -9.557 -42.659 -10.524  1.00  0.00     0.146 A 
ATOM     11  O   UNL     1     -10.778 -42.491 -10.030  1.00  0.00    -0.452 OA
ENDROOT
BRANCH   1  12
ATOM     12  C   UNL     1     -13.031 -43.130  -9.452  1.00  0.00     0.025 A 
ATOM     13  C   UNL     1     -13.245 -43.107  -8.063  1.00  0.00     0.016 A 
ATOM     14  C   UNL     1     -14.514 -42.828  -7.549  1.00  0.00     0.051 A 
ATOM     15  C   UNL     1     -15.588 -42.580  -8.412  1.00  0.00     0.157 A 
ATOM     16  C   UNL     1     -14.116 -42.902 -10.314  1.00  0.00     0.062 A 
ATOM     17  C   UNL     1     -15.388 -42.622  -9.802  1.00  0.00     0.158 A 
BRANCH  15  18
ATOM     18  O   UNL     1     -16.852 -42.300  -7.896  1.00  0.00    -0.504 OA
ATOM     19  H   UNL     1     -17.282 -42.891  -7.194  1.00  0.00     0.293 HD
ENDBRANCH  15  18
BRANCH  17  20
ATOM     20  O   UNL     1     -16.438 -42.388 -10.689  1.00  0.00    -0.504 OA
ATOM     21  H   UNL     1     -16.954 -41.517 -10.695  1.00  0.00     0.293 HD
ENDBRANCH  17  20
ENDBRANCH   1  12
BRANCH   2  22
ATOM     22  O   UNL     1     -12.331 -45.757 -10.470  1.00  0.00    -0.502 OA
ATOM     23  H   UNL     1     -12.837 -46.078 -11.286  1.00  0.00     0.293 HD
ENDBRANCH   2  22
BRANCH   6  24
ATOM     24  O   UNL     1      -7.438 -45.253 -12.158  1.00  0.00    -0.507 OA
ATOM     25  H   UNL     1      -6.939 -45.945 -11.611  1.00  0.00     0.293 HD
ENDBRANCH   6  24
BRANCH   8  26
ATOM     26  O   UNL     1      -6.486 -40.658 -10.968  1.00  0.00    -0.508 OA
ATOM     27  H   UNL     1      -6.072 -40.279 -11.812  1.00  0.00     0.293 HD
ENDBRANCH   8  26
TORSDOF 6
ENDMDL
MODEL 2
REMARK VINA RESULT:    -7.369      1.375      3.254
REMARK INTER + INTRA:          -9.159
REMARK INTER:                  -8.887
REMARK INTRA:                  -0.272
REMARK UNBOUND:                -0.283
REMARK SMILES O=c1c(O)c(-c2ccc(O)c(O)c2)oc2cc(O)cc(O)c12
REMARK SMILES IDX 5 1 3 2 2 3 1 4 22 5 20 6 19 7 17 8 16 9 15 10 14 11 6 12
REMARK SMILES IDX 7 13 8 14 9 15 13 16 11 17 10 18 12 20 4 22 21 24 18 26
REMARK H PARENT 10 19 12 21 4 23 21 25 18 27
REMARK Flexibility Score: inf
ROOT
ATOM      1  C   UNL     1     -11.674 -42.284 -10.197  1.00  0.00     0.180 A 
ATOM      2  C   UNL     1     -10.708 -41.286  -9.965  1.00  0.00     0.208 A 
ATOM      3  C   UNL     1      -9.369 -41.547 -10.295  1.00  0.00     0.238 A 
ATOM      4  O   UNL     1      -8.495 -40.664 -10.080  1.00  0.00    -0.285 OA
ATOM      5  C   UNL     1      -9.022 -42.787 -10.867  1.00  0.00     0.111 A 
ATOM      6  C   UNL     1      -7.696 -43.127 -11.233  1.00  0.00     0.134 A 
ATOM      7  C   UNL     1      -7.433 -44.380 -11.807  1.00  0.00     0.093 A 
ATOM      8  C   UNL     1      -8.468 -45.297 -12.023  1.00  0.00     0.123 A 
ATOM      9  C   UNL     1      -9.775 -44.965 -11.664  1.00  0.00     0.094 A 
ATOM     10  C   UNL     1     -10.059 -43.723 -11.090  1.00  0.00     0.146 A 
ATOM     11  O   UNL     1     -11.312 -43.437 -10.754  1.00  0.00    -0.452 OA
ENDROOT
BRANCH   1  12
ATOM     12  C   UNL     1     -13.103 -42.092  -9.859  1.00  0.00     0.025 A 
ATOM     13  C   UNL     1     -14.054 -41.785 -10.847  1.00  0.00     0.016 A 
ATOM     14  C   UNL     1     -15.393 -41.585 -10.500  1.00  0.00     0.051 A 
ATOM     15  C   UNL     1     -15.798 -41.675  -9.163  1.00  0.00     0.157 A 
ATOM     16  C   UNL     1     -13.510 -42.160  -8.517  1.00  0.00     0.062 A 
ATOM     17  C   UNL     1     -14.850 -41.960  -8.166  1.00  0.00     0.158 A 
BRANCH  15  18
ATOM     18  O   UNL     1     -17.135 -41.476  -8.821  1.00  0.00    -0.504 OA
ATOM     19  H   UNL     1     -17.572 -41.990  -8.065  1.00  0.00     0.293 HD
ENDBRANCH  15  18
BRANCH  17  20
ATOM     20  O   UNL     1     -15.220 -42.048  -6.824  1.00  0.00    -0.504 OA
ATOM     21  H   UNL     1     -15.136 -42.909  -6.298  1.00  0.00     0.293 HD
ENDBRANCH  17  20
ENDBRANCH   1  12
BRANCH   2  22
ATOM     22  O   UNL     1     -11.087 -40.046  -9.441  1.00  0.00    -0.502 OA
ATOM     23  H   UNL     1     -11.179 -39.220 -10.018  1.00  0.00     0.293 HD
ENDBRANCH   2  22
BRANCH   6  24
ATOM     24  O   UNL     1      -6.644 -42.233 -11.030  1.00  0.00    -0.507 OA
ATOM     25  H   UNL     1      -6.752 -41.405 -10.456  1.00  0.00     0.293 HD
ENDBRANCH   6  24
BRANCH   8  26
ATOM     26  O   UNL     1      -8.207 -46.540 -12.595  1.00  0.00    -0.508 OA
ATOM     27  H   UNL     1      -8.385 -46.721 -13.576  1.00  0.00     0.293 HD
ENDBRANCH   8  26
TORSDOF 6
ENDMDL
MODEL 3
REMARK VINA RESULT:    -7.305      3.674      6.702
REMARK INTER + INTRA:          -9.082
REMARK INTER:                  -8.775
REMARK INTRA:                  -0.307
REMARK UNBOUND:                -0.283
REMARK SMILES O=c1c(O)c(-c2ccc(O)c(O)c2)oc2cc(O)cc(O)c12
REMARK SMILES IDX 5 1 3 2 2 3 1 4 22 5 20 6 19 7 17 8 16 9 15 10 14 11 6 12
REMARK SMILES IDX 7 13 8 14 9 15 13 16 11 17 10 18 12 20 4 22 21 24 18 26
REMARK H PARENT 10 19 12 21 4 23 21 25 18 27
REMARK Flexibility Score: inf
ROOT
ATOM      1  C   UNL     1     -11.874 -43.267  -7.017  1.00  0.00     0.180 A 
ATOM      2  C   UNL     1     -11.206 -43.162  -8.252  1.00  0.00     0.208 A 
ATOM      3  C   UNL     1     -11.926 -42.737  -9.379  1.00  0.00     0.238 A 
ATOM      4  O   UNL     1     -11.340 -42.651 -10.492  1.00  0.00    -0.285 OA
ATOM      5  C   UNL     1     -13.291 -42.407  -9.251  1.00  0.00     0.111 A 
ATOM      6  C   UNL     1     -14.086 -41.967 -10.336  1.00  0.00     0.134 A 
ATOM      7  C   UNL     1     -15.436 -41.649 -10.124  1.00  0.00     0.093 A 
ATOM      8  C   UNL     1     -16.004 -41.760  -8.850  1.00  0.00     0.123 A 
ATOM      9  C   UNL     1     -15.223 -42.193  -7.778  1.00  0.00     0.094 A 
ATOM     10  C   UNL     1     -13.876 -42.517  -7.968  1.00  0.00     0.146 A 
ATOM     11  O   UNL     1     -13.158 -42.932  -6.930  1.00  0.00    -0.452 OA
ENDROOT
BRANCH   1  12
ATOM     12  C   UNL     1     -11.189 -43.725  -5.786  1.00  0.00     0.025 A 
ATOM     13  C   UNL     1     -11.303 -45.052  -5.335  1.00  0.00     0.016 A 
ATOM     14  C   UNL     1     -10.667 -45.455  -4.159  1.00  0.00     0.051 A 
ATOM     15  C   UNL     1      -9.918 -44.538  -3.410  1.00  0.00     0.157 A 
ATOM     16  C   UNL     1     -10.455 -42.805  -5.021  1.00  0.00     0.062 A 
ATOM     17  C   UNL     1      -9.816 -43.205  -3.842  1.00  0.00     0.158 A 
BRANCH  15  18
ATOM     18  O   UNL     1      -9.283 -44.945  -2.237  1.00  0.00    -0.504 OA
ATOM     19  H   UNL     1      -9.809 -45.263  -1.432  1.00  0.00     0.293 HD
ENDBRANCH  15  18
BRANCH  17  20
ATOM     20  O   UNL     1      -9.085 -42.266  -3.114  1.00  0.00    -0.504 OA
ATOM     21  H   UNL     1      -9.218 -42.135  -2.119  1.00  0.00     0.293 HD
ENDBRANCH  17  20
ENDBRANCH   1  12
BRANCH   2  22
ATOM     22  O   UNL     1      -9.841 -43.448  -8.342  1.00  0.00    -0.502 OA
ATOM     23  H   UNL     1      -9.311 -43.302  -9.193  1.00  0.00     0.293 HD
ENDBRANCH   2  22
BRANCH   6  24
ATOM     24  O   UNL     1     -13.548 -41.845 -11.617  1.00  0.00    -0.507 OA
ATOM     25  H   UNL     1     -12.989 -42.581 -12.033  1.00  0.00     0.293 HD
ENDBRANCH   6  24
BRANCH   8  26
ATOM     26  O   UNL     1     -17.343 -41.442  -8.640  1.00  0.00    -0.508 OA
ATOM     27  H   UNL     1     -18.076 -42.134  -8.744  1.00  0.00     0.293 HD
ENDBRANCH   8  26
TORSDOF 6
ENDMDL
MODEL 4
REMARK VINA RESULT:    -7.177      8.059     12.363
REMARK INTER + INTRA:          -8.928
REMARK INTER:                  -8.941
REMARK INTRA:                   0.014
REMARK UNBOUND:                -0.283
REMARK SMILES O=c1c(O)c(-c2ccc(O)c(O)c2)oc2cc(O)cc(O)c12
REMARK SMILES IDX 5 1 3 2 2 3 1 4 22 5 20 6 19 7 17 8 16 9 15 10 14 11 6 12
REMARK SMILES IDX 7 13 8 14 9 15 13 16 11 17 10 18 12 20 4 22 21 24 18 26
REMARK H PARENT 10 19 12 21 4 23 21 25 18 27
REMARK Flexibility Score: inf
ROOT
ATOM      1  C   UNL     1     -16.183 -46.346  -1.816  1.00  0.00     0.180 A 
ATOM      2  C   UNL     1     -17.280 -45.526  -2.142  1.00  0.00     0.208 A 
ATOM      3  C   UNL     1     -17.998 -44.910  -1.105  1.00  0.00     0.238 A 
ATOM      4  O   UNL     1     -18.990 -44.183  -1.385  1.00  0.00    -0.285 OA
ATOM      5  C   UNL     1     -17.598 -45.105   0.232  1.00  0.00     0.111 A 
ATOM      6  C   UNL     1     -18.264 -44.517   1.334  1.00  0.00     0.134 A 
ATOM      7  C   UNL     1     -17.797 -44.754   2.636  1.00  0.00     0.093 A 
ATOM      8  C   UNL     1     -16.678 -45.564   2.856  1.00  0.00     0.123 A 
ATOM      9  C   UNL     1     -16.019 -46.146   1.773  1.00  0.00     0.094 A 
ATOM     10  C   UNL     1     -16.468 -45.924   0.468  1.00  0.00     0.146 A 
ATOM     11  O   UNL     1     -15.824 -46.495  -0.544  1.00  0.00    -0.452 OA
ENDROOT
BRANCH   1  12
ATOM     12  C   UNL     1     -15.387 -47.045  -2.851  1.00  0.00     0.025 A 
ATOM     13  C   UNL     1     -15.102 -48.419  -2.752  1.00  0.00     0.016 A 
ATOM     14  C   UNL     1     -14.330 -49.052  -3.729  1.00  0.00     0.051 A 
ATOM     15  C   UNL     1     -13.820 -48.322  -4.810  1.00  0.00     0.157 A 
ATOM     16  C   UNL     1     -14.857 -46.314  -3.926  1.00  0.00     0.062 A 
ATOM     17  C   UNL     1     -14.082 -46.945  -4.907  1.00  0.00     0.158 A 
BRANCH  15  18
ATOM     18  O   UNL     1     -13.051 -48.958  -5.784  1.00  0.00    -0.504 OA
ATOM     19  H   UNL     1     -12.268 -49.551  -5.538  1.00  0.00     0.293 HD
ENDBRANCH  15  18
BRANCH  17  20
ATOM     20  O   UNL     1     -13.583 -46.189  -5.966  1.00  0.00    -0.504 OA
ATOM     21  H   UNL     1     -14.130 -45.999  -6.797  1.00  0.00     0.293 HD
ENDBRANCH  17  20
ENDBRANCH   1  12
BRANCH   2  22
ATOM     22  O   UNL     1     -17.627 -45.310  -3.479  1.00  0.00    -0.502 OA
ATOM     23  H   UNL     1     -16.940 -45.082  -4.186  1.00  0.00     0.293 HD
ENDBRANCH   2  22
BRANCH   6  24
ATOM     24  O   UNL     1     -19.381 -43.703   1.146  1.00  0.00    -0.507 OA
ATOM     25  H   UNL     1     -19.635 -43.350   0.230  1.00  0.00     0.293 HD
ENDBRANCH   6  24
BRANCH   8  26
ATOM     26  O   UNL     1     -16.214 -45.797   4.148  1.00  0.00    -0.508 OA
ATOM     27  H   UNL     1     -16.032 -46.735   4.486  1.00  0.00     0.293 HD
ENDBRANCH   8  26
TORSDOF 6
ENDMDL
MODEL 5
REMARK VINA RESULT:    -7.134      4.375      6.959
REMARK INTER + INTRA:          -8.877
REMARK INTER:                  -8.896
REMARK INTRA:                   0.019
REMARK UNBOUND:                -0.283
REMARK SMILES O=c1c(O)c(-c2ccc(O)c(O)c2)oc2cc(O)cc(O)c12
REMARK SMILES IDX 5 1 3 2 2 3 1 4 22 5 20 6 19 7 17 8 16 9 15 10 14 11 6 12
REMARK SMILES IDX 7 13 8 14 9 15 13 16 11 17 10 18 12 20 4 22 21 24 18 26
REMARK H PARENT 10 19 12 21 4 23 21 25 18 27
REMARK Flexibility Score: inf
ROOT
ATOM      1  C   UNL     1     -12.738 -42.983  -6.221  1.00  0.00     0.180 A 
ATOM      2  C   UNL     1     -14.106 -43.311  -6.146  1.00  0.00     0.208 A 
ATOM      3  C   UNL     1     -14.991 -42.746  -7.076  1.00  0.00     0.238 A 
ATOM      4  O   UNL     1     -16.220 -43.024  -7.011  1.00  0.00    -0.285 OA
ATOM      5  C   UNL     1     -14.496 -41.881  -8.073  1.00  0.00     0.111 A 
ATOM      6  C   UNL     1     -15.321 -41.273  -9.050  1.00  0.00     0.134 A 
ATOM      7  C   UNL     1     -14.749 -40.430 -10.016  1.00  0.00     0.093 A 
ATOM      8  C   UNL     1     -13.372 -40.187 -10.024  1.00  0.00     0.123 A 
ATOM      9  C   UNL     1     -12.556 -40.784  -9.063  1.00  0.00     0.094 A 
ATOM     10  C   UNL     1     -13.105 -41.625  -8.091  1.00  0.00     0.146 A 
ATOM     11  O   UNL     1     -12.304 -42.176  -7.185  1.00  0.00    -0.452 OA
ENDROOT
BRANCH   1  12
ATOM     12  C   UNL     1     -11.745 -43.524  -5.265  1.00  0.00     0.025 A 
ATOM     13  C   UNL     1     -11.680 -44.899  -4.976  1.00  0.00     0.016 A 
ATOM     14  C   UNL     1     -10.750 -45.383  -4.053  1.00  0.00     0.051 A 
ATOM     15  C   UNL     1      -9.881 -44.502  -3.395  1.00  0.00     0.157 A 
ATOM     16  C   UNL     1     -10.886 -42.643  -4.588  1.00  0.00     0.062 A 
ATOM     17  C   UNL     1      -9.953 -43.125  -3.662  1.00  0.00     0.158 A 
BRANCH  15  18
ATOM     18  O   UNL     1      -8.954 -44.989  -2.476  1.00  0.00    -0.504 OA
ATOM     19  H   UNL     1      -8.002 -44.645  -2.449  1.00  0.00     0.293 HD
ENDBRANCH  15  18
BRANCH  17  20
ATOM     20  O   UNL     1      -9.109 -42.221  -3.019  1.00  0.00    -0.504 OA
ATOM     21  H   UNL     1      -9.122 -41.230  -3.227  1.00  0.00     0.293 HD
ENDBRANCH  17  20
ENDBRANCH   1  12
BRANCH   2  22
ATOM     22  O   UNL     1     -14.564 -44.210  -5.178  1.00  0.00    -0.502 OA
ATOM     23  H   UNL     1     -14.981 -45.100  -5.419  1.00  0.00     0.293 HD
ENDBRANCH   2  22
BRANCH   6  24
ATOM     24  O   UNL     1     -16.698 -41.498  -9.068  1.00  0.00    -0.507 OA
ATOM     25  H   UNL     1     -17.355 -40.810  -8.718  1.00  0.00     0.293 HD
ENDBRANCH   6  24
BRANCH   8  26
ATOM     26  O   UNL     1     -12.804 -39.352 -10.984  1.00  0.00    -0.508 OA
ATOM     27  H   UNL     1     -12.638 -38.369 -10.802  1.00  0.00     0.293 HD
ENDBRANCH   8  26
TORSDOF 6
ENDMDL
MODEL 6
REMARK VINA RESULT:    -7.084      4.514      6.451
REMARK INTER + INTRA:          -8.816
REMARK INTER:                  -8.522
REMARK INTRA:                  -0.295
REMARK UNBOUND:                -0.283
REMARK SMILES O=c1c(O)c(-c2ccc(O)c(O)c2)oc2cc(O)cc(O)c12
REMARK SMILES IDX 5 1 3 2 2 3 1 4 22 5 20 6 19 7 17 8 16 9 15 10 14 11 6 12
REMARK SMILES IDX 7 13 8 14 9 15 13 16 11 17 10 18 12 20 4 22 21 24 18 26
REMARK H PARENT 10 19 12 21 4 23 21 25 18 27
REMARK Flexibility Score: inf
ROOT
ATOM      1  C   UNL     1     -11.656 -43.144  -6.764  1.00  0.00     0.180 A 
ATOM      2  C   UNL     1     -12.051 -44.485  -6.935  1.00  0.00     0.208 A 
ATOM      3  C   UNL     1     -11.985 -45.357  -5.838  1.00  0.00     0.238 A 
ATOM      4  O   UNL     1     -12.326 -46.563  -5.984  1.00  0.00    -0.285 OA
ATOM      5  C   UNL     1     -11.547 -44.874  -4.589  1.00  0.00     0.111 A 
ATOM      6  C   UNL     1     -11.456 -45.687  -3.432  1.00  0.00     0.134 A 
ATOM      7  C   UNL     1     -11.018 -45.127  -2.222  1.00  0.00     0.093 A 
ATOM      8  C   UNL     1     -10.672 -43.773  -2.146  1.00  0.00     0.123 A 
ATOM      9  C   UNL     1     -10.761 -42.969  -3.283  1.00  0.00     0.094 A 
ATOM     10  C   UNL     1     -11.193 -43.507  -4.499  1.00  0.00     0.146 A 
ATOM     11  O   UNL     1     -11.262 -42.719  -5.567  1.00  0.00    -0.452 OA
ENDROOT
BRANCH   1  12
ATOM     12  C   UNL     1     -11.679 -42.167  -7.877  1.00  0.00     0.025 A 
ATOM     13  C   UNL     1     -10.679 -42.161  -8.866  1.00  0.00     0.016 A 
ATOM     14  C   UNL     1     -10.708 -41.214  -9.893  1.00  0.00     0.051 A 
ATOM     15  C   UNL     1     -11.727 -40.254  -9.942  1.00  0.00     0.157 A 
ATOM     16  C   UNL     1     -12.686 -41.190  -7.918  1.00  0.00     0.062 A 
ATOM     17  C   UNL     1     -12.718 -40.240  -8.946  1.00  0.00     0.158 A 
BRANCH  15  18
ATOM     18  O   UNL     1     -11.754 -39.313 -10.969  1.00  0.00    -0.504 OA
ATOM     19  H   UNL     1     -12.528 -39.260 -11.620  1.00  0.00     0.293 HD
ENDBRANCH  15  18
BRANCH  17  20
ATOM     20  O   UNL     1     -13.741 -39.293  -8.961  1.00  0.00    -0.504 OA
ATOM     21  H   UNL     1     -13.892 -38.652  -8.191  1.00  0.00     0.293 HD
ENDBRANCH  17  20
ENDBRANCH   1  12
BRANCH   2  22
ATOM     22  O   UNL     1     -12.528 -44.927  -8.173  1.00  0.00    -0.502 OA
ATOM     23  H   UNL     1     -13.440 -44.665  -8.526  1.00  0.00     0.293 HD
ENDBRANCH   2  22
BRANCH   6  24
ATOM     24  O   UNL     1     -11.795 -47.039  -3.477  1.00  0.00    -0.507 OA
ATOM     25  H   UNL     1     -11.250 -47.707  -4.011  1.00  0.00     0.293 HD
ENDBRANCH   6  24
BRANCH   8  26
ATOM     26  O   UNL     1     -10.240 -43.218  -0.944  1.00  0.00    -0.508 OA
ATOM     27  H   UNL     1      -9.266 -43.244  -0.667  1.00  0.00     0.293 HD
ENDBRANCH   8  26
TORSDOF 6
ENDMDL
MODEL 7
REMARK VINA RESULT:    -7.068      7.681      9.959
REMARK INTER + INTRA:          -8.797
REMARK INTER:                  -8.591
REMARK INTRA:                  -0.206
REMARK UNBOUND:                -0.283
REMARK SMILES O=c1c(O)c(-c2ccc(O)c(O)c2)oc2cc(O)cc(O)c12
REMARK SMILES IDX 5 1 3 2 2 3 1 4 22 5 20 6 19 7 17 8 16 9 15 10 14 11 6 12
REMARK SMILES IDX 7 13 8 14 9 15 13 16 11 17 10 18 12 20 4 22 21 24 18 26
REMARK H PARENT 10 19 12 21 4 23 21 25 18 27
REMARK Flexibility Score: inf
ROOT
ATOM      1  C   UNL     1     -13.348 -45.885  -1.587  1.00  0.00     0.180 A 
ATOM      2  C   UNL     1     -14.055 -47.078  -1.343  1.00  0.00     0.208 A 
ATOM      3  C   UNL     1     -14.286 -47.961  -2.410  1.00  0.00     0.238 A 
ATOM      4  O   UNL     1     -14.929 -49.027  -2.205  1.00  0.00    -0.285 OA
ATOM      5  C   UNL     1     -13.793 -47.648  -3.693  1.00  0.00     0.111 A 
ATOM      6  C   UNL     1     -13.978 -48.485  -4.820  1.00  0.00     0.134 A 
ATOM      7  C   UNL     1     -13.447 -48.106  -6.062  1.00  0.00     0.093 A 
ATOM      8  C   UNL     1     -12.734 -46.910  -6.198  1.00  0.00     0.123 A 
ATOM      9  C   UNL     1     -12.549 -46.083  -5.090  1.00  0.00     0.094 A 
ATOM     10  C   UNL     1     -13.071 -46.440  -3.843  1.00  0.00     0.146 A 
ATOM     11  O   UNL     1     -12.883 -45.630  -2.807  1.00  0.00    -0.452 OA
ENDROOT
BRANCH   1  12
ATOM     12  C   UNL     1     -13.081 -44.895  -0.519  1.00  0.00     0.025 A 
ATOM     13  C   UNL     1     -14.124 -44.178   0.092  1.00  0.00     0.016 A 
ATOM     14  C   UNL     1     -13.845 -43.232   1.082  1.00  0.00     0.051 A 
ATOM     15  C   UNL     1     -12.522 -42.979   1.466  1.00  0.00     0.157 A 
ATOM     16  C   UNL     1     -11.755 -44.624  -0.145  1.00  0.00     0.062 A 
ATOM     17  C   UNL     1     -11.472 -43.677   0.846  1.00  0.00     0.158 A 
BRANCH  15  18
ATOM     18  O   UNL     1     -12.248 -42.036   2.455  1.00  0.00    -0.504 OA
ATOM     19  H   UNL     1     -11.824 -41.142   2.234  1.00  0.00     0.293 HD
ENDBRANCH  15  18
BRANCH  17  20
ATOM     20  O   UNL     1     -10.144 -43.442   1.200  1.00  0.00    -0.504 OA
ATOM     21  H   UNL     1      -9.764 -42.507   1.277  1.00  0.00     0.293 HD
ENDBRANCH  17  20
ENDBRANCH   1  12
BRANCH   2  22
ATOM     22  O   UNL     1     -14.492 -47.388  -0.052  1.00  0.00    -0.502 OA
ATOM     23  H   UNL     1     -15.298 -47.976   0.121  1.00  0.00     0.293 HD
ENDBRANCH   2  22
BRANCH   6  24
ATOM     24  O   UNL     1     -14.684 -49.684  -4.715  1.00  0.00    -0.507 OA
ATOM     25  H   UNL     1     -14.376 -50.526  -5.187  1.00  0.00     0.293 HD
ENDBRANCH   6  24
BRANCH   8  26
ATOM     26  O   UNL     1     -12.205 -46.536  -7.431  1.00  0.00    -0.508 OA
ATOM     27  H   UNL     1     -12.715 -45.935  -8.067  1.00  0.00     0.293 HD
ENDBRANCH   8  26
TORSDOF 6
ENDMDL
MODEL 8
REMARK VINA RESULT:    -7.047      8.566     11.877
REMARK INTER + INTRA:          -8.771
REMARK INTER:                  -8.477
REMARK INTRA:                  -0.294
REMARK UNBOUND:                -0.283
REMARK SMILES O=c1c(O)c(-c2ccc(O)c(O)c2)oc2cc(O)cc(O)c12
REMARK SMILES IDX 5 1 3 2 2 3 1 4 22 5 20 6 19 7 17 8 16 9 15 10 14 11 6 12
REMARK SMILES IDX 7 13 8 14 9 15 13 16 11 17 10 18 12 20 4 22 21 24 18 26
REMARK H PARENT 10 19 12 21 4 23 21 25 18 27
REMARK Flexibility Score: inf
ROOT
ATOM      1  C   UNL     1     -15.256 -44.588  -0.471  1.00  0.00     0.180 A 
ATOM      2  C   UNL     1     -16.229 -44.909   0.495  1.00  0.00     0.208 A 
ATOM      3  C   UNL     1     -15.927 -44.715   1.852  1.00  0.00     0.238 A 
ATOM      4  O   UNL     1     -16.787 -45.010   2.726  1.00  0.00    -0.285 OA
ATOM      5  C   UNL     1     -14.672 -44.189   2.219  1.00  0.00     0.111 A 
ATOM      6  C   UNL     1     -14.291 -43.960   3.564  1.00  0.00     0.134 A 
ATOM      7  C   UNL     1     -13.025 -43.424   3.846  1.00  0.00     0.093 A 
ATOM      8  C   UNL     1     -12.136 -43.112   2.812  1.00  0.00     0.123 A 
ATOM      9  C   UNL     1     -12.507 -43.337   1.486  1.00  0.00     0.094 A 
ATOM     10  C   UNL     1     -13.763 -43.871   1.182  1.00  0.00     0.146 A 
ATOM     11  O   UNL     1     -14.088 -44.079  -0.089  1.00  0.00    -0.452 OA
ENDROOT
BRANCH   1  12
ATOM     12  C   UNL     1     -15.491 -44.781  -1.920  1.00  0.00     0.025 A 
ATOM     13  C   UNL     1     -14.944 -45.877  -2.611  1.00  0.00     0.016 A 
ATOM     14  C   UNL     1     -15.161 -46.025  -3.984  1.00  0.00     0.051 A 
ATOM     15  C   UNL     1     -15.913 -45.077  -4.688  1.00  0.00     0.157 A 
ATOM     16  C   UNL     1     -16.227 -43.822  -2.634  1.00  0.00     0.062 A 
ATOM     17  C   UNL     1     -16.446 -43.968  -4.009  1.00  0.00     0.158 A 
BRANCH  15  18
ATOM     18  O   UNL     1     -16.128 -45.229  -6.056  1.00  0.00    -0.504 OA
ATOM     19  H   UNL     1     -16.374 -46.126  -6.459  1.00  0.00     0.293 HD
ENDBRANCH  15  18
BRANCH  17  20
ATOM     20  O   UNL     1     -17.193 -43.001  -4.683  1.00  0.00    -0.504 OA
ATOM     21  H   UNL     1     -17.070 -42.819  -5.671  1.00  0.00     0.293 HD
ENDBRANCH  17  20
ENDBRANCH   1  12
BRANCH   2  22
ATOM     22  O   UNL     1     -17.483 -45.383   0.102  1.00  0.00    -0.502 OA
ATOM     23  H   UNL     1     -17.817 -46.306   0.354  1.00  0.00     0.293 HD
ENDBRANCH   2  22
BRANCH   6  24
ATOM     24  O   UNL     1     -15.157 -44.260   4.616  1.00  0.00    -0.507 OA
ATOM     25  H   UNL     1     -16.153 -44.087   4.551  1.00  0.00     0.293 HD
ENDBRANCH   6  24
BRANCH   8  26
ATOM     26  O   UNL     1     -10.880 -42.578   3.092  1.00  0.00    -0.508 OA
ATOM     27  H   UNL     1     -10.698 -42.075   3.953  1.00  0.00     0.293 HD
ENDBRANCH   8  26
TORSDOF 6
ENDMDL
MODEL 9
REMARK VINA RESULT:    -6.972      4.674      6.264
REMARK INTER + INTRA:          -8.681
REMARK INTER:                  -8.396
REMARK INTRA:                  -0.285
REMARK UNBOUND:                -0.283
REMARK SMILES O=c1c(O)c(-c2ccc(O)c(O)c2)oc2cc(O)cc(O)c12
REMARK SMILES IDX 5 1 3 2 2 3 1 4 22 5 20 6 19 7 17 8 16 9 15 10 14 11 6 12
REMARK SMILES IDX 7 13 8 14 9 15 13 16 11 17 10 18 12 20 4 22 21 24 18 26
REMARK H PARENT 10 19 12 21 4 23 21 25 18 27
REMARK Flexibility Score: inf
ROOT
ATOM      1  C   UNL     1     -11.231 -42.853  -5.794  1.00  0.00     0.180 A 
ATOM      2  C   UNL     1     -10.757 -43.766  -6.755  1.00  0.00     0.208 A 
ATOM      3  C   UNL     1     -11.040 -43.534  -8.109  1.00  0.00     0.238 A 
ATOM      4  O   UNL     1     -10.630 -44.352  -8.978  1.00  0.00    -0.285 OA
ATOM      5  C   UNL     1     -11.772 -42.388  -8.482  1.00  0.00     0.111 A 
ATOM      6  C   UNL     1     -12.096 -42.079  -9.826  1.00  0.00     0.134 A 
ATOM      7  C   UNL     1     -12.821 -40.913 -10.115  1.00  0.00     0.093 A 
ATOM      8  C   UNL     1     -13.226 -40.052  -9.090  1.00  0.00     0.123 A 
ATOM      9  C   UNL     1     -12.909 -40.353  -7.765  1.00  0.00     0.094 A 
ATOM     10  C   UNL     1     -12.189 -41.510  -7.454  1.00  0.00     0.146 A 
ATOM     11  O   UNL     1     -11.905 -41.774  -6.183  1.00  0.00    -0.452 OA
ENDROOT
BRANCH   1  12
ATOM     12  C   UNL     1     -10.990 -43.038  -4.344  1.00  0.00     0.025 A 
ATOM     13  C   UNL     1      -9.743 -42.742  -3.766  1.00  0.00     0.016 A 
ATOM     14  C   UNL     1      -9.531 -42.947  -2.400  1.00  0.00     0.051 A 
ATOM     15  C   UNL     1     -10.555 -43.463  -1.595  1.00  0.00     0.157 A 
ATOM     16  C   UNL     1     -12.006 -43.574  -3.538  1.00  0.00     0.062 A 
ATOM     17  C   UNL     1     -11.798 -43.781  -2.169  1.00  0.00     0.158 A 
BRANCH  15  18
ATOM     18  O   UNL     1     -10.341 -43.665  -0.233  1.00  0.00    -0.504 OA
ATOM     19  H   UNL     1     -11.026 -44.134   0.348  1.00  0.00     0.293 HD
ENDBRANCH  15  18
BRANCH  17  20
ATOM     20  O   UNL     1     -12.835 -44.304  -1.397  1.00  0.00    -0.504 OA
ATOM     21  H   UNL     1     -13.631 -44.772  -1.812  1.00  0.00     0.293 HD
ENDBRANCH  17  20
ENDBRANCH   1  12
BRANCH   2  22
ATOM     22  O   UNL     1      -9.992 -44.869  -6.363  1.00  0.00    -0.502 OA
ATOM     23  H   UNL     1      -9.014 -44.787  -6.111  1.00  0.00     0.293 HD
ENDBRANCH   2  22
BRANCH   6  24
ATOM     24  O   UNL     1     -11.705 -42.918 -10.869  1.00  0.00    -0.507 OA
ATOM     25  H   UNL     1     -10.775 -43.321 -10.910  1.00  0.00     0.293 HD
ENDBRANCH   6  24
BRANCH   8  26
ATOM     26  O   UNL     1     -13.943 -38.894  -9.378  1.00  0.00    -0.508 OA
ATOM     27  H   UNL     1     -14.838 -38.928  -9.853  1.00  0.00     0.293 HD
ENDBRANCH   8  26
TORSDOF 6
ENDMDL
