MODEL 1
REMARK VINA RESULT:    -6.002      0.000      0.000
REMARK INTER + INTRA:         -12.696
REMARK INTER:                 -10.915
REMARK INTRA:                  -1.781
REMARK UNBOUND:                -1.781
REMARK SMILES CCCCCCCCCCCCCCCC(=O)[O-]
REMARK SMILES IDX 9 1 10 2 11 3 12 4 13 5 14 6 15 7 16 8 17 9 18 10 8 11 7 12
REMARK SMILES IDX 6 13 5 14 4 15 3 16 2 17 1 18
REMARK H PARENT
REMARK Flexibility Score: inf
ROOT
ATOM      1  C   UNL     1      16.515  -1.714  16.722  1.00  0.00     0.000 C 
ENDROOT
BRANCH   1   2
ATOM      2  C   UNL     1      16.561  -0.719  15.545  1.00  0.00     0.000 C 
BRANCH   2   3
ATOM      3  C   UNL     1      16.951   0.723  15.926  1.00  0.00     0.000 C 
BRANCH   3   4
ATOM      4  C   UNL     1      15.925   1.804  15.529  1.00  0.00     0.000 C 
BRANCH   4   5
ATOM      5  C   UNL     1      15.047   1.454  14.315  1.00  0.00     0.000 C 
BRANCH   5   6
ATOM      6  C   UNL     1      15.265   2.405  13.126  1.00  0.00     0.006 C 
BRANCH   6   7
ATOM      7  C   UNL     1      15.563   1.648  11.825  1.00  0.00     0.053 C 
BRANCH   7   8
ATOM      8  C   UNL     1      17.029   1.396  11.651  1.00  0.00     0.041 C 
ATOM      9  O   UNL     1      17.733   2.187  10.969  1.00  0.00    -0.550 OA
ATOM     10  O   UNL     1      17.625   0.301  12.267  1.00  0.00    -0.550 OA
ENDBRANCH   7   8
ENDBRANCH   6   7
ENDBRANCH   5   6
ENDBRANCH   4   5
ENDBRANCH   3   4
ENDBRANCH   2   3
ENDBRANCH   1   2
BRANCH   1  11
ATOM     11  C   UNL     1      17.433  -1.365  17.907  1.00  0.00     0.000 C 
BRANCH  11  12
ATOM     12  C   UNL     1      16.662  -1.164  19.220  1.00  0.00    -0.000 C 
BRANCH  12  13
ATOM     13  C   UNL     1      16.508   0.330  19.543  1.00  0.00    -0.000 C 
BRANCH  13  14
ATOM     14  C   UNL     1      15.248   0.628  20.371  1.00  0.00    -0.000 C 
BRANCH  14  15
ATOM     15  C   UNL     1      13.950   0.356  19.593  1.00  0.00    -0.000 C 
BRANCH  15  16
ATOM     16  C   UNL     1      13.825   1.214  18.322  1.00  0.00    -0.000 C 
BRANCH  16  17
ATOM     17  C   UNL     1      13.858   2.732  18.596  1.00  0.00    -0.003 C 
ATOM     18  C   UNL     1      12.977   3.519  17.626  1.00  0.00     0.004 C 
ENDBRANCH  16  17
ENDBRANCH  15  16
ENDBRANCH  14  15
ENDBRANCH  13  14
ENDBRANCH  12  13
ENDBRANCH  11  12
ENDBRANCH   1  11
TORSDOF 14
ENDMDL
MODEL 2
REMARK VINA RESULT:    -5.991      1.970      3.270
REMARK INTER + INTRA:         -12.676
REMARK INTER:                 -11.006
REMARK INTRA:                  -1.670
REMARK UNBOUND:                -1.781
REMARK SMILES CCCCCCCCCCCCCCCC(=O)[O-]
REMARK SMILES IDX 9 1 10 2 11 3 12 4 13 5 14 6 15 7 16 8 17 9 18 10 8 11 7 12
REMARK SMILES IDX 6 13 5 14 4 15 3 16 2 17 1 18
REMARK H PARENT
REMARK Flexibility Score: inf
ROOT
ATOM      1  C   UNL     1      18.024  -0.495  15.378  1.00  0.00     0.000 C 
ENDROOT
BRANCH   1   2
ATOM      2  C   UNL     1      18.585  -0.408  13.945  1.00  0.00     0.000 C 
BRANCH   2   3
ATOM      3  C   UNL     1      17.522  -0.300  12.834  1.00  0.00     0.000 C 
BRANCH   3   4
ATOM      4  C   UNL     1      17.858   0.690  11.701  1.00  0.00     0.000 C 
BRANCH   4   5
ATOM      5  C   UNL     1      16.797   1.776  11.448  1.00  0.00     0.000 C 
BRANCH   5   6
ATOM      6  C   UNL     1      15.555   1.616  12.341  1.00  0.00     0.006 C 
BRANCH   6   7
ATOM      7  C   UNL     1      15.236   2.896  13.125  1.00  0.00     0.053 C 
BRANCH   7   8
ATOM      8  C   UNL     1      14.755   2.595  14.511  1.00  0.00     0.041 C 
ATOM      9  O   UNL     1      13.547   2.302  14.714  1.00  0.00    -0.550 OA
ATOM     10  O   UNL     1      15.649   2.609  15.576  1.00  0.00    -0.550 OA
ENDBRANCH   7   8
ENDBRANCH   6   7
ENDBRANCH   5   6
ENDBRANCH   4   5
ENDBRANCH   3   4
ENDBRANCH   2   3
ENDBRANCH   1   2
BRANCH   1  11
ATOM     11  C   UNL     1      16.507  -0.736  15.471  1.00  0.00     0.000 C 
BRANCH  11  12
ATOM     12  C   UNL     1      16.121  -1.677  16.621  1.00  0.00    -0.000 C 
BRANCH  12  13
ATOM     13  C   UNL     1      17.350  -2.044  17.466  1.00  0.00    -0.000 C 
BRANCH  13  14
ATOM     14  C   UNL     1      17.158  -1.728  18.958  1.00  0.00    -0.000 C 
BRANCH  14  15
ATOM     15  C   UNL     1      17.169  -0.218  19.249  1.00  0.00    -0.000 C 
BRANCH  15  16
ATOM     16  C   UNL     1      15.885   0.264  19.946  1.00  0.00    -0.000 C 
BRANCH  16  17
ATOM     17  C   UNL     1      15.186   1.430  19.216  1.00  0.00    -0.003 C 
ATOM     18  C   UNL     1      14.028   0.958  18.337  1.00  0.00     0.004 C 
ENDBRANCH  16  17
ENDBRANCH  15  16
ENDBRANCH  14  15
ENDBRANCH  13  14
ENDBRANCH  12  13
ENDBRANCH  11  12
ENDBRANCH   1  11
TORSDOF 14
ENDMDL
MODEL 3
REMARK VINA RESULT:    -5.936      1.609      4.051
REMARK INTER + INTRA:         -12.575
REMARK INTER:                 -10.207
REMARK INTRA:                  -2.368
REMARK UNBOUND:                -1.781
REMARK SMILES CCCCCCCCCCCCCCCC(=O)[O-]
REMARK SMILES IDX 9 1 10 2 11 3 12 4 13 5 14 6 15 7 16 8 17 9 18 10 8 11 7 12
REMARK SMILES IDX 6 13 5 14 4 15 3 16 2 17 1 18
REMARK H PARENT
REMARK Flexibility Score: inf
ROOT
ATOM      1  C   UNL     1      13.086   3.700  16.629  1.00  0.00     0.000 C 
ENDROOT
BRANCH   1   2
ATOM      2  C   UNL     1      12.905   2.644  15.519  1.00  0.00     0.000 C 
BRANCH   2   3
ATOM      3  C   UNL     1      14.177   2.330  14.706  1.00  0.00     0.000 C 
BRANCH   3   4
ATOM      4  C   UNL     1      15.505   2.660  15.417  1.00  0.00     0.000 C 
BRANCH   4   5
ATOM      5  C   UNL     1      16.080   1.524  16.283  1.00  0.00     0.000 C 
BRANCH   5   6
ATOM      6  C   UNL     1      15.924   0.140  15.632  1.00  0.00     0.006 C 
BRANCH   6   7
ATOM      7  C   UNL     1      17.275  -0.462  15.223  1.00  0.00     0.053 C 
BRANCH   7   8
ATOM      8  C   UNL     1      17.600  -0.177  13.788  1.00  0.00     0.041 C 
ATOM      9  O   UNL     1      16.738   0.347  13.034  1.00  0.00    -0.550 OA
ATOM     10  O   UNL     1      18.866  -0.463  13.292  1.00  0.00    -0.550 OA
ENDBRANCH   7   8
ENDBRANCH   6   7
ENDBRANCH   5   6
ENDBRANCH   4   5
ENDBRANCH   3   4
ENDBRANCH   2   3
ENDBRANCH   1   2
BRANCH   1  11
ATOM     11  C   UNL     1      12.894   3.176  18.064  1.00  0.00     0.000 C 
BRANCH  11  12
ATOM     12  C   UNL     1      14.129   3.398  18.950  1.00  0.00    -0.000 C 
BRANCH  12  13
ATOM     13  C   UNL     1      14.539   2.096  19.655  1.00  0.00    -0.000 C 
BRANCH  13  14
ATOM     14  C   UNL     1      13.917   0.850  19.003  1.00  0.00    -0.000 C 
BRANCH  14  15
ATOM     15  C   UNL     1      14.735  -0.425  19.265  1.00  0.00    -0.000 C 
BRANCH  15  16
ATOM     16  C   UNL     1      16.055  -0.146  20.003  1.00  0.00    -0.000 C 
BRANCH  16  17
ATOM     17  C   UNL     1      17.311  -0.455  19.162  1.00  0.00    -0.003 C 
ATOM     18  C   UNL     1      17.334  -1.898  18.656  1.00  0.00     0.004 C 
ENDBRANCH  16  17
ENDBRANCH  15  16
ENDBRANCH  14  15
ENDBRANCH  13  14
ENDBRANCH  12  13
ENDBRANCH  11  12
ENDBRANCH   1  11
TORSDOF 14
ENDMDL
MODEL 4
REMARK VINA RESULT:    -5.902      2.343      6.145
REMARK INTER + INTRA:         -12.514
REMARK INTER:                 -10.644
REMARK INTRA:                  -1.869
REMARK UNBOUND:                -1.781
REMARK SMILES CCCCCCCCCCCCCCCC(=O)[O-]
REMARK SMILES IDX 9 1 10 2 11 3 12 4 13 5 14 6 15 7 16 8 17 9 18 10 8 11 7 12
REMARK SMILES IDX 6 13 5 14 4 15 3 16 2 17 1 18
REMARK H PARENT
REMARK Flexibility Score: inf
ROOT
ATOM      1  C   UNL     1      13.521   3.463  16.770  1.00  0.00     0.000 C 
ENDROOT
BRANCH   1   2
ATOM      2  C   UNL     1      13.153   2.860  18.140  1.00  0.00     0.000 C 
BRANCH   2   3
ATOM      3  C   UNL     1      13.815   1.504  18.454  1.00  0.00     0.000 C 
BRANCH   3   4
ATOM      4  C   UNL     1      15.203   1.593  19.119  1.00  0.00     0.000 C 
BRANCH   4   5
ATOM      5  C   UNL     1      15.703   0.287  19.761  1.00  0.00     0.000 C 
BRANCH   5   6
ATOM      6  C   UNL     1      17.041  -0.194  19.173  1.00  0.00     0.006 C 
BRANCH   6   7
ATOM      7  C   UNL     1      17.068  -1.713  18.963  1.00  0.00     0.053 C 
BRANCH   7   8
ATOM      8  C   UNL     1      16.868  -2.080  17.524  1.00  0.00     0.041 C 
ATOM      9  O   UNL     1      17.861  -2.279  16.775  1.00  0.00    -0.550 OA
ATOM     10  O   UNL     1      15.583  -2.230  17.016  1.00  0.00    -0.550 OA
ENDBRANCH   7   8
ENDBRANCH   6   7
ENDBRANCH   5   6
ENDBRANCH   4   5
ENDBRANCH   3   4
ENDBRANCH   2   3
ENDBRANCH   1   2
BRANCH   1  11
ATOM     11  C   UNL     1      13.024   2.665  15.551  1.00  0.00     0.000 C 
BRANCH  11  12
ATOM     12  C   UNL     1      14.166   2.202  14.635  1.00  0.00    -0.000 C 
BRANCH  12  13
ATOM     13  C   UNL     1      15.529   2.399  15.315  1.00  0.00    -0.000 C 
BRANCH  13  14
ATOM     14  C   UNL     1      16.264   1.071  15.560  1.00  0.00    -0.000 C 
BRANCH  14  15
ATOM     15  C   UNL     1      16.126   0.092  14.383  1.00  0.00    -0.000 C 
BRANCH  15  16
ATOM     16  C   UNL     1      17.483  -0.330  13.794  1.00  0.00    -0.000 C 
BRANCH  16  17
ATOM     17  C   UNL     1      17.777   0.292  12.413  1.00  0.00    -0.003 C 
ATOM     18  C   UNL     1      16.624   1.158  11.906  1.00  0.00     0.004 C 
ENDBRANCH  16  17
ENDBRANCH  15  16
ENDBRANCH  14  15
ENDBRANCH  13  14
ENDBRANCH  12  13
ENDBRANCH  11  12
ENDBRANCH   1  11
TORSDOF 14
ENDMDL
MODEL 5
REMARK VINA RESULT:    -5.888      1.150      3.440
REMARK INTER + INTRA:         -12.488
REMARK INTER:                 -10.717
REMARK INTRA:                  -1.772
REMARK UNBOUND:                -1.781
REMARK SMILES CCCCCCCCCCCCCCCC(=O)[O-]
REMARK SMILES IDX 9 1 10 2 11 3 12 4 13 5 14 6 15 7 16 8 17 9 18 10 8 11 7 12
REMARK SMILES IDX 6 13 5 14 4 15 3 16 2 17 1 18
REMARK H PARENT
REMARK Flexibility Score: inf
ROOT
ATOM      1  C   UNL     1      14.456   2.944  17.579  1.00  0.00     0.000 C 
ENDROOT
BRANCH   1   2
ATOM      2  C   UNL     1      13.261   3.113  16.620  1.00  0.00     0.000 C 
BRANCH   2   3
ATOM      3  C   UNL     1      13.496   2.593  15.188  1.00  0.00     0.000 C 
BRANCH   3   4
ATOM      4  C   UNL     1      14.969   2.577  14.732  1.00  0.00     0.000 C 
BRANCH   4   5
ATOM      5  C   UNL     1      15.201   2.983  13.266  1.00  0.00     0.000 C 
BRANCH   5   6
ATOM      6  C   UNL     1      15.556   1.788  12.365  1.00  0.00     0.006 C 
BRANCH   6   7
ATOM      7  C   UNL     1      16.683   2.120  11.379  1.00  0.00     0.053 C 
BRANCH   7   8
ATOM      8  C   UNL     1      17.600   0.954  11.167  1.00  0.00     0.041 C 
ATOM      9  O   UNL     1      18.159   0.400  12.150  1.00  0.00    -0.550 OA
ATOM     10  O   UNL     1      17.814   0.462   9.885  1.00  0.00    -0.550 OA
ENDBRANCH   7   8
ENDBRANCH   6   7
ENDBRANCH   5   6
ENDBRANCH   4   5
ENDBRANCH   3   4
ENDBRANCH   2   3
ENDBRANCH   1   2
BRANCH   1  11
ATOM     11  C   UNL     1      14.185   2.060  18.810  1.00  0.00     0.000 C 
BRANCH  11  12
ATOM     12  C   UNL     1      14.165   0.562  18.475  1.00  0.00    -0.000 C 
BRANCH  12  13
ATOM     13  C   UNL     1      15.042  -0.231  19.456  1.00  0.00    -0.000 C 
BRANCH  13  14
ATOM     14  C   UNL     1      16.422   0.412  19.668  1.00  0.00    -0.000 C 
BRANCH  14  15
ATOM     15  C   UNL     1      17.447  -0.024  18.608  1.00  0.00    -0.000 C 
BRANCH  15  16
ATOM     16  C   UNL     1      17.662   1.036  17.515  1.00  0.00    -0.000 C 
BRANCH  16  17
ATOM     17  C   UNL     1      17.719   0.449  16.089  1.00  0.00    -0.003 C 
ATOM     18  C   UNL     1      16.519  -0.445  15.777  1.00  0.00     0.004 C 
ENDBRANCH  16  17
ENDBRANCH  15  16
ENDBRANCH  14  15
ENDBRANCH  13  14
ENDBRANCH  12  13
ENDBRANCH  11  12
ENDBRANCH   1  11
TORSDOF 14
ENDMDL
MODEL 6
REMARK VINA RESULT:    -5.865      2.695      6.686
REMARK INTER + INTRA:         -12.446
REMARK INTER:                 -10.826
REMARK INTRA:                  -1.621
REMARK UNBOUND:                -1.781
REMARK SMILES CCCCCCCCCCCCCCCC(=O)[O-]
REMARK SMILES IDX 9 1 10 2 11 3 12 4 13 5 14 6 15 7 16 8 17 9 18 10 8 11 7 12
REMARK SMILES IDX 6 13 5 14 4 15 3 16 2 17 1 18
REMARK H PARENT
REMARK Flexibility Score: inf
ROOT
ATOM      1  C   UNL     1      14.589   2.573  15.187  1.00  0.00     0.000 C 
ENDROOT
BRANCH   1   2
ATOM      2  C   UNL     1      13.160   2.917  15.653  1.00  0.00     0.000 C 
BRANCH   2   3
ATOM      3  C   UNL     1      13.044   3.364  17.124  1.00  0.00     0.000 C 
BRANCH   3   4
ATOM      4  C   UNL     1      14.336   3.223  17.953  1.00  0.00     0.000 C 
BRANCH   4   5
ATOM      5  C   UNL     1      14.292   2.141  19.048  1.00  0.00     0.000 C 
BRANCH   5   6
ATOM      6  C   UNL     1      13.942   0.748  18.497  1.00  0.00     0.006 C 
BRANCH   6   7
ATOM      7  C   UNL     1      15.150   0.064  17.844  1.00  0.00     0.053 C 
BRANCH   7   8
ATOM      8  C   UNL     1      14.987  -1.424  17.795  1.00  0.00     0.041 C 
ATOM      9  O   UNL     1      15.878  -2.143  17.269  1.00  0.00    -0.550 OA
ATOM     10  O   UNL     1      13.864  -2.020  18.356  1.00  0.00    -0.550 OA
ENDBRANCH   7   8
ENDBRANCH   6   7
ENDBRANCH   5   6
ENDBRANCH   4   5
ENDBRANCH   3   4
ENDBRANCH   2   3
ENDBRANCH   1   2
BRANCH   1  11
ATOM     11  C   UNL     1      14.685   1.957  13.780  1.00  0.00     0.000 C 
BRANCH  11  12
ATOM     12  C   UNL     1      15.409   2.868  12.778  1.00  0.00    -0.000 C 
BRANCH  12  13
ATOM     13  C   UNL     1      15.772   2.098  11.499  1.00  0.00    -0.000 C 
BRANCH  13  14
ATOM     14  C   UNL     1      17.264   1.737  11.431  1.00  0.00    -0.000 C 
BRANCH  14  15
ATOM     15  C   UNL     1      17.518   0.232  11.616  1.00  0.00    -0.000 C 
BRANCH  15  16
ATOM     16  C   UNL     1      18.253  -0.092  12.928  1.00  0.00    -0.000 C 
BRANCH  16  17
ATOM     17  C   UNL     1      17.306  -0.395  14.108  1.00  0.00    -0.003 C 
ATOM     18  C   UNL     1      17.850   0.123  15.440  1.00  0.00     0.004 C 
ENDBRANCH  16  17
ENDBRANCH  15  16
ENDBRANCH  14  15
ENDBRANCH  13  14
ENDBRANCH  12  13
ENDBRANCH  11  12
ENDBRANCH   1  11
TORSDOF 14
ENDMDL
MODEL 7
REMARK VINA RESULT:    -5.863      2.753      6.272
REMARK INTER + INTRA:         -12.443
REMARK INTER:                 -10.427
REMARK INTRA:                  -2.017
REMARK UNBOUND:                -1.781
REMARK SMILES CCCCCCCCCCCCCCCC(=O)[O-]
REMARK SMILES IDX 9 1 10 2 11 3 12 4 13 5 14 6 15 7 16 8 17 9 18 10 8 11 7 12
REMARK SMILES IDX 6 13 5 14 4 15 3 16 2 17 1 18
REMARK H PARENT
REMARK Flexibility Score: inf
ROOT
ATOM      1  C   UNL     1      15.172   2.779  15.330  1.00  0.00     0.000 C 
ENDROOT
BRANCH   1   2
ATOM      2  C   UNL     1      13.717   2.404  15.677  1.00  0.00     0.000 C 
BRANCH   2   3
ATOM      3  C   UNL     1      13.016   3.358  16.664  1.00  0.00     0.000 C 
BRANCH   3   4
ATOM      4  C   UNL     1      13.338   3.112  18.152  1.00  0.00     0.000 C 
BRANCH   4   5
ATOM      5  C   UNL     1      13.696   1.657  18.509  1.00  0.00     0.000 C 
BRANCH   5   6
ATOM      6  C   UNL     1      15.083   1.527  19.160  1.00  0.00     0.006 C 
BRANCH   6   7
ATOM      7  C   UNL     1      15.326   0.123  19.728  1.00  0.00     0.053 C 
BRANCH   7   8
ATOM      8  C   UNL     1      16.616  -0.461  19.238  1.00  0.00     0.041 C 
ATOM      9  O   UNL     1      16.674  -1.669  18.888  1.00  0.00    -0.550 OA
ATOM     10  O   UNL     1      17.749   0.339  19.141  1.00  0.00    -0.550 OA
ENDBRANCH   7   8
ENDBRANCH   6   7
ENDBRANCH   5   6
ENDBRANCH   4   5
ENDBRANCH   3   4
ENDBRANCH   2   3
ENDBRANCH   1   2
BRANCH   1  11
ATOM     11  C   UNL     1      16.220   1.703  15.663  1.00  0.00     0.000 C 
BRANCH  11  12
ATOM     12  C   UNL     1      15.662   0.276  15.565  1.00  0.00    -0.000 C 
BRANCH  12  13
ATOM     13  C   UNL     1      16.782  -0.733  15.267  1.00  0.00    -0.000 C 
BRANCH  13  14
ATOM     14  C   UNL     1      17.828  -0.181  14.285  1.00  0.00    -0.000 C 
BRANCH  14  15
ATOM     15  C   UNL     1      17.380  -0.294  12.819  1.00  0.00    -0.000 C 
BRANCH  15  16
ATOM     16  C   UNL     1      18.026   0.770  11.914  1.00  0.00    -0.000 C 
BRANCH  16  17
ATOM     17  C   UNL     1      17.033   1.839  11.412  1.00  0.00    -0.003 C 
ATOM     18  C   UNL     1      15.602   1.573  11.881  1.00  0.00     0.004 C 
ENDBRANCH  16  17
ENDBRANCH  15  16
ENDBRANCH  14  15
ENDBRANCH  13  14
ENDBRANCH  12  13
ENDBRANCH  11  12
ENDBRANCH   1  11
TORSDOF 14
ENDMDL
MODEL 8
REMARK VINA RESULT:    -5.848      2.994      6.332
REMARK INTER + INTRA:         -12.414
REMARK INTER:                 -10.646
REMARK INTRA:                  -1.768
REMARK UNBOUND:                -1.781
REMARK SMILES CCCCCCCCCCCCCCCC(=O)[O-]
REMARK SMILES IDX 9 1 10 2 11 3 12 4 13 5 14 6 15 7 16 8 17 9 18 10 8 11 7 12
REMARK SMILES IDX 6 13 5 14 4 15 3 16 2 17 1 18
REMARK H PARENT
REMARK Flexibility Score: inf
ROOT
ATOM      1  C   UNL     1      17.834  -0.608  14.939  1.00  0.00     0.000 C 
ENDROOT
BRANCH   1   2
ATOM      2  C   UNL     1      18.432  -1.237  16.214  1.00  0.00     0.000 C 
BRANCH   2   3
ATOM      3  C   UNL     1      17.518  -2.250  16.930  1.00  0.00     0.000 C 
BRANCH   3   4
ATOM      4  C   UNL     1      17.040  -1.822  18.332  1.00  0.00     0.000 C 
BRANCH   4   5
ATOM      5  C   UNL     1      17.687  -0.535  18.876  1.00  0.00     0.000 C 
BRANCH   5   6
ATOM      6  C   UNL     1      16.656   0.465  19.425  1.00  0.00     0.006 C 
BRANCH   6   7
ATOM      7  C   UNL     1      15.359  -0.223  19.867  1.00  0.00     0.053 C 
BRANCH   7   8
ATOM      8  C   UNL     1      14.201   0.156  18.994  1.00  0.00     0.041 C 
ATOM      9  O   UNL     1      13.544  -0.733  18.390  1.00  0.00    -0.550 OA
ATOM     10  O   UNL     1      13.831   1.490  18.870  1.00  0.00    -0.550 OA
ENDBRANCH   7   8
ENDBRANCH   6   7
ENDBRANCH   5   6
ENDBRANCH   4   5
ENDBRANCH   3   4
ENDBRANCH   2   3
ENDBRANCH   1   2
BRANCH   1  11
ATOM     11  C   UNL     1      16.384  -0.112  15.076  1.00  0.00     0.000 C 
BRANCH  11  12
ATOM     12  C   UNL     1      16.270   1.181  15.896  1.00  0.00    -0.000 C 
BRANCH  12  13
ATOM     13  C   UNL     1      15.082   2.031  15.420  1.00  0.00    -0.000 C 
BRANCH  13  14
ATOM     14  C   UNL     1      14.741   1.792  13.940  1.00  0.00    -0.000 C 
BRANCH  14  15
ATOM     15  C   UNL     1      15.475   2.762  13.000  1.00  0.00    -0.000 C 
BRANCH  15  16
ATOM     16  C   UNL     1      15.734   2.162  11.607  1.00  0.00    -0.000 C 
BRANCH  16  17
ATOM     17  C   UNL     1      17.221   1.853  11.335  1.00  0.00    -0.003 C 
ATOM     18  C   UNL     1      17.495   0.352  11.231  1.00  0.00     0.004 C 
ENDBRANCH  16  17
ENDBRANCH  15  16
ENDBRANCH  14  15
ENDBRANCH  13  14
ENDBRANCH  12  13
ENDBRANCH  11  12
ENDBRANCH   1  11
TORSDOF 14
ENDMDL
MODEL 9
REMARK VINA RESULT:    -5.819      1.906      4.888
REMARK INTER + INTRA:         -12.363
REMARK INTER:                 -10.872
REMARK INTRA:                  -1.491
REMARK UNBOUND:                -1.781
REMARK SMILES CCCCCCCCCCCCCCCC(=O)[O-]
REMARK SMILES IDX 9 1 10 2 11 3 12 4 13 5 14 6 15 7 16 8 17 9 18 10 8 11 7 12
REMARK SMILES IDX 6 13 5 14 4 15 3 16 2 17 1 18
REMARK H PARENT
REMARK Flexibility Score: inf
ROOT
ATOM      1  C   UNL     1      14.337   0.256  19.636  1.00  0.00     0.000 C 
ENDROOT
BRANCH   1   2
ATOM      2  C   UNL     1      15.754   0.752  19.989  1.00  0.00     0.000 C 
BRANCH   2   3
ATOM      3  C   UNL     1      16.904  -0.082  19.391  1.00  0.00     0.000 C 
BRANCH   3   4
ATOM      4  C   UNL     1      16.502  -1.484  18.890  1.00  0.00     0.000 C 
BRANCH   4   5
ATOM      5  C   UNL     1      16.961  -1.820  17.459  1.00  0.00     0.000 C 
BRANCH   5   6
ATOM      6  C   UNL     1      16.353  -0.884  16.402  1.00  0.00     0.006 C 
BRANCH   6   7
ATOM      7  C   UNL     1      17.377  -0.468  15.338  1.00  0.00     0.053 C 
BRANCH   7   8
ATOM      8  C   UNL     1      18.723  -0.197  15.938  1.00  0.00     0.041 C 
ATOM      9  O   UNL     1      18.894   0.797  16.692  1.00  0.00    -0.550 OA
ATOM     10  O   UNL     1      19.783  -1.060  15.687  1.00  0.00    -0.550 OA
ENDBRANCH   7   8
ENDBRANCH   6   7
ENDBRANCH   5   6
ENDBRANCH   4   5
ENDBRANCH   3   4
ENDBRANCH   2   3
ENDBRANCH   1   2
BRANCH   1  11
ATOM     11  C   UNL     1      13.630   1.045  18.519  1.00  0.00     0.000 C 
BRANCH  11  12
ATOM     12  C   UNL     1      14.141   2.487  18.391  1.00  0.00    -0.000 C 
BRANCH  12  13
ATOM     13  C   UNL     1      13.211   3.321  17.497  1.00  0.00    -0.000 C 
BRANCH  13  14
ATOM     14  C   UNL     1      13.257   2.883  16.025  1.00  0.00    -0.000 C 
BRANCH  14  15
ATOM     15  C   UNL     1      14.687   2.590  15.540  1.00  0.00    -0.000 C 
BRANCH  15  16
ATOM     16  C   UNL     1      14.724   1.985  14.126  1.00  0.00    -0.000 C 
BRANCH  16  17
ATOM     17  C   UNL     1      15.366   2.914  13.074  1.00  0.00    -0.003 C 
ATOM     18  C   UNL     1      15.721   2.175  11.782  1.00  0.00     0.004 C 
ENDBRANCH  16  17
ENDBRANCH  15  16
ENDBRANCH  14  15
ENDBRANCH  13  14
ENDBRANCH  12  13
ENDBRANCH  11  12
ENDBRANCH   1  11
TORSDOF 14
ENDMDL
