MODEL 1
REMARK VINA RESULT:    -3.989      0.000      0.000
REMARK INTER + INTRA:          -8.005
REMARK INTER:                  -7.254
REMARK INTRA:                  -0.751
REMARK UNBOUND:                -0.751
REMARK SMILES CCCCCCCCCCCCCCCC(=O)[O-]
REMARK SMILES IDX 9 1 10 2 11 3 12 4 13 5 14 6 15 7 16 8 17 9 18 10 8 11 7 12
REMARK SMILES IDX 6 13 5 14 4 15 3 16 2 17 1 18
REMARK H PARENT
REMARK Flexibility Score: inf
ROOT
ATOM      1  C   UNL     1       0.009   8.983   8.919  1.00  0.00     0.000 C 
ENDROOT
BRANCH   1   2
ATOM      2  C   UNL     1       1.175   9.966   9.115  1.00  0.00     0.000 C 
BRANCH   2   3
ATOM      3  C   UNL     1       2.252   9.825   8.026  1.00  0.00     0.000 C 
BRANCH   3   4
ATOM      4  C   UNL     1       3.109   8.561   8.207  1.00  0.00     0.000 C 
BRANCH   4   5
ATOM      5  C   UNL     1       4.335   8.792   9.111  1.00  0.00     0.000 C 
BRANCH   5   6
ATOM      6  C   UNL     1       5.575   9.360   8.397  1.00  0.00     0.006 C 
BRANCH   6   7
ATOM      7  C   UNL     1       6.317   8.310   7.561  1.00  0.00     0.053 C 
BRANCH   7   8
ATOM      8  C   UNL     1       6.159   8.597   6.103  1.00  0.00     0.041 C 
ATOM      9  O   UNL     1       5.182   8.124   5.465  1.00  0.00    -0.550 OA
ATOM     10  O   UNL     1       7.063   9.433   5.457  1.00  0.00    -0.550 OA
ENDBRANCH   7   8
ENDBRANCH   6   7
ENDBRANCH   5   6
ENDBRANCH   4   5
ENDBRANCH   3   4
ENDBRANCH   2   3
ENDBRANCH   1   2
BRANCH   1  11
ATOM     11  C   UNL     1      -1.366   9.663   9.027  1.00  0.00     0.000 C 
BRANCH  11  12
ATOM     12  C   UNL     1      -2.499   8.663   9.313  1.00  0.00    -0.000 C 
BRANCH  12  13
ATOM     13  C   UNL     1      -3.451   8.476   8.117  1.00  0.00    -0.000 C 
BRANCH  13  14
ATOM     14  C   UNL     1      -2.927   9.014   6.773  1.00  0.00    -0.000 C 
BRANCH  14  15
ATOM     15  C   UNL     1      -2.001   8.020   6.047  1.00  0.00    -0.000 C 
BRANCH  15  16
ATOM     16  C   UNL     1      -2.732   7.258   4.920  1.00  0.00    -0.000 C 
BRANCH  16  17
ATOM     17  C   UNL     1      -2.447   5.747   4.911  1.00  0.00    -0.003 C 
ATOM     18  C   UNL     1      -3.463   4.942   5.717  1.00  0.00     0.004 C 
ENDBRANCH  16  17
ENDBRANCH  15  16
ENDBRANCH  14  15
ENDBRANCH  13  14
ENDBRANCH  12  13
ENDBRANCH  11  12
ENDBRANCH   1  11
TORSDOF 14
ENDMDL
MODEL 2
REMARK VINA RESULT:    -3.742      3.427      7.583
REMARK INTER + INTRA:          -7.555
REMARK INTER:                  -6.628
REMARK INTRA:                  -0.927
REMARK UNBOUND:                -0.751
REMARK SMILES CCCCCCCCCCCCCCCC(=O)[O-]
REMARK SMILES IDX 9 1 10 2 11 3 12 4 13 5 14 6 15 7 16 8 17 9 18 10 8 11 7 12
REMARK SMILES IDX 6 13 5 14 4 15 3 16 2 17 1 18
REMARK H PARENT
REMARK Flexibility Score: inf
ROOT
ATOM      1  C   UNL     1      -1.398  10.089   9.141  1.00  0.00     0.000 C 
ENDROOT
BRANCH   1   2
ATOM      2  C   UNL     1      -2.834   9.539   9.215  1.00  0.00     0.000 C 
BRANCH   2   3
ATOM      3  C   UNL     1      -3.591   9.697   7.885  1.00  0.00     0.000 C 
BRANCH   3   4
ATOM      4  C   UNL     1      -2.660   9.610   6.664  1.00  0.00     0.000 C 
BRANCH   4   5
ATOM      5  C   UNL     1      -3.425   9.570   5.328  1.00  0.00     0.000 C 
BRANCH   5   6
ATOM      6  C   UNL     1      -3.142   8.337   4.451  1.00  0.00     0.006 C 
BRANCH   6   7
ATOM      7  C   UNL     1      -2.181   7.341   5.112  1.00  0.00     0.053 C 
BRANCH   7   8
ATOM      8  C   UNL     1      -2.928   6.143   5.604  1.00  0.00     0.041 C 
ATOM      9  O   UNL     1      -3.091   5.145   4.855  1.00  0.00    -0.550 OA
ATOM     10  O   UNL     1      -3.400   6.107   6.910  1.00  0.00    -0.550 OA
ENDBRANCH   7   8
ENDBRANCH   6   7
ENDBRANCH   5   6
ENDBRANCH   4   5
ENDBRANCH   3   4
ENDBRANCH   2   3
ENDBRANCH   1   2
BRANCH   1  11
ATOM     11  C   UNL     1      -0.358   9.107   9.705  1.00  0.00     0.000 C 
BRANCH  11  12
ATOM     12  C   UNL     1       0.989   9.786  10.012  1.00  0.00    -0.000 C 
BRANCH  12  13
ATOM     13  C   UNL     1       1.849  10.008   8.755  1.00  0.00    -0.000 C 
BRANCH  13  14
ATOM     14  C   UNL     1       2.612   8.768   8.255  1.00  0.00    -0.000 C 
BRANCH  14  15
ATOM     15  C   UNL     1       3.959   8.561   8.973  1.00  0.00    -0.000 C 
BRANCH  15  16
ATOM     16  C   UNL     1       4.844   9.825   8.928  1.00  0.00    -0.000 C 
BRANCH  16  17
ATOM     17  C   UNL     1       6.123   9.654   8.091  1.00  0.00    -0.003 C 
ATOM     18  C   UNL     1       6.097   8.409   7.207  1.00  0.00     0.004 C 
ENDBRANCH  16  17
ENDBRANCH  15  16
ENDBRANCH  14  15
ENDBRANCH  13  14
ENDBRANCH  12  13
ENDBRANCH  11  12
ENDBRANCH   1  11
TORSDOF 14
ENDMDL
MODEL 3
REMARK VINA RESULT:    -3.732      1.014      2.241
REMARK INTER + INTRA:          -7.537
REMARK INTER:                  -6.538
REMARK INTRA:                  -0.999
REMARK UNBOUND:                -0.751
REMARK SMILES CCCCCCCCCCCCCCCC(=O)[O-]
REMARK SMILES IDX 9 1 10 2 11 3 12 4 13 5 14 6 15 7 16 8 17 9 18 10 8 11 7 12
REMARK SMILES IDX 6 13 5 14 4 15 3 16 2 17 1 18
REMARK H PARENT
REMARK Flexibility Score: inf
ROOT
ATOM      1  C   UNL     1       2.613   9.002   8.223  1.00  0.00     0.000 C 
ENDROOT
BRANCH   1   2
ATOM      2  C   UNL     1       3.231   9.457   9.557  1.00  0.00     0.000 C 
BRANCH   2   3
ATOM      3  C   UNL     1       4.256   8.448  10.103  1.00  0.00     0.000 C 
BRANCH   3   4
ATOM      4  C   UNL     1       5.706   8.865   9.808  1.00  0.00     0.000 C 
BRANCH   4   5
ATOM      5  C   UNL     1       5.801  10.125   8.926  1.00  0.00     0.000 C 
BRANCH   5   6
ATOM      6  C   UNL     1       6.398   9.896   7.525  1.00  0.00     0.006 C 
BRANCH   6   7
ATOM      7  C   UNL     1       6.206   8.461   7.020  1.00  0.00     0.053 C 
BRANCH   7   8
ATOM      8  C   UNL     1       5.669   8.468   5.624  1.00  0.00     0.041 C 
ATOM      9  O   UNL     1       6.393   8.848   4.668  1.00  0.00    -0.550 OA
ATOM     10  O   UNL     1       4.384   8.004   5.372  1.00  0.00    -0.550 OA
ENDBRANCH   7   8
ENDBRANCH   6   7
ENDBRANCH   5   6
ENDBRANCH   4   5
ENDBRANCH   3   4
ENDBRANCH   2   3
ENDBRANCH   1   2
BRANCH   1  11
ATOM     11  C   UNL     1       1.341   9.786   7.861  1.00  0.00     0.000 C 
BRANCH  11  12
ATOM     12  C   UNL     1       0.327   9.834   9.017  1.00  0.00    -0.000 C 
BRANCH  12  13
ATOM     13  C   UNL     1      -1.021   9.181   8.659  1.00  0.00    -0.000 C 
BRANCH  13  14
ATOM     14  C   UNL     1      -2.047  10.117   7.996  1.00  0.00    -0.000 C 
BRANCH  14  15
ATOM     15  C   UNL     1      -2.590   9.566   6.664  1.00  0.00    -0.000 C 
BRANCH  15  16
ATOM     16  C   UNL     1      -2.519   8.025   6.598  1.00  0.00    -0.000 C 
BRANCH  16  17
ATOM     17  C   UNL     1      -2.178   7.482   5.199  1.00  0.00    -0.003 C 
ATOM     18  C   UNL     1      -2.591   6.025   5.006  1.00  0.00     0.004 C 
ENDBRANCH  16  17
ENDBRANCH  15  16
ENDBRANCH  14  15
ENDBRANCH  13  14
ENDBRANCH  12  13
ENDBRANCH  11  12
ENDBRANCH   1  11
TORSDOF 14
ENDMDL
MODEL 4
REMARK VINA RESULT:    -3.559     12.621     14.424
REMARK INTER + INTRA:          -7.222
REMARK INTER:                  -6.335
REMARK INTRA:                  -0.887
REMARK UNBOUND:                -0.751
REMARK SMILES CCCCCCCCCCCCCCCC(=O)[O-]
REMARK SMILES IDX 9 1 10 2 11 3 12 4 13 5 14 6 15 7 16 8 17 9 18 10 8 11 7 12
REMARK SMILES IDX 6 13 5 14 4 15 3 16 2 17 1 18
REMARK H PARENT
REMARK Flexibility Score: inf
ROOT
ATOM      1  C   UNL     1       6.292  -6.091   6.794  1.00  0.00     0.000 C 
ENDROOT
BRANCH   1   2
ATOM      2  C   UNL     1       7.631  -5.346   6.936  1.00  0.00     0.000 C 
BRANCH   2   3
ATOM      3  C   UNL     1       7.930  -4.950   8.392  1.00  0.00     0.000 C 
BRANCH   3   4
ATOM      4  C   UNL     1       8.746  -3.650   8.491  1.00  0.00     0.000 C 
BRANCH   4   5
ATOM      5  C   UNL     1       8.790  -3.077   9.921  1.00  0.00     0.000 C 
BRANCH   5   6
ATOM      6  C   UNL     1       8.007  -1.767  10.122  1.00  0.00     0.006 C 
BRANCH   6   7
ATOM      7  C   UNL     1       8.828  -0.519   9.773  1.00  0.00     0.053 C 
BRANCH   7   8
ATOM      8  C   UNL     1       7.956   0.696   9.774  1.00  0.00     0.041 C 
ATOM      9  O   UNL     1       6.723   0.591  10.004  1.00  0.00    -0.550 OA
ATOM     10  O   UNL     1       8.514   1.952   9.572  1.00  0.00    -0.550 OA
ENDBRANCH   7   8
ENDBRANCH   6   7
ENDBRANCH   5   6
ENDBRANCH   4   5
ENDBRANCH   3   4
ENDBRANCH   2   3
ENDBRANCH   1   2
BRANCH   1  11
ATOM     11  C   UNL     1       6.429  -7.419   6.031  1.00  0.00     0.000 C 
BRANCH  11  12
ATOM     12  C   UNL     1       5.576  -8.543   6.644  1.00  0.00    -0.000 C 
BRANCH  12  13
ATOM     13  C   UNL     1       4.820  -8.100   7.910  1.00  0.00    -0.000 C 
BRANCH  13  14
ATOM     14  C   UNL     1       3.284  -8.139   7.803  1.00  0.00    -0.000 C 
BRANCH  14  15
ATOM     15  C   UNL     1       2.592  -7.090   8.693  1.00  0.00    -0.000 C 
BRANCH  15  16
ATOM     16  C   UNL     1       3.044  -5.652   8.359  1.00  0.00    -0.000 C 
BRANCH  16  17
ATOM     17  C   UNL     1       1.962  -4.813   7.658  1.00  0.00    -0.003 C 
ATOM     18  C   UNL     1       0.640  -5.558   7.493  1.00  0.00     0.004 C 
ENDBRANCH  16  17
ENDBRANCH  15  16
ENDBRANCH  14  15
ENDBRANCH  13  14
ENDBRANCH  12  13
ENDBRANCH  11  12
ENDBRANCH   1  11
TORSDOF 14
ENDMDL
MODEL 5
REMARK VINA RESULT:    -3.556     13.327     16.267
REMARK INTER + INTRA:          -7.217
REMARK INTER:                  -6.039
REMARK INTRA:                  -1.178
REMARK UNBOUND:                -0.751
REMARK SMILES CCCCCCCCCCCCCCCC(=O)[O-]
REMARK SMILES IDX 9 1 10 2 11 3 12 4 13 5 14 6 15 7 16 8 17 9 18 10 8 11 7 12
REMARK SMILES IDX 6 13 5 14 4 15 3 16 2 17 1 18
REMARK H PARENT
REMARK Flexibility Score: inf
ROOT
ATOM      1  C   UNL     1       5.683  -6.299   6.810  1.00  0.00     0.000 C 
ENDROOT
BRANCH   1   2
ATOM      2  C   UNL     1       5.822  -7.820   6.623  1.00  0.00     0.000 C 
BRANCH   2   3
ATOM      3  C   UNL     1       5.442  -8.604   7.891  1.00  0.00     0.000 C 
BRANCH   3   4
ATOM      4  C   UNL     1       4.135  -9.397   7.723  1.00  0.00     0.000 C 
BRANCH   4   5
ATOM      5  C   UNL     1       3.066  -9.021   8.766  1.00  0.00     0.000 C 
BRANCH   5   6
ATOM      6  C   UNL     1       2.969  -7.519   9.088  1.00  0.00     0.006 C 
BRANCH   6   7
ATOM      7  C   UNL     1       2.113  -6.744   8.079  1.00  0.00     0.053 C 
BRANCH   7   8
ATOM      8  C   UNL     1       2.373  -5.276   8.193  1.00  0.00     0.041 C 
ATOM      9  O   UNL     1       2.675  -4.770   9.306  1.00  0.00    -0.550 OA
ATOM     10  O   UNL     1       2.334  -4.473   7.060  1.00  0.00    -0.550 OA
ENDBRANCH   7   8
ENDBRANCH   6   7
ENDBRANCH   5   6
ENDBRANCH   4   5
ENDBRANCH   3   4
ENDBRANCH   2   3
ENDBRANCH   1   2
BRANCH   1  11
ATOM     11  C   UNL     1       6.120  -5.831   8.208  1.00  0.00     0.000 C 
BRANCH  11  12
ATOM     12  C   UNL     1       7.624  -5.514   8.281  1.00  0.00    -0.000 C 
BRANCH  12  13
ATOM     13  C   UNL     1       8.006  -4.704   9.534  1.00  0.00    -0.000 C 
BRANCH  13  14
ATOM     14  C   UNL     1       8.965  -3.525   9.286  1.00  0.00    -0.000 C 
BRANCH  14  15
ATOM     15  C   UNL     1       8.618  -2.281  10.124  1.00  0.00    -0.000 C 
BRANCH  15  16
ATOM     16  C   UNL     1       8.502  -1.008   9.259  1.00  0.00    -0.000 C 
BRANCH  16  17
ATOM     17  C   UNL     1       8.859   0.285  10.012  1.00  0.00    -0.003 C 
ATOM     18  C   UNL     1       7.759   1.342   9.941  1.00  0.00     0.004 C 
ENDBRANCH  16  17
ENDBRANCH  15  16
ENDBRANCH  14  15
ENDBRANCH  13  14
ENDBRANCH  12  13
ENDBRANCH  11  12
ENDBRANCH   1  11
TORSDOF 14
ENDMDL
MODEL 6
REMARK VINA RESULT:    -3.553      2.904      4.339
REMARK INTER + INTRA:          -7.213
REMARK INTER:                  -6.524
REMARK INTRA:                  -0.689
REMARK UNBOUND:                -0.751
REMARK SMILES CCCCCCCCCCCCCCCC(=O)[O-]
REMARK SMILES IDX 9 1 10 2 11 3 12 4 13 5 14 6 15 7 16 8 17 9 18 10 8 11 7 12
REMARK SMILES IDX 6 13 5 14 4 15 3 16 2 17 1 18
REMARK H PARENT
REMARK Flexibility Score: inf
ROOT
ATOM      1  C   UNL     1      -2.009   8.641   7.228  1.00  0.00     0.000 C 
ENDROOT
BRANCH   1   2
ATOM      2  C   UNL     1      -1.125   9.675   7.947  1.00  0.00     0.000 C 
BRANCH   2   3
ATOM      3  C   UNL     1      -0.095   9.017   8.882  1.00  0.00     0.000 C 
BRANCH   3   4
ATOM      4  C   UNL     1       1.281   9.698   8.812  1.00  0.00     0.000 C 
BRANCH   4   5
ATOM      5  C   UNL     1       2.303   9.089   9.791  1.00  0.00     0.000 C 
BRANCH   5   6
ATOM      6  C   UNL     1       3.655   8.703   9.165  1.00  0.00     0.006 C 
BRANCH   6   7
ATOM      7  C   UNL     1       3.535   8.276   7.697  1.00  0.00     0.053 C 
BRANCH   7   8
ATOM      8  C   UNL     1       4.892   8.071   7.102  1.00  0.00     0.041 C 
ATOM      9  O   UNL     1       5.920   8.162   7.821  1.00  0.00    -0.550 OA
ATOM     10  O   UNL     1       5.017   7.726   5.762  1.00  0.00    -0.550 OA
ENDBRANCH   7   8
ENDBRANCH   6   7
ENDBRANCH   5   6
ENDBRANCH   4   5
ENDBRANCH   3   4
ENDBRANCH   2   3
ENDBRANCH   1   2
BRANCH   1  11
ATOM     11  C   UNL     1      -3.255   8.256   8.043  1.00  0.00     0.000 C 
BRANCH  11  12
ATOM     12  C   UNL     1      -3.784   9.421   8.898  1.00  0.00    -0.000 C 
BRANCH  12  13
ATOM     13  C   UNL     1      -5.047   9.052   9.699  1.00  0.00    -0.000 C 
BRANCH  13  14
ATOM     14  C   UNL     1      -5.630   7.659   9.398  1.00  0.00    -0.000 C 
BRANCH  14  15
ATOM     15  C   UNL     1      -7.152   7.584   9.620  1.00  0.00    -0.000 C 
BRANCH  15  16
ATOM     16  C   UNL     1      -7.836   8.956   9.440  1.00  0.00    -0.000 C 
BRANCH  16  17
ATOM     17  C   UNL     1      -9.348   8.934   9.721  1.00  0.00    -0.003 C 
ATOM     18  C   UNL     1     -10.125   9.961   8.901  1.00  0.00     0.004 C 
ENDBRANCH  16  17
ENDBRANCH  15  16
ENDBRANCH  14  15
ENDBRANCH  13  14
ENDBRANCH  12  13
ENDBRANCH  11  12
ENDBRANCH   1  11
TORSDOF 14
ENDMDL
MODEL 7
REMARK VINA RESULT:    -3.511     13.888     16.659
REMARK INTER + INTRA:          -7.135
REMARK INTER:                  -5.676
REMARK INTRA:                  -1.460
REMARK UNBOUND:                -0.751
REMARK SMILES CCCCCCCCCCCCCCCC(=O)[O-]
REMARK SMILES IDX 9 1 10 2 11 3 12 4 13 5 14 6 15 7 16 8 17 9 18 10 8 11 7 12
REMARK SMILES IDX 6 13 5 14 4 15 3 16 2 17 1 18
REMARK H PARENT
REMARK Flexibility Score: inf
ROOT
ATOM      1  C   UNL     1       6.331  -7.309   5.798  1.00  0.00     0.000 C 
ENDROOT
BRANCH   1   2
ATOM      2  C   UNL     1       6.289  -8.665   6.524  1.00  0.00     0.000 C 
BRANCH   2   3
ATOM      3  C   UNL     1       4.863  -9.062   6.943  1.00  0.00     0.000 C 
BRANCH   3   4
ATOM      4  C   UNL     1       4.741  -9.305   8.456  1.00  0.00     0.000 C 
BRANCH   4   5
ATOM      5  C   UNL     1       3.656  -8.434   9.118  1.00  0.00     0.000 C 
BRANCH   5   6
ATOM      6  C   UNL     1       2.824  -7.579   8.145  1.00  0.00     0.006 C 
BRANCH   6   7
ATOM      7  C   UNL     1       2.708  -6.114   8.584  1.00  0.00     0.053 C 
BRANCH   7   8
ATOM      8  C   UNL     1       1.692  -5.399   7.752  1.00  0.00     0.041 C 
ATOM      9  O   UNL     1       1.994  -4.327   7.165  1.00  0.00    -0.550 OA
ATOM     10  O   UNL     1       0.426  -5.945   7.580  1.00  0.00    -0.550 OA
ENDBRANCH   7   8
ENDBRANCH   6   7
ENDBRANCH   5   6
ENDBRANCH   4   5
ENDBRANCH   3   4
ENDBRANCH   2   3
ENDBRANCH   1   2
BRANCH   1  11
ATOM     11  C   UNL     1       5.897  -6.141   6.698  1.00  0.00     0.000 C 
BRANCH  11  12
ATOM     12  C   UNL     1       7.040  -5.628   7.592  1.00  0.00    -0.000 C 
BRANCH  12  13
ATOM     13  C   UNL     1       6.655  -5.568   9.082  1.00  0.00    -0.000 C 
BRANCH  13  14
ATOM     14  C   UNL     1       7.710  -4.933  10.007  1.00  0.00    -0.000 C 
BRANCH  14  15
ATOM     15  C   UNL     1       8.673  -3.990   9.262  1.00  0.00    -0.000 C 
BRANCH  15  16
ATOM     16  C   UNL     1       8.839  -2.636   9.985  1.00  0.00    -0.000 C 
BRANCH  16  17
ATOM     17  C   UNL     1       8.382  -1.429   9.148  1.00  0.00    -0.003 C 
ATOM     18  C   UNL     1       8.728  -0.089   9.792  1.00  0.00     0.004 C 
ENDBRANCH  16  17
ENDBRANCH  15  16
ENDBRANCH  14  15
ENDBRANCH  13  14
ENDBRANCH  12  13
ENDBRANCH  11  12
ENDBRANCH   1  11
TORSDOF 14
ENDMDL
MODEL 8
REMARK VINA RESULT:    -3.395     14.997     17.026
REMARK INTER + INTRA:          -6.924
REMARK INTER:                  -5.293
REMARK INTRA:                  -1.631
REMARK UNBOUND:                -0.751
REMARK SMILES CCCCCCCCCCCCCCCC(=O)[O-]
REMARK SMILES IDX 9 1 10 2 11 3 12 4 13 5 14 6 15 7 16 8 17 9 18 10 8 11 7 12
REMARK SMILES IDX 6 13 5 14 4 15 3 16 2 17 1 18
REMARK H PARENT
REMARK Flexibility Score: inf
ROOT
ATOM      1  C   UNL     1       7.008  -5.670   7.175  1.00  0.00     0.000 C 
ENDROOT
BRANCH   1   2
ATOM      2  C   UNL     1       7.054  -5.516   8.706  1.00  0.00     0.000 C 
BRANCH   2   3
ATOM      3  C   UNL     1       6.008  -6.394   9.414  1.00  0.00     0.000 C 
BRANCH   3   4
ATOM      4  C   UNL     1       4.818  -5.578   9.945  1.00  0.00     0.000 C 
BRANCH   4   5
ATOM      5  C   UNL     1       3.473  -6.005   9.326  1.00  0.00     0.000 C 
BRANCH   5   6
ATOM      6  C   UNL     1       2.549  -4.846   8.911  1.00  0.00     0.006 C 
BRANCH   6   7
ATOM      7  C   UNL     1       2.006  -4.995   7.484  1.00  0.00     0.053 C 
BRANCH   7   8
ATOM      8  C   UNL     1       0.639  -5.600   7.508  1.00  0.00     0.041 C 
ATOM      9  O   UNL     1      -0.353  -4.912   7.863  1.00  0.00    -0.550 OA
ATOM     10  O   UNL     1       0.452  -6.911   7.086  1.00  0.00    -0.550 OA
ENDBRANCH   7   8
ENDBRANCH   6   7
ENDBRANCH   5   6
ENDBRANCH   4   5
ENDBRANCH   3   4
ENDBRANCH   2   3
ENDBRANCH   1   2
BRANCH   1  11
ATOM     11  C   UNL     1       6.013  -6.748   6.717  1.00  0.00     0.000 C 
BRANCH  11  12
ATOM     12  C   UNL     1       6.502  -7.514   5.475  1.00  0.00    -0.000 C 
BRANCH  12  13
ATOM     13  C   UNL     1       6.026  -8.978   5.447  1.00  0.00    -0.000 C 
BRANCH  13  14
ATOM     14  C   UNL     1       5.678  -9.581   6.821  1.00  0.00    -0.000 C 
BRANCH  14  15
ATOM     15  C   UNL     1       4.239 -10.125   6.892  1.00  0.00    -0.000 C 
BRANCH  15  16
ATOM     16  C   UNL     1       3.403  -9.423   7.984  1.00  0.00    -0.000 C 
BRANCH  16  17
ATOM     17  C   UNL     1       3.488 -10.104   9.360  1.00  0.00    -0.003 C 
ATOM     18  C   UNL     1       4.763  -9.751  10.125  1.00  0.00     0.004 C 
ENDBRANCH  16  17
ENDBRANCH  15  16
ENDBRANCH  14  15
ENDBRANCH  13  14
ENDBRANCH  12  13
ENDBRANCH  11  12
ENDBRANCH   1  11
TORSDOF 14
ENDMDL
MODEL 9
REMARK VINA RESULT:    -3.007     15.050     16.845
REMARK INTER + INTRA:          -6.218
REMARK INTER:                  -4.682
REMARK INTRA:                  -1.536
REMARK UNBOUND:                -0.751
REMARK SMILES CCCCCCCCCCCCCCCC(=O)[O-]
REMARK SMILES IDX 9 1 10 2 11 3 12 4 13 5 14 6 15 7 16 8 17 9 18 10 8 11 7 12
REMARK SMILES IDX 6 13 5 14 4 15 3 16 2 17 1 18
REMARK H PARENT
REMARK Flexibility Score: inf
ROOT
ATOM      1  C   UNL     1       7.105  -5.501   7.210  1.00  0.00     0.000 C 
ENDROOT
BRANCH   1   2
ATOM      2  C   UNL     1       6.077  -6.299   6.390  1.00  0.00     0.000 C 
BRANCH   2   3
ATOM      3  C   UNL     1       6.743  -7.252   5.382  1.00  0.00     0.000 C 
BRANCH   3   4
ATOM      4  C   UNL     1       6.005  -8.596   5.269  1.00  0.00     0.000 C 
BRANCH   4   5
ATOM      5  C   UNL     1       6.151  -9.468   6.531  1.00  0.00     0.000 C 
BRANCH   5   6
ATOM      6  C   UNL     1       4.848 -10.123   7.025  1.00  0.00     0.006 C 
BRANCH   6   7
ATOM      7  C   UNL     1       4.695 -10.076   8.550  1.00  0.00     0.053 C 
BRANCH   7   8
ATOM      8  C   UNL     1       3.371  -9.490   8.923  1.00  0.00     0.041 C 
ATOM      9  O   UNL     1       2.994  -9.489  10.124  1.00  0.00    -0.550 OA
ATOM     10  O   UNL     1       2.575  -8.897   7.951  1.00  0.00    -0.550 OA
ENDBRANCH   7   8
ENDBRANCH   6   7
ENDBRANCH   5   6
ENDBRANCH   4   5
ENDBRANCH   3   4
ENDBRANCH   2   3
ENDBRANCH   1   2
BRANCH   1  11
ATOM     11  C   UNL     1       6.880  -5.625   8.726  1.00  0.00     0.000 C 
BRANCH  11  12
ATOM     12  C   UNL     1       5.714  -6.567   9.074  1.00  0.00    -0.000 C 
BRANCH  12  13
ATOM     13  C   UNL     1       4.722  -5.948  10.077  1.00  0.00    -0.000 C 
BRANCH  13  14
ATOM     14  C   UNL     1       3.238  -6.057   9.682  1.00  0.00    -0.000 C 
BRANCH  14  15
ATOM     15  C   UNL     1       2.739  -4.842   8.878  1.00  0.00    -0.000 C 
BRANCH  15  16
ATOM     16  C   UNL     1       2.189  -5.245   7.493  1.00  0.00    -0.000 C 
BRANCH  16  17
ATOM     17  C   UNL     1       0.880  -6.050   7.560  1.00  0.00    -0.003 C 
ATOM     18  C   UNL     1      -0.348  -5.229   7.174  1.00  0.00     0.004 C 
ENDBRANCH  16  17
ENDBRANCH  15  16
ENDBRANCH  14  15
ENDBRANCH  13  14
ENDBRANCH  12  13
ENDBRANCH  11  12
ENDBRANCH   1  11
TORSDOF 14
ENDMDL
