MODEL 1
REMARK VINA RESULT:    -7.482      0.000      0.000
REMARK INTER + INTRA:          -9.084
REMARK INTER:                  -8.794
REMARK INTRA:                  -0.290
REMARK UNBOUND:                -0.290
REMARK SMILES O=c1cc(-c2ccc(O)c(O)c2)oc2cc(O)cc(O)c12
REMARK SMILES IDX 4 1 3 2 2 3 1 4 21 5 19 6 18 7 16 8 15 9 14 10 13 11 5 12
REMARK SMILES IDX 6 13 7 14 8 15 12 16 10 17 9 18 11 20 20 22 17 24
REMARK H PARENT 9 19 11 21 20 23 17 25
REMARK Flexibility Score: inf
ROOT
ATOM      1  C   UNL     1      18.159  22.726  40.061  1.00  0.00     0.138 A 
ATOM      2  C   UNL     1      17.952  23.827  39.219  1.00  0.00     0.100 A 
ATOM      3  C   UNL     1      16.834  24.640  39.408  1.00  0.00     0.197 A 
ATOM      4  O   UNL     1      16.708  25.653  38.671  1.00  0.00    -0.289 OA
ATOM      5  C   UNL     1      15.899  24.327  40.423  1.00  0.00     0.107 A 
ATOM      6  C   UNL     1      14.706  25.065  40.685  1.00  0.00     0.134 A 
ATOM      7  C   UNL     1      13.906  24.717  41.783  1.00  0.00     0.093 A 
ATOM      8  C   UNL     1      14.227  23.623  42.591  1.00  0.00     0.123 A 
ATOM      9  C   UNL     1      15.363  22.867  42.312  1.00  0.00     0.094 A 
ATOM     10  C   UNL     1      16.199  23.210  41.247  1.00  0.00     0.146 A 
ATOM     11  O   UNL     1      17.282  22.472  41.028  1.00  0.00    -0.456 OA
ENDROOT
BRANCH   1  12
ATOM     12  C   UNL     1      19.329  21.825  39.905  1.00  0.00     0.021 A 
ATOM     13  C   UNL     1      19.329  20.515  40.422  1.00  0.00     0.016 A 
ATOM     14  C   UNL     1      20.441  19.686  40.252  1.00  0.00     0.051 A 
ATOM     15  C   UNL     1      21.567  20.146  39.559  1.00  0.00     0.157 A 
ATOM     16  C   UNL     1      20.459  22.274  39.199  1.00  0.00     0.062 A 
ATOM     17  C   UNL     1      21.575  21.446  39.029  1.00  0.00     0.158 A 
BRANCH  15  18
ATOM     18  O   UNL     1      22.676  19.316  39.393  1.00  0.00    -0.504 OA
ATOM     19  H   UNL     1      23.344  19.467  38.646  1.00  0.00     0.293 HD
ENDBRANCH  15  18
BRANCH  17  20
ATOM     20  O   UNL     1      22.678  21.934  38.330  1.00  0.00    -0.504 OA
ATOM     21  H   UNL     1      23.614  21.575  38.484  1.00  0.00     0.293 HD
ENDBRANCH  17  20
ENDBRANCH   1  12
BRANCH   6  22
ATOM     22  O   UNL     1      14.249  26.125  39.896  1.00  0.00    -0.507 OA
ATOM     23  H   UNL     1      13.994  26.054  38.923  1.00  0.00     0.293 HD
ENDBRANCH   6  22
BRANCH   8  24
ATOM     24  O   UNL     1      13.418  23.275  43.669  1.00  0.00    -0.508 OA
ATOM     25  H   UNL     1      12.609  22.674  43.554  1.00  0.00     0.293 HD
ENDBRANCH   8  24
TORSDOF 5
ENDMDL
MODEL 2
REMARK VINA RESULT:    -7.265      2.488      7.616
REMARK INTER + INTRA:          -8.829
REMARK INTER:                  -8.516
REMARK INTRA:                  -0.313
REMARK UNBOUND:                -0.290
REMARK SMILES O=c1cc(-c2ccc(O)c(O)c2)oc2cc(O)cc(O)c12
REMARK SMILES IDX 4 1 3 2 2 3 1 4 21 5 19 6 18 7 16 8 15 9 14 10 13 11 5 12
REMARK SMILES IDX 6 13 7 14 8 15 12 16 10 17 9 18 11 20 20 22 17 24
REMARK H PARENT 9 19 11 21 20 23 17 25
REMARK Flexibility Score: inf
ROOT
ATOM      1  C   UNL     1      13.955  23.874  42.944  1.00  0.00     0.138 A 
ATOM      2  C   UNL     1      13.732  24.978  42.109  1.00  0.00     0.100 A 
ATOM      3  C   UNL     1      14.517  25.151  40.969  1.00  0.00     0.197 A 
ATOM      4  O   UNL     1      14.255  26.121  40.211  1.00  0.00    -0.289 OA
ATOM      5  C   UNL     1      15.554  24.231  40.681  1.00  0.00     0.107 A 
ATOM      6  C   UNL     1      16.439  24.326  39.566  1.00  0.00     0.134 A 
ATOM      7  C   UNL     1      17.365  23.300  39.331  1.00  0.00     0.093 A 
ATOM      8  C   UNL     1      17.476  22.214  40.203  1.00  0.00     0.123 A 
ATOM      9  C   UNL     1      16.650  22.139  41.322  1.00  0.00     0.094 A 
ATOM     10  C   UNL     1      15.693  23.128  41.565  1.00  0.00     0.146 A 
ATOM     11  O   UNL     1      14.914  23.007  42.635  1.00  0.00    -0.456 OA
ENDROOT
BRANCH   1  12
ATOM     12  C   UNL     1      13.153  23.642  44.171  1.00  0.00     0.021 A 
ATOM     13  C   UNL     1      12.388  24.667  44.761  1.00  0.00     0.016 A 
ATOM     14  C   UNL     1      11.635  24.417  45.911  1.00  0.00     0.051 A 
ATOM     15  C   UNL     1      11.626  23.140  46.488  1.00  0.00     0.157 A 
ATOM     16  C   UNL     1      13.128  22.360  44.749  1.00  0.00     0.062 A 
ATOM     17  C   UNL     1      12.375  22.107  45.902  1.00  0.00     0.158 A 
BRANCH  15  18
ATOM     18  O   UNL     1      10.875  22.895  47.637  1.00  0.00    -0.504 OA
ATOM     19  H   UNL     1      10.074  22.275  47.624  1.00  0.00     0.293 HD
ENDBRANCH  15  18
BRANCH  17  20
ATOM     20  O   UNL     1      12.386  20.825  46.448  1.00  0.00    -0.504 OA
ATOM     21  H   UNL     1      13.032  20.557  47.181  1.00  0.00     0.293 HD
ENDBRANCH  17  20
ENDBRANCH   1  12
BRANCH   6  22
ATOM     22  O   UNL     1      16.469  25.405  38.676  1.00  0.00    -0.507 OA
ATOM     23  H   UNL     1      16.263  25.349  37.691  1.00  0.00     0.293 HD
ENDBRANCH   6  22
BRANCH   8  24
ATOM     24  O   UNL     1      18.410  21.208  39.970  1.00  0.00    -0.508 OA
ATOM     25  H   UNL     1      19.350  21.260  40.345  1.00  0.00     0.293 HD
ENDBRANCH   8  24
TORSDOF 5
ENDMDL
MODEL 3
REMARK VINA RESULT:    -7.190      1.736      7.401
REMARK INTER + INTRA:          -8.741
REMARK INTER:                  -8.472
REMARK INTRA:                  -0.269
REMARK UNBOUND:                -0.290
REMARK SMILES O=c1cc(-c2ccc(O)c(O)c2)oc2cc(O)cc(O)c12
REMARK SMILES IDX 4 1 3 2 2 3 1 4 21 5 19 6 18 7 16 8 15 9 14 10 13 11 5 12
REMARK SMILES IDX 6 13 7 14 8 15 12 16 10 17 9 18 11 20 20 22 17 24
REMARK H PARENT 9 19 11 21 20 23 17 25
REMARK Flexibility Score: inf
ROOT
ATOM      1  C   UNL     1      16.742  22.377  41.382  1.00  0.00     0.138 A 
ATOM      2  C   UNL     1      16.794  20.976  41.372  1.00  0.00     0.100 A 
ATOM      3  C   UNL     1      17.934  20.330  40.893  1.00  0.00     0.197 A 
ATOM      4  O   UNL     1      17.971  19.073  40.950  1.00  0.00    -0.289 OA
ATOM      5  C   UNL     1      19.014  21.092  40.387  1.00  0.00     0.107 A 
ATOM      6  C   UNL     1      20.213  20.541  39.841  1.00  0.00     0.134 A 
ATOM      7  C   UNL     1      21.255  21.397  39.461  1.00  0.00     0.093 A 
ATOM      8  C   UNL     1      21.119  22.785  39.554  1.00  0.00     0.123 A 
ATOM      9  C   UNL     1      19.933  23.333  40.038  1.00  0.00     0.094 A 
ATOM     10  C   UNL     1      18.889  22.505  40.458  1.00  0.00     0.146 A 
ATOM     11  O   UNL     1      17.783  23.070  40.930  1.00  0.00    -0.456 OA
ENDROOT
BRANCH   1  12
ATOM     12  C   UNL     1      15.555  23.117  41.878  1.00  0.00     0.021 A 
ATOM     13  C   UNL     1      14.889  24.068  41.081  1.00  0.00     0.016 A 
ATOM     14  C   UNL     1      13.768  24.743  41.570  1.00  0.00     0.051 A 
ATOM     15  C   UNL     1      13.287  24.476  42.859  1.00  0.00     0.157 A 
ATOM     16  C   UNL     1      15.058  22.846  43.165  1.00  0.00     0.062 A 
ATOM     17  C   UNL     1      13.936  23.521  43.659  1.00  0.00     0.158 A 
BRANCH  15  18
ATOM     18  O   UNL     1      12.170  25.153  43.344  1.00  0.00    -0.504 OA
ATOM     19  H   UNL     1      11.872  26.038  42.950  1.00  0.00     0.293 HD
ENDBRANCH  15  18
BRANCH  17  20
ATOM     20  O   UNL     1      13.482  23.230  44.944  1.00  0.00    -0.504 OA
ATOM     21  H   UNL     1      13.883  23.664  45.768  1.00  0.00     0.293 HD
ENDBRANCH  17  20
ENDBRANCH   1  12
BRANCH   6  22
ATOM     22  O   UNL     1      20.423  19.175  39.630  1.00  0.00    -0.507 OA
ATOM     23  H   UNL     1      20.753  18.766  38.770  1.00  0.00     0.293 HD
ENDBRANCH   6  22
BRANCH   8  24
ATOM     24  O   UNL     1      22.154  23.628  39.159  1.00  0.00    -0.508 OA
ATOM     25  H   UNL     1      22.880  23.916  39.806  1.00  0.00     0.293 HD
ENDBRANCH   8  24
TORSDOF 5
ENDMDL
MODEL 4
REMARK VINA RESULT:    -7.081      0.765      1.559
REMARK INTER + INTRA:          -8.613
REMARK INTER:                  -8.297
REMARK INTRA:                  -0.316
REMARK UNBOUND:                -0.290
REMARK SMILES O=c1cc(-c2ccc(O)c(O)c2)oc2cc(O)cc(O)c12
REMARK SMILES IDX 4 1 3 2 2 3 1 4 21 5 19 6 18 7 16 8 15 9 14 10 13 11 5 12
REMARK SMILES IDX 6 13 7 14 8 15 12 16 10 17 9 18 11 20 20 22 17 24
REMARK H PARENT 9 19 11 21 20 23 17 25
REMARK Flexibility Score: inf
ROOT
ATOM      1  C   UNL     1      17.858  22.777  40.174  1.00  0.00     0.138 A 
ATOM      2  C   UNL     1      17.592  23.879  39.351  1.00  0.00     0.100 A 
ATOM      3  C   UNL     1      16.476  24.676  39.603  1.00  0.00     0.197 A 
ATOM      4  O   UNL     1      16.296  25.691  38.880  1.00  0.00    -0.289 OA
ATOM      5  C   UNL     1      15.600  24.347  40.666  1.00  0.00     0.107 A 
ATOM      6  C   UNL     1      14.413  25.068  40.995  1.00  0.00     0.134 A 
ATOM      7  C   UNL     1      13.679  24.704  42.132  1.00  0.00     0.093 A 
ATOM      8  C   UNL     1      14.057  23.611  42.916  1.00  0.00     0.123 A 
ATOM      9  C   UNL     1      15.186  22.871  42.573  1.00  0.00     0.094 A 
ATOM     10  C   UNL     1      15.959  23.230  41.466  1.00  0.00     0.146 A 
ATOM     11  O   UNL     1      17.038  22.507  41.186  1.00  0.00    -0.456 OA
ENDROOT
BRANCH   1  12
ATOM     12  C   UNL     1      19.029  21.892  39.951  1.00  0.00     0.021 A 
ATOM     13  C   UNL     1      20.091  22.268  39.106  1.00  0.00     0.016 A 
ATOM     14  C   UNL     1      21.186  21.420  38.922  1.00  0.00     0.051 A 
ATOM     15  C   UNL     1      21.243  20.186  39.582  1.00  0.00     0.157 A 
ATOM     16  C   UNL     1      19.102  20.657  40.620  1.00  0.00     0.062 A 
ATOM     17  C   UNL     1      20.196  19.804  40.436  1.00  0.00     0.158 A 
BRANCH  15  18
ATOM     18  O   UNL     1      22.336  19.340  39.394  1.00  0.00    -0.504 OA
ATOM     19  H   UNL     1      22.878  19.356  38.538  1.00  0.00     0.293 HD
ENDBRANCH  15  18
BRANCH  17  20
ATOM     20  O   UNL     1      20.224  18.585  41.111  1.00  0.00    -0.504 OA
ATOM     21  H   UNL     1      19.391  18.022  41.240  1.00  0.00     0.293 HD
ENDBRANCH  17  20
ENDBRANCH   1  12
BRANCH   6  22
ATOM     22  O   UNL     1      13.901  26.125  40.237  1.00  0.00    -0.507 OA
ATOM     23  H   UNL     1      13.778  26.113  39.236  1.00  0.00     0.293 HD
ENDBRANCH   6  22
BRANCH   8  24
ATOM     24  O   UNL     1      13.311  23.248  44.035  1.00  0.00    -0.508 OA
ATOM     25  H   UNL     1      13.501  23.641  44.950  1.00  0.00     0.293 HD
ENDBRANCH   8  24
TORSDOF 5
ENDMDL
MODEL 5
REMARK VINA RESULT:    -7.078      2.012      7.282
REMARK INTER + INTRA:          -8.610
REMARK INTER:                  -8.293
REMARK INTRA:                  -0.317
REMARK UNBOUND:                -0.290
REMARK SMILES O=c1cc(-c2ccc(O)c(O)c2)oc2cc(O)cc(O)c12
REMARK SMILES IDX 4 1 3 2 2 3 1 4 21 5 19 6 18 7 16 8 15 9 14 10 13 11 5 12
REMARK SMILES IDX 6 13 7 14 8 15 12 16 10 17 9 18 11 20 20 22 17 24
REMARK H PARENT 9 19 11 21 20 23 17 25
REMARK Flexibility Score: inf
ROOT
ATOM      1  C   UNL     1      14.846  23.747  42.006  1.00  0.00     0.138 A 
ATOM      2  C   UNL     1      14.921  24.707  40.988  1.00  0.00     0.100 A 
ATOM      3  C   UNL     1      15.921  24.609  40.019  1.00  0.00     0.197 A 
ATOM      4  O   UNL     1      15.927  25.455  39.087  1.00  0.00    -0.289 OA
ATOM      5  C   UNL     1      16.872  23.563  40.091  1.00  0.00     0.107 A 
ATOM      6  C   UNL     1      17.955  23.384  39.179  1.00  0.00     0.134 A 
ATOM      7  C   UNL     1      18.774  22.253  39.295  1.00  0.00     0.093 A 
ATOM      8  C   UNL     1      18.585  21.327  40.324  1.00  0.00     0.123 A 
ATOM      9  C   UNL     1      17.562  21.521  41.249  1.00  0.00     0.094 A 
ATOM     10  C   UNL     1      16.706  22.620  41.140  1.00  0.00     0.146 A 
ATOM     11  O   UNL     1      15.732  22.755  42.033  1.00  0.00    -0.456 OA
ENDROOT
BRANCH   1  12
ATOM     12  C   UNL     1      13.806  23.802  43.064  1.00  0.00     0.021 A 
ATOM     13  C   UNL     1      12.727  24.705  42.996  1.00  0.00     0.016 A 
ATOM     14  C   UNL     1      11.758  24.729  44.002  1.00  0.00     0.051 A 
ATOM     15  C   UNL     1      11.843  23.849  45.088  1.00  0.00     0.157 A 
ATOM     16  C   UNL     1      13.877  22.913  44.152  1.00  0.00     0.062 A 
ATOM     17  C   UNL     1      12.908  22.936  45.161  1.00  0.00     0.158 A 
BRANCH  15  18
ATOM     18  O   UNL     1      10.875  23.877  46.091  1.00  0.00    -0.504 OA
ATOM     19  H   UNL     1      10.109  24.540  46.070  1.00  0.00     0.293 HD
ENDBRANCH  15  18
BRANCH  17  20
ATOM     20  O   UNL     1      13.021  22.044  46.227  1.00  0.00    -0.504 OA
ATOM     21  H   UNL     1      12.370  21.278  46.359  1.00  0.00     0.293 HD
ENDBRANCH  17  20
ENDBRANCH   1  12
BRANCH   6  22
ATOM     22  O   UNL     1      18.283  24.287  38.163  1.00  0.00    -0.507 OA
ATOM     23  H   UNL     1      19.147  24.286  37.644  1.00  0.00     0.293 HD
ENDBRANCH   6  22
BRANCH   8  24
ATOM     24  O   UNL     1      19.415  20.215  40.440  1.00  0.00    -0.508 OA
ATOM     25  H   UNL     1      20.373  20.299  40.761  1.00  0.00     0.293 HD
ENDBRANCH   8  24
TORSDOF 5
ENDMDL
MODEL 6
REMARK VINA RESULT:    -6.970      2.113      3.416
REMARK INTER + INTRA:          -8.483
REMARK INTER:                  -8.201
REMARK INTRA:                  -0.282
REMARK UNBOUND:                -0.290
REMARK SMILES O=c1cc(-c2ccc(O)c(O)c2)oc2cc(O)cc(O)c12
REMARK SMILES IDX 4 1 3 2 2 3 1 4 21 5 19 6 18 7 16 8 15 9 14 10 13 11 5 12
REMARK SMILES IDX 6 13 7 14 8 15 12 16 10 17 9 18 11 20 20 22 17 24
REMARK H PARENT 9 19 11 21 20 23 17 25
REMARK Flexibility Score: inf
ROOT
ATOM      1  C   UNL     1      15.541  23.339  41.417  1.00  0.00     0.138 A 
ATOM      2  C   UNL     1      14.882  24.503  40.998  1.00  0.00     0.100 A 
ATOM      3  C   UNL     1      13.872  25.048  41.792  1.00  0.00     0.197 A 
ATOM      4  O   UNL     1      13.339  26.125  41.416  1.00  0.00    -0.289 OA
ATOM      5  C   UNL     1      13.497  24.404  42.995  1.00  0.00     0.107 A 
ATOM      6  C   UNL     1      12.459  24.850  43.868  1.00  0.00     0.134 A 
ATOM      7  C   UNL     1      12.244  24.183  45.082  1.00  0.00     0.093 A 
ATOM      8  C   UNL     1      12.991  23.054  45.427  1.00  0.00     0.123 A 
ATOM      9  C   UNL     1      13.972  22.581  44.558  1.00  0.00     0.094 A 
ATOM     10  C   UNL     1      14.234  23.245  43.357  1.00  0.00     0.146 A 
ATOM     11  O   UNL     1      15.192  22.770  42.567  1.00  0.00    -0.456 OA
ENDROOT
BRANCH   1  12
ATOM     12  C   UNL     1      16.620  22.714  40.611  1.00  0.00     0.021 A 
ATOM     13  C   UNL     1      16.782  21.316  40.549  1.00  0.00     0.016 A 
ATOM     14  C   UNL     1      17.801  20.755  39.775  1.00  0.00     0.051 A 
ATOM     15  C   UNL     1      18.671  21.576  39.046  1.00  0.00     0.157 A 
ATOM     16  C   UNL     1      17.489  23.530  39.865  1.00  0.00     0.062 A 
ATOM     17  C   UNL     1      18.512  22.971  39.091  1.00  0.00     0.158 A 
BRANCH  15  18
ATOM     18  O   UNL     1      19.687  21.012  38.276  1.00  0.00    -0.504 OA
ATOM     19  H   UNL     1      20.655  21.038  38.575  1.00  0.00     0.293 HD
ENDBRANCH  15  18
BRANCH  17  20
ATOM     20  O   UNL     1      19.357  23.816  38.374  1.00  0.00    -0.504 OA
ATOM     21  H   UNL     1      19.807  23.524  37.513  1.00  0.00     0.293 HD
ENDBRANCH  17  20
ENDBRANCH   1  12
BRANCH   6  22
ATOM     22  O   UNL     1      11.601  25.917  43.585  1.00  0.00    -0.507 OA
ATOM     23  H   UNL     1      11.048  26.010  42.748  1.00  0.00     0.293 HD
ENDBRANCH   6  22
BRANCH   8  24
ATOM     24  O   UNL     1      12.759  22.389  46.628  1.00  0.00    -0.508 OA
ATOM     25  H   UNL     1      11.885  21.908  46.808  1.00  0.00     0.293 HD
ENDBRANCH   8  24
TORSDOF 5
ENDMDL
MODEL 7
REMARK VINA RESULT:    -6.910      1.578      6.940
REMARK INTER + INTRA:          -8.413
REMARK INTER:                  -8.099
REMARK INTRA:                  -0.314
REMARK UNBOUND:                -0.290
REMARK SMILES O=c1cc(-c2ccc(O)c(O)c2)oc2cc(O)cc(O)c12
REMARK SMILES IDX 4 1 3 2 2 3 1 4 21 5 19 6 18 7 16 8 15 9 14 10 13 11 5 12
REMARK SMILES IDX 6 13 7 14 8 15 12 16 10 17 9 18 11 20 20 22 17 24
REMARK H PARENT 9 19 11 21 20 23 17 25
REMARK Flexibility Score: inf
ROOT
ATOM      1  C   UNL     1      16.419  23.343  40.902  1.00  0.00     0.138 A 
ATOM      2  C   UNL     1      16.889  24.173  39.876  1.00  0.00     0.100 A 
ATOM      3  C   UNL     1      18.027  23.806  39.158  1.00  0.00     0.197 A 
ATOM      4  O   UNL     1      18.391  24.545  38.205  1.00  0.00    -0.289 OA
ATOM      5  C   UNL     1      18.720  22.618  39.493  1.00  0.00     0.107 A 
ATOM      6  C   UNL     1      19.910  22.161  38.852  1.00  0.00     0.134 A 
ATOM      7  C   UNL     1      20.451  20.917  39.207  1.00  0.00     0.093 A 
ATOM      8  C   UNL     1      19.876  20.143  40.217  1.00  0.00     0.123 A 
ATOM      9  C   UNL     1      18.743  20.604  40.883  1.00  0.00     0.094 A 
ATOM     10  C   UNL     1      18.160  21.823  40.529  1.00  0.00     0.146 A 
ATOM     11  O   UNL     1      17.069  22.216  41.177  1.00  0.00    -0.456 OA
ENDROOT
BRANCH   1  12
ATOM     12  C   UNL     1      15.215  23.684  41.701  1.00  0.00     0.021 A 
ATOM     13  C   UNL     1      14.275  24.634  41.255  1.00  0.00     0.016 A 
ATOM     14  C   UNL     1      13.146  24.928  42.024  1.00  0.00     0.051 A 
ATOM     15  C   UNL     1      12.931  24.277  43.245  1.00  0.00     0.157 A 
ATOM     16  C   UNL     1      14.985  23.026  42.923  1.00  0.00     0.062 A 
ATOM     17  C   UNL     1      13.856  23.320  43.695  1.00  0.00     0.158 A 
BRANCH  15  18
ATOM     18  O   UNL     1      11.805  24.575  44.010  1.00  0.00    -0.504 OA
ATOM     19  H   UNL     1      11.018  25.080  43.621  1.00  0.00     0.293 HD
ENDBRANCH  15  18
BRANCH  17  20
ATOM     20  O   UNL     1      13.671  22.652  44.904  1.00  0.00    -0.504 OA
ATOM     21  H   UNL     1      14.368  22.021  45.283  1.00  0.00     0.293 HD
ENDBRANCH  17  20
ENDBRANCH   1  12
BRANCH   6  22
ATOM     22  O   UNL     1      20.611  22.891  37.887  1.00  0.00    -0.507 OA
ATOM     23  H   UNL     1      20.344  23.799  37.540  1.00  0.00     0.293 HD
ENDBRANCH   6  22
BRANCH   8  24
ATOM     24  O   UNL     1      20.430  18.916  40.573  1.00  0.00    -0.508 OA
ATOM     25  H   UNL     1      19.849  18.105  40.757  1.00  0.00     0.293 HD
ENDBRANCH   8  24
TORSDOF 5
ENDMDL
MODEL 8
REMARK VINA RESULT:    -6.855      2.154      3.669
REMARK INTER + INTRA:          -8.347
REMARK INTER:                  -8.042
REMARK INTRA:                  -0.305
REMARK UNBOUND:                -0.290
REMARK SMILES O=c1cc(-c2ccc(O)c(O)c2)oc2cc(O)cc(O)c12
REMARK SMILES IDX 4 1 3 2 2 3 1 4 21 5 19 6 18 7 16 8 15 9 14 10 13 11 5 12
REMARK SMILES IDX 6 13 7 14 8 15 12 16 10 17 9 18 11 20 20 22 17 24
REMARK H PARENT 9 19 11 21 20 23 17 25
REMARK Flexibility Score: inf
ROOT
ATOM      1  C   UNL     1      15.551  23.341  41.428  1.00  0.00     0.138 A 
ATOM      2  C   UNL     1      14.892  24.507  41.014  1.00  0.00     0.100 A 
ATOM      3  C   UNL     1      13.879  25.047  41.806  1.00  0.00     0.197 A 
ATOM      4  O   UNL     1      13.346  26.125  41.433  1.00  0.00    -0.289 OA
ATOM      5  C   UNL     1      13.498  24.395  43.004  1.00  0.00     0.107 A 
ATOM      6  C   UNL     1      12.456  24.835  43.874  1.00  0.00     0.134 A 
ATOM      7  C   UNL     1      12.236  24.161  45.083  1.00  0.00     0.093 A 
ATOM      8  C   UNL     1      12.982  23.031  45.425  1.00  0.00     0.123 A 
ATOM      9  C   UNL     1      13.968  22.564  44.558  1.00  0.00     0.094 A 
ATOM     10  C   UNL     1      14.235  23.235  43.362  1.00  0.00     0.146 A 
ATOM     11  O   UNL     1      15.196  22.766  42.573  1.00  0.00    -0.456 OA
ENDROOT
BRANCH   1  12
ATOM     12  C   UNL     1      16.634  22.722  40.624  1.00  0.00     0.021 A 
ATOM     13  C   UNL     1      17.504  23.495  39.832  1.00  0.00     0.016 A 
ATOM     14  C   UNL     1      18.521  22.885  39.093  1.00  0.00     0.051 A 
ATOM     15  C   UNL     1      18.692  21.496  39.137  1.00  0.00     0.157 A 
ATOM     16  C   UNL     1      16.821  21.328  40.672  1.00  0.00     0.062 A 
ATOM     17  C   UNL     1      17.838  20.715  39.932  1.00  0.00     0.158 A 
BRANCH  15  18
ATOM     18  O   UNL     1      19.706  20.891  38.396  1.00  0.00    -0.504 OA
ATOM     19  H   UNL     1      19.501  20.298  37.601  1.00  0.00     0.293 HD
ENDBRANCH  15  18
BRANCH  17  20
ATOM     20  O   UNL     1      17.983  19.330  40.000  1.00  0.00    -0.504 OA
ATOM     21  H   UNL     1      17.186  18.708  40.077  1.00  0.00     0.293 HD
ENDBRANCH  17  20
ENDBRANCH   1  12
BRANCH   6  22
ATOM     22  O   UNL     1      11.598  25.904  43.593  1.00  0.00    -0.507 OA
ATOM     23  H   UNL     1      10.813  26.180  44.161  1.00  0.00     0.293 HD
ENDBRANCH   6  22
BRANCH   8  24
ATOM     24  O   UNL     1      12.746  22.359  46.621  1.00  0.00    -0.508 OA
ATOM     25  H   UNL     1      13.507  22.009  47.192  1.00  0.00     0.293 HD
ENDBRANCH   8  24
TORSDOF 5
ENDMDL
MODEL 9
REMARK VINA RESULT:    -6.747      1.454      7.263
REMARK INTER + INTRA:          -8.221
REMARK INTER:                  -7.923
REMARK INTRA:                  -0.298
REMARK UNBOUND:                -0.290
REMARK SMILES O=c1cc(-c2ccc(O)c(O)c2)oc2cc(O)cc(O)c12
REMARK SMILES IDX 4 1 3 2 2 3 1 4 21 5 19 6 18 7 16 8 15 9 14 10 13 11 5 12
REMARK SMILES IDX 6 13 7 14 8 15 12 16 10 17 9 18 11 20 20 22 17 24
REMARK H PARENT 9 19 11 21 20 23 17 25
REMARK Flexibility Score: inf
ROOT
ATOM      1  C   UNL     1      16.874  22.334  41.291  1.00  0.00     0.138 A 
ATOM      2  C   UNL     1      16.892  20.937  41.401  1.00  0.00     0.100 A 
ATOM      3  C   UNL     1      18.010  20.224  40.967  1.00  0.00     0.197 A 
ATOM      4  O   UNL     1      18.017  18.976  41.131  1.00  0.00    -0.289 OA
ATOM      5  C   UNL     1      19.103  20.913  40.388  1.00  0.00     0.107 A 
ATOM      6  C   UNL     1      20.281  20.287  39.881  1.00  0.00     0.134 A 
ATOM      7  C   UNL     1      21.340  21.082  39.420  1.00  0.00     0.093 A 
ATOM      8  C   UNL     1      21.239  22.475  39.395  1.00  0.00     0.123 A 
ATOM      9  C   UNL     1      20.072  23.092  39.842  1.00  0.00     0.094 A 
ATOM     10  C   UNL     1      19.013  22.329  40.340  1.00  0.00     0.146 A 
ATOM     11  O   UNL     1      17.927  22.960  40.773  1.00  0.00    -0.456 OA
ENDROOT
BRANCH   1  12
ATOM     12  C   UNL     1      15.711  23.144  41.733  1.00  0.00     0.021 A 
ATOM     13  C   UNL     1      15.011  22.849  42.920  1.00  0.00     0.016 A 
ATOM     14  C   UNL     1      13.925  23.634  43.316  1.00  0.00     0.051 A 
ATOM     15  C   UNL     1      13.523  24.729  42.541  1.00  0.00     0.157 A 
ATOM     16  C   UNL     1      15.308  24.253  40.968  1.00  0.00     0.062 A 
ATOM     17  C   UNL     1      14.220  25.040  41.361  1.00  0.00     0.158 A 
BRANCH  15  18
ATOM     18  O   UNL     1      12.438  25.508  42.938  1.00  0.00    -0.504 OA
ATOM     19  H   UNL     1      11.899  26.047  42.270  1.00  0.00     0.293 HD
ENDBRANCH  15  18
BRANCH  17  20
ATOM     20  O   UNL     1      13.847  26.124  40.569  1.00  0.00    -0.504 OA
ATOM     21  H   UNL     1      14.413  26.441  39.790  1.00  0.00     0.293 HD
ENDBRANCH  17  20
ENDBRANCH   1  12
BRANCH   6  22
ATOM     22  O   UNL     1      20.456  18.903  39.785  1.00  0.00    -0.507 OA
ATOM     23  H   UNL     1      20.394  18.369  38.932  1.00  0.00     0.293 HD
ENDBRANCH   6  22
BRANCH   8  24
ATOM     24  O   UNL     1      22.290  23.255  38.920  1.00  0.00    -0.508 OA
ATOM     25  H   UNL     1      23.254  23.051  39.161  1.00  0.00     0.293 HD
ENDBRANCH   8  24
TORSDOF 5
ENDMDL
