MODEL 1
REMARK VINA RESULT:    -4.931      0.000      0.000
REMARK INTER + INTRA:         -11.038
REMARK INTER:                  -9.544
REMARK INTRA:                  -1.494
REMARK UNBOUND:                -1.494
REMARK SMILES CCCCCCCCCCCCCCCCCC(=O)[O-]
REMARK SMILES IDX 10 1 11 2 12 3 13 4 14 5 15 6 16 7 17 8 18 9 19 10 20 11
REMARK SMILES IDX 9 12 8 13 7 14 6 15 5 16 4 17 3 18 2 19 1 20
REMARK H PARENT
REMARK Flexibility Score: inf
ROOT
ATOM      1  C   UNL     1       9.465   3.816   9.263  1.00  0.00     0.000 C 
ENDROOT
BRANCH   1   2
ATOM      2  C   UNL     1       9.334   4.076  10.774  1.00  0.00     0.000 C 
BRANCH   2   3
ATOM      3  C   UNL     1      10.388   5.067  11.295  1.00  0.00     0.000 C 
BRANCH   3   4
ATOM      4  C   UNL     1      11.378   5.504  10.203  1.00  0.00     0.000 C 
BRANCH   4   5
ATOM      5  C   UNL     1      12.057   6.848  10.523  1.00  0.00     0.000 C 
BRANCH   5   6
ATOM      6  C   UNL     1      11.361   7.601  11.668  1.00  0.00     0.000 C 
BRANCH   6   7
ATOM      7  C   UNL     1      11.467   9.129  11.521  1.00  0.00     0.006 C 
BRANCH   7   8
ATOM      8  C   UNL     1      12.155   9.538  10.211  1.00  0.00     0.053 C 
BRANCH   8   9
ATOM      9  C   UNL     1      12.458  11.005  10.179  1.00  0.00     0.041 C 
ATOM     10  O   UNL     1      12.902  11.537   9.127  1.00  0.00    -0.550 OA
ATOM     11  O   UNL     1      12.215  11.792  11.298  1.00  0.00    -0.550 OA
ENDBRANCH   8   9
ENDBRANCH   7   8
ENDBRANCH   6   7
ENDBRANCH   5   6
ENDBRANCH   4   5
ENDBRANCH   3   4
ENDBRANCH   2   3
ENDBRANCH   1   2
BRANCH   1  12
ATOM     12  C   UNL     1       9.707   2.332   8.939  1.00  0.00     0.000 C 
BRANCH  12  13
ATOM     13  C   UNL     1      11.189   1.937   9.050  1.00  0.00    -0.000 C 
BRANCH  13  14
ATOM     14  C   UNL     1      11.387   0.434   9.301  1.00  0.00    -0.000 C 
BRANCH  14  15
ATOM     15  C   UNL     1      12.257   0.198  10.546  1.00  0.00    -0.000 C 
BRANCH  15  16
ATOM     16  C   UNL     1      11.805   1.033  11.755  1.00  0.00    -0.000 C 
BRANCH  16  17
ATOM     17  C   UNL     1      12.946   1.878  12.349  1.00  0.00    -0.000 C 
BRANCH  17  18
ATOM     18  C   UNL     1      12.590   2.467  13.723  1.00  0.00    -0.000 C 
BRANCH  18  19
ATOM     19  C   UNL     1      13.091   1.601  14.888  1.00  0.00    -0.003 C 
ATOM     20  C   UNL     1      14.345   2.199  15.518  1.00  0.00     0.004 C 
ENDBRANCH  18  19
ENDBRANCH  17  18
ENDBRANCH  16  17
ENDBRANCH  15  16
ENDBRANCH  14  15
ENDBRANCH  13  14
ENDBRANCH  12  13
ENDBRANCH   1  12
TORSDOF 16
ENDMDL
MODEL 2
REMARK VINA RESULT:    -4.929      1.465      4.031
REMARK INTER + INTRA:         -11.033
REMARK INTER:                  -8.783
REMARK INTRA:                  -2.250
REMARK UNBOUND:                -1.494
REMARK SMILES CCCCCCCCCCCCCCCCCC(=O)[O-]
REMARK SMILES IDX 10 1 11 2 12 3 13 4 14 5 15 6 16 7 17 8 18 9 19 10 20 11
REMARK SMILES IDX 9 12 8 13 7 14 6 15 5 16 4 17 3 18 2 19 1 20
REMARK H PARENT
REMARK Flexibility Score: inf
ROOT
ATOM      1  C   UNL     1      11.331   3.231  14.906  1.00  0.00     0.000 C 
ENDROOT
BRANCH   1   2
ATOM      2  C   UNL     1      10.310   2.898  13.805  1.00  0.00     0.000 C 
BRANCH   2   3
ATOM      3  C   UNL     1       9.948   4.121  12.947  1.00  0.00     0.000 C 
BRANCH   3   4
ATOM      4  C   UNL     1       9.766   5.397  13.785  1.00  0.00     0.000 C 
BRANCH   4   5
ATOM      5  C   UNL     1      10.554   6.594  13.222  1.00  0.00     0.000 C 
BRANCH   5   6
ATOM      6  C   UNL     1      10.816   6.467  11.712  1.00  0.00     0.000 C 
BRANCH   6   7
ATOM      7  C   UNL     1      11.693   7.608  11.167  1.00  0.00     0.006 C 
BRANCH   7   8
ATOM      8  C   UNL     1      11.298   8.971  11.749  1.00  0.00     0.053 C 
BRANCH   8   9
ATOM      9  C   UNL     1      12.010  10.095  11.061  1.00  0.00     0.041 C 
ATOM     10  O   UNL     1      12.513   9.923   9.920  1.00  0.00    -0.550 OA
ATOM     11  O   UNL     1      12.085  11.345  11.664  1.00  0.00    -0.550 OA
ENDBRANCH   8   9
ENDBRANCH   7   8
ENDBRANCH   6   7
ENDBRANCH   5   6
ENDBRANCH   4   5
ENDBRANCH   3   4
ENDBRANCH   2   3
ENDBRANCH   1   2
BRANCH   1  12
ATOM     12  C   UNL     1      12.394   2.133  15.075  1.00  0.00     0.000 C 
BRANCH  12  13
ATOM     13  C   UNL     1      13.396   2.096  13.910  1.00  0.00    -0.000 C 
BRANCH  13  14
ATOM     14  C   UNL     1      13.137   0.934  12.939  1.00  0.00    -0.000 C 
BRANCH  14  15
ATOM     15  C   UNL     1      12.861   1.458  11.520  1.00  0.00    -0.000 C 
BRANCH  15  16
ATOM     16  C   UNL     1      13.211   2.947  11.358  1.00  0.00    -0.000 C 
BRANCH  16  17
ATOM     17  C   UNL     1      12.460   3.606  10.188  1.00  0.00    -0.000 C 
BRANCH  17  18
ATOM     18  C   UNL     1      11.786   2.577   9.265  1.00  0.00    -0.000 C 
BRANCH  18  19
ATOM     19  C   UNL     1      10.260   2.742   9.207  1.00  0.00    -0.003 C 
ATOM     20  C   UNL     1       9.874   4.193   8.938  1.00  0.00     0.004 C 
ENDBRANCH  18  19
ENDBRANCH  17  18
ENDBRANCH  16  17
ENDBRANCH  15  16
ENDBRANCH  14  15
ENDBRANCH  13  14
ENDBRANCH  12  13
ENDBRANCH   1  12
TORSDOF 16
ENDMDL
MODEL 3
REMARK VINA RESULT:    -4.851      1.843      3.036
REMARK INTER + INTRA:         -10.882
REMARK INTER:                  -8.655
REMARK INTRA:                  -2.227
REMARK UNBOUND:                -1.494
REMARK SMILES CCCCCCCCCCCCCCCCCC(=O)[O-]
REMARK SMILES IDX 10 1 11 2 12 3 13 4 14 5 15 6 16 7 17 8 18 9 19 10 20 11
REMARK SMILES IDX 9 12 8 13 7 14 6 15 5 16 4 17 3 18 2 19 1 20
REMARK H PARENT
REMARK Flexibility Score: inf
ROOT
ATOM      1  C   UNL     1      12.039   2.897   9.357  1.00  0.00     0.000 C 
ENDROOT
BRANCH   1   2
ATOM      2  C   UNL     1      12.658   2.843  10.764  1.00  0.00     0.000 C 
BRANCH   2   3
ATOM      3  C   UNL     1      12.665   4.215  11.458  1.00  0.00     0.000 C 
BRANCH   3   4
ATOM      4  C   UNL     1      13.103   5.349  10.517  1.00  0.00     0.000 C 
BRANCH   4   5
ATOM      5  C   UNL     1      11.979   6.367  10.252  1.00  0.00     0.000 C 
BRANCH   5   6
ATOM      6  C   UNL     1      11.389   6.943  11.550  1.00  0.00     0.000 C 
BRANCH   6   7
ATOM      7  C   UNL     1      11.523   8.474  11.631  1.00  0.00     0.006 C 
BRANCH   7   8
ATOM      8  C   UNL     1      12.082   9.075  10.335  1.00  0.00     0.053 C 
BRANCH   8   9
ATOM      9  C   UNL     1      12.326  10.548  10.467  1.00  0.00     0.041 C 
ATOM     10  O   UNL     1      12.256  11.103  11.594  1.00  0.00    -0.550 OA
ATOM     11  O   UNL     1      12.667  11.300   9.349  1.00  0.00    -0.550 OA
ENDBRANCH   8   9
ENDBRANCH   7   8
ENDBRANCH   6   7
ENDBRANCH   5   6
ENDBRANCH   4   5
ENDBRANCH   3   4
ENDBRANCH   2   3
ENDBRANCH   1   2
BRANCH   1  12
ATOM     12  C   UNL     1      10.715   2.120   9.265  1.00  0.00     0.000 C 
BRANCH  12  13
ATOM     13  C   UNL     1       9.531   3.015   8.867  1.00  0.00    -0.000 C 
BRANCH  13  14
ATOM     14  C   UNL     1       9.074   3.940  10.006  1.00  0.00    -0.000 C 
BRANCH  14  15
ATOM     15  C   UNL     1       9.070   3.192  11.349  1.00  0.00    -0.000 C 
BRANCH  15  16
ATOM     16  C   UNL     1       9.411   4.104  12.539  1.00  0.00    -0.000 C 
BRANCH  16  17
ATOM     17  C   UNL     1       9.854   3.313  13.781  1.00  0.00    -0.000 C 
BRANCH  17  18
ATOM     18  C   UNL     1      10.618   4.183  14.793  1.00  0.00    -0.000 C 
BRANCH  18  19
ATOM     19  C   UNL     1       9.749   5.298  15.393  1.00  0.00    -0.003 C 
ATOM     20  C   UNL     1      10.256   6.675  14.974  1.00  0.00     0.004 C 
ENDBRANCH  18  19
ENDBRANCH  17  18
ENDBRANCH  16  17
ENDBRANCH  15  16
ENDBRANCH  14  15
ENDBRANCH  13  14
ENDBRANCH  12  13
ENDBRANCH   1  12
TORSDOF 16
ENDMDL
MODEL 4
REMARK VINA RESULT:    -4.841      1.304      2.075
REMARK INTER + INTRA:         -10.863
REMARK INTER:                  -8.813
REMARK INTRA:                  -2.050
REMARK UNBOUND:                -1.494
REMARK SMILES CCCCCCCCCCCCCCCCCC(=O)[O-]
REMARK SMILES IDX 10 1 11 2 12 3 13 4 14 5 15 6 16 7 17 8 18 9 19 10 20 11
REMARK SMILES IDX 9 12 8 13 7 14 6 15 5 16 4 17 3 18 2 19 1 20
REMARK H PARENT
REMARK Flexibility Score: inf
ROOT
ATOM      1  C   UNL     1       9.744   4.840  10.435  1.00  0.00     0.000 C 
ENDROOT
BRANCH   1   2
ATOM      2  C   UNL     1      11.164   4.978   9.859  1.00  0.00     0.000 C 
BRANCH   2   3
ATOM      3  C   UNL     1      11.939   6.153  10.476  1.00  0.00     0.000 C 
BRANCH   3   4
ATOM      4  C   UNL     1      11.314   6.647  11.791  1.00  0.00     0.000 C 
BRANCH   4   5
ATOM      5  C   UNL     1      11.311   8.182  11.906  1.00  0.00     0.000 C 
BRANCH   5   6
ATOM      6  C   UNL     1      11.751   8.871  10.603  1.00  0.00     0.000 C 
BRANCH   6   7
ATOM      7  C   UNL     1      12.065  10.364  10.802  1.00  0.00     0.006 C 
BRANCH   7   8
ATOM      8  C   UNL     1      12.879  10.944   9.638  1.00  0.00     0.053 C 
BRANCH   8   9
ATOM      9  C   UNL     1      12.455  12.342   9.307  1.00  0.00     0.041 C 
ATOM     10  O   UNL     1      11.782  13.012  10.133  1.00  0.00    -0.550 OA
ATOM     11  O   UNL     1      12.836  12.919   8.102  1.00  0.00    -0.550 OA
ENDBRANCH   8   9
ENDBRANCH   7   8
ENDBRANCH   6   7
ENDBRANCH   5   6
ENDBRANCH   4   5
ENDBRANCH   3   4
ENDBRANCH   2   3
ENDBRANCH   1   2
BRANCH   1  12
ATOM     12  C   UNL     1       9.080   3.506  10.054  1.00  0.00     0.000 C 
BRANCH  12  13
ATOM     13  C   UNL     1       9.874   2.734   8.988  1.00  0.00    -0.000 C 
BRANCH  13  14
ATOM     14  C   UNL     1       9.708   1.211   9.108  1.00  0.00    -0.000 C 
BRANCH  14  15
ATOM     15  C   UNL     1      10.727   0.627  10.100  1.00  0.00    -0.000 C 
BRANCH  15  16
ATOM     16  C   UNL     1      12.109   1.295   9.996  1.00  0.00    -0.000 C 
BRANCH  16  17
ATOM     17  C   UNL     1      12.874   1.279  11.331  1.00  0.00    -0.000 C 
BRANCH  17  18
ATOM     18  C   UNL     1      12.725   2.596  12.111  1.00  0.00    -0.000 C 
BRANCH  18  19
ATOM     19  C   UNL     1      11.969   2.418  13.435  1.00  0.00    -0.003 C 
ATOM     20  C   UNL     1      11.012   3.581  13.681  1.00  0.00     0.004 C 
ENDBRANCH  18  19
ENDBRANCH  17  18
ENDBRANCH  16  17
ENDBRANCH  15  16
ENDBRANCH  14  15
ENDBRANCH  13  14
ENDBRANCH  12  13
ENDBRANCH   1  12
TORSDOF 16
ENDMDL
MODEL 5
REMARK VINA RESULT:    -4.829      3.324      4.668
REMARK INTER + INTRA:         -10.841
REMARK INTER:                  -7.891
REMARK INTRA:                  -2.950
REMARK UNBOUND:                -1.494
REMARK SMILES CCCCCCCCCCCCCCCCCC(=O)[O-]
REMARK SMILES IDX 10 1 11 2 12 3 13 4 14 5 15 6 16 7 17 8 18 9 19 10 20 11
REMARK SMILES IDX 9 12 8 13 7 14 6 15 5 16 4 17 3 18 2 19 1 20
REMARK H PARENT
REMARK Flexibility Score: inf
ROOT
ATOM      1  C   UNL     1       9.835   3.373  14.570  1.00  0.00     0.000 C 
ENDROOT
BRANCH   1   2
ATOM      2  C   UNL     1      10.430   4.791  14.619  1.00  0.00     0.000 C 
BRANCH   2   3
ATOM      3  C   UNL     1       9.805   5.729  13.573  1.00  0.00     0.000 C 
BRANCH   3   4
ATOM      4  C   UNL     1      10.662   6.979  13.314  1.00  0.00     0.000 C 
BRANCH   4   5
ATOM      5  C   UNL     1      11.118   7.092  11.848  1.00  0.00     0.000 C 
BRANCH   5   6
ATOM      6  C   UNL     1      11.802   5.810  11.344  1.00  0.00     0.000 C 
BRANCH   6   7
ATOM      7  C   UNL     1      11.288   5.372   9.961  1.00  0.00     0.006 C 
BRANCH   7   8
ATOM      8  C   UNL     1       9.880   4.766  10.031  1.00  0.00     0.053 C 
BRANCH   8   9
ATOM      9  C   UNL     1       9.605   3.866   8.866  1.00  0.00     0.041 C 
ATOM     10  O   UNL     1       9.130   4.337   7.800  1.00  0.00    -0.550 OA
ATOM     11  O   UNL     1       9.908   2.512   8.945  1.00  0.00    -0.550 OA
ENDBRANCH   8   9
ENDBRANCH   7   8
ENDBRANCH   6   7
ENDBRANCH   5   6
ENDBRANCH   4   5
ENDBRANCH   3   4
ENDBRANCH   2   3
ENDBRANCH   1   2
BRANCH   1  12
ATOM     12  C   UNL     1       9.669   2.854  13.132  1.00  0.00     0.000 C 
BRANCH  12  13
ATOM     13  C   UNL     1      10.668   1.737  12.788  1.00  0.00    -0.000 C 
BRANCH  13  14
ATOM     14  C   UNL     1      11.792   2.210  11.853  1.00  0.00    -0.000 C 
BRANCH  14  15
ATOM     15  C   UNL     1      13.058   2.557  12.653  1.00  0.00    -0.000 C 
BRANCH  15  16
ATOM     16  C   UNL     1      13.409   1.491  13.704  1.00  0.00    -0.000 C 
BRANCH  16  17
ATOM     17  C   UNL     1      13.663   2.095  15.096  1.00  0.00    -0.000 C 
BRANCH  17  18
ATOM     18  C   UNL     1      12.610   1.661  16.129  1.00  0.00    -0.000 C 
BRANCH  18  19
ATOM     19  C   UNL     1      12.199   0.189  15.975  1.00  0.00    -0.003 C 
ATOM     20  C   UNL     1      10.689   0.023  16.120  1.00  0.00     0.004 C 
ENDBRANCH  18  19
ENDBRANCH  17  18
ENDBRANCH  16  17
ENDBRANCH  15  16
ENDBRANCH  14  15
ENDBRANCH  13  14
ENDBRANCH  12  13
ENDBRANCH   1  12
TORSDOF 16
ENDMDL
MODEL 6
REMARK VINA RESULT:    -4.791      1.498      3.995
REMARK INTER + INTRA:         -10.766
REMARK INTER:                  -7.694
REMARK INTRA:                  -3.072
REMARK UNBOUND:                -1.494
REMARK SMILES CCCCCCCCCCCCCCCCCC(=O)[O-]
REMARK SMILES IDX 10 1 11 2 12 3 13 4 14 5 15 6 16 7 17 8 18 9 19 10 20 11
REMARK SMILES IDX 9 12 8 13 7 14 6 15 5 16 4 17 3 18 2 19 1 20
REMARK H PARENT
REMARK Flexibility Score: inf
ROOT
ATOM      1  C   UNL     1      13.124   2.120  13.328  1.00  0.00     0.000 C 
ENDROOT
BRANCH   1   2
ATOM      2  C   UNL     1      11.923   2.808  14.000  1.00  0.00     0.000 C 
BRANCH   2   3
ATOM      3  C   UNL     1      10.578   2.365  13.399  1.00  0.00     0.000 C 
BRANCH   3   4
ATOM      4  C   UNL     1       9.775   3.540  12.818  1.00  0.00     0.000 C 
BRANCH   4   5
ATOM      5  C   UNL     1      10.290   4.907  13.304  1.00  0.00     0.000 C 
BRANCH   5   6
ATOM      6  C   UNL     1      10.166   5.998  12.227  1.00  0.00     0.000 C 
BRANCH   6   7
ATOM      7  C   UNL     1      11.255   7.078  12.354  1.00  0.00     0.006 C 
BRANCH   7   8
ATOM      8  C   UNL     1      11.630   7.684  10.995  1.00  0.00     0.053 C 
BRANCH   8   9
ATOM      9  C   UNL     1      11.621   9.181  11.033  1.00  0.00     0.041 C 
ATOM     10  O   UNL     1      11.007   9.788  11.950  1.00  0.00    -0.550 OA
ATOM     11  O   UNL     1      12.324   9.907  10.078  1.00  0.00    -0.550 OA
ENDBRANCH   8   9
ENDBRANCH   7   8
ENDBRANCH   6   7
ENDBRANCH   5   6
ENDBRANCH   4   5
ENDBRANCH   3   4
ENDBRANCH   2   3
ENDBRANCH   1   2
BRANCH   1  12
ATOM     12  C   UNL     1      13.152   2.338  11.806  1.00  0.00     0.000 C 
BRANCH  12  13
ATOM     13  C   UNL     1      13.460   3.795  11.423  1.00  0.00    -0.000 C 
BRANCH  13  14
ATOM     14  C   UNL     1      12.579   4.308  10.273  1.00  0.00    -0.000 C 
BRANCH  14  15
ATOM     15  C   UNL     1      11.945   3.136   9.506  1.00  0.00    -0.000 C 
BRANCH  15  16
ATOM     16  C   UNL     1      10.451   3.354   9.216  1.00  0.00    -0.000 C 
BRANCH  16  17
ATOM     17  C   UNL     1       9.619   2.073   9.405  1.00  0.00    -0.000 C 
BRANCH  17  18
ATOM     18  C   UNL     1      10.464   0.796   9.272  1.00  0.00    -0.000 C 
BRANCH  18  19
ATOM     19  C   UNL     1      10.366  -0.112  10.506  1.00  0.00    -0.003 C 
ATOM     20  C   UNL     1      11.696  -0.805  10.786  1.00  0.00     0.004 C 
ENDBRANCH  18  19
ENDBRANCH  17  18
ENDBRANCH  16  17
ENDBRANCH  15  16
ENDBRANCH  14  15
ENDBRANCH  13  14
ENDBRANCH  12  13
ENDBRANCH   1  12
TORSDOF 16
ENDMDL
MODEL 7
REMARK VINA RESULT:    -4.776      1.502      2.356
REMARK INTER + INTRA:         -10.739
REMARK INTER:                  -9.101
REMARK INTRA:                  -1.638
REMARK UNBOUND:                -1.494
REMARK SMILES CCCCCCCCCCCCCCCCCC(=O)[O-]
REMARK SMILES IDX 10 1 11 2 12 3 13 4 14 5 15 6 16 7 17 8 18 9 19 10 20 11
REMARK SMILES IDX 9 12 8 13 7 14 6 15 5 16 4 17 3 18 2 19 1 20
REMARK H PARENT
REMARK Flexibility Score: inf
ROOT
ATOM      1  C   UNL     1      10.006   4.894  11.782  1.00  0.00     0.000 C 
ENDROOT
BRANCH   1   2
ATOM      2  C   UNL     1      10.724   6.239  11.986  1.00  0.00     0.000 C 
BRANCH   2   3
ATOM      3  C   UNL     1      12.040   6.331  11.196  1.00  0.00     0.000 C 
BRANCH   3   4
ATOM      4  C   UNL     1      12.038   7.483  10.179  1.00  0.00     0.000 C 
BRANCH   4   5
ATOM      5  C   UNL     1      11.668   8.835  10.815  1.00  0.00     0.000 C 
BRANCH   5   6
ATOM      6  C   UNL     1      12.366  10.020  10.128  1.00  0.00     0.000 C 
BRANCH   6   7
ATOM      7  C   UNL     1      12.421  11.272  11.020  1.00  0.00     0.006 C 
BRANCH   7   8
ATOM      8  C   UNL     1      11.342  11.253  12.111  1.00  0.00     0.053 C 
BRANCH   8   9
ATOM      9  C   UNL     1      10.851  12.632  12.430  1.00  0.00     0.041 C 
ATOM     10  O   UNL     1      10.269  13.316  11.548  1.00  0.00    -0.550 OA
ATOM     11  O   UNL     1      11.000  13.146  13.712  1.00  0.00    -0.550 OA
ENDBRANCH   8   9
ENDBRANCH   7   8
ENDBRANCH   6   7
ENDBRANCH   5   6
ENDBRANCH   4   5
ENDBRANCH   3   4
ENDBRANCH   2   3
ENDBRANCH   1   2
BRANCH   1  12
ATOM     12  C   UNL     1       9.639   4.639  10.310  1.00  0.00     0.000 C 
BRANCH  12  13
ATOM     13  C   UNL     1       9.968   3.207   9.858  1.00  0.00    -0.000 C 
BRANCH  13  14
ATOM     14  C   UNL     1      11.473   2.980   9.646  1.00  0.00    -0.000 C 
BRANCH  14  15
ATOM     15  C   UNL     1      11.871   1.550  10.042  1.00  0.00    -0.000 C 
BRANCH  15  16
ATOM     16  C   UNL     1      12.930   1.513  11.156  1.00  0.00    -0.000 C 
BRANCH  16  17
ATOM     17  C   UNL     1      13.134   2.885  11.822  1.00  0.00    -0.000 C 
BRANCH  17  18
ATOM     18  C   UNL     1      12.822   2.862  13.327  1.00  0.00    -0.000 C 
BRANCH  18  19
ATOM     19  C   UNL     1      13.250   1.551  14.002  1.00  0.00    -0.003 C 
ATOM     20  C   UNL     1      13.746   1.801  15.424  1.00  0.00     0.004 C 
ENDBRANCH  18  19
ENDBRANCH  17  18
ENDBRANCH  16  17
ENDBRANCH  15  16
ENDBRANCH  14  15
ENDBRANCH  13  14
ENDBRANCH  12  13
ENDBRANCH   1  12
TORSDOF 16
ENDMDL
MODEL 8
REMARK VINA RESULT:    -4.775      1.805      3.231
REMARK INTER + INTRA:         -10.736
REMARK INTER:                  -9.409
REMARK INTRA:                  -1.327
REMARK UNBOUND:                -1.494
REMARK SMILES CCCCCCCCCCCCCCCCCC(=O)[O-]
REMARK SMILES IDX 10 1 11 2 12 3 13 4 14 5 15 6 16 7 17 8 18 9 19 10 20 11
REMARK SMILES IDX 9 12 8 13 7 14 6 15 5 16 4 17 3 18 2 19 1 20
REMARK H PARENT
REMARK Flexibility Score: inf
ROOT
ATOM      1  C   UNL     1      10.985   6.480  11.768  1.00  0.00     0.000 C 
ENDROOT
BRANCH   1   2
ATOM      2  C   UNL     1      11.972   6.767  10.623  1.00  0.00     0.000 C 
BRANCH   2   3
ATOM      3  C   UNL     1      12.002   8.253  10.230  1.00  0.00     0.000 C 
BRANCH   3   4
ATOM      4  C   UNL     1      11.627   9.180  11.397  1.00  0.00     0.000 C 
BRANCH   4   5
ATOM      5  C   UNL     1      12.021  10.646  11.140  1.00  0.00     0.000 C 
BRANCH   5   6
ATOM      6  C   UNL     1      12.749  10.833   9.799  1.00  0.00     0.000 C 
BRANCH   6   7
ATOM      7  C   UNL     1      12.546  12.239   9.208  1.00  0.00     0.006 C 
BRANCH   7   8
ATOM      8  C   UNL     1      11.996  13.229  10.243  1.00  0.00     0.053 C 
BRANCH   8   9
ATOM      9  C   UNL     1      11.684  14.559   9.628  1.00  0.00     0.041 C 
ATOM     10  O   UNL     1      11.961  14.779   8.420  1.00  0.00    -0.550 OA
ATOM     11  O   UNL     1      11.051  15.542  10.379  1.00  0.00    -0.550 OA
ENDBRANCH   8   9
ENDBRANCH   7   8
ENDBRANCH   6   7
ENDBRANCH   5   6
ENDBRANCH   4   5
ENDBRANCH   3   4
ENDBRANCH   2   3
ENDBRANCH   1   2
BRANCH   1  12
ATOM     12  C   UNL     1      10.093   5.260  11.484  1.00  0.00     0.000 C 
BRANCH  12  13
ATOM     13  C   UNL     1      10.238   4.744  10.043  1.00  0.00    -0.000 C 
BRANCH  13  14
ATOM     14  C   UNL     1      10.609   3.255   9.978  1.00  0.00    -0.000 C 
BRANCH  14  15
ATOM     15  C   UNL     1      12.129   3.076   9.835  1.00  0.00    -0.000 C 
BRANCH  15  16
ATOM     16  C   UNL     1      12.699   2.032  10.808  1.00  0.00    -0.000 C 
BRANCH  16  17
ATOM     17  C   UNL     1      11.872   1.914  12.100  1.00  0.00    -0.000 C 
BRANCH  17  18
ATOM     18  C   UNL     1      12.589   2.519  13.317  1.00  0.00    -0.000 C 
BRANCH  18  19
ATOM     19  C   UNL     1      13.368   1.474  14.128  1.00  0.00    -0.003 C 
ATOM     20  C   UNL     1      13.909   2.074  15.422  1.00  0.00     0.004 C 
ENDBRANCH  18  19
ENDBRANCH  17  18
ENDBRANCH  16  17
ENDBRANCH  15  16
ENDBRANCH  14  15
ENDBRANCH  13  14
ENDBRANCH  12  13
ENDBRANCH   1  12
TORSDOF 16
ENDMDL
MODEL 9
REMARK VINA RESULT:    -4.694      4.341      6.540
REMARK INTER + INTRA:         -10.579
REMARK INTER:                  -7.868
REMARK INTRA:                  -2.711
REMARK UNBOUND:                -1.494
REMARK SMILES CCCCCCCCCCCCCCCCCC(=O)[O-]
REMARK SMILES IDX 10 1 11 2 12 3 13 4 14 5 15 6 16 7 17 8 18 9 19 10 20 11
REMARK SMILES IDX 9 12 8 13 7 14 6 15 5 16 4 17 3 18 2 19 1 20
REMARK H PARENT
REMARK Flexibility Score: inf
ROOT
ATOM      1  C   UNL     1      10.506   6.182  11.782  1.00  0.00     0.000 C 
ENDROOT
BRANCH   1   2
ATOM      2  C   UNL     1      11.873   6.550  11.181  1.00  0.00     0.000 C 
BRANCH   2   3
ATOM      3  C   UNL     1      12.498   5.394  10.383  1.00  0.00     0.000 C 
BRANCH   3   4
ATOM      4  C   UNL     1      11.442   4.519   9.688  1.00  0.00     0.000 C 
BRANCH   4   5
ATOM      5  C   UNL     1      11.933   3.081   9.441  1.00  0.00     0.000 C 
BRANCH   5   6
ATOM      6  C   UNL     1      10.788   2.122   9.075  1.00  0.00     0.000 C 
BRANCH   6   7
ATOM      7  C   UNL     1      11.235   0.650   9.050  1.00  0.00     0.006 C 
BRANCH   7   8
ATOM      8  C   UNL     1      11.942   0.237  10.347  1.00  0.00     0.053 C 
BRANCH   8   9
ATOM      9  C   UNL     1      11.074  -0.640  11.197  1.00  0.00     0.041 C 
ATOM     10  O   UNL     1      11.593  -1.502  11.954  1.00  0.00    -0.550 OA
ATOM     11  O   UNL     1       9.693  -0.481  11.180  1.00  0.00    -0.550 OA
ENDBRANCH   8   9
ENDBRANCH   7   8
ENDBRANCH   6   7
ENDBRANCH   5   6
ENDBRANCH   4   5
ENDBRANCH   3   4
ENDBRANCH   2   3
ENDBRANCH   1   2
BRANCH   1  12
ATOM     12  C   UNL     1      10.497   6.260  13.318  1.00  0.00     0.000 C 
BRANCH  12  13
ATOM     13  C   UNL     1      10.387   4.877  13.980  1.00  0.00    -0.000 C 
BRANCH  13  14
ATOM     14  C   UNL     1       9.885   3.793  13.014  1.00  0.00    -0.000 C 
BRANCH  14  15
ATOM     15  C   UNL     1      10.817   2.571  13.031  1.00  0.00    -0.000 C 
BRANCH  15  16
ATOM     16  C   UNL     1      12.305   2.957  13.006  1.00  0.00    -0.000 C 
BRANCH  16  17
ATOM     17  C   UNL     1      13.216   1.833  13.532  1.00  0.00    -0.000 C 
BRANCH  17  18
ATOM     18  C   UNL     1      13.510   1.967  15.034  1.00  0.00    -0.000 C 
BRANCH  18  19
ATOM     19  C   UNL     1      12.657   1.021  15.892  1.00  0.00    -0.003 C 
ATOM     20  C   UNL     1      11.533   1.779  16.593  1.00  0.00     0.004 C 
ENDBRANCH  18  19
ENDBRANCH  17  18
ENDBRANCH  16  17
ENDBRANCH  15  16
ENDBRANCH  14  15
ENDBRANCH  13  14
ENDBRANCH  12  13
ENDBRANCH   1  12
TORSDOF 16
ENDMDL
