MODEL 1
REMARK VINA RESULT:    -4.761      0.000      0.000
REMARK INTER + INTRA:          -5.220
REMARK INTER:                  -5.179
REMARK INTRA:                  -0.041
REMARK UNBOUND:                -0.041
REMARK SMILES COc1cc2ccc(=O)oc2cc1O
REMARK SMILES IDX 3 1 13 2 12 3 11 4 5 5 4 6 6 7 7 8 8 9 9 10 10 11 2 12 1 13
REMARK SMILES IDX 14 14
REMARK H PARENT 14 15
REMARK Flexibility Score: inf
ROOT
ATOM      1  C   UNL     1      28.403  -7.612 -29.607  1.00  0.00     0.161 A 
ATOM      2  C   UNL     1      28.271  -7.600 -31.004  1.00  0.00     0.161 A 
ATOM      3  C   UNL     1      29.406  -7.697 -31.823  1.00  0.00     0.098 A 
ATOM      4  C   UNL     1      30.677  -7.805 -31.255  1.00  0.00     0.142 A 
ATOM      5  C   UNL     1      30.819  -7.818 -29.852  1.00  0.00     0.022 A 
ATOM      6  C   UNL     1      29.685  -7.722 -29.032  1.00  0.00     0.062 A 
ATOM      7  C   UNL     1      32.105  -7.928 -29.312  1.00  0.00     0.019 A 
ATOM      8  C   UNL     1      33.201  -8.022 -30.170  1.00  0.00     0.094 A 
ATOM      9  C   UNL     1      32.983  -8.002 -31.552  1.00  0.00     0.336 A 
ATOM     10  O   UNL     1      33.959  -8.086 -32.342  1.00  0.00    -0.246 OA
ATOM     11  O   UNL     1      31.749  -7.897 -32.038  1.00  0.00    -0.423 OA
ENDROOT
BRANCH   1  12
ATOM     12  O   UNL     1      27.241  -7.512 -28.826  1.00  0.00    -0.493 OA
ATOM     13  C   UNL     1      26.683  -6.287 -28.362  1.00  0.00     0.278 C 
ENDBRANCH   1  12
BRANCH   2  14
ATOM     14  O   UNL     1      27.004  -7.492 -31.573  1.00  0.00    -0.504 OA
ATOM     15  H   UNL     1      26.196  -7.946 -31.161  1.00  0.00     0.293 HD
ENDBRANCH   2  14
TORSDOF 2
ENDMDL
MODEL 2
REMARK VINA RESULT:    -4.587      2.025      5.211
REMARK INTER + INTRA:          -5.031
REMARK INTER:                  -4.986
REMARK INTRA:                  -0.045
REMARK UNBOUND:                -0.041
REMARK SMILES COc1cc2ccc(=O)oc2cc1O
REMARK SMILES IDX 3 1 13 2 12 3 11 4 5 5 4 6 6 7 7 8 8 9 9 10 10 11 2 12 1 13
REMARK SMILES IDX 14 14
REMARK H PARENT 14 15
REMARK Flexibility Score: inf
ROOT
ATOM      1  C   UNL     1      32.177  -6.141 -32.386  1.00  0.00     0.161 A 
ATOM      2  C   UNL     1      32.253  -7.534 -32.225  1.00  0.00     0.161 A 
ATOM      3  C   UNL     1      31.213  -8.230 -31.590  1.00  0.00     0.098 A 
ATOM      4  C   UNL     1      30.095  -7.544 -31.112  1.00  0.00     0.142 A 
ATOM      5  C   UNL     1      30.011  -6.146 -31.270  1.00  0.00     0.022 A 
ATOM      6  C   UNL     1      31.048  -5.448 -31.905  1.00  0.00     0.062 A 
ATOM      7  C   UNL     1      28.878  -5.486 -30.781  1.00  0.00     0.019 A 
ATOM      8  C   UNL     1      27.872  -6.225 -30.159  1.00  0.00     0.094 A 
ATOM      9  C   UNL     1      28.024  -7.610 -30.038  1.00  0.00     0.336 A 
ATOM     10  O   UNL     1      27.128  -8.294 -29.478  1.00  0.00    -0.246 OA
ATOM     11  O   UNL     1      29.113  -8.212 -30.511  1.00  0.00    -0.423 OA
ENDROOT
BRANCH   1  12
ATOM     12  O   UNL     1      33.240  -5.485 -33.027  1.00  0.00    -0.493 OA
ATOM     13  C   UNL     1      33.374  -4.071 -33.125  1.00  0.00     0.278 C 
ENDBRANCH   1  12
BRANCH   2  14
ATOM     14  O   UNL     1      33.368  -8.221 -32.700  1.00  0.00    -0.504 OA
ATOM     15  H   UNL     1      34.085  -8.568 -32.073  1.00  0.00     0.293 HD
ENDBRANCH   2  14
TORSDOF 2
ENDMDL
MODEL 3
REMARK VINA RESULT:    -4.531      2.471      5.560
REMARK INTER + INTRA:          -4.969
REMARK INTER:                  -4.924
REMARK INTRA:                  -0.045
REMARK UNBOUND:                -0.041
REMARK SMILES COc1cc2ccc(=O)oc2cc1O
REMARK SMILES IDX 3 1 13 2 12 3 11 4 5 5 4 6 6 7 7 8 8 9 9 10 10 11 2 12 1 13
REMARK SMILES IDX 14 14
REMARK H PARENT 14 15
REMARK Flexibility Score: inf
ROOT
ATOM      1  C   UNL     1      29.392  -6.564 -31.392  1.00  0.00     0.161 A 
ATOM      2  C   UNL     1      28.582  -7.701 -31.246  1.00  0.00     0.161 A 
ATOM      3  C   UNL     1      27.534  -7.708 -30.314  1.00  0.00     0.098 A 
ATOM      4  C   UNL     1      27.287  -6.584 -29.522  1.00  0.00     0.142 A 
ATOM      5  C   UNL     1      28.096  -5.438 -29.663  1.00  0.00     0.022 A 
ATOM      6  C   UNL     1      29.144  -5.428 -30.594  1.00  0.00     0.062 A 
ATOM      7  C   UNL     1      27.824  -4.327 -28.856  1.00  0.00     0.019 A 
ATOM      8  C   UNL     1      26.770  -4.385 -27.945  1.00  0.00     0.094 A 
ATOM      9  C   UNL     1      26.010  -5.557 -27.861  1.00  0.00     0.336 A 
ATOM     10  O   UNL     1      25.055  -5.629 -27.045  1.00  0.00    -0.246 OA
ATOM     11  O   UNL     1      26.291  -6.599 -28.640  1.00  0.00    -0.423 OA
ENDROOT
BRANCH   1  12
ATOM     12  O   UNL     1      30.430  -6.601 -32.336  1.00  0.00    -0.493 OA
ATOM     13  C   UNL     1      31.219  -5.477 -32.713  1.00  0.00     0.278 C 
ENDBRANCH   1  12
BRANCH   2  14
ATOM     14  O   UNL     1      28.827  -8.824 -32.034  1.00  0.00    -0.504 OA
ATOM     15  H   UNL     1      29.293  -9.644 -31.661  1.00  0.00     0.293 HD
ENDBRANCH   2  14
TORSDOF 2
ENDMDL
MODEL 4
REMARK VINA RESULT:    -4.390      1.365      5.376
REMARK INTER + INTRA:          -4.816
REMARK INTER:                  -4.756
REMARK INTRA:                  -0.060
REMARK UNBOUND:                -0.041
REMARK SMILES COc1cc2ccc(=O)oc2cc1O
REMARK SMILES IDX 3 1 13 2 12 3 11 4 5 5 4 6 6 7 7 8 8 9 9 10 10 11 2 12 1 13
REMARK SMILES IDX 14 14
REMARK H PARENT 14 15
REMARK Flexibility Score: inf
ROOT
ATOM      1  C   UNL     1      31.686  -7.958 -31.205  1.00  0.00     0.161 A 
ATOM      2  C   UNL     1      31.970  -7.959 -29.830  1.00  0.00     0.161 A 
ATOM      3  C   UNL     1      30.944  -7.755 -28.896  1.00  0.00     0.098 A 
ATOM      4  C   UNL     1      29.631  -7.547 -29.325  1.00  0.00     0.142 A 
ATOM      5  C   UNL     1      29.337  -7.545 -30.704  1.00  0.00     0.022 A 
ATOM      6  C   UNL     1      30.361  -7.749 -31.640  1.00  0.00     0.062 A 
ATOM      7  C   UNL     1      28.013  -7.335 -31.103  1.00  0.00     0.019 A 
ATOM      8  C   UNL     1      27.029  -7.138 -30.134  1.00  0.00     0.094 A 
ATOM      9  C   UNL     1      27.395  -7.153 -28.784  1.00  0.00     0.336 A 
ATOM     10  O   UNL     1      26.522  -6.976 -27.895  1.00  0.00    -0.246 OA
ATOM     11  O   UNL     1      28.663  -7.354 -28.432  1.00  0.00    -0.423 OA
ENDROOT
BRANCH   1  12
ATOM     12  O   UNL     1      32.743  -8.165 -32.105  1.00  0.00    -0.493 OA
ATOM     13  C   UNL     1      33.455  -7.126 -32.767  1.00  0.00     0.278 C 
ENDBRANCH   1  12
BRANCH   2  14
ATOM     14  O   UNL     1      33.279  -8.164 -29.399  1.00  0.00    -0.504 OA
ATOM     15  H   UNL     1      33.563  -7.960 -28.447  1.00  0.00     0.293 HD
ENDBRANCH   2  14
TORSDOF 2
ENDMDL
MODEL 5
REMARK VINA RESULT:    -4.304      2.331      2.575
REMARK INTER + INTRA:          -4.723
REMARK INTER:                  -4.659
REMARK INTRA:                  -0.064
REMARK UNBOUND:                -0.041
REMARK SMILES COc1cc2ccc(=O)oc2cc1O
REMARK SMILES IDX 3 1 13 2 12 3 11 4 5 5 4 6 6 7 7 8 8 9 9 10 10 11 2 12 1 13
REMARK SMILES IDX 14 14
REMARK H PARENT 14 15
REMARK Flexibility Score: inf
ROOT
ATOM      1  C   UNL     1      27.325  -6.555 -29.303  1.00  0.00     0.161 A 
ATOM      2  C   UNL     1      27.479  -7.627 -30.197  1.00  0.00     0.161 A 
ATOM      3  C   UNL     1      28.506  -7.608 -31.153  1.00  0.00     0.098 A 
ATOM      4  C   UNL     1      29.383  -6.524 -31.224  1.00  0.00     0.142 A 
ATOM      5  C   UNL     1      29.235  -5.444 -30.329  1.00  0.00     0.022 A 
ATOM      6  C   UNL     1      28.210  -5.460 -29.373  1.00  0.00     0.062 A 
ATOM      7  C   UNL     1      30.130  -4.372 -30.424  1.00  0.00     0.019 A 
ATOM      8  C   UNL     1      31.134  -4.403 -31.392  1.00  0.00     0.094 A 
ATOM      9  C   UNL     1      31.219  -5.508 -32.245  1.00  0.00     0.336 A 
ATOM     10  O   UNL     1      32.118  -5.554 -33.125  1.00  0.00    -0.246 OA
ATOM     11  O   UNL     1      30.355  -6.514 -32.133  1.00  0.00    -0.423 OA
ENDROOT
BRANCH   1  12
ATOM     12  O   UNL     1      26.284  -6.615 -28.364  1.00  0.00    -0.493 OA
ATOM     13  C   UNL     1      26.446  -6.998 -27.002  1.00  0.00     0.278 C 
ENDBRANCH   1  12
BRANCH   2  14
ATOM     14  O   UNL     1      26.605  -8.710 -30.129  1.00  0.00    -0.504 OA
ATOM     15  H   UNL     1      26.635  -9.460 -30.811  1.00  0.00     0.293 HD
ENDBRANCH   2  14
TORSDOF 2
ENDMDL
MODEL 6
REMARK VINA RESULT:    -4.164     14.494     16.294
REMARK INTER + INTRA:          -4.571
REMARK INTER:                  -4.517
REMARK INTRA:                  -0.054
REMARK UNBOUND:                -0.041
REMARK SMILES COc1cc2ccc(=O)oc2cc1O
REMARK SMILES IDX 3 1 13 2 12 3 11 4 5 5 4 6 6 7 7 8 8 9 9 10 10 11 2 12 1 13
REMARK SMILES IDX 14 14
REMARK H PARENT 14 15
REMARK Flexibility Score: inf
ROOT
ATOM      1  C   UNL     1      23.234   4.374 -25.717  1.00  0.00     0.161 A 
ATOM      2  C   UNL     1      23.747   5.425 -26.493  1.00  0.00     0.161 A 
ATOM      3  C   UNL     1      24.378   6.516 -25.878  1.00  0.00     0.098 A 
ATOM      4  C   UNL     1      24.500   6.567 -24.487  1.00  0.00     0.142 A 
ATOM      5  C   UNL     1      23.988   5.515 -23.700  1.00  0.00     0.022 A 
ATOM      6  C   UNL     1      23.357   4.423 -24.313  1.00  0.00     0.062 A 
ATOM      7  C   UNL     1      24.126   5.594 -22.310  1.00  0.00     0.019 A 
ATOM      8  C   UNL     1      24.762   6.700 -21.748  1.00  0.00     0.094 A 
ATOM      9  C   UNL     1      25.245   7.706 -22.591  1.00  0.00     0.336 A 
ATOM     10  O   UNL     1      25.822   8.712 -22.103  1.00  0.00    -0.246 OA
ATOM     11  O   UNL     1      25.101   7.606 -23.910  1.00  0.00    -0.423 OA
ENDROOT
BRANCH   1  12
ATOM     12  O   UNL     1      22.610   3.302 -26.374  1.00  0.00    -0.493 OA
ATOM     13  C   UNL     1      21.353   2.748 -26.001  1.00  0.00     0.278 C 
ENDBRANCH   1  12
BRANCH   2  14
ATOM     14  O   UNL     1      23.626   5.377 -27.880  1.00  0.00    -0.504 OA
ATOM     15  H   UNL     1      22.860   5.835 -28.363  1.00  0.00     0.293 HD
ENDBRANCH   2  14
TORSDOF 2
ENDMDL
MODEL 7
REMARK VINA RESULT:    -4.091      1.938      3.423
REMARK INTER + INTRA:          -4.491
REMARK INTER:                  -4.426
REMARK INTRA:                  -0.065
REMARK UNBOUND:                -0.041
REMARK SMILES COc1cc2ccc(=O)oc2cc1O
REMARK SMILES IDX 3 1 13 2 12 3 11 4 5 5 4 6 6 7 7 8 8 9 9 10 10 11 2 12 1 13
REMARK SMILES IDX 14 14
REMARK H PARENT 14 15
REMARK Flexibility Score: inf
ROOT
ATOM      1  C   UNL     1      26.939  -6.582 -27.945  1.00  0.00     0.161 A 
ATOM      2  C   UNL     1      28.165  -6.624 -27.261  1.00  0.00     0.161 A 
ATOM      3  C   UNL     1      29.339  -6.991 -27.936  1.00  0.00     0.098 A 
ATOM      4  C   UNL     1      29.299  -7.320 -29.293  1.00  0.00     0.142 A 
ATOM      5  C   UNL     1      28.072  -7.280 -29.987  1.00  0.00     0.022 A 
ATOM      6  C   UNL     1      26.897  -6.913 -29.315  1.00  0.00     0.062 A 
ATOM      7  C   UNL     1      28.063  -7.613 -31.346  1.00  0.00     0.019 A 
ATOM      8  C   UNL     1      29.258  -7.971 -31.970  1.00  0.00     0.094 A 
ATOM      9  C   UNL     1      30.437  -7.988 -31.217  1.00  0.00     0.336 A 
ATOM     10  O   UNL     1      31.525  -8.308 -31.763  1.00  0.00    -0.246 OA
ATOM     11  O   UNL     1      30.417  -7.667 -29.926  1.00  0.00    -0.423 OA
ENDROOT
BRANCH   1  12
ATOM     12  O   UNL     1      25.790  -6.211 -27.231  1.00  0.00    -0.493 OA
ATOM     13  C   UNL     1      25.199  -4.916 -27.270  1.00  0.00     0.278 C 
ENDBRANCH   1  12
BRANCH   2  14
ATOM     14  O   UNL     1      28.208  -6.298 -25.907  1.00  0.00    -0.504 OA
ATOM     15  H   UNL     1      27.369  -6.285 -25.337  1.00  0.00     0.293 HD
ENDBRANCH   2  14
TORSDOF 2
ENDMDL
MODEL 8
REMARK VINA RESULT:    -4.076     14.667     15.634
REMARK INTER + INTRA:          -4.474
REMARK INTER:                  -4.428
REMARK INTRA:                  -0.046
REMARK UNBOUND:                -0.041
REMARK SMILES COc1cc2ccc(=O)oc2cc1O
REMARK SMILES IDX 3 1 13 2 12 3 11 4 5 5 4 6 6 7 7 8 8 9 9 10 10 11 2 12 1 13
REMARK SMILES IDX 14 14
REMARK H PARENT 14 15
REMARK Flexibility Score: inf
ROOT
ATOM      1  C   UNL     1      24.391   5.774 -25.177  1.00  0.00     0.161 A 
ATOM      2  C   UNL     1      24.018   5.464 -26.494  1.00  0.00     0.161 A 
ATOM      3  C   UNL     1      23.042   4.487 -26.742  1.00  0.00     0.098 A 
ATOM      4  C   UNL     1      22.433   3.814 -25.680  1.00  0.00     0.142 A 
ATOM      5  C   UNL     1      22.802   4.120 -24.354  1.00  0.00     0.022 A 
ATOM      6  C   UNL     1      23.777   5.096 -24.104  1.00  0.00     0.062 A 
ATOM      7  C   UNL     1      22.175   3.429 -23.311  1.00  0.00     0.019 A 
ATOM      8  C   UNL     1      21.210   2.467 -23.611  1.00  0.00     0.094 A 
ATOM      9  C   UNL     1      20.896   2.217 -24.950  1.00  0.00     0.336 A 
ATOM     10  O   UNL     1      20.028   1.353 -25.241  1.00  0.00    -0.246 OA
ATOM     11  O   UNL     1      21.508   2.888 -25.923  1.00  0.00    -0.423 OA
ENDROOT
BRANCH   1  12
ATOM     12  O   UNL     1      25.372   6.758 -24.975  1.00  0.00    -0.493 OA
ATOM     13  C   UNL     1      25.544   7.491 -23.767  1.00  0.00     0.278 C 
ENDBRANCH   1  12
BRANCH   2  14
ATOM     14  O   UNL     1      24.624   6.133 -27.555  1.00  0.00    -0.504 OA
ATOM     15  H   UNL     1      25.568   6.497 -27.484  1.00  0.00     0.293 HD
ENDBRANCH   2  14
TORSDOF 2
ENDMDL
MODEL 9
REMARK VINA RESULT:    -3.946      1.950      2.196
REMARK INTER + INTRA:          -4.333
REMARK INTER:                  -4.286
REMARK INTRA:                  -0.047
REMARK UNBOUND:                -0.041
REMARK SMILES COc1cc2ccc(=O)oc2cc1O
REMARK SMILES IDX 3 1 13 2 12 3 11 4 5 5 4 6 6 7 7 8 8 9 9 10 10 11 2 12 1 13
REMARK SMILES IDX 14 14
REMARK H PARENT 14 15
REMARK Flexibility Score: inf
ROOT
ATOM      1  C   UNL     1      28.653  -6.745 -30.193  1.00  0.00     0.161 A 
ATOM      2  C   UNL     1      28.849  -5.384 -30.473  1.00  0.00     0.161 A 
ATOM      3  C   UNL     1      30.019  -4.954 -31.116  1.00  0.00     0.098 A 
ATOM      4  C   UNL     1      31.001  -5.877 -31.481  1.00  0.00     0.142 A 
ATOM      5  C   UNL     1      30.813  -7.247 -31.204  1.00  0.00     0.022 A 
ATOM      6  C   UNL     1      29.644  -7.678 -30.562  1.00  0.00     0.062 A 
ATOM      7  C   UNL     1      31.815  -8.147 -31.583  1.00  0.00     0.019 A 
ATOM      8  C   UNL     1      32.959  -7.669 -32.220  1.00  0.00     0.094 A 
ATOM      9  C   UNL     1      33.077  -6.297 -32.462  1.00  0.00     0.336 A 
ATOM     10  O   UNL     1      34.103  -5.845 -33.036  1.00  0.00    -0.246 OA
ATOM     11  O   UNL     1      32.109  -5.462 -32.091  1.00  0.00    -0.423 OA
ENDROOT
BRANCH   1  12
ATOM     12  O   UNL     1      27.468  -7.131 -29.548  1.00  0.00    -0.493 OA
ATOM     13  C   UNL     1      26.855  -8.409 -29.681  1.00  0.00     0.278 C 
ENDBRANCH   1  12
BRANCH   2  14
ATOM     14  O   UNL     1      27.870  -4.461 -30.108  1.00  0.00    -0.504 OA
ATOM     15  H   UNL     1      27.574  -3.724 -30.739  1.00  0.00     0.293 HD
ENDBRANCH   2  14
TORSDOF 2
ENDMDL
