MODEL 1
REMARK VINA RESULT:    -0.440      0.000      0.000
REMARK INTER + INTRA:          -2.110
REMARK INTER:                  -0.954
REMARK INTRA:                  -1.156
REMARK UNBOUND:                -1.156
REMARK SMILES CCCCCCCCCCCCCCCCCCCCCC(=O)[O-]
REMARK SMILES IDX 12 1 11 2 10 3 9 4 8 5 7 6 6 7 5 8 4 9 3 10 2 11 1 12 13 13
REMARK SMILES IDX 14 14 15 15 16 16 17 17 18 18 19 19 20 20 21 21 22 22 23 23
REMARK SMILES IDX 24 24
REMARK H PARENT
REMARK Flexibility Score: inf
ROOT
ATOM      1  C   UNL     1       5.503  13.450  18.911  1.00  0.00     0.000 C 
ENDROOT
BRANCH   1   2
ATOM      2  C   UNL     1       5.878  14.041  17.544  1.00  0.00     0.000 C 
BRANCH   2   3
ATOM      3  C   UNL     1       7.297  13.621  17.134  1.00  0.00     0.000 C 
BRANCH   3   4
ATOM      4  C   UNL     1       7.406  13.230  15.648  1.00  0.00    -0.000 C 
BRANCH   4   5
ATOM      5  C   UNL     1       6.624  14.120  14.659  1.00  0.00    -0.000 C 
BRANCH   5   6
ATOM      6  C   UNL     1       5.416  13.450  13.969  1.00  0.00    -0.000 C 
BRANCH   6   7
ATOM      7  C   UNL     1       4.145  14.321  13.930  1.00  0.00    -0.000 C 
BRANCH   7   8
ATOM      8  C   UNL     1       3.299  14.138  12.653  1.00  0.00    -0.000 C 
BRANCH   8   9
ATOM      9  C   UNL     1       4.071  13.386  11.554  1.00  0.00    -0.000 C 
BRANCH   9  10
ATOM     10  C   UNL     1       3.741  13.898  10.143  1.00  0.00    -0.000 C 
BRANCH  10  11
ATOM     11  C   UNL     1       4.637  13.269   9.063  1.00  0.00    -0.003 C 
ATOM     12  C   UNL     1       6.034  13.882   9.084  1.00  0.00     0.004 C 
ENDBRANCH  10  11
ENDBRANCH   9  10
ENDBRANCH   8   9
ENDBRANCH   7   8
ENDBRANCH   6   7
ENDBRANCH   5   6
ENDBRANCH   4   5
ENDBRANCH   3   4
ENDBRANCH   2   3
ENDBRANCH   1   2
BRANCH   1  13
ATOM     13  C   UNL     1       5.680  14.455  20.064  1.00  0.00     0.000 C 
BRANCH  13  14
ATOM     14  C   UNL     1       5.739  15.935  19.633  1.00  0.00     0.000 C 
BRANCH  14  15
ATOM     15  C   UNL     1       5.751  16.953  20.791  1.00  0.00     0.000 C 
BRANCH  15  16
ATOM     16  C   UNL     1       4.460  17.003  21.628  1.00  0.00     0.000 C 
BRANCH  16  17
ATOM     17  C   UNL     1       4.700  17.487  23.065  1.00  0.00     0.000 C 
BRANCH  17  18
ATOM     18  C   UNL     1       5.210  18.936  23.082  1.00  0.00     0.000 C 
BRANCH  18  19
ATOM     19  C   UNL     1       6.422  19.124  24.007  1.00  0.00     0.000 C 
BRANCH  19  20
ATOM     20  C   UNL     1       7.730  18.606  23.384  1.00  0.00     0.006 C 
BRANCH  20  21
ATOM     21  C   UNL     1       8.044  17.166  23.811  1.00  0.00     0.053 C 
BRANCH  21  22
ATOM     22  C   UNL     1       7.754  16.941  25.262  1.00  0.00     0.041 C 
ATOM     23  O   UNL     1       7.082  15.940  25.626  1.00  0.00    -0.550 OA
ATOM     24  O   UNL     1       8.198  17.855  26.210  1.00  0.00    -0.550 OA
ENDBRANCH  21  22
ENDBRANCH  20  21
ENDBRANCH  19  20
ENDBRANCH  18  19
ENDBRANCH  17  18
ENDBRANCH  16  17
ENDBRANCH  15  16
ENDBRANCH  14  15
ENDBRANCH  13  14
ENDBRANCH   1  13
TORSDOF 20
ENDMDL
MODEL 2
REMARK VINA RESULT:    -0.151      4.921     11.542
REMARK INTER + INTRA:          -1.484
REMARK INTER:                   0.388
REMARK INTRA:                  -1.873
REMARK UNBOUND:                -1.156
REMARK SMILES CCCCCCCCCCCCCCCCCCCCCC(=O)[O-]
REMARK SMILES IDX 12 1 11 2 10 3 9 4 8 5 7 6 6 7 5 8 4 9 3 10 2 11 1 12 13 13
REMARK SMILES IDX 14 14 15 15 16 16 17 17 18 18 19 19 20 20 21 21 22 22 23 23
REMARK SMILES IDX 24 24
REMARK H PARENT
REMARK Flexibility Score: inf
ROOT
ATOM      1  C   UNL     1       6.429  16.298  19.750  1.00  0.00     0.000 C 
ENDROOT
BRANCH   1   2
ATOM      2  C   UNL     1       6.241  16.745  21.207  1.00  0.00     0.000 C 
BRANCH   2   3
ATOM      3  C   UNL     1       4.759  16.705  21.609  1.00  0.00     0.000 C 
BRANCH   3   4
ATOM      4  C   UNL     1       4.424  17.654  22.775  1.00  0.00    -0.000 C 
BRANCH   4   5
ATOM      5  C   UNL     1       5.115  19.033  22.740  1.00  0.00    -0.000 C 
BRANCH   5   6
ATOM      6  C   UNL     1       5.663  19.540  24.093  1.00  0.00    -0.000 C 
BRANCH   6   7
ATOM      7  C   UNL     1       5.472  18.555  25.262  1.00  0.00    -0.000 C 
BRANCH   7   8
ATOM      8  C   UNL     1       6.776  18.219  26.018  1.00  0.00    -0.000 C 
BRANCH   8   9
ATOM      9  C   UNL     1       7.311  16.825  25.648  1.00  0.00    -0.000 C 
BRANCH   9  10
ATOM     10  C   UNL     1       8.013  16.803  24.281  1.00  0.00    -0.000 C 
BRANCH  10  11
ATOM     11  C   UNL     1       9.041  17.936  24.126  1.00  0.00    -0.003 C 
ATOM     12  C   UNL     1       8.811  18.713  22.833  1.00  0.00     0.004 C 
ENDBRANCH  10  11
ENDBRANCH   9  10
ENDBRANCH   8   9
ENDBRANCH   7   8
ENDBRANCH   6   7
ENDBRANCH   5   6
ENDBRANCH   4   5
ENDBRANCH   3   4
ENDBRANCH   2   3
ENDBRANCH   1   2
BRANCH   1  13
ATOM     13  C   UNL     1       5.283  15.401  19.249  1.00  0.00     0.000 C 
BRANCH  13  14
ATOM     14  C   UNL     1       5.730  14.066  18.621  1.00  0.00     0.000 C 
BRANCH  14  15
ATOM     15  C   UNL     1       5.181  13.793  17.206  1.00  0.00     0.000 C 
BRANCH  15  16
ATOM     16  C   UNL     1       3.905  14.573  16.841  1.00  0.00     0.000 C 
BRANCH  16  17
ATOM     17  C   UNL     1       2.821  13.683  16.217  1.00  0.00     0.000 C 
BRANCH  17  18
ATOM     18  C   UNL     1       2.525  14.105  14.770  1.00  0.00     0.000 C 
BRANCH  18  19
ATOM     19  C   UNL     1       3.775  14.062  13.876  1.00  0.00     0.000 C 
BRANCH  19  20
ATOM     20  C   UNL     1       3.463  14.386  12.405  1.00  0.00     0.006 C 
BRANCH  20  21
ATOM     21  C   UNL     1       3.759  13.201  11.476  1.00  0.00     0.053 C 
BRANCH  21  22
ATOM     22  C   UNL     1       4.255  13.653  10.138  1.00  0.00     0.041 C 
ATOM     23  O   UNL     1       3.439  13.898   9.210  1.00  0.00    -0.550 OA
ATOM     24  O   UNL     1       5.620  13.772   9.905  1.00  0.00    -0.550 OA
ENDBRANCH  21  22
ENDBRANCH  20  21
ENDBRANCH  19  20
ENDBRANCH  18  19
ENDBRANCH  17  18
ENDBRANCH  16  17
ENDBRANCH  15  16
ENDBRANCH  14  15
ENDBRANCH  13  14
ENDBRANCH   1  13
TORSDOF 20
ENDMDL
MODEL 3
REMARK VINA RESULT:    -0.101      1.510      2.184
REMARK INTER + INTRA:          -1.374
REMARK INTER:                  -0.071
REMARK INTRA:                  -1.303
REMARK UNBOUND:                -1.156
REMARK SMILES CCCCCCCCCCCCCCCCCCCCCC(=O)[O-]
REMARK SMILES IDX 12 1 11 2 10 3 9 4 8 5 7 6 6 7 5 8 4 9 3 10 2 11 1 12 13 13
REMARK SMILES IDX 14 14 15 15 16 16 17 17 18 18 19 19 20 20 21 21 22 22 23 23
REMARK SMILES IDX 24 24
REMARK H PARENT
REMARK Flexibility Score: inf
ROOT
ATOM      1  C   UNL     1       5.200  15.168  18.820  1.00  0.00     0.000 C 
ENDROOT
BRANCH   1   2
ATOM      2  C   UNL     1       5.127  13.836  18.060  1.00  0.00     0.000 C 
BRANCH   2   3
ATOM      3  C   UNL     1       4.582  14.041  16.639  1.00  0.00     0.000 C 
BRANCH   3   4
ATOM      4  C   UNL     1       3.080  14.379  16.610  1.00  0.00    -0.000 C 
BRANCH   4   5
ATOM      5  C   UNL     1       2.158  13.294  16.015  1.00  0.00    -0.000 C 
BRANCH   5   6
ATOM      6  C   UNL     1       1.782  13.478  14.528  1.00  0.00    -0.000 C 
BRANCH   6   7
ATOM      7  C   UNL     1       2.616  14.545  13.793  1.00  0.00    -0.000 C 
BRANCH   7   8
ATOM      8  C   UNL     1       3.924  14.003  13.178  1.00  0.00    -0.000 C 
BRANCH   8   9
ATOM      9  C   UNL     1       3.654  13.058  11.995  1.00  0.00    -0.000 C 
BRANCH   9  10
ATOM     10  C   UNL     1       3.684  13.782  10.639  1.00  0.00    -0.000 C 
BRANCH  10  11
ATOM     11  C   UNL     1       4.588  13.080   9.614  1.00  0.00    -0.003 C 
ATOM     12  C   UNL     1       6.002  13.655   9.644  1.00  0.00     0.004 C 
ENDBRANCH  10  11
ENDBRANCH   9  10
ENDBRANCH   8   9
ENDBRANCH   7   8
ENDBRANCH   6   7
ENDBRANCH   5   6
ENDBRANCH   4   5
ENDBRANCH   3   4
ENDBRANCH   2   3
ENDBRANCH   1   2
BRANCH   1  13
ATOM     13  C   UNL     1       5.951  15.050  20.159  1.00  0.00     0.000 C 
BRANCH  13  14
ATOM     14  C   UNL     1       6.486  16.382  20.723  1.00  0.00     0.000 C 
BRANCH  14  15
ATOM     15  C   UNL     1       5.405  17.414  21.102  1.00  0.00     0.000 C 
BRANCH  15  16
ATOM     16  C   UNL     1       5.879  18.879  21.113  1.00  0.00     0.000 C 
BRANCH  16  17
ATOM     17  C   UNL     1       5.897  19.489  22.522  1.00  0.00     0.000 C 
BRANCH  17  18
ATOM     18  C   UNL     1       4.942  18.736  23.461  1.00  0.00     0.000 C 
BRANCH  18  19
ATOM     19  C   UNL     1       5.500  18.603  24.886  1.00  0.00     0.000 C 
BRANCH  19  20
ATOM     20  C   UNL     1       6.038  17.193  25.183  1.00  0.00     0.006 C 
BRANCH  20  21
ATOM     21  C   UNL     1       7.269  16.853  24.332  1.00  0.00     0.053 C 
BRANCH  21  22
ATOM     22  C   UNL     1       8.418  17.767  24.626  1.00  0.00     0.041 C 
ATOM     23  O   UNL     1       8.909  18.482  23.713  1.00  0.00    -0.550 OA
ATOM     24  O   UNL     1       8.968  17.804  25.902  1.00  0.00    -0.550 OA
ENDBRANCH  21  22
ENDBRANCH  20  21
ENDBRANCH  19  20
ENDBRANCH  18  19
ENDBRANCH  17  18
ENDBRANCH  16  17
ENDBRANCH  15  16
ENDBRANCH  14  15
ENDBRANCH  13  14
ENDBRANCH   1  13
TORSDOF 20
ENDMDL
MODEL 4
REMARK VINA RESULT:     0.031      1.984      2.896
REMARK INTER + INTRA:          -1.088
REMARK INTER:                  -0.104
REMARK INTRA:                  -0.984
REMARK UNBOUND:                -1.156
REMARK SMILES CCCCCCCCCCCCCCCCCCCCCC(=O)[O-]
REMARK SMILES IDX 12 1 11 2 10 3 9 4 8 5 7 6 6 7 5 8 4 9 3 10 2 11 1 12 13 13
REMARK SMILES IDX 14 14 15 15 16 16 17 17 18 18 19 19 20 20 21 21 22 22 23 23
REMARK SMILES IDX 24 24
REMARK H PARENT
REMARK Flexibility Score: inf
ROOT
ATOM      1  C   UNL     1       5.273  15.590  18.905  1.00  0.00     0.000 C 
ENDROOT
BRANCH   1   2
ATOM      2  C   UNL     1       5.333  14.115  18.481  1.00  0.00     0.000 C 
BRANCH   2   3
ATOM      3  C   UNL     1       4.962  13.952  16.999  1.00  0.00     0.000 C 
BRANCH   3   4
ATOM      4  C   UNL     1       3.602  14.582  16.644  1.00  0.00    -0.000 C 
BRANCH   4   5
ATOM      5  C   UNL     1       2.514  13.602  16.157  1.00  0.00    -0.000 C 
BRANCH   5   6
ATOM      6  C   UNL     1       2.086  13.759  14.681  1.00  0.00    -0.000 C 
BRANCH   6   7
ATOM      7  C   UNL     1       3.132  14.455  13.789  1.00  0.00    -0.000 C 
BRANCH   7   8
ATOM      8  C   UNL     1       3.870  13.499  12.828  1.00  0.00    -0.000 C 
BRANCH   8   9
ATOM      9  C   UNL     1       3.838  14.008  11.376  1.00  0.00    -0.000 C 
BRANCH   9  10
ATOM     10  C   UNL     1       3.641  12.875  10.356  1.00  0.00    -0.000 C 
BRANCH  10  11
ATOM     11  C   UNL     1       4.486  13.069   9.087  1.00  0.00    -0.003 C 
ATOM     12  C   UNL     1       5.873  13.606   9.429  1.00  0.00     0.004 C 
ENDBRANCH  10  11
ENDBRANCH   9  10
ENDBRANCH   8   9
ENDBRANCH   7   8
ENDBRANCH   6   7
ENDBRANCH   5   6
ENDBRANCH   4   5
ENDBRANCH   3   4
ENDBRANCH   2   3
ENDBRANCH   1   2
BRANCH   1  13
ATOM     13  C   UNL     1       5.776  15.817  20.342  1.00  0.00     0.000 C 
BRANCH  13  14
ATOM     14  C   UNL     1       6.607  17.100  20.544  1.00  0.00     0.000 C 
BRANCH  14  15
ATOM     15  C   UNL     1       7.340  17.199  21.897  1.00  0.00     0.000 C 
BRANCH  15  16
ATOM     16  C   UNL     1       6.826  16.240  22.987  1.00  0.00     0.000 C 
BRANCH  16  17
ATOM     17  C   UNL     1       7.678  16.278  24.264  1.00  0.00     0.000 C 
BRANCH  17  18
ATOM     18  C   UNL     1       8.176  17.702  24.553  1.00  0.00     0.000 C 
BRANCH  18  19
ATOM     19  C   UNL     1       7.407  18.374  25.700  1.00  0.00     0.000 C 
BRANCH  19  20
ATOM     20  C   UNL     1       5.881  18.256  25.540  1.00  0.00     0.006 C 
BRANCH  20  21
ATOM     21  C   UNL     1       5.272  19.492  24.864  1.00  0.00     0.053 C 
BRANCH  21  22
ATOM     22  C   UNL     1       5.182  19.325  23.379  1.00  0.00     0.041 C 
ATOM     23  O   UNL     1       5.865  20.060  22.617  1.00  0.00    -0.550 OA
ATOM     24  O   UNL     1       4.319  18.382  22.836  1.00  0.00    -0.550 OA
ENDBRANCH  21  22
ENDBRANCH  20  21
ENDBRANCH  19  20
ENDBRANCH  18  19
ENDBRANCH  17  18
ENDBRANCH  16  17
ENDBRANCH  15  16
ENDBRANCH  14  15
ENDBRANCH  13  14
ENDBRANCH   1  13
TORSDOF 20
ENDMDL
MODEL 5
REMARK VINA RESULT:     0.557      4.797     11.774
REMARK INTER + INTRA:           0.053
REMARK INTER:                   0.737
REMARK INTRA:                  -0.685
REMARK UNBOUND:                -1.156
REMARK SMILES CCCCCCCCCCCCCCCCCCCCCC(=O)[O-]
REMARK SMILES IDX 12 1 11 2 10 3 9 4 8 5 7 6 6 7 5 8 4 9 3 10 2 11 1 12 13 13
REMARK SMILES IDX 14 14 15 15 16 16 17 17 18 18 19 19 20 20 21 21 22 22 23 23
REMARK SMILES IDX 24 24
REMARK H PARENT
REMARK Flexibility Score: inf
ROOT
ATOM      1  C   UNL     1       6.254  15.222  19.817  1.00  0.00     0.000 C 
ENDROOT
BRANCH   1   2
ATOM      2  C   UNL     1       6.023  16.501  20.636  1.00  0.00     0.000 C 
BRANCH   2   3
ATOM      3  C   UNL     1       4.638  16.488  21.299  1.00  0.00     0.000 C 
BRANCH   3   4
ATOM      4  C   UNL     1       4.482  17.559  22.394  1.00  0.00    -0.000 C 
BRANCH   4   5
ATOM      5  C   UNL     1       5.404  18.791  22.266  1.00  0.00    -0.000 C 
BRANCH   5   6
ATOM      6  C   UNL     1       5.794  19.474  23.595  1.00  0.00    -0.000 C 
BRANCH   6   7
ATOM      7  C   UNL     1       5.818  18.527  24.810  1.00  0.00    -0.000 C 
BRANCH   7   8
ATOM      8  C   UNL     1       6.237  17.081  24.469  1.00  0.00    -0.000 C 
BRANCH   8   9
ATOM      9  C   UNL     1       7.730  16.985  24.109  1.00  0.00    -0.000 C 
BRANCH   9  10
ATOM     10  C   UNL     1       8.624  17.777  25.075  1.00  0.00    -0.000 C 
BRANCH  10  11
ATOM     11  C   UNL     1       8.577  17.227  26.510  1.00  0.00    -0.003 C 
ATOM     12  C   UNL     1       8.373  18.351  27.522  1.00  0.00     0.004 C 
ENDBRANCH  10  11
ENDBRANCH   9  10
ENDBRANCH   8   9
ENDBRANCH   7   8
ENDBRANCH   6   7
ENDBRANCH   5   6
ENDBRANCH   4   5
ENDBRANCH   3   4
ENDBRANCH   2   3
ENDBRANCH   1   2
BRANCH   1  13
ATOM     13  C   UNL     1       5.231  15.051  18.680  1.00  0.00     0.000 C 
BRANCH  13  14
ATOM     14  C   UNL     1       5.543  13.909  17.691  1.00  0.00     0.000 C 
BRANCH  14  15
ATOM     15  C   UNL     1       7.041  13.689  17.397  1.00  0.00     0.000 C 
BRANCH  15  16
ATOM     16  C   UNL     1       7.357  13.170  15.983  1.00  0.00     0.000 C 
BRANCH  16  17
ATOM     17  C   UNL     1       7.003  14.182  14.883  1.00  0.00     0.000 C 
BRANCH  17  18
ATOM     18  C   UNL     1       6.018  13.576  13.872  1.00  0.00     0.000 C 
BRANCH  18  19
ATOM     19  C   UNL     1       4.575  14.055  14.094  1.00  0.00     0.000 C 
BRANCH  19  20
ATOM     20  C   UNL     1       3.604  13.529  13.023  1.00  0.00     0.006 C 
BRANCH  20  21
ATOM     21  C   UNL     1       3.588  14.417  11.771  1.00  0.00     0.053 C 
BRANCH  21  22
ATOM     22  C   UNL     1       3.907  13.639  10.533  1.00  0.00     0.041 C 
ATOM     23  O   UNL     1       5.078  13.219  10.333  1.00  0.00    -0.550 OA
ATOM     24  O   UNL     1       2.919  13.405   9.584  1.00  0.00    -0.550 OA
ENDBRANCH  21  22
ENDBRANCH  20  21
ENDBRANCH  19  20
ENDBRANCH  18  19
ENDBRANCH  17  18
ENDBRANCH  16  17
ENDBRANCH  15  16
ENDBRANCH  14  15
ENDBRANCH  13  14
ENDBRANCH   1  13
TORSDOF 20
ENDMDL
MODEL 6
REMARK VINA RESULT:     0.669      5.085     11.845
REMARK INTER + INTRA:           0.295
REMARK INTER:                   0.351
REMARK INTRA:                  -0.056
REMARK UNBOUND:                -1.156
REMARK SMILES CCCCCCCCCCCCCCCCCCCCCC(=O)[O-]
REMARK SMILES IDX 12 1 11 2 10 3 9 4 8 5 7 6 6 7 5 8 4 9 3 10 2 11 1 12 13 13
REMARK SMILES IDX 14 14 15 15 16 16 17 17 18 18 19 19 20 20 21 21 22 22 23 23
REMARK SMILES IDX 24 24
REMARK H PARENT
REMARK Flexibility Score: inf
ROOT
ATOM      1  C   UNL     1       5.987  14.221  17.617  1.00  0.00     0.000 C 
ENDROOT
BRANCH   1   2
ATOM      2  C   UNL     1       5.664  14.482  19.095  1.00  0.00     0.000 C 
BRANCH   2   3
ATOM      3  C   UNL     1       5.297  15.955  19.328  1.00  0.00     0.000 C 
BRANCH   3   4
ATOM      4  C   UNL     1       5.676  16.458  20.733  1.00  0.00    -0.000 C 
BRANCH   4   5
ATOM      5  C   UNL     1       4.499  16.695  21.703  1.00  0.00    -0.000 C 
BRANCH   5   6
ATOM      6  C   UNL     1       4.727  17.781  22.778  1.00  0.00    -0.000 C 
BRANCH   6   7
ATOM      7  C   UNL     1       5.960  18.670  22.526  1.00  0.00    -0.000 C 
BRANCH   7   8
ATOM      8  C   UNL     1       7.053  18.546  23.609  1.00  0.00    -0.000 C 
BRANCH   8   9
ATOM      9  C   UNL     1       7.484  17.085  23.826  1.00  0.00    -0.000 C 
BRANCH   9  10
ATOM     10  C   UNL     1       8.077  16.843  25.223  1.00  0.00    -0.000 C 
BRANCH  10  11
ATOM     11  C   UNL     1       7.823  18.016  26.183  1.00  0.00    -0.003 C 
ATOM     12  C   UNL     1       8.635  17.860  27.466  1.00  0.00     0.004 C 
ENDBRANCH  10  11
ENDBRANCH   9  10
ENDBRANCH   8   9
ENDBRANCH   7   8
ENDBRANCH   6   7
ENDBRANCH   5   6
ENDBRANCH   4   5
ENDBRANCH   3   4
ENDBRANCH   2   3
ENDBRANCH   1   2
BRANCH   1  13
ATOM     13  C   UNL     1       7.154  13.236  17.427  1.00  0.00     0.000 C 
BRANCH  13  14
ATOM     14  C   UNL     1       7.814  13.270  16.033  1.00  0.00     0.000 C 
BRANCH  14  15
ATOM     15  C   UNL     1       6.992  13.980  14.938  1.00  0.00     0.000 C 
BRANCH  15  16
ATOM     16  C   UNL     1       5.470  13.763  15.023  1.00  0.00     0.000 C 
BRANCH  16  17
ATOM     17  C   UNL     1       4.717  14.356  13.823  1.00  0.00     0.000 C 
BRANCH  17  18
ATOM     18  C   UNL     1       3.253  13.891  13.806  1.00  0.00     0.000 C 
BRANCH  18  19
ATOM     19  C   UNL     1       2.848  13.265  12.463  1.00  0.00     0.000 C 
BRANCH  19  20
ATOM     20  C   UNL     1       3.603  13.879  11.271  1.00  0.00     0.006 C 
BRANCH  20  21
ATOM     21  C   UNL     1       4.741  12.973  10.779  1.00  0.00     0.053 C 
BRANCH  21  22
ATOM     22  C   UNL     1       5.344  13.481   9.506  1.00  0.00     0.041 C 
ATOM     23  O   UNL     1       6.361  12.919   9.020  1.00  0.00    -0.550 OA
ATOM     24  O   UNL     1       4.803  14.595   8.875  1.00  0.00    -0.550 OA
ENDBRANCH  21  22
ENDBRANCH  20  21
ENDBRANCH  19  20
ENDBRANCH  18  19
ENDBRANCH  17  18
ENDBRANCH  16  17
ENDBRANCH  15  16
ENDBRANCH  14  15
ENDBRANCH  13  14
ENDBRANCH   1  13
TORSDOF 20
ENDMDL
MODEL 7
REMARK VINA RESULT:     0.671      1.532      2.219
REMARK INTER + INTRA:           0.299
REMARK INTER:                   1.085
REMARK INTRA:                  -0.786
REMARK UNBOUND:                -1.156
REMARK SMILES CCCCCCCCCCCCCCCCCCCCCC(=O)[O-]
REMARK SMILES IDX 12 1 11 2 10 3 9 4 8 5 7 6 6 7 5 8 4 9 3 10 2 11 1 12 13 13
REMARK SMILES IDX 14 14 15 15 16 16 17 17 18 18 19 19 20 20 21 21 22 22 23 23
REMARK SMILES IDX 24 24
REMARK H PARENT
REMARK Flexibility Score: inf
ROOT
ATOM      1  C   UNL     1       6.347  16.232  19.853  1.00  0.00     0.000 C 
ENDROOT
BRANCH   1   2
ATOM      2  C   UNL     1       5.148  15.674  19.072  1.00  0.00     0.000 C 
BRANCH   2   3
ATOM      3  C   UNL     1       5.537  14.408  18.295  1.00  0.00     0.000 C 
BRANCH   3   4
ATOM      4  C   UNL     1       4.332  13.703  17.646  1.00  0.00    -0.000 C 
BRANCH   4   5
ATOM      5  C   UNL     1       3.871  14.271  16.287  1.00  0.00    -0.000 C 
BRANCH   5   6
ATOM      6  C   UNL     1       2.393  14.013  15.922  1.00  0.00    -0.000 C 
BRANCH   6   7
ATOM      7  C   UNL     1       2.181  13.446  14.504  1.00  0.00    -0.000 C 
BRANCH   7   8
ATOM      8  C   UNL     1       2.738  14.345  13.381  1.00  0.00    -0.000 C 
BRANCH   8   9
ATOM      9  C   UNL     1       3.767  13.604  12.510  1.00  0.00    -0.000 C 
BRANCH   9  10
ATOM     10  C   UNL     1       3.818  14.137  11.069  1.00  0.00    -0.000 C 
BRANCH  10  11
ATOM     11  C   UNL     1       3.952  13.015  10.028  1.00  0.00    -0.003 C 
ATOM     12  C   UNL     1       5.396  12.875   9.554  1.00  0.00     0.004 C 
ENDBRANCH  10  11
ENDBRANCH   9  10
ENDBRANCH   8   9
ENDBRANCH   7   8
ENDBRANCH   6   7
ENDBRANCH   5   6
ENDBRANCH   4   5
ENDBRANCH   3   4
ENDBRANCH   2   3
ENDBRANCH   1   2
BRANCH   1  13
ATOM     13  C   UNL     1       5.962  16.733  21.257  1.00  0.00     0.000 C 
BRANCH  13  14
ATOM     14  C   UNL     1       4.462  16.629  21.595  1.00  0.00     0.000 C 
BRANCH  14  15
ATOM     15  C   UNL     1       4.021  17.400  22.856  1.00  0.00     0.000 C 
BRANCH  15  16
ATOM     16  C   UNL     1       4.472  18.871  22.910  1.00  0.00     0.000 C 
BRANCH  16  17
ATOM     17  C   UNL     1       5.478  19.144  24.038  1.00  0.00     0.000 C 
BRANCH  17  18
ATOM     18  C   UNL     1       6.810  19.662  23.476  1.00  0.00     0.000 C 
BRANCH  18  19
ATOM     19  C   UNL     1       7.693  18.534  22.919  1.00  0.00     0.000 C 
BRANCH  19  20
ATOM     20  C   UNL     1       8.831  18.144  23.879  1.00  0.00     0.006 C 
BRANCH  20  21
ATOM     21  C   UNL     1       8.303  17.677  25.243  1.00  0.00     0.053 C 
BRANCH  21  22
ATOM     22  C   UNL     1       7.546  16.390  25.134  1.00  0.00     0.041 C 
ATOM     23  O   UNL     1       6.309  16.361  25.366  1.00  0.00    -0.550 OA
ATOM     24  O   UNL     1       8.214  15.215  24.808  1.00  0.00    -0.550 OA
ENDBRANCH  21  22
ENDBRANCH  20  21
ENDBRANCH  19  20
ENDBRANCH  18  19
ENDBRANCH  17  18
ENDBRANCH  16  17
ENDBRANCH  15  16
ENDBRANCH  14  15
ENDBRANCH  13  14
ENDBRANCH   1  13
TORSDOF 20
ENDMDL
MODEL 8
REMARK VINA RESULT:     1.165      3.738     10.774
REMARK INTER + INTRA:           1.371
REMARK INTER:                   1.850
REMARK INTRA:                  -0.479
REMARK UNBOUND:                -1.156
REMARK SMILES CCCCCCCCCCCCCCCCCCCCCC(=O)[O-]
REMARK SMILES IDX 12 1 11 2 10 3 9 4 8 5 7 6 6 7 5 8 4 9 3 10 2 11 1 12 13 13
REMARK SMILES IDX 14 14 15 15 16 16 17 17 18 18 19 19 20 20 21 21 22 22 23 23
REMARK SMILES IDX 24 24
REMARK H PARENT
REMARK Flexibility Score: inf
ROOT
ATOM      1  C   UNL     1       6.438  15.799  20.034  1.00  0.00     0.000 C 
ENDROOT
BRANCH   1   2
ATOM      2  C   UNL     1       6.013  17.024  20.856  1.00  0.00     0.000 C 
BRANCH   2   3
ATOM      3  C   UNL     1       4.698  16.757  21.603  1.00  0.00     0.000 C 
BRANCH   3   4
ATOM      4  C   UNL     1       4.344  17.860  22.618  1.00  0.00    -0.000 C 
BRANCH   4   5
ATOM      5  C   UNL     1       5.326  19.049  22.689  1.00  0.00    -0.000 C 
BRANCH   5   6
ATOM      6  C   UNL     1       5.498  19.691  24.083  1.00  0.00    -0.000 C 
BRANCH   6   7
ATOM      7  C   UNL     1       5.523  18.681  25.246  1.00  0.00    -0.000 C 
BRANCH   7   8
ATOM      8  C   UNL     1       5.723  17.217  24.800  1.00  0.00    -0.000 C 
BRANCH   8   9
ATOM      9  C   UNL     1       7.051  16.636  25.316  1.00  0.00    -0.000 C 
BRANCH   9  10
ATOM     10  C   UNL     1       8.143  17.705  25.477  1.00  0.00    -0.000 C 
BRANCH  10  11
ATOM     11  C   UNL     1       9.148  17.703  24.314  1.00  0.00    -0.003 C 
ATOM     12  C   UNL     1       8.780  18.753  23.270  1.00  0.00     0.004 C 
ENDBRANCH  10  11
ENDBRANCH   9  10
ENDBRANCH   8   9
ENDBRANCH   7   8
ENDBRANCH   6   7
ENDBRANCH   5   6
ENDBRANCH   4   5
ENDBRANCH   3   4
ENDBRANCH   2   3
ENDBRANCH   1   2
BRANCH   1  13
ATOM     13  C   UNL     1       5.248  15.090  19.362  1.00  0.00     0.000 C 
BRANCH  13  14
ATOM     14  C   UNL     1       5.615  13.827  18.557  1.00  0.00     0.000 C 
BRANCH  14  15
ATOM     15  C   UNL     1       6.946  13.908  17.783  1.00  0.00     0.000 C 
BRANCH  15  16
ATOM     16  C   UNL     1       6.990  13.093  16.477  1.00  0.00     0.000 C 
BRANCH  16  17
ATOM     17  C   UNL     1       7.614  13.872  15.310  1.00  0.00     0.000 C 
BRANCH  17  18
ATOM     18  C   UNL     1       6.622  14.008  14.145  1.00  0.00     0.000 C 
BRANCH  18  19
ATOM     19  C   UNL     1       5.159  14.000  14.612  1.00  0.00     0.000 C 
BRANCH  19  20
ATOM     20  C   UNL     1       4.163  13.923  13.442  1.00  0.00     0.006 C 
BRANCH  20  21
ATOM     21  C   UNL     1       2.807  14.549  13.794  1.00  0.00     0.053 C 
BRANCH  21  22
ATOM     22  C   UNL     1       2.079  13.752  14.832  1.00  0.00     0.041 C 
ATOM     23  O   UNL     1       1.125  13.001  14.498  1.00  0.00    -0.550 OA
ATOM     24  O   UNL     1       2.433  13.864  16.171  1.00  0.00    -0.550 OA
ENDBRANCH  21  22
ENDBRANCH  20  21
ENDBRANCH  19  20
ENDBRANCH  18  19
ENDBRANCH  17  18
ENDBRANCH  16  17
ENDBRANCH  15  16
ENDBRANCH  14  15
ENDBRANCH  13  14
ENDBRANCH   1  13
TORSDOF 20
ENDMDL
