MODEL 1
REMARK VINA RESULT:    -5.401      0.000      0.000
REMARK INTER + INTRA:          -6.802
REMARK INTER:                  -6.506
REMARK INTRA:                  -0.296
REMARK UNBOUND:                -0.296
REMARK SMILES O=c1c(O)c(-c2ccc(O)c(O)c2)oc2cc(O)cc(O)c12
REMARK SMILES IDX 5 1 3 2 2 3 1 4 22 5 20 6 19 7 17 8 16 9 15 10 14 11 6 12
REMARK SMILES IDX 7 13 8 14 9 15 13 16 11 17 10 18 12 20 4 22 21 24 18 26
REMARK H PARENT 10 19 12 21 4 23 21 25 18 27
REMARK Flexibility Score: inf
ROOT
ATOM      1  C   UNL     1      17.968   6.283  34.993  1.00  0.00     0.180 A 
ATOM      2  C   UNL     1      18.243   5.527  33.837  1.00  0.00     0.208 A 
ATOM      3  C   UNL     1      19.194   6.008  32.924  1.00  0.00     0.238 A 
ATOM      4  O   UNL     1      19.441   5.345  31.880  1.00  0.00    -0.285 OA
ATOM      5  C   UNL     1      19.866   7.219  33.188  1.00  0.00     0.111 A 
ATOM      6  C   UNL     1      20.840   7.770  32.321  1.00  0.00     0.134 A 
ATOM      7  C   UNL     1      21.470   8.977  32.660  1.00  0.00     0.093 A 
ATOM      8  C   UNL     1      21.145   9.641  33.848  1.00  0.00     0.123 A 
ATOM      9  C   UNL     1      20.185   9.102  34.706  1.00  0.00     0.094 A 
ATOM     10  C   UNL     1      19.545   7.901  34.385  1.00  0.00     0.146 A 
ATOM     11  O   UNL     1      18.631   7.414  35.216  1.00  0.00    -0.452 OA
ENDROOT
BRANCH   1  12
ATOM     12  C   UNL     1      16.965   5.853  35.994  1.00  0.00     0.025 A 
ATOM     13  C   UNL     1      15.682   6.426  36.038  1.00  0.00     0.016 A 
ATOM     14  C   UNL     1      14.761   6.020  37.007  1.00  0.00     0.051 A 
ATOM     15  C   UNL     1      15.110   5.048  37.953  1.00  0.00     0.157 A 
ATOM     16  C   UNL     1      17.318   4.893  36.957  1.00  0.00     0.062 A 
ATOM     17  C   UNL     1      16.397   4.485  37.929  1.00  0.00     0.158 A 
BRANCH  15  18
ATOM     18  O   UNL     1      14.187   4.644  38.917  1.00  0.00    -0.504 OA
ATOM     19  H   UNL     1      13.190   4.754  38.775  1.00  0.00     0.293 HD
ENDBRANCH  15  18
BRANCH  17  20
ATOM     20  O   UNL     1      16.778   3.519  38.860  1.00  0.00    -0.504 OA
ATOM     21  H   UNL     1      16.114   2.869  39.264  1.00  0.00     0.293 HD
ENDBRANCH  17  20
ENDBRANCH   1  12
BRANCH   2  22
ATOM     22  O   UNL     1      17.601   4.305  33.623  1.00  0.00    -0.502 OA
ATOM     23  H   UNL     1      16.677   4.107  33.988  1.00  0.00     0.293 HD
ENDBRANCH   2  22
BRANCH   6  24
ATOM     24  O   UNL     1      21.185   7.130  31.129  1.00  0.00    -0.507 OA
ATOM     25  H   UNL     1      21.395   7.651  30.286  1.00  0.00     0.293 HD
ENDBRANCH   6  24
BRANCH   8  26
ATOM     26  O   UNL     1      21.772  10.839  34.186  1.00  0.00    -0.508 OA
ATOM     27  H   UNL     1      21.900  11.116  35.151  1.00  0.00     0.293 HD
ENDBRANCH   8  26
TORSDOF 6
ENDMDL
MODEL 2
REMARK VINA RESULT:    -5.278      4.150      7.771
REMARK INTER + INTRA:          -6.653
REMARK INTER:                  -6.431
REMARK INTRA:                  -0.222
REMARK UNBOUND:                -0.296
REMARK SMILES O=c1c(O)c(-c2ccc(O)c(O)c2)oc2cc(O)cc(O)c12
REMARK SMILES IDX 5 1 3 2 2 3 1 4 22 5 20 6 19 7 17 8 16 9 15 10 14 11 6 12
REMARK SMILES IDX 7 13 8 14 9 15 13 16 11 17 10 18 12 20 4 22 21 24 18 26
REMARK H PARENT 10 19 12 21 4 23 21 25 18 27
REMARK Flexibility Score: inf
ROOT
ATOM      1  C   UNL     1      14.189   6.435  37.638  1.00  0.00     0.180 A 
ATOM      2  C   UNL     1      13.065   6.128  36.848  1.00  0.00     0.208 A 
ATOM      3  C   UNL     1      11.861   6.808  37.087  1.00  0.00     0.238 A 
ATOM      4  O   UNL     1      10.845   6.533  36.392  1.00  0.00    -0.285 OA
ATOM      5  C   UNL     1      11.805   7.794  38.093  1.00  0.00     0.111 A 
ATOM      6  C   UNL     1      10.632   8.528  38.395  1.00  0.00     0.134 A 
ATOM      7  C   UNL     1      10.660   9.499  39.406  1.00  0.00     0.093 A 
ATOM      8  C   UNL     1      11.837   9.750  40.121  1.00  0.00     0.123 A 
ATOM      9  C   UNL     1      12.995   9.030  39.827  1.00  0.00     0.094 A 
ATOM     10  C   UNL     1      12.988   8.056  38.824  1.00  0.00     0.146 A 
ATOM     11  O   UNL     1      14.102   7.381  38.569  1.00  0.00    -0.452 OA
ENDROOT
BRANCH   1  12
ATOM     12  C   UNL     1      15.488   5.747  37.460  1.00  0.00     0.025 A 
ATOM     13  C   UNL     1      16.283   5.967  36.323  1.00  0.00     0.016 A 
ATOM     14  C   UNL     1      17.494   5.288  36.166  1.00  0.00     0.051 A 
ATOM     15  C   UNL     1      17.922   4.371  37.135  1.00  0.00     0.157 A 
ATOM     16  C   UNL     1      15.911   4.812  38.420  1.00  0.00     0.062 A 
ATOM     17  C   UNL     1      17.124   4.130  38.266  1.00  0.00     0.158 A 
BRANCH  15  18
ATOM     18  O   UNL     1      19.132   3.697  36.977  1.00  0.00    -0.504 OA
ATOM     19  H   UNL     1      19.687   3.409  37.775  1.00  0.00     0.293 HD
ENDBRANCH  15  18
BRANCH  17  20
ATOM     20  O   UNL     1      17.518   3.219  39.245  1.00  0.00    -0.504 OA
ATOM     21  H   UNL     1      17.359   3.387  40.232  1.00  0.00     0.293 HD
ENDBRANCH  17  20
ENDBRANCH   1  12
BRANCH   2  22
ATOM     22  O   UNL     1      13.160   5.182  35.823  1.00  0.00    -0.502 OA
ATOM     23  H   UNL     1      12.550   4.375  35.772  1.00  0.00     0.293 HD
ENDBRANCH   2  22
BRANCH   6  24
ATOM     24  O   UNL     1       9.444   8.300  37.699  1.00  0.00    -0.507 OA
ATOM     25  H   UNL     1       9.122   8.929  36.973  1.00  0.00     0.293 HD
ENDBRANCH   6  24
BRANCH   8  26
ATOM     26  O   UNL     1      11.865  10.717  41.125  1.00  0.00    -0.508 OA
ATOM     27  H   UNL     1      12.222  10.509  42.049  1.00  0.00     0.293 HD
ENDBRANCH   8  26
TORSDOF 6
ENDMDL
MODEL 3
REMARK VINA RESULT:    -5.239     13.134     15.459
REMARK INTER + INTRA:          -6.606
REMARK INTER:                  -6.274
REMARK INTRA:                  -0.332
REMARK UNBOUND:                -0.296
REMARK SMILES O=c1c(O)c(-c2ccc(O)c(O)c2)oc2cc(O)cc(O)c12
REMARK SMILES IDX 5 1 3 2 2 3 1 4 22 5 20 6 19 7 17 8 16 9 15 10 14 11 6 12
REMARK SMILES IDX 7 13 8 14 9 15 13 16 11 17 10 18 12 20 4 22 21 24 18 26
REMARK H PARENT 10 19 12 21 4 23 21 25 18 27
REMARK Flexibility Score: inf
ROOT
ATOM      1  C   UNL     1       7.990   6.072  25.975  1.00  0.00     0.180 A 
ATOM      2  C   UNL     1       7.407   4.844  26.340  1.00  0.00     0.208 A 
ATOM      3  C   UNL     1       6.151   4.849  26.968  1.00  0.00     0.238 A 
ATOM      4  O   UNL     1       5.624   3.756  27.309  1.00  0.00    -0.285 OA
ATOM      5  C   UNL     1       5.493   6.074  27.201  1.00  0.00     0.111 A 
ATOM      6  C   UNL     1       4.225   6.166  27.825  1.00  0.00     0.134 A 
ATOM      7  C   UNL     1       3.632   7.423  28.013  1.00  0.00     0.093 A 
ATOM      8  C   UNL     1       4.282   8.588  27.590  1.00  0.00     0.123 A 
ATOM      9  C   UNL     1       5.532   8.503  26.976  1.00  0.00     0.094 A 
ATOM     10  C   UNL     1       6.141   7.259  26.780  1.00  0.00     0.146 A 
ATOM     11  O   UNL     1       7.333   7.207  26.198  1.00  0.00    -0.452 OA
ENDROOT
BRANCH   1  12
ATOM     12  C   UNL     1       9.319   6.151  25.328  1.00  0.00     0.025 A 
ATOM     13  C   UNL     1      10.497   6.267  26.085  1.00  0.00     0.016 A 
ATOM     14  C   UNL     1      11.738   6.363  25.451  1.00  0.00     0.051 A 
ATOM     15  C   UNL     1      11.820   6.358  24.052  1.00  0.00     0.157 A 
ATOM     16  C   UNL     1       9.404   6.167  23.926  1.00  0.00     0.062 A 
ATOM     17  C   UNL     1      10.646   6.264  23.287  1.00  0.00     0.158 A 
BRANCH  15  18
ATOM     18  O   UNL     1      13.060   6.453  23.422  1.00  0.00    -0.504 OA
ATOM     19  H   UNL     1      13.369   5.757  22.753  1.00  0.00     0.293 HD
ENDBRANCH  15  18
BRANCH  17  20
ATOM     20  O   UNL     1      10.692   6.263  21.893  1.00  0.00    -0.504 OA
ATOM     21  H   UNL     1      11.027   5.464  21.366  1.00  0.00     0.293 HD
ENDBRANCH  17  20
ENDBRANCH   1  12
BRANCH   2  22
ATOM     22  O   UNL     1       8.057   3.641  26.053  1.00  0.00    -0.502 OA
ATOM     23  H   UNL     1       8.085   3.249  25.120  1.00  0.00     0.293 HD
ENDBRANCH   2  22
BRANCH   6  24
ATOM     24  O   UNL     1       3.552   5.022  28.256  1.00  0.00    -0.507 OA
ATOM     25  H   UNL     1       3.438   4.810  29.239  1.00  0.00     0.293 HD
ENDBRANCH   6  24
BRANCH   8  26
ATOM     26  O   UNL     1       3.693   9.837  27.776  1.00  0.00    -0.508 OA
ATOM     27  H   UNL     1       2.831   9.944  28.298  1.00  0.00     0.293 HD
ENDBRANCH   8  26
TORSDOF 6
ENDMDL
MODEL 4
REMARK VINA RESULT:    -5.227     11.518     13.969
REMARK INTER + INTRA:          -6.593
REMARK INTER:                  -6.263
REMARK INTRA:                  -0.329
REMARK UNBOUND:                -0.296
REMARK SMILES O=c1c(O)c(-c2ccc(O)c(O)c2)oc2cc(O)cc(O)c12
REMARK SMILES IDX 5 1 3 2 2 3 1 4 22 5 20 6 19 7 17 8 16 9 15 10 14 11 6 12
REMARK SMILES IDX 7 13 8 14 9 15 13 16 11 17 10 18 12 20 4 22 21 24 18 26
REMARK H PARENT 10 19 12 21 4 23 21 25 18 27
REMARK Flexibility Score: inf
ROOT
ATOM      1  C   UNL     1      11.687  -4.553  38.703  1.00  0.00     0.180 A 
ATOM      2  C   UNL     1      11.290  -3.277  39.148  1.00  0.00     0.208 A 
ATOM      3  C   UNL     1      12.231  -2.464  39.799  1.00  0.00     0.238 A 
ATOM      4  O   UNL     1      11.884  -1.323  40.212  1.00  0.00    -0.285 OA
ATOM      5  C   UNL     1      13.551  -2.927  39.975  1.00  0.00     0.111 A 
ATOM      6  C   UNL     1      14.559  -2.168  40.617  1.00  0.00     0.134 A 
ATOM      7  C   UNL     1      15.852  -2.697  40.745  1.00  0.00     0.093 A 
ATOM      8  C   UNL     1      16.155  -3.968  40.245  1.00  0.00     0.123 A 
ATOM      9  C   UNL     1      15.164  -4.720  39.612  1.00  0.00     0.094 A 
ATOM     10  C   UNL     1      13.869  -4.212  39.475  1.00  0.00     0.146 A 
ATOM     11  O   UNL     1      12.944  -4.951  38.874  1.00  0.00    -0.452 OA
ENDROOT
BRANCH   1  12
ATOM     12  C   UNL     1      10.748  -5.477  38.027  1.00  0.00     0.025 A 
ATOM     13  C   UNL     1       9.896  -6.322  38.759  1.00  0.00     0.016 A 
ATOM     14  C   UNL     1       9.036  -7.202  38.098  1.00  0.00     0.051 A 
ATOM     15  C   UNL     1       9.023  -7.262  36.698  1.00  0.00     0.157 A 
ATOM     16  C   UNL     1      10.746  -5.554  36.624  1.00  0.00     0.062 A 
ATOM     17  C   UNL     1       9.886  -6.436  35.958  1.00  0.00     0.158 A 
BRANCH  15  18
ATOM     18  O   UNL     1       8.162  -8.140  36.041  1.00  0.00    -0.504 OA
ATOM     19  H   UNL     1       7.845  -8.998  36.479  1.00  0.00     0.293 HD
ENDBRANCH  15  18
BRANCH  17  20
ATOM     20  O   UNL     1       9.902  -6.475  34.564  1.00  0.00    -0.504 OA
ATOM     21  H   UNL     1       9.708  -5.656  34.001  1.00  0.00     0.293 HD
ENDBRANCH  17  20
ENDBRANCH   1  12
BRANCH   2  22
ATOM     22  O   UNL     1       9.990  -2.821  38.917  1.00  0.00    -0.502 OA
ATOM     23  H   UNL     1       9.233  -2.987  39.569  1.00  0.00     0.293 HD
ENDBRANCH   2  22
BRANCH   6  24
ATOM     24  O   UNL     1      14.287  -0.897  41.125  1.00  0.00    -0.507 OA
ATOM     25  H   UNL     1      15.026  -0.282  41.445  1.00  0.00     0.293 HD
ENDBRANCH   6  24
BRANCH   8  26
ATOM     26  O   UNL     1      17.440  -4.493  40.371  1.00  0.00    -0.508 OA
ATOM     27  H   UNL     1      18.129  -4.390  39.635  1.00  0.00     0.293 HD
ENDBRANCH   8  26
TORSDOF 6
ENDMDL
MODEL 5
REMARK VINA RESULT:    -5.227     11.060     13.790
REMARK INTER + INTRA:          -6.592
REMARK INTER:                  -6.266
REMARK INTRA:                  -0.325
REMARK UNBOUND:                -0.296
REMARK SMILES O=c1c(O)c(-c2ccc(O)c(O)c2)oc2cc(O)cc(O)c12
REMARK SMILES IDX 5 1 3 2 2 3 1 4 22 5 20 6 19 7 17 8 16 9 15 10 14 11 6 12
REMARK SMILES IDX 7 13 8 14 9 15 13 16 11 17 10 18 12 20 4 22 21 24 18 26
REMARK H PARENT 10 19 12 21 4 23 21 25 18 27
REMARK Flexibility Score: inf
ROOT
ATOM      1  C   UNL     1      11.136  -4.100  38.752  1.00  0.00     0.180 A 
ATOM      2  C   UNL     1      12.443  -4.283  39.242  1.00  0.00     0.208 A 
ATOM      3  C   UNL     1      13.091  -3.204  39.864  1.00  0.00     0.238 A 
ATOM      4  O   UNL     1      14.266  -3.353  40.297  1.00  0.00    -0.285 OA
ATOM      5  C   UNL     1      12.419  -1.972  40.002  1.00  0.00     0.111 A 
ATOM      6  C   UNL     1      13.001  -0.838  40.619  1.00  0.00     0.134 A 
ATOM      7  C   UNL     1      12.262   0.350  40.726  1.00  0.00     0.093 A 
ATOM      8  C   UNL     1      10.956   0.425  40.229  1.00  0.00     0.123 A 
ATOM      9  C   UNL     1      10.379  -0.691  39.621  1.00  0.00     0.094 A 
ATOM     10  C   UNL     1      11.099  -1.884  39.503  1.00  0.00     0.146 A 
ATOM     11  O   UNL     1      10.528  -2.928  38.913  1.00  0.00    -0.452 OA
ENDROOT
BRANCH   1  12
ATOM     12  C   UNL     1      10.393  -5.182  38.068  1.00  0.00     0.025 A 
ATOM     13  C   UNL     1       9.605  -6.098  38.786  1.00  0.00     0.016 A 
ATOM     14  C   UNL     1       8.933  -7.126  38.120  1.00  0.00     0.051 A 
ATOM     15  C   UNL     1       9.048  -7.262  36.730  1.00  0.00     0.157 A 
ATOM     16  C   UNL     1      10.522  -5.336  36.677  1.00  0.00     0.062 A 
ATOM     17  C   UNL     1       9.850  -6.364  36.007  1.00  0.00     0.158 A 
BRANCH  15  18
ATOM     18  O   UNL     1       8.374  -8.288  36.069  1.00  0.00    -0.504 OA
ATOM     19  H   UNL     1       7.378  -8.431  36.188  1.00  0.00     0.293 HD
ENDBRANCH  15  18
BRANCH  17  20
ATOM     20  O   UNL     1       9.991  -6.477  34.624  1.00  0.00    -0.504 OA
ATOM     21  H   UNL     1      10.204  -7.360  34.175  1.00  0.00     0.293 HD
ENDBRANCH  17  20
ENDBRANCH   1  12
BRANCH   2  22
ATOM     22  O   UNL     1      13.069  -5.528  39.137  1.00  0.00    -0.502 OA
ATOM     23  H   UNL     1      13.417  -6.030  39.945  1.00  0.00     0.293 HD
ENDBRANCH   2  22
BRANCH   6  24
ATOM     24  O   UNL     1      14.301  -0.882  41.125  1.00  0.00    -0.507 OA
ATOM     25  H   UNL     1      14.638  -1.674  41.659  1.00  0.00     0.293 HD
ENDBRANCH   6  24
BRANCH   8  26
ATOM     26  O   UNL     1      10.222   1.604  40.337  1.00  0.00    -0.508 OA
ATOM     27  H   UNL     1       9.222   1.623  40.176  1.00  0.00     0.293 HD
ENDBRANCH   8  26
TORSDOF 6
ENDMDL
MODEL 6
REMARK VINA RESULT:    -5.226      1.775      2.063
REMARK INTER + INTRA:          -6.590
REMARK INTER:                  -6.259
REMARK INTRA:                  -0.332
REMARK UNBOUND:                -0.296
REMARK SMILES O=c1c(O)c(-c2ccc(O)c(O)c2)oc2cc(O)cc(O)c12
REMARK SMILES IDX 5 1 3 2 2 3 1 4 22 5 20 6 19 7 17 8 16 9 15 10 14 11 6 12
REMARK SMILES IDX 7 13 8 14 9 15 13 16 11 17 10 18 12 20 4 22 21 24 18 26
REMARK H PARENT 10 19 12 21 4 23 21 25 18 27
REMARK Flexibility Score: inf
ROOT
ATOM      1  C   UNL     1      17.303   6.195  35.914  1.00  0.00     0.180 A 
ATOM      2  C   UNL     1      17.960   4.993  35.591  1.00  0.00     0.208 A 
ATOM      3  C   UNL     1      19.230   5.053  34.996  1.00  0.00     0.238 A 
ATOM      4  O   UNL     1      19.823   3.983  34.692  1.00  0.00    -0.285 OA
ATOM      5  C   UNL     1      19.828   6.307  34.753  1.00  0.00     0.111 A 
ATOM      6  C   UNL     1      21.106   6.454  34.161  1.00  0.00     0.134 A 
ATOM      7  C   UNL     1      21.635   7.737  33.961  1.00  0.00     0.093 A 
ATOM      8  C   UNL     1      20.913   8.874  34.342  1.00  0.00     0.123 A 
ATOM      9  C   UNL     1      19.654   8.734  34.925  1.00  0.00     0.094 A 
ATOM     10  C   UNL     1      19.107   7.463  35.132  1.00  0.00     0.146 A 
ATOM     11  O   UNL     1      17.904   7.359  35.684  1.00  0.00    -0.452 OA
ENDROOT
BRANCH   1  12
ATOM     12  C   UNL     1      15.955   6.215  36.526  1.00  0.00     0.025 A 
ATOM     13  C   UNL     1      14.793   6.266  35.736  1.00  0.00     0.016 A 
ATOM     14  C   UNL     1      13.532   6.308  36.337  1.00  0.00     0.051 A 
ATOM     15  C   UNL     1      13.413   6.313  37.732  1.00  0.00     0.157 A 
ATOM     16  C   UNL     1      15.831   6.242  37.925  1.00  0.00     0.062 A 
ATOM     17  C   UNL     1      14.569   6.284  38.530  1.00  0.00     0.158 A 
BRANCH  15  18
ATOM     18  O   UNL     1      12.153   6.353  38.329  1.00  0.00    -0.504 OA
ATOM     19  H   UNL     1      11.527   7.139  38.192  1.00  0.00     0.293 HD
ENDBRANCH  15  18
BRANCH  17  20
ATOM     20  O   UNL     1      14.485   6.295  39.922  1.00  0.00    -0.504 OA
ATOM     21  H   UNL     1      13.880   6.938  40.419  1.00  0.00     0.293 HD
ENDBRANCH  17  20
ENDBRANCH   1  12
BRANCH   2  22
ATOM     22  O   UNL     1      17.368   3.762  35.887  1.00  0.00    -0.502 OA
ATOM     23  H   UNL     1      17.900   2.973  36.231  1.00  0.00     0.293 HD
ENDBRANCH   2  22
BRANCH   6  24
ATOM     24  O   UNL     1      21.850   5.339  33.772  1.00  0.00    -0.507 OA
ATOM     25  H   UNL     1      22.577   5.403  33.070  1.00  0.00     0.293 HD
ENDBRANCH   6  24
BRANCH   8  26
ATOM     26  O   UNL     1      21.441  10.149  34.144  1.00  0.00    -0.508 OA
ATOM     27  H   UNL     1      21.240  10.909  34.783  1.00  0.00     0.293 HD
ENDBRANCH   8  26
TORSDOF 6
ENDMDL
MODEL 7
REMARK VINA RESULT:    -5.184     14.536     16.345
REMARK INTER + INTRA:          -6.540
REMARK INTER:                  -6.215
REMARK INTRA:                  -0.326
REMARK UNBOUND:                -0.296
REMARK SMILES O=c1c(O)c(-c2ccc(O)c(O)c2)oc2cc(O)cc(O)c12
REMARK SMILES IDX 5 1 3 2 2 3 1 4 22 5 20 6 19 7 17 8 16 9 15 10 14 11 6 12
REMARK SMILES IDX 7 13 8 14 9 15 13 16 11 17 10 18 12 20 4 22 21 24 18 26
REMARK H PARENT 10 19 12 21 4 23 21 25 18 27
REMARK Flexibility Score: inf
ROOT
ATOM      1  C   UNL     1      13.959  -4.341  23.908  1.00  0.00     0.180 A 
ATOM      2  C   UNL     1      12.930  -4.764  23.045  1.00  0.00     0.208 A 
ATOM      3  C   UNL     1      12.216  -3.800  22.316  1.00  0.00     0.238 A 
ATOM      4  O   UNL     1      11.285  -4.167  21.549  1.00  0.00    -0.285 OA
ATOM      5  C   UNL     1      12.554  -2.437  22.445  1.00  0.00     0.111 A 
ATOM      6  C   UNL     1      11.887  -1.404  21.743  1.00  0.00     0.134 A 
ATOM      7  C   UNL     1      12.289  -0.072  21.919  1.00  0.00     0.093 A 
ATOM      8  C   UNL     1      13.344   0.246  22.782  1.00  0.00     0.123 A 
ATOM      9  C   UNL     1      14.004  -0.769  23.476  1.00  0.00     0.094 A 
ATOM     10  C   UNL     1      13.618  -2.103  23.316  1.00  0.00     0.146 A 
ATOM     11  O   UNL     1      14.259  -3.048  23.993  1.00  0.00    -0.452 OA
ENDROOT
BRANCH   1  12
ATOM     12  C   UNL     1      14.743  -5.294  24.724  1.00  0.00     0.025 A 
ATOM     13  C   UNL     1      15.911  -5.898  24.227  1.00  0.00     0.016 A 
ATOM     14  C   UNL     1      16.621  -6.813  25.008  1.00  0.00     0.051 A 
ATOM     15  C   UNL     1      16.170  -7.149  26.291  1.00  0.00     0.157 A 
ATOM     16  C   UNL     1      14.283  -5.650  26.003  1.00  0.00     0.062 A 
ATOM     17  C   UNL     1      14.992  -6.566  26.789  1.00  0.00     0.158 A 
BRANCH  15  18
ATOM     18  O   UNL     1      16.882  -8.061  27.068  1.00  0.00    -0.504 OA
ATOM     19  H   UNL     1      16.413  -8.793  27.589  1.00  0.00     0.293 HD
ENDBRANCH  15  18
BRANCH  17  20
ATOM     20  O   UNL     1      14.512  -6.884  28.059  1.00  0.00    -0.504 OA
ATOM     21  H   UNL     1      13.950  -7.710  28.231  1.00  0.00     0.293 HD
ENDBRANCH  17  20
ENDBRANCH   1  12
BRANCH   2  22
ATOM     22  O   UNL     1      12.647  -6.125  22.898  1.00  0.00    -0.502 OA
ATOM     23  H   UNL     1      13.177  -6.724  22.277  1.00  0.00     0.293 HD
ENDBRANCH   2  22
BRANCH   6  24
ATOM     24  O   UNL     1      10.832  -1.690  20.875  1.00  0.00    -0.507 OA
ATOM     25  H   UNL     1      10.888  -2.442  20.199  1.00  0.00     0.293 HD
ENDBRANCH   6  24
BRANCH   8  26
ATOM     26  O   UNL     1      13.745   1.570  22.956  1.00  0.00    -0.508 OA
ATOM     27  H   UNL     1      14.285   2.056  22.251  1.00  0.00     0.293 HD
ENDBRANCH   8  26
TORSDOF 6
ENDMDL
MODEL 8
REMARK VINA RESULT:    -5.133     11.830     12.651
REMARK INTER + INTRA:          -6.478
REMARK INTER:                  -6.305
REMARK INTRA:                  -0.174
REMARK UNBOUND:                -0.296
REMARK SMILES O=c1c(O)c(-c2ccc(O)c(O)c2)oc2cc(O)cc(O)c12
REMARK SMILES IDX 5 1 3 2 2 3 1 4 22 5 20 6 19 7 17 8 16 9 15 10 14 11 6 12
REMARK SMILES IDX 7 13 8 14 9 15 13 16 11 17 10 18 12 20 4 22 21 24 18 26
REMARK H PARENT 10 19 12 21 4 23 21 25 18 27
REMARK Flexibility Score: inf
ROOT
ATOM      1  C   UNL     1      11.299   6.379  24.568  1.00  0.00     0.180 A 
ATOM      2  C   UNL     1      11.696   5.596  23.467  1.00  0.00     0.208 A 
ATOM      3  C   UNL     1      12.677   6.097  22.597  1.00  0.00     0.238 A 
ATOM      4  O   UNL     1      13.032   5.409  21.601  1.00  0.00    -0.285 OA
ATOM      5  C   UNL     1      13.256   7.357  22.850  1.00  0.00     0.111 A 
ATOM      6  C   UNL     1      14.253   7.932  22.024  1.00  0.00     0.134 A 
ATOM      7  C   UNL     1      14.786   9.187  22.350  1.00  0.00     0.093 A 
ATOM      8  C   UNL     1      14.343   9.878  23.484  1.00  0.00     0.123 A 
ATOM      9  C   UNL     1      13.361   9.316  24.301  1.00  0.00     0.094 A 
ATOM     10  C   UNL     1      12.815   8.066  23.993  1.00  0.00     0.146 A 
ATOM     11  O   UNL     1      11.878   7.557  24.783  1.00  0.00    -0.452 OA
ENDROOT
BRANCH   1  12
ATOM     12  C   UNL     1      10.258   5.929  25.519  1.00  0.00     0.025 A 
ATOM     13  C   UNL     1      10.454   4.808  26.344  1.00  0.00     0.016 A 
ATOM     14  C   UNL     1       9.448   4.389  27.217  1.00  0.00     0.051 A 
ATOM     15  C   UNL     1       8.226   5.072  27.269  1.00  0.00     0.157 A 
ATOM     16  C   UNL     1       9.024   6.599  25.560  1.00  0.00     0.062 A 
ATOM     17  C   UNL     1       8.013   6.181  26.433  1.00  0.00     0.158 A 
BRANCH  15  18
ATOM     18  O   UNL     1       7.224   4.652  28.143  1.00  0.00    -0.504 OA
ATOM     19  H   UNL     1       7.117   5.062  29.064  1.00  0.00     0.293 HD
ENDBRANCH  15  18
BRANCH  17  20
ATOM     20  O   UNL     1       6.806   6.879  26.456  1.00  0.00    -0.504 OA
ATOM     21  H   UNL     1       5.925   6.424  26.665  1.00  0.00     0.293 HD
ENDBRANCH  17  20
ENDBRANCH   1  12
BRANCH   2  22
ATOM     22  O   UNL     1      11.142   4.329  23.266  1.00  0.00    -0.502 OA
ATOM     23  H   UNL     1      11.592   3.625  22.692  1.00  0.00     0.293 HD
ENDBRANCH   2  22
BRANCH   6  24
ATOM     24  O   UNL     1      14.715   7.267  20.888  1.00  0.00    -0.507 OA
ATOM     25  H   UNL     1      14.460   6.306  20.692  1.00  0.00     0.293 HD
ENDBRANCH   6  24
BRANCH   8  26
ATOM     26  O   UNL     1      14.875  11.125  23.808  1.00  0.00    -0.508 OA
ATOM     27  H   UNL     1      15.811  11.220  24.183  1.00  0.00     0.293 HD
ENDBRANCH   8  26
TORSDOF 6
ENDMDL
MODEL 9
REMARK VINA RESULT:    -5.093     15.677     17.522
REMARK INTER + INTRA:          -6.431
REMARK INTER:                  -6.121
REMARK INTRA:                  -0.310
REMARK UNBOUND:                -0.296
REMARK SMILES O=c1c(O)c(-c2ccc(O)c(O)c2)oc2cc(O)cc(O)c12
REMARK SMILES IDX 5 1 3 2 2 3 1 4 22 5 20 6 19 7 17 8 16 9 15 10 14 11 6 12
REMARK SMILES IDX 7 13 8 14 9 15 13 16 11 17 10 18 12 20 4 22 21 24 18 26
REMARK H PARENT 10 19 12 21 4 23 21 25 18 27
REMARK Flexibility Score: inf
ROOT
ATOM      1  C   UNL     1      13.556  -4.501  23.647  1.00  0.00     0.180 A 
ATOM      2  C   UNL     1      13.924  -3.175  23.348  1.00  0.00     0.208 A 
ATOM      3  C   UNL     1      13.064  -2.393  22.562  1.00  0.00     0.238 A 
ATOM      4  O   UNL     1      13.389  -1.208  22.280  1.00  0.00    -0.285 OA
ATOM      5  C   UNL     1      11.847  -2.939  22.107  1.00  0.00     0.111 A 
ATOM      6  C   UNL     1      10.923  -2.216  21.314  1.00  0.00     0.134 A 
ATOM      7  C   UNL     1       9.728  -2.828  20.907  1.00  0.00     0.093 A 
ATOM      8  C   UNL     1       9.439  -4.146  21.278  1.00  0.00     0.123 A 
ATOM      9  C   UNL     1      10.347  -4.862  22.060  1.00  0.00     0.094 A 
ATOM     10  C   UNL     1      11.545  -4.271  22.474  1.00  0.00     0.146 A 
ATOM     11  O   UNL     1      12.393  -4.977  23.212  1.00  0.00    -0.452 OA
ENDROOT
BRANCH   1  12
ATOM     12  C   UNL     1      14.418  -5.395  24.453  1.00  0.00     0.025 A 
ATOM     13  C   UNL     1      15.529  -6.046  23.888  1.00  0.00     0.016 A 
ATOM     14  C   UNL     1      16.314  -6.904  24.663  1.00  0.00     0.051 A 
ATOM     15  C   UNL     1      15.995  -7.134  26.007  1.00  0.00     0.157 A 
ATOM     16  C   UNL     1      14.090  -5.645  25.796  1.00  0.00     0.062 A 
ATOM     17  C   UNL     1      14.875  -6.503  26.575  1.00  0.00     0.158 A 
BRANCH  15  18
ATOM     18  O   UNL     1      16.782  -7.989  26.779  1.00  0.00    -0.504 OA
ATOM     19  H   UNL     1      17.658  -8.361  26.430  1.00  0.00     0.293 HD
ENDBRANCH  15  18
BRANCH  17  20
ATOM     20  O   UNL     1      14.526  -6.716  27.908  1.00  0.00    -0.504 OA
ATOM     21  H   UNL     1      14.436  -7.647  28.299  1.00  0.00     0.293 HD
ENDBRANCH  17  20
ENDBRANCH   1  12
BRANCH   2  22
ATOM     22  O   UNL     1      15.113  -2.642  23.854  1.00  0.00    -0.502 OA
ATOM     23  H   UNL     1      15.715  -3.159  24.483  1.00  0.00     0.293 HD
ENDBRANCH   2  22
BRANCH   6  24
ATOM     24  O   UNL     1      11.181  -0.900  20.929  1.00  0.00    -0.507 OA
ATOM     25  H   UNL     1      12.073  -0.626  20.535  1.00  0.00     0.293 HD
ENDBRANCH   6  24
BRANCH   8  26
ATOM     26  O   UNL     1       8.251  -4.753  20.876  1.00  0.00    -0.508 OA
ATOM     27  H   UNL     1       7.924  -4.694  19.919  1.00  0.00     0.293 HD
ENDBRANCH   8  26
TORSDOF 6
ENDMDL
