MODEL 1
REMARK VINA RESULT:    -5.461      0.000      0.000
REMARK INTER + INTRA:         -10.271
REMARK INTER:                  -9.292
REMARK INTRA:                  -0.979
REMARK UNBOUND:                -0.979
REMARK SMILES CCCCCCCCCCCCCC(=O)[O-]
REMARK SMILES IDX 8 1 9 2 10 3 11 4 12 5 13 6 14 7 15 8 16 9 7 10 6 11 5 12
REMARK SMILES IDX 4 13 3 14 2 15 1 16
REMARK H PARENT
REMARK Flexibility Score: inf
ROOT
ATOM      1  C   UNL     1       5.082 -35.327  20.189  1.00  0.00     0.000 C 
ENDROOT
BRANCH   1   2
ATOM      2  C   UNL     1       4.332 -34.073  20.674  1.00  0.00     0.000 C 
BRANCH   2   3
ATOM      3  C   UNL     1       4.285 -33.890  22.204  1.00  0.00     0.000 C 
BRANCH   3   4
ATOM      4  C   UNL     1       5.653 -33.705  22.884  1.00  0.00     0.000 C 
BRANCH   4   5
ATOM      5  C   UNL     1       5.870 -34.669  24.062  1.00  0.00     0.006 C 
BRANCH   5   6
ATOM      6  C   UNL     1       6.078 -36.117  23.594  1.00  0.00     0.053 C 
BRANCH   6   7
ATOM      7  C   UNL     1       5.037 -37.038  24.150  1.00  0.00     0.041 C 
ATOM      8  O   UNL     1       4.627 -38.015  23.470  1.00  0.00    -0.550 OA
ATOM      9  O   UNL     1       4.538 -36.835  25.431  1.00  0.00    -0.550 OA
ENDBRANCH   6   7
ENDBRANCH   5   6
ENDBRANCH   4   5
ENDBRANCH   3   4
ENDBRANCH   2   3
ENDBRANCH   1   2
BRANCH   1  10
ATOM     10  C   UNL     1       4.205 -36.588  20.199  1.00  0.00     0.000 C 
BRANCH  10  11
ATOM     11  C   UNL     1       3.939 -37.081  18.769  1.00  0.00    -0.000 C 
BRANCH  11  12
ATOM     12  C   UNL     1       2.455 -37.392  18.519  1.00  0.00    -0.000 C 
BRANCH  12  13
ATOM     13  C   UNL     1       1.938 -36.788  17.201  1.00  0.00    -0.000 C 
BRANCH  13  14
ATOM     14  C   UNL     1       3.062 -36.183  16.342  1.00  0.00    -0.000 C 
BRANCH  14  15
ATOM     15  C   UNL     1       2.933 -36.452  14.832  1.00  0.00    -0.003 C 
ATOM     16  C   UNL     1       3.872 -37.551  14.336  1.00  0.00     0.004 C 
ENDBRANCH  14  15
ENDBRANCH  13  14
ENDBRANCH  12  13
ENDBRANCH  11  12
ENDBRANCH  10  11
ENDBRANCH   1  10
TORSDOF 12
ENDMDL
MODEL 2
REMARK VINA RESULT:    -5.425      2.736      6.379
REMARK INTER + INTRA:         -10.210
REMARK INTER:                  -8.848
REMARK INTRA:                  -1.362
REMARK UNBOUND:                -0.979
REMARK SMILES CCCCCCCCCCCCCC(=O)[O-]
REMARK SMILES IDX 8 1 9 2 10 3 11 4 12 5 13 6 14 7 15 8 16 9 7 10 6 11 5 12
REMARK SMILES IDX 4 13 3 14 2 15 1 16
REMARK H PARENT
REMARK Flexibility Score: inf
ROOT
ATOM      1  C   UNL     1       4.294 -34.067  22.264  1.00  0.00     0.000 C 
ENDROOT
BRANCH   1   2
ATOM      2  C   UNL     1       4.052 -33.661  20.799  1.00  0.00     0.000 C 
BRANCH   2   3
ATOM      3  C   UNL     1       4.927 -34.397  19.764  1.00  0.00     0.000 C 
BRANCH   3   4
ATOM      4  C   UNL     1       5.175 -35.888  20.060  1.00  0.00     0.000 C 
BRANCH   4   5
ATOM      5  C   UNL     1       4.038 -36.793  19.554  1.00  0.00     0.006 C 
BRANCH   5   6
ATOM      6  C   UNL     1       3.503 -36.341  18.187  1.00  0.00     0.053 C 
BRANCH   6   7
ATOM      7  C   UNL     1       2.275 -37.100  17.791  1.00  0.00     0.041 C 
ATOM      8  O   UNL     1       1.638 -37.767  18.648  1.00  0.00    -0.550 OA
ATOM      9  O   UNL     1       1.816 -37.049  16.481  1.00  0.00    -0.550 OA
ENDBRANCH   6   7
ENDBRANCH   5   6
ENDBRANCH   4   5
ENDBRANCH   3   4
ENDBRANCH   2   3
ENDBRANCH   1   2
BRANCH   1  10
ATOM     10  C   UNL     1       5.492 -33.343  22.895  1.00  0.00     0.000 C 
BRANCH  10  11
ATOM     11  C   UNL     1       6.124 -34.194  24.006  1.00  0.00    -0.000 C 
BRANCH  11  12
ATOM     12  C   UNL     1       6.031 -35.701  23.721  1.00  0.00    -0.000 C 
BRANCH  12  13
ATOM     13  C   UNL     1       5.469 -36.495  24.913  1.00  0.00    -0.000 C 
BRANCH  13  14
ATOM     14  C   UNL     1       4.612 -37.697  24.478  1.00  0.00    -0.000 C 
BRANCH  14  15
ATOM     15  C   UNL     1       4.688 -38.032  22.978  1.00  0.00    -0.003 C 
ATOM     16  C   UNL     1       4.976 -39.508  22.708  1.00  0.00     0.004 C 
ENDBRANCH  14  15
ENDBRANCH  13  14
ENDBRANCH  12  13
ENDBRANCH  11  12
ENDBRANCH  10  11
ENDBRANCH   1  10
TORSDOF 12
ENDMDL
MODEL 3
REMARK VINA RESULT:    -5.411      3.257      6.713
REMARK INTER + INTRA:         -10.185
REMARK INTER:                  -9.005
REMARK INTRA:                  -1.180
REMARK UNBOUND:                -0.979
REMARK SMILES CCCCCCCCCCCCCC(=O)[O-]
REMARK SMILES IDX 8 1 9 2 10 3 11 4 12 5 13 6 14 7 15 8 16 9 7 10 6 11 5 12
REMARK SMILES IDX 4 13 3 14 2 15 1 16
REMARK H PARENT
REMARK Flexibility Score: inf
ROOT
ATOM      1  C   UNL     1       4.378 -34.069  22.174  1.00  0.00     0.000 C 
ENDROOT
BRANCH   1   2
ATOM      2  C   UNL     1       4.582 -34.401  20.685  1.00  0.00     0.000 C 
BRANCH   2   3
ATOM      3  C   UNL     1       5.489 -35.616  20.404  1.00  0.00     0.000 C 
BRANCH   3   4
ATOM      4  C   UNL     1       4.845 -36.732  19.563  1.00  0.00     0.000 C 
BRANCH   4   5
ATOM      5  C   UNL     1       3.545 -36.284  18.872  1.00  0.00     0.006 C 
BRANCH   5   6
ATOM      6  C   UNL     1       2.905 -37.415  18.053  1.00  0.00     0.053 C 
BRANCH   6   7
ATOM      7  C   UNL     1       2.746 -37.038  16.613  1.00  0.00     0.041 C 
ATOM      8  O   UNL     1       3.285 -37.734  15.712  1.00  0.00    -0.550 OA
ATOM      9  O   UNL     1       1.977 -35.935  16.262  1.00  0.00    -0.550 OA
ENDBRANCH   6   7
ENDBRANCH   5   6
ENDBRANCH   4   5
ENDBRANCH   3   4
ENDBRANCH   2   3
ENDBRANCH   1   2
BRANCH   1  10
ATOM     10  C   UNL     1       5.628 -33.463  22.828  1.00  0.00     0.000 C 
BRANCH  10  11
ATOM     11  C   UNL     1       5.993 -34.215  24.117  1.00  0.00    -0.000 C 
BRANCH  11  12
ATOM     12  C   UNL     1       6.016 -35.740  23.924  1.00  0.00    -0.000 C 
BRANCH  12  13
ATOM     13  C   UNL     1       5.239 -36.486  25.022  1.00  0.00    -0.000 C 
BRANCH  13  14
ATOM     14  C   UNL     1       4.602 -37.793  24.518  1.00  0.00    -0.000 C 
BRANCH  14  15
ATOM     15  C   UNL     1       4.670 -37.996  22.994  1.00  0.00    -0.003 C 
ATOM     16  C   UNL     1       4.991 -39.436  22.595  1.00  0.00     0.004 C 
ENDBRANCH  14  15
ENDBRANCH  13  14
ENDBRANCH  12  13
ENDBRANCH  11  12
ENDBRANCH  10  11
ENDBRANCH   1  10
TORSDOF 12
ENDMDL
MODEL 4
REMARK VINA RESULT:    -5.350      3.487      7.090
REMARK INTER + INTRA:         -10.081
REMARK INTER:                  -8.837
REMARK INTRA:                  -1.244
REMARK UNBOUND:                -0.979
REMARK SMILES CCCCCCCCCCCCCC(=O)[O-]
REMARK SMILES IDX 8 1 9 2 10 3 11 4 12 5 13 6 14 7 15 8 16 9 7 10 6 11 5 12
REMARK SMILES IDX 4 13 3 14 2 15 1 16
REMARK H PARENT
REMARK Flexibility Score: inf
ROOT
ATOM      1  C   UNL     1       4.399 -33.944  20.851  1.00  0.00     0.000 C 
ENDROOT
BRANCH   1   2
ATOM      2  C   UNL     1       5.574 -34.800  20.345  1.00  0.00     0.000 C 
BRANCH   2   3
ATOM      3  C   UNL     1       5.171 -36.119  19.654  1.00  0.00     0.000 C 
BRANCH   3   4
ATOM      4  C   UNL     1       3.656 -36.344  19.505  1.00  0.00     0.000 C 
BRANCH   4   5
ATOM      5  C   UNL     1       3.285 -37.064  18.198  1.00  0.00     0.006 C 
BRANCH   5   6
ATOM      6  C   UNL     1       3.433 -36.152  16.972  1.00  0.00     0.053 C 
BRANCH   6   7
ATOM      7  C   UNL     1       2.843 -36.770  15.742  1.00  0.00     0.041 C 
ATOM      8  O   UNL     1       1.686 -36.448  15.364  1.00  0.00    -0.550 OA
ATOM      9  O   UNL     1       3.581 -37.681  14.997  1.00  0.00    -0.550 OA
ENDBRANCH   6   7
ENDBRANCH   5   6
ENDBRANCH   4   5
ENDBRANCH   3   4
ENDBRANCH   2   3
ENDBRANCH   1   2
BRANCH   1  10
ATOM     10  C   UNL     1       4.352 -33.838  22.382  1.00  0.00     0.000 C 
BRANCH  10  11
ATOM     11  C   UNL     1       5.741 -33.518  22.953  1.00  0.00    -0.000 C 
BRANCH  11  12
ATOM     12  C   UNL     1       6.078 -34.362  24.193  1.00  0.00    -0.000 C 
BRANCH  12  13
ATOM     13  C   UNL     1       6.058 -35.873  23.903  1.00  0.00    -0.000 C 
BRANCH  13  14
ATOM     14  C   UNL     1       5.093 -36.643  24.821  1.00  0.00    -0.000 C 
BRANCH  14  15
ATOM     15  C   UNL     1       4.585 -37.977  24.245  1.00  0.00    -0.003 C 
ATOM     16  C   UNL     1       4.633 -38.029  22.719  1.00  0.00     0.004 C 
ENDBRANCH  14  15
ENDBRANCH  13  14
ENDBRANCH  12  13
ENDBRANCH  11  12
ENDBRANCH  10  11
ENDBRANCH   1  10
TORSDOF 12
ENDMDL
MODEL 5
REMARK VINA RESULT:    -5.273      1.142      2.147
REMARK INTER + INTRA:          -9.950
REMARK INTER:                  -8.659
REMARK INTRA:                  -1.291
REMARK UNBOUND:                -0.979
REMARK SMILES CCCCCCCCCCCCCC(=O)[O-]
REMARK SMILES IDX 8 1 9 2 10 3 11 4 12 5 13 6 14 7 15 8 16 9 7 10 6 11 5 12
REMARK SMILES IDX 4 13 3 14 2 15 1 16
REMARK H PARENT
REMARK Flexibility Score: inf
ROOT
ATOM      1  C   UNL     1       4.428 -34.007  21.059  1.00  0.00     0.000 C 
ENDROOT
BRANCH   1   2
ATOM      2  C   UNL     1       4.631 -33.503  22.499  1.00  0.00     0.000 C 
BRANCH   2   3
ATOM      3  C   UNL     1       5.951 -33.940  23.166  1.00  0.00     0.000 C 
BRANCH   3   4
ATOM      4  C   UNL     1       5.803 -34.989  24.283  1.00  0.00     0.000 C 
BRANCH   4   5
ATOM      5  C   UNL     1       6.044 -36.425  23.788  1.00  0.00     0.006 C 
BRANCH   5   6
ATOM      6  C   UNL     1       4.757 -37.083  23.271  1.00  0.00     0.053 C 
BRANCH   6   7
ATOM      7  C   UNL     1       4.997 -38.483  22.798  1.00  0.00     0.041 C 
ATOM      8  O   UNL     1       4.898 -39.449  23.600  1.00  0.00    -0.550 OA
ATOM      9  O   UNL     1       5.303 -38.726  21.465  1.00  0.00    -0.550 OA
ENDBRANCH   6   7
ENDBRANCH   5   6
ENDBRANCH   4   5
ENDBRANCH   3   4
ENDBRANCH   2   3
ENDBRANCH   1   2
BRANCH   1  10
ATOM     10  C   UNL     1       5.691 -34.650  20.468  1.00  0.00     0.000 C 
BRANCH  10  11
ATOM     11  C   UNL     1       5.328 -35.790  19.505  1.00  0.00    -0.000 C 
BRANCH  11  12
ATOM     12  C   UNL     1       3.827 -36.120  19.521  1.00  0.00    -0.000 C 
BRANCH  12  13
ATOM     13  C   UNL     1       3.487 -37.366  18.685  1.00  0.00    -0.000 C 
BRANCH  13  14
ATOM     14  C   UNL     1       2.535 -37.059  17.516  1.00  0.00    -0.000 C 
BRANCH  14  15
ATOM     15  C   UNL     1       3.100 -36.090  16.463  1.00  0.00    -0.003 C 
ATOM     16  C   UNL     1       2.731 -36.477  15.032  1.00  0.00     0.004 C 
ENDBRANCH  14  15
ENDBRANCH  13  14
ENDBRANCH  12  13
ENDBRANCH  11  12
ENDBRANCH  10  11
ENDBRANCH   1  10
TORSDOF 12
ENDMDL
MODEL 6
REMARK VINA RESULT:    -5.181      3.382      6.600
REMARK INTER + INTRA:          -9.794
REMARK INTER:                  -8.232
REMARK INTRA:                  -1.562
REMARK UNBOUND:                -0.979
REMARK SMILES CCCCCCCCCCCCCC(=O)[O-]
REMARK SMILES IDX 8 1 9 2 10 3 11 4 12 5 13 6 14 7 15 8 16 9 7 10 6 11 5 12
REMARK SMILES IDX 4 13 3 14 2 15 1 16
REMARK H PARENT
REMARK Flexibility Score: inf
ROOT
ATOM      1  C   UNL     1       4.645 -38.053  23.217  1.00  0.00     0.000 C 
ENDROOT
BRANCH   1   2
ATOM      2  C   UNL     1       4.962 -37.577  21.788  1.00  0.00     0.000 C 
BRANCH   2   3
ATOM      3  C   UNL     1       3.934 -37.993  20.717  1.00  0.00     0.000 C 
BRANCH   3   4
ATOM      4  C   UNL     1       4.255 -37.527  19.286  1.00  0.00     0.000 C 
BRANCH   4   5
ATOM      5  C   UNL     1       3.056 -36.853  18.595  1.00  0.00     0.006 C 
BRANCH   5   6
ATOM      6  C   UNL     1       3.461 -36.145  17.294  1.00  0.00     0.053 C 
BRANCH   6   7
ATOM      7  C   UNL     1       2.798 -36.754  16.098  1.00  0.00     0.041 C 
ATOM      8  O   UNL     1       1.616 -36.440  15.800  1.00  0.00    -0.550 OA
ATOM      9  O   UNL     1       3.495 -37.648  15.294  1.00  0.00    -0.550 OA
ENDBRANCH   6   7
ENDBRANCH   5   6
ENDBRANCH   4   5
ENDBRANCH   3   4
ENDBRANCH   2   3
ENDBRANCH   1   2
BRANCH   1  10
ATOM     10  C   UNL     1       5.106 -37.060  24.294  1.00  0.00     0.000 C 
BRANCH  10  11
ATOM     11  C   UNL     1       6.111 -36.052  23.717  1.00  0.00    -0.000 C 
BRANCH  11  12
ATOM     12  C   UNL     1       5.783 -34.602  24.106  1.00  0.00    -0.000 C 
BRANCH  12  13
ATOM     13  C   UNL     1       5.630 -33.682  22.883  1.00  0.00    -0.000 C 
BRANCH  13  14
ATOM     14  C   UNL     1       4.277 -33.855  22.172  1.00  0.00    -0.000 C 
BRANCH  14  15
ATOM     15  C   UNL     1       4.370 -34.040  20.647  1.00  0.00    -0.003 C 
ATOM     16  C   UNL     1       5.769 -34.436  20.176  1.00  0.00     0.004 C 
ENDBRANCH  14  15
ENDBRANCH  13  14
ENDBRANCH  12  13
ENDBRANCH  11  12
ENDBRANCH  10  11
ENDBRANCH   1  10
TORSDOF 12
ENDMDL
MODEL 7
REMARK VINA RESULT:    -5.174      2.200      3.265
REMARK INTER + INTRA:          -9.782
REMARK INTER:                  -8.597
REMARK INTRA:                  -1.185
REMARK UNBOUND:                -0.979
REMARK SMILES CCCCCCCCCCCCCC(=O)[O-]
REMARK SMILES IDX 8 1 9 2 10 3 11 4 12 5 13 6 14 7 15 8 16 9 7 10 6 11 5 12
REMARK SMILES IDX 4 13 3 14 2 15 1 16
REMARK H PARENT
REMARK Flexibility Score: inf
ROOT
ATOM      1  C   UNL     1       4.300 -38.378  22.074  1.00  0.00     0.000 C 
ENDROOT
BRANCH   1   2
ATOM      2  C   UNL     1       4.839 -38.421  23.515  1.00  0.00     0.000 C 
BRANCH   2   3
ATOM      3  C   UNL     1       4.818 -37.071  24.261  1.00  0.00     0.000 C 
BRANCH   3   4
ATOM      4  C   UNL     1       5.975 -36.116  23.917  1.00  0.00     0.000 C 
BRANCH   4   5
ATOM      5  C   UNL     1       5.493 -34.787  23.311  1.00  0.00     0.006 C 
BRANCH   5   6
ATOM      6  C   UNL     1       5.798 -34.692  21.809  1.00  0.00     0.053 C 
BRANCH   6   7
ATOM      7  C   UNL     1       4.671 -34.063  21.049  1.00  0.00     0.041 C 
ATOM      8  O   UNL     1       3.654 -33.642  21.659  1.00  0.00    -0.550 OA
ATOM      9  O   UNL     1       4.756 -33.916  19.670  1.00  0.00    -0.550 OA
ENDBRANCH   6   7
ENDBRANCH   5   6
ENDBRANCH   4   5
ENDBRANCH   3   4
ENDBRANCH   2   3
ENDBRANCH   1   2
BRANCH   1  10
ATOM     10  C   UNL     1       5.414 -38.406  21.018  1.00  0.00     0.000 C 
BRANCH  10  11
ATOM     11  C   UNL     1       4.994 -37.637  19.757  1.00  0.00    -0.000 C 
BRANCH  11  12
ATOM     12  C   UNL     1       3.518 -37.210  19.789  1.00  0.00    -0.000 C 
BRANCH  12  13
ATOM     13  C   UNL     1       2.793 -37.490  18.461  1.00  0.00    -0.000 C 
BRANCH  13  14
ATOM     14  C   UNL     1       3.137 -36.465  17.366  1.00  0.00    -0.000 C 
BRANCH  14  15
ATOM     15  C   UNL     1       2.241 -36.532  16.117  1.00  0.00    -0.003 C 
ATOM     16  C   UNL     1       3.034 -36.577  14.811  1.00  0.00     0.004 C 
ENDBRANCH  14  15
ENDBRANCH  13  14
ENDBRANCH  12  13
ENDBRANCH  11  12
ENDBRANCH  10  11
ENDBRANCH   1  10
TORSDOF 12
ENDMDL
MODEL 8
REMARK VINA RESULT:    -4.541      2.973      5.385
REMARK INTER + INTRA:          -8.704
REMARK INTER:                  -7.676
REMARK INTRA:                  -1.028
REMARK UNBOUND:                -0.979
REMARK SMILES CCCCCCCCCCCCCC(=O)[O-]
REMARK SMILES IDX 8 1 9 2 10 3 11 4 12 5 13 6 14 7 15 8 16 9 7 10 6 11 5 12
REMARK SMILES IDX 4 13 3 14 2 15 1 16
REMARK H PARENT
REMARK Flexibility Score: inf
ROOT
ATOM      1  C   UNL     1       4.723 -36.538  23.548  1.00  0.00     0.000 C 
ENDROOT
BRANCH   1   2
ATOM      2  C   UNL     1       4.873 -38.064  23.415  1.00  0.00     0.000 C 
BRANCH   2   3
ATOM      3  C   UNL     1       4.340 -38.660  22.095  1.00  0.00     0.000 C 
BRANCH   3   4
ATOM      4  C   UNL     1       5.342 -38.661  20.927  1.00  0.00     0.000 C 
BRANCH   4   5
ATOM      5  C   UNL     1       4.903 -37.756  19.763  1.00  0.00     0.006 C 
BRANCH   5   6
ATOM      6  C   UNL     1       3.473 -37.228  19.949  1.00  0.00     0.053 C 
BRANCH   6   7
ATOM      7  C   UNL     1       2.635 -37.445  18.728  1.00  0.00     0.041 C 
ATOM      8  O   UNL     1       1.391 -37.607  18.833  1.00  0.00    -0.550 OA
ATOM      9  O   UNL     1       3.223 -37.438  17.469  1.00  0.00    -0.550 OA
ENDBRANCH   6   7
ENDBRANCH   5   6
ENDBRANCH   4   5
ENDBRANCH   3   4
ENDBRANCH   2   3
ENDBRANCH   1   2
BRANCH   1  10
ATOM     10  C   UNL     1       5.932 -35.769  22.997  1.00  0.00     0.000 C 
BRANCH  10  11
ATOM     11  C   UNL     1       5.781 -34.260  23.241  1.00  0.00    -0.000 C 
BRANCH  11  12
ATOM     12  C   UNL     1       4.580 -33.659  22.494  1.00  0.00    -0.000 C 
BRANCH  12  13
ATOM     13  C   UNL     1       4.579 -34.010  20.996  1.00  0.00    -0.000 C 
BRANCH  13  14
ATOM     14  C   UNL     1       5.985 -34.331  20.458  1.00  0.00    -0.000 C 
BRANCH  14  15
ATOM     15  C   UNL     1       6.105 -34.320  18.924  1.00  0.00    -0.003 C 
ATOM     16  C   UNL     1       4.751 -34.291  18.217  1.00  0.00     0.004 C 
ENDBRANCH  14  15
ENDBRANCH  13  14
ENDBRANCH  12  13
ENDBRANCH  11  12
ENDBRANCH  10  11
ENDBRANCH   1  10
TORSDOF 12
ENDMDL
MODEL 9
REMARK VINA RESULT:    -4.387      1.872      2.741
REMARK INTER + INTRA:          -8.442
REMARK INTER:                  -7.794
REMARK INTRA:                  -0.648
REMARK UNBOUND:                -0.979
REMARK SMILES CCCCCCCCCCCCCC(=O)[O-]
REMARK SMILES IDX 8 1 9 2 10 3 11 4 12 5 13 6 14 7 15 8 16 9 7 10 6 11 5 12
REMARK SMILES IDX 4 13 3 14 2 15 1 16
REMARK H PARENT
REMARK Flexibility Score: inf
ROOT
ATOM      1  C   UNL     1       4.373 -37.729  20.116  1.00  0.00     0.000 C 
ENDROOT
BRANCH   1   2
ATOM      2  C   UNL     1       3.952 -37.975  21.576  1.00  0.00     0.000 C 
BRANCH   2   3
ATOM      3  C   UNL     1       5.116 -38.090  22.581  1.00  0.00     0.000 C 
BRANCH   3   4
ATOM      4  C   UNL     1       4.780 -37.663  24.022  1.00  0.00     0.000 C 
BRANCH   4   5
ATOM      5  C   UNL     1       5.287 -36.251  24.359  1.00  0.00     0.006 C 
BRANCH   5   6
ATOM      6  C   UNL     1       5.885 -35.542  23.135  1.00  0.00     0.053 C 
BRANCH   6   7
ATOM      7  C   UNL     1       5.396 -34.132  23.013  1.00  0.00     0.041 C 
ATOM      8  O   UNL     1       4.319 -33.885  22.410  1.00  0.00    -0.550 OA
ATOM      9  O   UNL     1       6.114 -33.093  23.591  1.00  0.00    -0.550 OA
ENDBRANCH   6   7
ENDBRANCH   5   6
ENDBRANCH   4   5
ENDBRANCH   3   4
ENDBRANCH   2   3
ENDBRANCH   1   2
BRANCH   1  10
ATOM     10  C   UNL     1       4.959 -36.328  19.891  1.00  0.00     0.000 C 
BRANCH  10  11
ATOM     11  C   UNL     1       4.020 -35.471  19.030  1.00  0.00    -0.000 C 
BRANCH  11  12
ATOM     12  C   UNL     1       3.839 -36.036  17.612  1.00  0.00    -0.000 C 
BRANCH  12  13
ATOM     13  C   UNL     1       2.496 -36.764  17.432  1.00  0.00    -0.000 C 
BRANCH  13  14
ATOM     14  C   UNL     1       2.060 -36.856  15.959  1.00  0.00    -0.000 C 
BRANCH  14  15
ATOM     15  C   UNL     1       3.103 -36.352  14.946  1.00  0.00    -0.003 C 
ATOM     16  C   UNL     1       3.807 -37.482  14.197  1.00  0.00     0.004 C 
ENDBRANCH  14  15
ENDBRANCH  13  14
ENDBRANCH  12  13
ENDBRANCH  11  12
ENDBRANCH  10  11
ENDBRANCH   1  10
TORSDOF 12
ENDMDL
