MODEL 1
REMARK VINA RESULT:    -3.267      0.000      0.000
REMARK INTER + INTRA:          -7.723
REMARK INTER:                  -5.559
REMARK INTRA:                  -2.164
REMARK UNBOUND:                -2.164
REMARK SMILES CCCCCCCCCCCCCC(=O)[O-]
REMARK SMILES IDX 8 1 9 2 10 3 11 4 12 5 13 6 14 7 15 8 16 9 7 10 6 11 5 12
REMARK SMILES IDX 4 13 3 14 2 15 1 16
REMARK H PARENT
REMARK Flexibility Score: inf
ROOT
ATOM      1  C   UNL     1      -5.454  -0.066  37.662  1.00  0.00     0.000 C 
ENDROOT
BRANCH   1   2
ATOM      2  C   UNL     1      -3.926  -0.222  37.613  1.00  0.00     0.000 C 
BRANCH   2   3
ATOM      3  C   UNL     1      -3.283   0.594  36.478  1.00  0.00     0.000 C 
BRANCH   3   4
ATOM      4  C   UNL     1      -4.297   1.017  35.404  1.00  0.00     0.000 C 
BRANCH   4   5
ATOM      5  C   UNL     1      -4.300   0.071  34.190  1.00  0.00     0.006 C 
BRANCH   5   6
ATOM      6  C   UNL     1      -5.714  -0.402  33.829  1.00  0.00     0.053 C 
BRANCH   6   7
ATOM      7  C   UNL     1      -6.429   0.588  32.959  1.00  0.00     0.041 C 
ATOM      8  O   UNL     1      -7.648   0.837  33.153  1.00  0.00    -0.550 OA
ATOM      9  O   UNL     1      -5.741   1.257  31.955  1.00  0.00    -0.550 OA
ENDBRANCH   6   7
ENDBRANCH   5   6
ENDBRANCH   4   5
ENDBRANCH   3   4
ENDBRANCH   2   3
ENDBRANCH   1   2
BRANCH   1  10
ATOM     10  C   UNL     1      -6.192  -1.392  37.421  1.00  0.00     0.000 C 
BRANCH  10  11
ATOM     11  C   UNL     1      -5.197  -2.552  37.262  1.00  0.00    -0.000 C 
BRANCH  11  12
ATOM     12  C   UNL     1      -5.400  -3.333  35.954  1.00  0.00    -0.000 C 
BRANCH  12  13
ATOM     13  C   UNL     1      -4.082  -3.558  35.191  1.00  0.00    -0.000 C 
BRANCH  13  14
ATOM     14  C   UNL     1      -2.849  -3.464  36.104  1.00  0.00    -0.000 C 
BRANCH  14  15
ATOM     15  C   UNL     1      -1.722  -2.617  35.493  1.00  0.00    -0.003 C 
ATOM     16  C   UNL     1      -0.519  -2.547  36.429  1.00  0.00     0.004 C 
ENDBRANCH  14  15
ENDBRANCH  13  14
ENDBRANCH  12  13
ENDBRANCH  11  12
ENDBRANCH  10  11
ENDBRANCH   1  10
TORSDOF 12
ENDMDL
MODEL 2
REMARK VINA RESULT:    -3.211      3.440      5.508
REMARK INTER + INTRA:          -7.627
REMARK INTER:                  -5.514
REMARK INTRA:                  -2.113
REMARK UNBOUND:                -2.164
REMARK SMILES CCCCCCCCCCCCCC(=O)[O-]
REMARK SMILES IDX 8 1 9 2 10 3 11 4 12 5 13 6 14 7 15 8 16 9 7 10 6 11 5 12
REMARK SMILES IDX 4 13 3 14 2 15 1 16
REMARK H PARENT
REMARK Flexibility Score: inf
ROOT
ATOM      1  C   UNL     1      -5.424  -3.362  35.682  1.00  0.00     0.000 C 
ENDROOT
BRANCH   1   2
ATOM      2  C   UNL     1      -3.909  -3.575  35.526  1.00  0.00     0.000 C 
BRANCH   2   3
ATOM      3  C   UNL     1      -3.339  -2.881  34.276  1.00  0.00     0.000 C 
BRANCH   3   4
ATOM      4  C   UNL     1      -2.082  -2.052  34.580  1.00  0.00     0.000 C 
BRANCH   4   5
ATOM      5  C   UNL     1      -1.311  -2.575  35.805  1.00  0.00     0.006 C 
BRANCH   5   6
ATOM      6  C   UNL     1      -0.410  -1.500  36.424  1.00  0.00     0.053 C 
BRANCH   6   7
ATOM      7  C   UNL     1       1.029  -1.697  36.056  1.00  0.00     0.041 C 
ATOM      8  O   UNL     1       1.382  -2.715  35.403  1.00  0.00    -0.550 OA
ATOM      9  O   UNL     1       1.975  -0.742  36.406  1.00  0.00    -0.550 OA
ENDBRANCH   6   7
ENDBRANCH   5   6
ENDBRANCH   4   5
ENDBRANCH   3   4
ENDBRANCH   2   3
ENDBRANCH   1   2
BRANCH   1  10
ATOM     10  C   UNL     1      -5.777  -2.495  36.900  1.00  0.00     0.000 C 
BRANCH  10  11
ATOM     11  C   UNL     1      -4.508  -2.043  37.637  1.00  0.00    -0.000 C 
BRANCH  11  12
ATOM     12  C   UNL     1      -4.333  -0.515  37.639  1.00  0.00    -0.000 C 
BRANCH  12  13
ATOM     13  C   UNL     1      -5.098   0.167  36.491  1.00  0.00    -0.000 C 
BRANCH  13  14
ATOM     14  C   UNL     1      -4.166   0.651  35.368  1.00  0.00    -0.000 C 
BRANCH  14  15
ATOM     15  C   UNL     1      -4.882   0.772  34.014  1.00  0.00    -0.003 C 
ATOM     16  C   UNL     1      -5.991  -0.267  33.885  1.00  0.00     0.004 C 
ENDBRANCH  14  15
ENDBRANCH  13  14
ENDBRANCH  12  13
ENDBRANCH  11  12
ENDBRANCH  10  11
ENDBRANCH   1  10
TORSDOF 12
ENDMDL
MODEL 3
REMARK VINA RESULT:    -3.170      2.916      5.299
REMARK INTER + INTRA:          -7.558
REMARK INTER:                  -5.552
REMARK INTRA:                  -2.006
REMARK UNBOUND:                -2.164
REMARK SMILES CCCCCCCCCCCCCC(=O)[O-]
REMARK SMILES IDX 8 1 9 2 10 3 11 4 12 5 13 6 14 7 15 8 16 9 7 10 6 11 5 12
REMARK SMILES IDX 4 13 3 14 2 15 1 16
REMARK H PARENT
REMARK Flexibility Score: inf
ROOT
ATOM      1  C   UNL     1      -6.219  -1.399  37.348  1.00  0.00     0.000 C 
ENDROOT
BRANCH   1   2
ATOM      2  C   UNL     1      -5.183  -2.513  37.134  1.00  0.00     0.000 C 
BRANCH   2   3
ATOM      3  C   UNL     1      -5.393  -3.272  35.811  1.00  0.00     0.000 C 
BRANCH   3   4
ATOM      4  C   UNL     1      -4.072  -3.730  35.174  1.00  0.00     0.000 C 
BRANCH   4   5
ATOM      5  C   UNL     1      -2.856  -3.468  36.081  1.00  0.00     0.006 C 
BRANCH   5   6
ATOM      6  C   UNL     1      -1.805  -2.584  35.399  1.00  0.00     0.053 C 
BRANCH   6   7
ATOM      7  C   UNL     1      -0.664  -2.264  36.316  1.00  0.00     0.041 C 
ATOM      8  O   UNL     1       0.205  -3.138  36.575  1.00  0.00    -0.550 OA
ATOM      9  O   UNL     1      -0.543  -0.991  36.860  1.00  0.00    -0.550 OA
ENDBRANCH   6   7
ENDBRANCH   5   6
ENDBRANCH   4   5
ENDBRANCH   3   4
ENDBRANCH   2   3
ENDBRANCH   1   2
BRANCH   1  10
ATOM     10  C   UNL     1      -5.591   0.003  37.338  1.00  0.00     0.000 C 
BRANCH  10  11
ATOM     11  C   UNL     1      -4.061  -0.083  37.246  1.00  0.00    -0.000 C 
BRANCH  11  12
ATOM     12  C   UNL     1      -3.500   0.610  35.993  1.00  0.00    -0.000 C 
BRANCH  12  13
ATOM     13  C   UNL     1      -4.144   0.092  34.695  1.00  0.00    -0.000 C 
BRANCH  13  14
ATOM     14  C   UNL     1      -4.670   1.229  33.804  1.00  0.00    -0.000 C 
BRANCH  14  15
ATOM     15  C   UNL     1      -5.987   0.870  33.099  1.00  0.00    -0.003 C 
ATOM     16  C   UNL     1      -6.642  -0.346  33.747  1.00  0.00     0.004 C 
ENDBRANCH  14  15
ENDBRANCH  13  14
ENDBRANCH  12  13
ENDBRANCH  11  12
ENDBRANCH  10  11
ENDBRANCH   1  10
TORSDOF 12
ENDMDL
MODEL 4
REMARK VINA RESULT:    -3.168      1.299      2.311
REMARK INTER + INTRA:          -7.554
REMARK INTER:                  -5.625
REMARK INTRA:                  -1.929
REMARK UNBOUND:                -2.164
REMARK SMILES CCCCCCCCCCCCCC(=O)[O-]
REMARK SMILES IDX 8 1 9 2 10 3 11 4 12 5 13 6 14 7 15 8 16 9 7 10 6 11 5 12
REMARK SMILES IDX 4 13 3 14 2 15 1 16
REMARK H PARENT
REMARK Flexibility Score: inf
ROOT
ATOM      1  C   UNL     1      -5.760  -2.846  36.504  1.00  0.00     0.000 C 
ENDROOT
BRANCH   1   2
ATOM      2  C   UNL     1      -4.987  -1.886  37.423  1.00  0.00     0.000 C 
BRANCH   2   3
ATOM      3  C   UNL     1      -5.269  -0.407  37.105  1.00  0.00     0.000 C 
BRANCH   3   4
ATOM      4  C   UNL     1      -6.345  -0.227  36.024  1.00  0.00     0.000 C 
BRANCH   4   5
ATOM      5  C   UNL     1      -5.839   0.580  34.815  1.00  0.00     0.006 C 
BRANCH   5   6
ATOM      6  C   UNL     1      -6.551   0.183  33.516  1.00  0.00     0.053 C 
BRANCH   6   7
ATOM      7  C   UNL     1      -6.250   1.138  32.400  1.00  0.00     0.041 C 
ATOM      8  O   UNL     1      -5.066   1.508  32.185  1.00  0.00    -0.550 OA
ATOM      9  O   UNL     1      -7.274   1.595  31.579  1.00  0.00    -0.550 OA
ENDBRANCH   6   7
ENDBRANCH   5   6
ENDBRANCH   4   5
ENDBRANCH   3   4
ENDBRANCH   2   3
ENDBRANCH   1   2
BRANCH   1  10
ATOM     10  C   UNL     1      -4.837  -3.638  35.565  1.00  0.00     0.000 C 
BRANCH  10  11
ATOM     11  C   UNL     1      -4.651  -2.901  34.230  1.00  0.00    -0.000 C 
BRANCH  11  12
ATOM     12  C   UNL     1      -3.172  -2.693  33.866  1.00  0.00    -0.000 C 
BRANCH  12  13
ATOM     13  C   UNL     1      -2.685  -1.265  34.170  1.00  0.00    -0.000 C 
BRANCH  13  14
ATOM     14  C   UNL     1      -1.957  -1.165  35.521  1.00  0.00    -0.000 C 
BRANCH  14  15
ATOM     15  C   UNL     1      -1.346  -2.502  35.965  1.00  0.00    -0.003 C 
ATOM     16  C   UNL     1       0.179  -2.434  35.971  1.00  0.00     0.004 C 
ENDBRANCH  14  15
ENDBRANCH  13  14
ENDBRANCH  12  13
ENDBRANCH  11  12
ENDBRANCH  10  11
ENDBRANCH   1  10
TORSDOF 12
ENDMDL
MODEL 5
REMARK VINA RESULT:    -3.154      3.477      5.348
REMARK INTER + INTRA:          -7.530
REMARK INTER:                  -5.449
REMARK INTRA:                  -2.081
REMARK UNBOUND:                -2.164
REMARK SMILES CCCCCCCCCCCCCC(=O)[O-]
REMARK SMILES IDX 8 1 9 2 10 3 11 4 12 5 13 6 14 7 15 8 16 9 7 10 6 11 5 12
REMARK SMILES IDX 4 13 3 14 2 15 1 16
REMARK H PARENT
REMARK Flexibility Score: inf
ROOT
ATOM      1  C   UNL     1      -5.201  -1.256  34.332  1.00  0.00     0.000 C 
ENDROOT
BRANCH   1   2
ATOM      2  C   UNL     1      -3.888  -0.464  34.225  1.00  0.00     0.000 C 
BRANCH   2   3
ATOM      3  C   UNL     1      -3.535   0.275  35.528  1.00  0.00     0.000 C 
BRANCH   3   4
ATOM      4  C   UNL     1      -2.276  -0.288  36.207  1.00  0.00     0.000 C 
BRANCH   4   5
ATOM      5  C   UNL     1      -1.641  -1.441  35.409  1.00  0.00     0.006 C 
BRANCH   5   6
ATOM      6  C   UNL     1      -0.769  -2.343  36.291  1.00  0.00     0.053 C 
BRANCH   6   7
ATOM      7  C   UNL     1       0.691  -2.161  36.006  1.00  0.00     0.041 C 
ATOM      8  O   UNL     1       1.286  -1.120  36.392  1.00  0.00    -0.550 OA
ATOM      9  O   UNL     1       1.401  -3.153  35.343  1.00  0.00    -0.550 OA
ENDBRANCH   6   7
ENDBRANCH   5   6
ENDBRANCH   4   5
ENDBRANCH   3   4
ENDBRANCH   2   3
ENDBRANCH   1   2
BRANCH   1  10
ATOM     10  C   UNL     1      -4.979  -2.776  34.306  1.00  0.00     0.000 C 
BRANCH  10  11
ATOM     11  C   UNL     1      -4.840  -3.333  35.731  1.00  0.00    -0.000 C 
BRANCH  11  12
ATOM     12  C   UNL     1      -5.753  -2.620  36.741  1.00  0.00    -0.000 C 
BRANCH  12  13
ATOM     13  C   UNL     1      -4.991  -2.135  37.986  1.00  0.00    -0.000 C 
BRANCH  13  14
ATOM     14  C   UNL     1      -5.491  -0.772  38.490  1.00  0.00    -0.000 C 
BRANCH  14  15
ATOM     15  C   UNL     1      -6.867  -0.397  37.919  1.00  0.00    -0.003 C 
ATOM     16  C   UNL     1      -6.803   0.923  37.156  1.00  0.00     0.004 C 
ENDBRANCH  14  15
ENDBRANCH  13  14
ENDBRANCH  12  13
ENDBRANCH  11  12
ENDBRANCH  10  11
ENDBRANCH   1  10
TORSDOF 12
ENDMDL
MODEL 6
REMARK VINA RESULT:    -3.091      3.273      5.394
REMARK INTER + INTRA:          -7.423
REMARK INTER:                  -5.508
REMARK INTRA:                  -1.915
REMARK UNBOUND:                -2.164
REMARK SMILES CCCCCCCCCCCCCC(=O)[O-]
REMARK SMILES IDX 8 1 9 2 10 3 11 4 12 5 13 6 14 7 15 8 16 9 7 10 6 11 5 12
REMARK SMILES IDX 4 13 3 14 2 15 1 16
REMARK H PARENT
REMARK Flexibility Score: inf
ROOT
ATOM      1  C   UNL     1      -4.910  -2.400  34.456  1.00  0.00     0.000 C 
ENDROOT
BRANCH   1   2
ATOM      2  C   UNL     1      -3.537  -2.834  33.917  1.00  0.00     0.000 C 
BRANCH   2   3
ATOM      3  C   UNL     1      -2.371  -2.125  34.627  1.00  0.00     0.000 C 
BRANCH   3   4
ATOM      4  C   UNL     1      -1.794  -2.951  35.788  1.00  0.00     0.000 C 
BRANCH   4   5
ATOM      5  C   UNL     1      -0.631  -2.236  36.500  1.00  0.00     0.006 C 
BRANCH   5   6
ATOM      6  C   UNL     1       0.715  -2.497  35.813  1.00  0.00     0.053 C 
BRANCH   6   7
ATOM      7  C   UNL     1       1.419  -1.222  35.460  1.00  0.00     0.041 C 
ATOM      8  O   UNL     1       1.206  -0.668  34.349  1.00  0.00    -0.550 OA
ATOM      9  O   UNL     1       2.286  -0.630  36.369  1.00  0.00    -0.550 OA
ENDBRANCH   6   7
ENDBRANCH   5   6
ENDBRANCH   4   5
ENDBRANCH   3   4
ENDBRANCH   2   3
ENDBRANCH   1   2
BRANCH   1  10
ATOM     10  C   UNL     1      -5.374  -3.251  35.647  1.00  0.00     0.000 C 
BRANCH  10  11
ATOM     11  C   UNL     1      -5.758  -2.363  36.840  1.00  0.00    -0.000 C 
BRANCH  11  12
ATOM     12  C   UNL     1      -4.648  -2.278  37.900  1.00  0.00    -0.000 C 
BRANCH  12  13
ATOM     13  C   UNL     1      -4.128  -0.843  38.097  1.00  0.00    -0.000 C 
BRANCH  13  14
ATOM     14  C   UNL     1      -4.842   0.172  37.189  1.00  0.00    -0.000 C 
BRANCH  14  15
ATOM     15  C   UNL     1      -3.896   0.821  36.168  1.00  0.00    -0.003 C 
ATOM     16  C   UNL     1      -2.482   0.942  36.728  1.00  0.00     0.004 C 
ENDBRANCH  14  15
ENDBRANCH  13  14
ENDBRANCH  12  13
ENDBRANCH  11  12
ENDBRANCH  10  11
ENDBRANCH   1  10
TORSDOF 12
ENDMDL
MODEL 7
REMARK VINA RESULT:    -3.067      3.281      5.132
REMARK INTER + INTRA:          -7.383
REMARK INTER:                  -5.247
REMARK INTRA:                  -2.136
REMARK UNBOUND:                -2.164
REMARK SMILES CCCCCCCCCCCCCC(=O)[O-]
REMARK SMILES IDX 8 1 9 2 10 3 11 4 12 5 13 6 14 7 15 8 16 9 7 10 6 11 5 12
REMARK SMILES IDX 4 13 3 14 2 15 1 16
REMARK H PARENT
REMARK Flexibility Score: inf
ROOT
ATOM      1  C   UNL     1      -6.053  -2.085  36.879  1.00  0.00     0.000 C 
ENDROOT
BRANCH   1   2
ATOM      2  C   UNL     1      -5.299  -3.116  36.024  1.00  0.00     0.000 C 
BRANCH   2   3
ATOM      3  C   UNL     1      -5.010  -2.607  34.601  1.00  0.00     0.000 C 
BRANCH   3   4
ATOM      4  C   UNL     1      -3.536  -2.777  34.199  1.00  0.00     0.000 C 
BRANCH   4   5
ATOM      5  C   UNL     1      -2.608  -2.944  35.415  1.00  0.00     0.006 C 
BRANCH   5   6
ATOM      6  C   UNL     1      -1.487  -1.897  35.434  1.00  0.00     0.053 C 
BRANCH   6   7
ATOM      7  C   UNL     1      -0.196  -2.469  35.936  1.00  0.00     0.041 C 
ATOM      8  O   UNL     1      -0.204  -3.397  36.788  1.00  0.00    -0.550 OA
ATOM      9  O   UNL     1       1.013  -2.000  35.440  1.00  0.00    -0.550 OA
ENDBRANCH   6   7
ENDBRANCH   5   6
ENDBRANCH   4   5
ENDBRANCH   3   4
ENDBRANCH   2   3
ENDBRANCH   1   2
BRANCH   1  10
ATOM     10  C   UNL     1      -5.305  -1.730  38.174  1.00  0.00     0.000 C 
BRANCH  10  11
ATOM     11  C   UNL     1      -4.110  -0.810  37.881  1.00  0.00    -0.000 C 
BRANCH  11  12
ATOM     12  C   UNL     1      -4.535   0.565  37.341  1.00  0.00    -0.000 C 
BRANCH  12  13
ATOM     13  C   UNL     1      -3.921   0.874  35.964  1.00  0.00    -0.000 C 
BRANCH  13  14
ATOM     14  C   UNL     1      -4.988   1.158  34.894  1.00  0.00    -0.000 C 
BRANCH  14  15
ATOM     15  C   UNL     1      -4.480   0.899  33.468  1.00  0.00    -0.003 C 
ATOM     16  C   UNL     1      -2.955   0.873  33.424  1.00  0.00     0.004 C 
ENDBRANCH  14  15
ENDBRANCH  13  14
ENDBRANCH  12  13
ENDBRANCH  11  12
ENDBRANCH  10  11
ENDBRANCH   1  10
TORSDOF 12
ENDMDL
MODEL 8
REMARK VINA RESULT:    -3.012      3.403      5.139
REMARK INTER + INTRA:          -7.289
REMARK INTER:                  -5.281
REMARK INTRA:                  -2.007
REMARK UNBOUND:                -2.164
REMARK SMILES CCCCCCCCCCCCCC(=O)[O-]
REMARK SMILES IDX 8 1 9 2 10 3 11 4 12 5 13 6 14 7 15 8 16 9 7 10 6 11 5 12
REMARK SMILES IDX 4 13 3 14 2 15 1 16
REMARK H PARENT
REMARK Flexibility Score: inf
ROOT
ATOM      1  C   UNL     1      -4.690  -2.120  37.890  1.00  0.00     0.000 C 
ENDROOT
BRANCH   1   2
ATOM      2  C   UNL     1      -4.062  -0.724  37.743  1.00  0.00     0.000 C 
BRANCH   2   3
ATOM      3  C   UNL     1      -2.553  -0.782  37.448  1.00  0.00     0.000 C 
BRANCH   3   4
ATOM      4  C   UNL     1      -2.223  -0.461  35.982  1.00  0.00     0.000 C 
BRANCH   4   5
ATOM      5  C   UNL     1      -1.600  -1.658  35.241  1.00  0.00     0.006 C 
BRANCH   5   6
ATOM      6  C   UNL     1      -0.822  -2.581  36.186  1.00  0.00     0.053 C 
BRANCH   6   7
ATOM      7  C   UNL     1       0.658  -2.363  36.088  1.00  0.00     0.041 C 
ATOM      8  O   UNL     1       1.418  -3.316  35.771  1.00  0.00    -0.550 OA
ATOM      9  O   UNL     1       1.193  -1.102  36.316  1.00  0.00    -0.550 OA
ENDBRANCH   6   7
ENDBRANCH   5   6
ENDBRANCH   4   5
ENDBRANCH   3   4
ENDBRANCH   2   3
ENDBRANCH   1   2
BRANCH   1  10
ATOM     10  C   UNL     1      -5.719  -2.423  36.790  1.00  0.00     0.000 C 
BRANCH  10  11
ATOM     11  C   UNL     1      -5.086  -3.245  35.658  1.00  0.00    -0.000 C 
BRANCH  11  12
ATOM     12  C   UNL     1      -4.981  -2.461  34.340  1.00  0.00    -0.000 C 
BRANCH  12  13
ATOM     13  C   UNL     1      -5.830  -1.178  34.348  1.00  0.00    -0.000 C 
BRANCH  13  14
ATOM     14  C   UNL     1      -5.024   0.064  33.932  1.00  0.00    -0.000 C 
BRANCH  14  15
ATOM     15  C   UNL     1      -5.696   1.377  34.360  1.00  0.00    -0.003 C 
ATOM     16  C   UNL     1      -4.931   2.037  35.504  1.00  0.00     0.004 C 
ENDBRANCH  14  15
ENDBRANCH  13  14
ENDBRANCH  12  13
ENDBRANCH  11  12
ENDBRANCH  10  11
ENDBRANCH   1  10
TORSDOF 12
ENDMDL
MODEL 9
REMARK VINA RESULT:    -2.922      1.339      2.905
REMARK INTER + INTRA:          -7.136
REMARK INTER:                  -5.209
REMARK INTRA:                  -1.927
REMARK UNBOUND:                -2.164
REMARK SMILES CCCCCCCCCCCCCC(=O)[O-]
REMARK SMILES IDX 8 1 9 2 10 3 11 4 12 5 13 6 14 7 15 8 16 9 7 10 6 11 5 12
REMARK SMILES IDX 4 13 3 14 2 15 1 16
REMARK H PARENT
REMARK Flexibility Score: inf
ROOT
ATOM      1  C   UNL     1      -3.290  -2.875  34.255  1.00  0.00     0.000 C 
ENDROOT
BRANCH   1   2
ATOM      2  C   UNL     1      -2.421  -1.678  34.673  1.00  0.00     0.000 C 
BRANCH   2   3
ATOM      3  C   UNL     1      -2.855  -0.366  33.998  1.00  0.00     0.000 C 
BRANCH   3   4
ATOM      4  C   UNL     1      -4.104   0.251  34.648  1.00  0.00     0.000 C 
BRANCH   4   5
ATOM      5  C   UNL     1      -5.394  -0.074  33.874  1.00  0.00     0.006 C 
BRANCH   5   6
ATOM      6  C   UNL     1      -6.641   0.489  34.567  1.00  0.00     0.053 C 
BRANCH   6   7
ATOM      7  C   UNL     1      -7.728   0.808  33.586  1.00  0.00     0.041 C 
ATOM      8  O   UNL     1      -8.910   0.433  33.807  1.00  0.00    -0.550 OA
ATOM      9  O   UNL     1      -7.443   1.547  32.445  1.00  0.00    -0.550 OA
ENDBRANCH   6   7
ENDBRANCH   5   6
ENDBRANCH   4   5
ENDBRANCH   3   4
ENDBRANCH   2   3
ENDBRANCH   1   2
BRANCH   1  10
ATOM     10  C   UNL     1      -3.843  -3.653  35.458  1.00  0.00     0.000 C 
BRANCH  10  11
ATOM     11  C   UNL     1      -5.368  -3.500  35.556  1.00  0.00    -0.000 C 
BRANCH  11  12
ATOM     12  C   UNL     1      -5.798  -2.522  36.661  1.00  0.00    -0.000 C 
BRANCH  12  13
ATOM     13  C   UNL     1      -4.704  -2.313  37.723  1.00  0.00    -0.000 C 
BRANCH  13  14
ATOM     14  C   UNL     1      -4.999  -1.119  38.646  1.00  0.00    -0.000 C 
BRANCH  14  15
ATOM     15  C   UNL     1      -4.123   0.103  38.332  1.00  0.00    -0.003 C 
ATOM     16  C   UNL     1      -2.667  -0.305  38.121  1.00  0.00     0.004 C 
ENDBRANCH  14  15
ENDBRANCH  13  14
ENDBRANCH  12  13
ENDBRANCH  11  12
ENDBRANCH  10  11
ENDBRANCH   1  10
TORSDOF 12
ENDMDL
