MODEL 1
REMARK VINA RESULT:    -3.467      0.000      0.000
REMARK INTER + INTRA:         -10.795
REMARK INTER:                  -7.520
REMARK INTRA:                  -3.275
REMARK UNBOUND:                -3.275
REMARK SMILES CCCCCCCCCCCCCCCCCCCCCC(=O)[O-]
REMARK SMILES IDX 12 1 11 2 10 3 9 4 8 5 7 6 6 7 5 8 4 9 3 10 2 11 1 12 13 13
REMARK SMILES IDX 14 14 15 15 16 16 17 17 18 18 19 19 20 20 21 21 22 22 23 23
REMARK SMILES IDX 24 24
REMARK H PARENT
REMARK Flexibility Score: inf
ROOT
ATOM      1  C   UNL     1      59.138  29.184  49.003  1.00  0.00     0.000 C 
ENDROOT
BRANCH   1   2
ATOM      2  C   UNL     1      57.984  29.210  50.016  1.00  0.00     0.000 C 
BRANCH   2   3
ATOM      3  C   UNL     1      58.473  29.352  51.466  1.00  0.00     0.000 C 
BRANCH   3   4
ATOM      4  C   UNL     1      57.338  29.176  52.491  1.00  0.00    -0.000 C 
BRANCH   4   5
ATOM      5  C   UNL     1      56.365  28.049  52.107  1.00  0.00    -0.000 C 
BRANCH   5   6
ATOM      6  C   UNL     1      56.943  26.652  52.379  1.00  0.00    -0.000 C 
BRANCH   6   7
ATOM      7  C   UNL     1      56.549  25.669  51.270  1.00  0.00    -0.000 C 
BRANCH   7   8
ATOM      8  C   UNL     1      55.916  26.407  50.081  1.00  0.00    -0.000 C 
BRANCH   8   9
ATOM      9  C   UNL     1      54.586  25.780  49.626  1.00  0.00    -0.000 C 
BRANCH   9  10
ATOM     10  C   UNL     1      53.463  26.787  49.305  1.00  0.00    -0.000 C 
BRANCH  10  11
ATOM     11  C   UNL     1      53.102  27.745  50.455  1.00  0.00    -0.003 C 
ATOM     12  C   UNL     1      53.455  29.200  50.150  1.00  0.00     0.004 C 
ENDBRANCH  10  11
ENDBRANCH   9  10
ENDBRANCH   8   9
ENDBRANCH   7   8
ENDBRANCH   6   7
ENDBRANCH   5   6
ENDBRANCH   4   5
ENDBRANCH   3   4
ENDBRANCH   2   3
ENDBRANCH   1   2
BRANCH   1  13
ATOM     13  C   UNL     1      60.131  28.063  49.329  1.00  0.00     0.000 C 
BRANCH  13  14
ATOM     14  C   UNL     1      59.463  26.684  49.210  1.00  0.00     0.000 C 
BRANCH  14  15
ATOM     15  C   UNL     1      60.145  25.615  50.079  1.00  0.00     0.000 C 
BRANCH  15  16
ATOM     16  C   UNL     1      60.550  26.151  51.464  1.00  0.00     0.000 C 
BRANCH  16  17
ATOM     17  C   UNL     1      62.069  26.086  51.699  1.00  0.00     0.000 C 
BRANCH  17  18
ATOM     18  C   UNL     1      62.782  25.164  50.695  1.00  0.00     0.000 C 
BRANCH  18  19
ATOM     19  C   UNL     1      63.874  25.892  49.897  1.00  0.00     0.000 C 
BRANCH  19  20
ATOM     20  C   UNL     1      63.536  27.371  49.637  1.00  0.00     0.006 C 
BRANCH  20  21
ATOM     21  C   UNL     1      63.830  27.785  48.189  1.00  0.00     0.053 C 
BRANCH  21  22
ATOM     22  C   UNL     1      65.058  28.638  48.096  1.00  0.00     0.041 C 
ATOM     23  O   UNL     1      64.986  29.805  47.630  1.00  0.00    -0.550 OA
ATOM     24  O   UNL     1      66.288  28.130  48.493  1.00  0.00    -0.550 OA
ENDBRANCH  21  22
ENDBRANCH  20  21
ENDBRANCH  19  20
ENDBRANCH  18  19
ENDBRANCH  17  18
ENDBRANCH  16  17
ENDBRANCH  15  16
ENDBRANCH  14  15
ENDBRANCH  13  14
ENDBRANCH   1  13
TORSDOF 20
ENDMDL
MODEL 2
REMARK VINA RESULT:    -3.320      3.744      7.767
REMARK INTER + INTRA:         -10.477
REMARK INTER:                  -7.186
REMARK INTRA:                  -3.291
REMARK UNBOUND:                -3.275
REMARK SMILES CCCCCCCCCCCCCCCCCCCCCC(=O)[O-]
REMARK SMILES IDX 12 1 11 2 10 3 9 4 8 5 7 6 6 7 5 8 4 9 3 10 2 11 1 12 13 13
REMARK SMILES IDX 14 14 15 15 16 16 17 17 18 18 19 19 20 20 21 21 22 22 23 23
REMARK SMILES IDX 24 24
REMARK H PARENT
REMARK Flexibility Score: inf
ROOT
ATOM      1  C   UNL     1      55.666  26.169  50.599  1.00  0.00     0.000 C 
ENDROOT
BRANCH   1   2
ATOM      2  C   UNL     1      57.086  25.879  50.092  1.00  0.00     0.000 C 
BRANCH   2   3
ATOM      3  C   UNL     1      58.080  25.611  51.233  1.00  0.00     0.000 C 
BRANCH   3   4
ATOM      4  C   UNL     1      59.437  25.094  50.724  1.00  0.00    -0.000 C 
BRANCH   4   5
ATOM      5  C   UNL     1      59.982  25.923  49.549  1.00  0.00    -0.000 C 
BRANCH   5   6
ATOM      6  C   UNL     1      61.169  26.810  49.953  1.00  0.00    -0.000 C 
BRANCH   6   7
ATOM      7  C   UNL     1      60.772  28.291  49.952  1.00  0.00    -0.000 C 
BRANCH   7   8
ATOM      8  C   UNL     1      59.565  28.537  49.035  1.00  0.00    -0.000 C 
BRANCH   8   9
ATOM      9  C   UNL     1      58.395  29.228  49.757  1.00  0.00    -0.000 C 
BRANCH   9  10
ATOM     10  C   UNL     1      58.591  29.433  51.273  1.00  0.00    -0.000 C 
BRANCH  10  11
ATOM     11  C   UNL     1      57.301  29.723  52.061  1.00  0.00    -0.003 C 
ATOM     12  C   UNL     1      57.026  28.690  53.153  1.00  0.00     0.004 C 
ENDBRANCH  10  11
ENDBRANCH   9  10
ENDBRANCH   8   9
ENDBRANCH   7   8
ENDBRANCH   6   7
ENDBRANCH   5   6
ENDBRANCH   4   5
ENDBRANCH   3   4
ENDBRANCH   2   3
ENDBRANCH   1   2
BRANCH   1  13
ATOM     13  C   UNL     1      55.157  27.514  50.068  1.00  0.00     0.000 C 
BRANCH  13  14
ATOM     14  C   UNL     1      53.655  27.447  49.751  1.00  0.00     0.000 C 
BRANCH  14  15
ATOM     15  C   UNL     1      52.957  28.811  49.884  1.00  0.00     0.000 C 
BRANCH  15  16
ATOM     16  C   UNL     1      53.884  29.894  50.463  1.00  0.00     0.000 C 
BRANCH  16  17
ATOM     17  C   UNL     1      53.185  30.759  51.526  1.00  0.00     0.000 C 
BRANCH  17  18
ATOM     18  C   UNL     1      53.973  30.821  52.846  1.00  0.00     0.000 C 
BRANCH  18  19
ATOM     19  C   UNL     1      54.251  32.262  53.300  1.00  0.00     0.000 C 
BRANCH  19  20
ATOM     20  C   UNL     1      54.721  32.345  54.764  1.00  0.00     0.006 C 
BRANCH  20  21
ATOM     21  C   UNL     1      56.244  32.200  54.891  1.00  0.00     0.053 C 
BRANCH  21  22
ATOM     22  C   UNL     1      56.966  33.303  54.180  1.00  0.00     0.041 C 
ATOM     23  O   UNL     1      56.862  34.492  54.583  1.00  0.00    -0.550 OA
ATOM     24  O   UNL     1      57.725  33.023  53.052  1.00  0.00    -0.550 OA
ENDBRANCH  21  22
ENDBRANCH  20  21
ENDBRANCH  19  20
ENDBRANCH  18  19
ENDBRANCH  17  18
ENDBRANCH  16  17
ENDBRANCH  15  16
ENDBRANCH  14  15
ENDBRANCH  13  14
ENDBRANCH   1  13
TORSDOF 20
ENDMDL
MODEL 3
REMARK VINA RESULT:    -3.264     10.393     13.296
REMARK INTER + INTRA:         -10.355
REMARK INTER:                  -7.656
REMARK INTRA:                  -2.699
REMARK UNBOUND:                -3.275
REMARK SMILES CCCCCCCCCCCCCCCCCCCCCC(=O)[O-]
REMARK SMILES IDX 12 1 11 2 10 3 9 4 8 5 7 6 6 7 5 8 4 9 3 10 2 11 1 12 13 13
REMARK SMILES IDX 14 14 15 15 16 16 17 17 18 18 19 19 20 20 21 21 22 22 23 23
REMARK SMILES IDX 24 24
REMARK H PARENT
REMARK Flexibility Score: inf
ROOT
ATOM      1  C   UNL     1      63.582  31.534  59.830  1.00  0.00     0.000 C 
ENDROOT
BRANCH   1   2
ATOM      2  C   UNL     1      62.078  31.773  59.633  1.00  0.00     0.000 C 
BRANCH   2   3
ATOM      3  C   UNL     1      61.329  31.965  60.961  1.00  0.00     0.000 C 
BRANCH   3   4
ATOM      4  C   UNL     1      61.139  30.645  61.728  1.00  0.00    -0.000 C 
BRANCH   4   5
ATOM      5  C   UNL     1      60.416  29.575  60.892  1.00  0.00    -0.000 C 
BRANCH   5   6
ATOM      6  C   UNL     1      61.073  28.192  61.009  1.00  0.00    -0.000 C 
BRANCH   6   7
ATOM      7  C   UNL     1      62.578  28.320  61.276  1.00  0.00    -0.000 C 
BRANCH   7   8
ATOM      8  C   UNL     1      63.329  27.067  60.800  1.00  0.00    -0.000 C 
BRANCH   8   9
ATOM      9  C   UNL     1      64.847  27.290  60.680  1.00  0.00    -0.000 C 
BRANCH   9  10
ATOM     10  C   UNL     1      65.329  28.716  61.017  1.00  0.00    -0.000 C 
BRANCH  10  11
ATOM     11  C   UNL     1      66.735  29.066  60.498  1.00  0.00    -0.003 C 
ATOM     12  C   UNL     1      66.715  29.707  59.111  1.00  0.00     0.004 C 
ENDBRANCH  10  11
ENDBRANCH   9  10
ENDBRANCH   8   9
ENDBRANCH   7   8
ENDBRANCH   6   7
ENDBRANCH   5   6
ENDBRANCH   4   5
ENDBRANCH   3   4
ENDBRANCH   2   3
ENDBRANCH   1   2
BRANCH   1  13
ATOM     13  C   UNL     1      64.169  32.530  60.837  1.00  0.00     0.000 C 
BRANCH  13  14
ATOM     14  C   UNL     1      64.293  33.931  60.216  1.00  0.00     0.000 C 
BRANCH  14  15
ATOM     15  C   UNL     1      64.613  35.016  61.257  1.00  0.00     0.000 C 
BRANCH  15  16
ATOM     16  C   UNL     1      63.486  36.056  61.391  1.00  0.00     0.000 C 
BRANCH  16  17
ATOM     17  C   UNL     1      62.125  35.511  60.926  1.00  0.00     0.000 C 
BRANCH  17  18
ATOM     18  C   UNL     1      61.144  36.630  60.537  1.00  0.00     0.000 C 
BRANCH  18  19
ATOM     19  C   UNL     1      60.148  36.190  59.452  1.00  0.00     0.000 C 
BRANCH  19  20
ATOM     20  C   UNL     1      60.618  34.943  58.684  1.00  0.00     0.006 C 
BRANCH  20  21
ATOM     21  C   UNL     1      59.777  34.688  57.425  1.00  0.00     0.053 C 
BRANCH  21  22
ATOM     22  C   UNL     1      58.731  33.642  57.660  1.00  0.00     0.041 C 
ATOM     23  O   UNL     1      59.057  32.428  57.745  1.00  0.00    -0.550 OA
ATOM     24  O   UNL     1      57.394  34.003  57.752  1.00  0.00    -0.550 OA
ENDBRANCH  21  22
ENDBRANCH  20  21
ENDBRANCH  19  20
ENDBRANCH  18  19
ENDBRANCH  17  18
ENDBRANCH  16  17
ENDBRANCH  15  16
ENDBRANCH  14  15
ENDBRANCH  13  14
ENDBRANCH   1  13
TORSDOF 20
ENDMDL
MODEL 4
REMARK VINA RESULT:    -3.263      3.724      7.608
REMARK INTER + INTRA:         -10.354
REMARK INTER:                  -7.059
REMARK INTRA:                  -3.294
REMARK UNBOUND:                -3.275
REMARK SMILES CCCCCCCCCCCCCCCCCCCCCC(=O)[O-]
REMARK SMILES IDX 12 1 11 2 10 3 9 4 8 5 7 6 6 7 5 8 4 9 3 10 2 11 1 12 13 13
REMARK SMILES IDX 14 14 15 15 16 16 17 17 18 18 19 19 20 20 21 21 22 22 23 23
REMARK SMILES IDX 24 24
REMARK H PARENT
REMARK Flexibility Score: inf
ROOT
ATOM      1  C   UNL     1      58.837  25.379  52.725  1.00  0.00     0.000 C 
ENDROOT
BRANCH   1   2
ATOM      2  C   UNL     1      58.759  24.025  52.004  1.00  0.00     0.000 C 
BRANCH   2   3
ATOM      3  C   UNL     1      60.104  23.599  51.396  1.00  0.00     0.000 C 
BRANCH   3   4
ATOM      4  C   UNL     1      60.489  24.441  50.167  1.00  0.00    -0.000 C 
BRANCH   4   5
ATOM      5  C   UNL     1      61.815  25.195  50.359  1.00  0.00    -0.000 C 
BRANCH   5   6
ATOM      6  C   UNL     1      61.792  26.598  49.735  1.00  0.00    -0.000 C 
BRANCH   6   7
ATOM      7  C   UNL     1      60.629  27.428  50.293  1.00  0.00    -0.000 C 
BRANCH   7   8
ATOM      8  C   UNL     1      59.662  27.842  49.174  1.00  0.00    -0.000 C 
BRANCH   8   9
ATOM      9  C   UNL     1      59.044  29.234  49.401  1.00  0.00    -0.000 C 
BRANCH   9  10
ATOM     10  C   UNL     1      58.182  29.367  50.673  1.00  0.00    -0.000 C 
BRANCH  10  11
ATOM     11  C   UNL     1      58.828  30.172  51.814  1.00  0.00    -0.003 C 
ATOM     12  C   UNL     1      58.468  29.636  53.200  1.00  0.00     0.004 C 
ENDBRANCH  10  11
ENDBRANCH   9  10
ENDBRANCH   8   9
ENDBRANCH   7   8
ENDBRANCH   6   7
ENDBRANCH   5   6
ENDBRANCH   4   5
ENDBRANCH   3   4
ENDBRANCH   2   3
ENDBRANCH   1   2
BRANCH   1  13
ATOM     13  C   UNL     1      57.640  26.266  52.361  1.00  0.00     0.000 C 
BRANCH  13  14
ATOM     14  C   UNL     1      56.663  25.519  51.439  1.00  0.00     0.000 C 
BRANCH  14  15
ATOM     15  C   UNL     1      56.476  26.216  50.081  1.00  0.00     0.000 C 
BRANCH  15  16
ATOM     16  C   UNL     1      55.125  25.878  49.426  1.00  0.00     0.000 C 
BRANCH  16  17
ATOM     17  C   UNL     1      53.931  26.448  50.211  1.00  0.00     0.000 C 
BRANCH  17  18
ATOM     18  C   UNL     1      53.188  27.549  49.436  1.00  0.00     0.000 C 
BRANCH  18  19
ATOM     19  C   UNL     1      53.168  28.889  50.189  1.00  0.00     0.000 C 
BRANCH  19  20
ATOM     20  C   UNL     1      54.573  29.360  50.602  1.00  0.00     0.006 C 
BRANCH  20  21
ATOM     21  C   UNL     1      54.725  29.463  52.126  1.00  0.00     0.053 C 
BRANCH  21  22
ATOM     22  C   UNL     1      54.597  30.878  52.601  1.00  0.00     0.041 C 
ATOM     23  O   UNL     1      55.526  31.411  53.262  1.00  0.00    -0.550 OA
ATOM     24  O   UNL     1      53.437  31.596  52.341  1.00  0.00    -0.550 OA
ENDBRANCH  21  22
ENDBRANCH  20  21
ENDBRANCH  19  20
ENDBRANCH  18  19
ENDBRANCH  17  18
ENDBRANCH  16  17
ENDBRANCH  15  16
ENDBRANCH  14  15
ENDBRANCH  13  14
ENDBRANCH   1  13
TORSDOF 20
ENDMDL
MODEL 5
REMARK VINA RESULT:    -3.254     10.210     12.748
REMARK INTER + INTRA:         -10.332
REMARK INTER:                  -6.580
REMARK INTRA:                  -3.753
REMARK UNBOUND:                -3.275
REMARK SMILES CCCCCCCCCCCCCCCCCCCCCC(=O)[O-]
REMARK SMILES IDX 12 1 11 2 10 3 9 4 8 5 7 6 6 7 5 8 4 9 3 10 2 11 1 12 13 13
REMARK SMILES IDX 14 14 15 15 16 16 17 17 18 18 19 19 20 20 21 21 22 22 23 23
REMARK SMILES IDX 24 24
REMARK H PARENT
REMARK Flexibility Score: inf
ROOT
ATOM      1  C   UNL     1      60.772  30.749  61.645  1.00  0.00     0.000 C 
ENDROOT
BRANCH   1   2
ATOM      2  C   UNL     1      61.210  31.874  60.696  1.00  0.00     0.000 C 
BRANCH   2   3
ATOM      3  C   UNL     1      60.573  31.757  59.303  1.00  0.00     0.000 C 
BRANCH   3   4
ATOM      4  C   UNL     1      61.504  32.258  58.185  1.00  0.00    -0.000 C 
BRANCH   4   5
ATOM      5  C   UNL     1      62.734  31.355  57.991  1.00  0.00    -0.000 C 
BRANCH   5   6
ATOM      6  C   UNL     1      63.981  32.141  57.559  1.00  0.00    -0.000 C 
BRANCH   6   7
ATOM      7  C   UNL     1      64.864  32.474  58.768  1.00  0.00    -0.000 C 
BRANCH   7   8
ATOM      8  C   UNL     1      64.593  33.900  59.271  1.00  0.00    -0.000 C 
BRANCH   8   9
ATOM      9  C   UNL     1      64.233  33.949  60.767  1.00  0.00    -0.000 C 
BRANCH   9  10
ATOM     10  C   UNL     1      63.166  34.994  61.149  1.00  0.00    -0.000 C 
BRANCH  10  11
ATOM     11  C   UNL     1      62.282  35.475  59.985  1.00  0.00    -0.003 C 
ATOM     12  C   UNL     1      60.817  35.653  60.384  1.00  0.00     0.004 C 
ENDBRANCH  10  11
ENDBRANCH   9  10
ENDBRANCH   8   9
ENDBRANCH   7   8
ENDBRANCH   6   7
ENDBRANCH   5   6
ENDBRANCH   4   5
ENDBRANCH   3   4
ENDBRANCH   2   3
ENDBRANCH   1   2
BRANCH   1  13
ATOM     13  C   UNL     1      61.953  29.836  61.997  1.00  0.00     0.000 C 
BRANCH  13  14
ATOM     14  C   UNL     1      63.275  30.420  61.474  1.00  0.00     0.000 C 
BRANCH  14  15
ATOM     15  C   UNL     1      64.168  29.365  60.803  1.00  0.00     0.000 C 
BRANCH  15  16
ATOM     16  C   UNL     1      63.616  27.937  60.961  1.00  0.00     0.000 C 
BRANCH  16  17
ATOM     17  C   UNL     1      63.369  27.248  59.608  1.00  0.00     0.000 C 
BRANCH  17  18
ATOM     18  C   UNL     1      62.158  27.832  58.861  1.00  0.00     0.000 C 
BRANCH  18  19
ATOM     19  C   UNL     1      60.933  26.906  58.907  1.00  0.00     0.000 C 
BRANCH  19  20
ATOM     20  C   UNL     1      59.973  27.247  60.061  1.00  0.00     0.006 C 
BRANCH  20  21
ATOM     21  C   UNL     1      58.819  26.241  60.169  1.00  0.00     0.053 C 
BRANCH  21  22
ATOM     22  C   UNL     1      57.864  26.610  61.263  1.00  0.00     0.041 C 
ATOM     23  O   UNL     1      57.167  25.722  61.821  1.00  0.00    -0.550 OA
ATOM     24  O   UNL     1      57.720  27.937  61.642  1.00  0.00    -0.550 OA
ENDBRANCH  21  22
ENDBRANCH  20  21
ENDBRANCH  19  20
ENDBRANCH  18  19
ENDBRANCH  17  18
ENDBRANCH  16  17
ENDBRANCH  15  16
ENDBRANCH  14  15
ENDBRANCH  13  14
ENDBRANCH   1  13
TORSDOF 20
ENDMDL
MODEL 6
REMARK VINA RESULT:    -3.221      9.755     12.050
REMARK INTER + INTRA:         -10.262
REMARK INTER:                  -6.195
REMARK INTRA:                  -4.068
REMARK UNBOUND:                -3.275
REMARK SMILES CCCCCCCCCCCCCCCCCCCCCC(=O)[O-]
REMARK SMILES IDX 12 1 11 2 10 3 9 4 8 5 7 6 6 7 5 8 4 9 3 10 2 11 1 12 13 13
REMARK SMILES IDX 14 14 15 15 16 16 17 17 18 18 19 19 20 20 21 21 22 22 23 23
REMARK SMILES IDX 24 24
REMARK H PARENT
REMARK Flexibility Score: inf
ROOT
ATOM      1  C   UNL     1      62.897  30.613  56.974  1.00  0.00     0.000 C 
ENDROOT
BRANCH   1   2
ATOM      2  C   UNL     1      63.057  31.594  58.145  1.00  0.00     0.000 C 
BRANCH   2   3
ATOM      3  C   UNL     1      64.527  31.848  58.509  1.00  0.00     0.000 C 
BRANCH   3   4
ATOM      4  C   UNL     1      64.746  33.229  59.153  1.00  0.00    -0.000 C 
BRANCH   4   5
ATOM      5  C   UNL     1      64.285  33.276  60.619  1.00  0.00    -0.000 C 
BRANCH   5   6
ATOM      6  C   UNL     1      64.381  34.685  61.222  1.00  0.00    -0.000 C 
BRANCH   6   7
ATOM      7  C   UNL     1      63.545  35.686  60.415  1.00  0.00    -0.000 C 
BRANCH   7   8
ATOM      8  C   UNL     1      62.220  35.996  61.127  1.00  0.00    -0.000 C 
BRANCH   8   9
ATOM      9  C   UNL     1      60.987  35.695  60.255  1.00  0.00    -0.000 C 
BRANCH   9  10
ATOM     10  C   UNL     1      61.100  34.432  59.376  1.00  0.00    -0.000 C 
BRANCH  10  11
ATOM     11  C   UNL     1      60.797  34.652  57.883  1.00  0.00    -0.003 C 
ATOM     12  C   UNL     1      62.054  34.917  57.054  1.00  0.00     0.004 C 
ENDBRANCH  10  11
ENDBRANCH   9  10
ENDBRANCH   8   9
ENDBRANCH   7   8
ENDBRANCH   6   7
ENDBRANCH   5   6
ENDBRANCH   4   5
ENDBRANCH   3   4
ENDBRANCH   2   3
ENDBRANCH   1   2
BRANCH   1  13
ATOM     13  C   UNL     1      62.260  29.299  57.440  1.00  0.00     0.000 C 
BRANCH  13  14
ATOM     14  C   UNL     1      60.822  29.529  57.931  1.00  0.00     0.000 C 
BRANCH  14  15
ATOM     15  C   UNL     1      60.380  28.498  58.982  1.00  0.00     0.000 C 
BRANCH  15  16
ATOM     16  C   UNL     1      59.997  29.148  60.323  1.00  0.00     0.000 C 
BRANCH  16  17
ATOM     17  C   UNL     1      60.319  30.652  60.361  1.00  0.00     0.000 C 
BRANCH  17  18
ATOM     18  C   UNL     1      61.443  30.989  61.355  1.00  0.00     0.000 C 
BRANCH  18  19
ATOM     19  C   UNL     1      62.206  29.742  61.828  1.00  0.00     0.000 C 
BRANCH  19  20
ATOM     20  C   UNL     1      63.693  29.767  61.429  1.00  0.00     0.006 C 
BRANCH  20  21
ATOM     21  C   UNL     1      64.086  28.545  60.588  1.00  0.00     0.053 C 
BRANCH  21  22
ATOM     22  C   UNL     1      65.474  28.674  60.040  1.00  0.00     0.041 C 
ATOM     23  O   UNL     1      65.709  28.393  58.835  1.00  0.00    -0.550 OA
ATOM     24  O   UNL     1      66.514  29.071  60.869  1.00  0.00    -0.550 OA
ENDBRANCH  21  22
ENDBRANCH  20  21
ENDBRANCH  19  20
ENDBRANCH  18  19
ENDBRANCH  17  18
ENDBRANCH  16  17
ENDBRANCH  15  16
ENDBRANCH  14  15
ENDBRANCH  13  14
ENDBRANCH   1  13
TORSDOF 20
ENDMDL
MODEL 7
REMARK VINA RESULT:    -3.198      3.759      7.866
REMARK INTER + INTRA:         -10.213
REMARK INTER:                  -6.476
REMARK INTRA:                  -3.737
REMARK UNBOUND:                -3.275
REMARK SMILES CCCCCCCCCCCCCCCCCCCCCC(=O)[O-]
REMARK SMILES IDX 12 1 11 2 10 3 9 4 8 5 7 6 6 7 5 8 4 9 3 10 2 11 1 12 13 13
REMARK SMILES IDX 14 14 15 15 16 16 17 17 18 18 19 19 20 20 21 21 22 22 23 23
REMARK SMILES IDX 24 24
REMARK H PARENT
REMARK Flexibility Score: inf
ROOT
ATOM      1  C   UNL     1      58.458  26.280  52.930  1.00  0.00     0.000 C 
ENDROOT
BRANCH   1   2
ATOM      2  C   UNL     1      58.827  27.755  53.146  1.00  0.00     0.000 C 
BRANCH   2   3
ATOM      3  C   UNL     1      57.714  28.716  52.703  1.00  0.00     0.000 C 
BRANCH   3   4
ATOM      4  C   UNL     1      58.194  29.731  51.651  1.00  0.00    -0.000 C 
BRANCH   4   5
ATOM      5  C   UNL     1      57.787  29.337  50.221  1.00  0.00    -0.000 C 
BRANCH   5   6
ATOM      6  C   UNL     1      58.977  28.847  49.383  1.00  0.00    -0.000 C 
BRANCH   6   7
ATOM      7  C   UNL     1      60.307  29.205  50.057  1.00  0.00    -0.000 C 
BRANCH   7   8
ATOM      8  C   UNL     1      61.327  28.066  49.901  1.00  0.00    -0.000 C 
BRANCH   8   9
ATOM      9  C   UNL     1      60.688  26.752  49.416  1.00  0.00    -0.000 C 
BRANCH   9  10
ATOM     10  C   UNL     1      60.857  25.551  50.369  1.00  0.00    -0.000 C 
BRANCH  10  11
ATOM     11  C   UNL     1      62.138  25.575  51.222  1.00  0.00    -0.003 C 
ATOM     12  C   UNL     1      63.348  24.987  50.494  1.00  0.00     0.004 C 
ENDBRANCH  10  11
ENDBRANCH   9  10
ENDBRANCH   8   9
ENDBRANCH   7   8
ENDBRANCH   6   7
ENDBRANCH   5   6
ENDBRANCH   4   5
ENDBRANCH   3   4
ENDBRANCH   2   3
ENDBRANCH   1   2
BRANCH   1  13
ATOM     13  C   UNL     1      57.091  26.149  52.248  1.00  0.00     0.000 C 
BRANCH  13  14
ATOM     14  C   UNL     1      57.243  25.654  50.802  1.00  0.00     0.000 C 
BRANCH  14  15
ATOM     15  C   UNL     1      56.123  26.162  49.878  1.00  0.00     0.000 C 
BRANCH  15  16
ATOM     16  C   UNL     1      55.014  26.902  50.647  1.00  0.00     0.000 C 
BRANCH  16  17
ATOM     17  C   UNL     1      53.934  27.475  49.714  1.00  0.00     0.000 C 
BRANCH  17  18
ATOM     18  C   UNL     1      53.523  28.907  50.097  1.00  0.00     0.000 C 
BRANCH  18  19
ATOM     19  C   UNL     1      54.324  29.451  51.290  1.00  0.00     0.000 C 
BRANCH  19  20
ATOM     20  C   UNL     1      53.870  30.858  51.720  1.00  0.00     0.006 C 
BRANCH  20  21
ATOM     21  C   UNL     1      53.850  31.018  53.246  1.00  0.00     0.053 C 
BRANCH  21  22
ATOM     22  C   UNL     1      54.812  32.071  53.704  1.00  0.00     0.041 C 
ATOM     23  O   UNL     1      54.436  32.967  54.505  1.00  0.00    -0.550 OA
ATOM     24  O   UNL     1      56.113  32.083  53.220  1.00  0.00    -0.550 OA
ENDBRANCH  21  22
ENDBRANCH  20  21
ENDBRANCH  19  20
ENDBRANCH  18  19
ENDBRANCH  17  18
ENDBRANCH  16  17
ENDBRANCH  15  16
ENDBRANCH  14  15
ENDBRANCH  13  14
ENDBRANCH   1  13
TORSDOF 20
ENDMDL
MODEL 8
REMARK VINA RESULT:    -3.178      2.885      5.662
REMARK INTER + INTRA:         -10.168
REMARK INTER:                  -6.749
REMARK INTRA:                  -3.419
REMARK UNBOUND:                -3.275
REMARK SMILES CCCCCCCCCCCCCCCCCCCCCC(=O)[O-]
REMARK SMILES IDX 12 1 11 2 10 3 9 4 8 5 7 6 6 7 5 8 4 9 3 10 2 11 1 12 13 13
REMARK SMILES IDX 14 14 15 15 16 16 17 17 18 18 19 19 20 20 21 21 22 22 23 23
REMARK SMILES IDX 24 24
REMARK H PARENT
REMARK Flexibility Score: inf
ROOT
ATOM      1  C   UNL     1      54.697  26.788  51.023  1.00  0.00     0.000 C 
ENDROOT
BRANCH   1   2
ATOM      2  C   UNL     1      53.940  27.128  49.731  1.00  0.00     0.000 C 
BRANCH   2   3
ATOM      3  C   UNL     1      53.262  28.506  49.786  1.00  0.00     0.000 C 
BRANCH   3   4
ATOM      4  C   UNL     1      54.120  29.557  50.512  1.00  0.00    -0.000 C 
BRANCH   4   5
ATOM      5  C   UNL     1      53.276  30.528  51.355  1.00  0.00    -0.000 C 
BRANCH   5   6
ATOM      6  C   UNL     1      54.014  31.012  52.612  1.00  0.00    -0.000 C 
BRANCH   6   7
ATOM      7  C   UNL     1      55.270  30.172  52.869  1.00  0.00    -0.000 C 
BRANCH   7   8
ATOM      8  C   UNL     1      56.425  31.048  53.377  1.00  0.00    -0.000 C 
BRANCH   8   9
ATOM      9  C   UNL     1      57.476  30.253  54.171  1.00  0.00    -0.000 C 
BRANCH   9  10
ATOM     10  C   UNL     1      58.843  30.099  53.474  1.00  0.00    -0.000 C 
BRANCH  10  11
ATOM     11  C   UNL     1      59.338  31.353  52.730  1.00  0.00    -0.003 C 
ATOM     12  C   UNL     1      60.853  31.370  52.535  1.00  0.00     0.004 C 
ENDBRANCH  10  11
ENDBRANCH   9  10
ENDBRANCH   8   9
ENDBRANCH   7   8
ENDBRANCH   6   7
ENDBRANCH   5   6
ENDBRANCH   4   5
ENDBRANCH   3   4
ENDBRANCH   2   3
ENDBRANCH   1   2
BRANCH   1  13
ATOM     13  C   UNL     1      55.888  25.866  50.736  1.00  0.00     0.000 C 
BRANCH  13  14
ATOM     14  C   UNL     1      57.042  26.644  50.085  1.00  0.00     0.000 C 
BRANCH  14  15
ATOM     15  C   UNL     1      57.527  27.821  50.947  1.00  0.00     0.000 C 
BRANCH  15  16
ATOM     16  C   UNL     1      57.620  29.136  50.153  1.00  0.00     0.000 C 
BRANCH  16  17
ATOM     17  C   UNL     1      58.882  29.206  49.276  1.00  0.00     0.000 C 
BRANCH  17  18
ATOM     18  C   UNL     1      60.138  28.705  50.010  1.00  0.00     0.000 C 
BRANCH  18  19
ATOM     19  C   UNL     1      60.878  27.608  49.229  1.00  0.00     0.000 C 
BRANCH  19  20
ATOM     20  C   UNL     1      61.349  26.452  50.129  1.00  0.00     0.006 C 
BRANCH  20  21
ATOM     21  C   UNL     1      60.418  25.235  50.040  1.00  0.00     0.053 C 
BRANCH  21  22
ATOM     22  C   UNL     1      60.135  24.655  51.392  1.00  0.00     0.041 C 
ATOM     23  O   UNL     1      61.015  24.688  52.292  1.00  0.00    -0.550 OA
ATOM     24  O   UNL     1      58.912  24.048  51.646  1.00  0.00    -0.550 OA
ENDBRANCH  21  22
ENDBRANCH  20  21
ENDBRANCH  19  20
ENDBRANCH  18  19
ENDBRANCH  17  18
ENDBRANCH  16  17
ENDBRANCH  15  16
ENDBRANCH  14  15
ENDBRANCH  13  14
ENDBRANCH   1  13
TORSDOF 20
ENDMDL
MODEL 9
REMARK VINA RESULT:    -3.145      1.757      3.215
REMARK INTER + INTRA:         -10.097
REMARK INTER:                  -6.143
REMARK INTRA:                  -3.954
REMARK UNBOUND:                -3.275
REMARK SMILES CCCCCCCCCCCCCCCCCCCCCC(=O)[O-]
REMARK SMILES IDX 12 1 11 2 10 3 9 4 8 5 7 6 6 7 5 8 4 9 3 10 2 11 1 12 13 13
REMARK SMILES IDX 14 14 15 15 16 16 17 17 18 18 19 19 20 20 21 21 22 22 23 23
REMARK SMILES IDX 24 24
REMARK H PARENT
REMARK Flexibility Score: inf
ROOT
ATOM      1  C   UNL     1      59.257  24.817  50.523  1.00  0.00     0.000 C 
ENDROOT
BRANCH   1   2
ATOM      2  C   UNL     1      59.308  25.898  49.434  1.00  0.00     0.000 C 
BRANCH   2   3
ATOM      3  C   UNL     1      59.767  27.262  49.974  1.00  0.00     0.000 C 
BRANCH   3   4
ATOM      4  C   UNL     1      59.343  28.429  49.065  1.00  0.00    -0.000 C 
BRANCH   4   5
ATOM      5  C   UNL     1      58.636  29.554  49.839  1.00  0.00    -0.000 C 
BRANCH   5   6
ATOM      6  C   UNL     1      58.486  29.237  51.334  1.00  0.00    -0.000 C 
BRANCH   6   7
ATOM      7  C   UNL     1      57.008  29.102  51.721  1.00  0.00    -0.000 C 
BRANCH   7   8
ATOM      8  C   UNL     1      56.775  27.846  52.573  1.00  0.00    -0.000 C 
BRANCH   8   9
ATOM      9  C   UNL     1      55.780  26.862  51.931  1.00  0.00    -0.000 C 
BRANCH   9  10
ATOM     10  C   UNL     1      55.912  26.703  50.402  1.00  0.00    -0.000 C 
BRANCH  10  11
ATOM     11  C   UNL     1      54.596  26.850  49.619  1.00  0.00    -0.003 C 
ATOM     12  C   UNL     1      53.873  28.164  49.910  1.00  0.00     0.004 C 
ENDBRANCH  10  11
ENDBRANCH   9  10
ENDBRANCH   8   9
ENDBRANCH   7   8
ENDBRANCH   6   7
ENDBRANCH   5   6
ENDBRANCH   4   5
ENDBRANCH   3   4
ENDBRANCH   2   3
ENDBRANCH   1   2
BRANCH   1  13
ATOM     13  C   UNL     1      59.448  25.429  51.916  1.00  0.00     0.000 C 
BRANCH  13  14
ATOM     14  C   UNL     1      60.410  24.580  52.762  1.00  0.00     0.000 C 
BRANCH  14  15
ATOM     15  C   UNL     1      61.484  25.424  53.468  1.00  0.00     0.000 C 
BRANCH  15  16
ATOM     16  C   UNL     1      62.396  26.169  52.477  1.00  0.00     0.000 C 
BRANCH  16  17
ATOM     17  C   UNL     1      63.204  25.211  51.587  1.00  0.00     0.000 C 
BRANCH  17  18
ATOM     18  C   UNL     1      62.982  25.470  50.087  1.00  0.00     0.000 C 
BRANCH  18  19
ATOM     19  C   UNL     1      63.902  26.570  49.536  1.00  0.00     0.000 C 
BRANCH  19  20
ATOM     20  C   UNL     1      63.130  27.828  49.100  1.00  0.00     0.006 C 
BRANCH  20  21
ATOM     21  C   UNL     1      63.623  29.089  49.824  1.00  0.00     0.053 C 
BRANCH  21  22
ATOM     22  C   UNL     1      62.496  29.823  50.485  1.00  0.00     0.041 C 
ATOM     23  O   UNL     1      62.034  29.417  51.584  1.00  0.00    -0.550 OA
ATOM     24  O   UNL     1      61.935  30.934  49.870  1.00  0.00    -0.550 OA
ENDBRANCH  21  22
ENDBRANCH  20  21
ENDBRANCH  19  20
ENDBRANCH  18  19
ENDBRANCH  17  18
ENDBRANCH  16  17
ENDBRANCH  15  16
ENDBRANCH  14  15
ENDBRANCH  13  14
ENDBRANCH   1  13
TORSDOF 20
ENDMDL
