MODEL 1
REMARK VINA RESULT:    -4.026      0.000      0.000
REMARK INTER + INTRA:          -8.596
REMARK INTER:                  -7.556
REMARK INTRA:                  -1.040
REMARK UNBOUND:                -1.040
REMARK SMILES CCCCCCCCC=CCCCCCCCC(=O)[O-]
REMARK SMILES IDX 10 1 9 2 11 3 12 4 13 5 14 6 15 7 16 8 17 9 18 10 19 11
REMARK SMILES IDX 20 12 8 13 7 14 6 15 5 16 4 17 3 18 2 19 1 20
REMARK H PARENT
REMARK Flexibility Score: inf
ROOT
ATOM      1  C   UNL     1     -44.969 -29.071  -0.991  1.00  0.00    -0.031 C 
ATOM      2  C   UNL     1     -44.440 -28.540   0.127  1.00  0.00    -0.031 C 
ENDROOT
BRANCH   1   3
ATOM      3  C   UNL     1     -45.277 -28.306  -2.256  1.00  0.00     0.027 C 
BRANCH   3   4
ATOM      4  C   UNL     1     -46.774 -28.355  -2.588  1.00  0.00     0.004 C 
BRANCH   4   5
ATOM      5  C   UNL     1     -47.062 -29.215  -3.831  1.00  0.00     0.000 C 
BRANCH   5   6
ATOM      6  C   UNL     1     -45.804 -29.439  -4.687  1.00  0.00     0.000 C 
BRANCH   6   7
ATOM      7  C   UNL     1     -45.862 -28.724  -6.058  1.00  0.00     0.000 C 
BRANCH   7   8
ATOM      8  C   UNL     1     -44.764 -27.659  -6.237  1.00  0.00     0.006 C 
BRANCH   8   9
ATOM      9  C   UNL     1     -44.176 -27.607  -7.654  1.00  0.00     0.053 C 
BRANCH   9  10
ATOM     10  C   UNL     1     -43.117 -28.648  -7.860  1.00  0.00     0.041 C 
ATOM     11  O   UNL     1     -43.405 -29.742  -8.412  1.00  0.00    -0.550 OA
ATOM     12  O   UNL     1     -41.810 -28.406  -7.456  1.00  0.00    -0.550 OA
ENDBRANCH   9  10
ENDBRANCH   8   9
ENDBRANCH   7   8
ENDBRANCH   6   7
ENDBRANCH   5   6
ENDBRANCH   4   5
ENDBRANCH   3   4
ENDBRANCH   1   3
BRANCH   2  13
ATOM     13  C   UNL     1     -44.128 -27.078   0.329  1.00  0.00     0.027 C 
BRANCH  13  14
ATOM     14  C   UNL     1     -45.098 -26.399   1.312  1.00  0.00     0.004 C 
BRANCH  14  15
ATOM     15  C   UNL     1     -46.057 -27.368   2.036  1.00  0.00     0.000 C 
BRANCH  15  16
ATOM     16  C   UNL     1     -46.755 -26.793   3.282  1.00  0.00     0.000 C 
BRANCH  16  17
ATOM     17  C   UNL     1     -46.364 -27.524   4.577  1.00  0.00    -0.000 C 
BRANCH  17  18
ATOM     18  C   UNL     1     -45.990 -26.555   5.710  1.00  0.00    -0.000 C 
BRANCH  18  19
ATOM     19  C   UNL     1     -45.396 -27.272   6.932  1.00  0.00    -0.003 C 
ATOM     20  C   UNL     1     -45.126 -28.743   6.626  1.00  0.00     0.004 C 
ENDBRANCH  18  19
ENDBRANCH  17  18
ENDBRANCH  16  17
ENDBRANCH  15  16
ENDBRANCH  14  15
ENDBRANCH  13  14
ENDBRANCH   2  13
TORSDOF 15
ENDMDL
MODEL 2
REMARK VINA RESULT:    -3.969      1.581      2.493
REMARK INTER + INTRA:          -8.490
REMARK INTER:                  -6.784
REMARK INTRA:                  -1.705
REMARK UNBOUND:                -1.040
REMARK SMILES CCCCCCCCC=CCCCCCCCC(=O)[O-]
REMARK SMILES IDX 10 1 9 2 11 3 12 4 13 5 14 6 15 7 16 8 17 9 18 10 19 11
REMARK SMILES IDX 20 12 8 13 7 14 6 15 5 16 4 17 3 18 2 19 1 20
REMARK H PARENT
REMARK Flexibility Score: inf
ROOT
ATOM      1  C   UNL     1     -44.120 -26.905   0.374  1.00  0.00    -0.031 C 
ATOM      2  C   UNL     1     -45.030 -26.413   1.235  1.00  0.00    -0.031 C 
ENDROOT
BRANCH   1   3
ATOM      3  C   UNL     1     -44.439 -27.557  -0.951  1.00  0.00     0.027 C 
BRANCH   3   4
ATOM      4  C   UNL     1     -44.426 -29.086  -0.839  1.00  0.00     0.004 C 
BRANCH   4   5
ATOM      5  C   UNL     1     -45.765 -29.708  -1.272  1.00  0.00     0.000 C 
BRANCH   5   6
ATOM      6  C   UNL     1     -46.626 -28.727  -2.085  1.00  0.00     0.000 C 
BRANCH   6   7
ATOM      7  C   UNL     1     -46.625 -29.027  -3.603  1.00  0.00     0.000 C 
BRANCH   7   8
ATOM      8  C   UNL     1     -45.822 -28.004  -4.428  1.00  0.00     0.006 C 
BRANCH   8   9
ATOM      9  C   UNL     1     -46.592 -27.431  -5.626  1.00  0.00     0.053 C 
BRANCH   9  10
ATOM     10  C   UNL     1     -45.732 -27.334  -6.850  1.00  0.00     0.041 C 
ATOM     11  O   UNL     1     -44.515 -27.029  -6.745  1.00  0.00    -0.550 OA
ATOM     12  O   UNL     1     -46.269 -27.596  -8.104  1.00  0.00    -0.550 OA
ENDBRANCH   9  10
ENDBRANCH   8   9
ENDBRANCH   7   8
ENDBRANCH   6   7
ENDBRANCH   5   6
ENDBRANCH   4   5
ENDBRANCH   3   4
ENDBRANCH   1   3
BRANCH   2  13
ATOM     13  C   UNL     1     -46.526 -26.488   1.053  1.00  0.00     0.027 C 
BRANCH  13  14
ATOM     14  C   UNL     1     -47.125 -27.780   1.636  1.00  0.00     0.004 C 
BRANCH  14  15
ATOM     15  C   UNL     1     -46.372 -28.338   2.862  1.00  0.00     0.000 C 
BRANCH  15  16
ATOM     16  C   UNL     1     -46.977 -27.970   4.229  1.00  0.00     0.000 C 
BRANCH  16  17
ATOM     17  C   UNL     1     -46.432 -26.644   4.786  1.00  0.00    -0.000 C 
BRANCH  17  18
ATOM     18  C   UNL     1     -45.665 -26.831   6.106  1.00  0.00    -0.000 C 
BRANCH  18  19
ATOM     19  C   UNL     1     -46.062 -28.120   6.843  1.00  0.00    -0.003 C 
ATOM     20  C   UNL     1     -44.934 -29.147   6.795  1.00  0.00     0.004 C 
ENDBRANCH  18  19
ENDBRANCH  17  18
ENDBRANCH  16  17
ENDBRANCH  15  16
ENDBRANCH  14  15
ENDBRANCH  13  14
ENDBRANCH   2  13
TORSDOF 15
ENDMDL
MODEL 3
REMARK VINA RESULT:    -3.968      1.025      2.099
REMARK INTER + INTRA:          -8.487
REMARK INTER:                  -7.260
REMARK INTRA:                  -1.227
REMARK UNBOUND:                -1.040
REMARK SMILES CCCCCCCCC=CCCCCCCCC(=O)[O-]
REMARK SMILES IDX 10 1 9 2 11 3 12 4 13 5 14 6 15 7 16 8 17 9 18 10 19 11
REMARK SMILES IDX 20 12 8 13 7 14 6 15 5 16 4 17 3 18 2 19 1 20
REMARK H PARENT
REMARK Flexibility Score: inf
ROOT
ATOM      1  C   UNL     1     -44.098 -27.111   0.327  1.00  0.00    -0.031 C 
ATOM      2  C   UNL     1     -44.838 -26.302   1.108  1.00  0.00    -0.031 C 
ENDROOT
BRANCH   1   3
ATOM      3  C   UNL     1     -44.608 -28.347  -0.377  1.00  0.00     0.027 C 
BRANCH   3   4
ATOM      4  C   UNL     1     -45.065 -28.028  -1.805  1.00  0.00     0.004 C 
BRANCH   4   5
ATOM      5  C   UNL     1     -46.538 -28.408  -2.038  1.00  0.00     0.000 C 
BRANCH   5   6
ATOM      6  C   UNL     1     -46.690 -29.558  -3.048  1.00  0.00     0.000 C 
BRANCH   6   7
ATOM      7  C   UNL     1     -45.777 -29.407  -4.288  1.00  0.00     0.000 C 
BRANCH   7   8
ATOM      8  C   UNL     1     -46.267 -28.336  -5.281  1.00  0.00     0.006 C 
BRANCH   8   9
ATOM      9  C   UNL     1     -45.147 -27.444  -5.834  1.00  0.00     0.053 C 
BRANCH   9  10
ATOM     10  C   UNL     1     -44.571 -27.993  -7.104  1.00  0.00     0.041 C 
ATOM     11  O   UNL     1     -45.249 -28.775  -7.820  1.00  0.00    -0.550 OA
ATOM     12  O   UNL     1     -43.291 -27.630  -7.506  1.00  0.00    -0.550 OA
ENDBRANCH   9  10
ENDBRANCH   8   9
ENDBRANCH   7   8
ENDBRANCH   6   7
ENDBRANCH   5   6
ENDBRANCH   4   5
ENDBRANCH   3   4
ENDBRANCH   1   3
BRANCH   2  13
ATOM     13  C   UNL     1     -46.286 -26.529   1.465  1.00  0.00     0.027 C 
BRANCH  13  14
ATOM     14  C   UNL     1     -46.485 -26.808   2.965  1.00  0.00     0.004 C 
BRANCH  14  15
ATOM     15  C   UNL     1     -46.283 -28.282   3.374  1.00  0.00     0.000 C 
BRANCH  15  16
ATOM     16  C   UNL     1     -46.644 -28.615   4.833  1.00  0.00     0.000 C 
BRANCH  16  17
ATOM     17  C   UNL     1     -45.437 -29.109   5.649  1.00  0.00    -0.000 C 
BRANCH  17  18
ATOM     18  C   UNL     1     -45.103 -28.179   6.827  1.00  0.00    -0.000 C 
BRANCH  18  19
ATOM     19  C   UNL     1     -45.641 -26.754   6.627  1.00  0.00    -0.003 C 
ATOM     20  C   UNL     1     -46.485 -26.314   7.821  1.00  0.00     0.004 C 
ENDBRANCH  18  19
ENDBRANCH  17  18
ENDBRANCH  16  17
ENDBRANCH  15  16
ENDBRANCH  14  15
ENDBRANCH  13  14
ENDBRANCH   2  13
TORSDOF 15
ENDMDL
MODEL 4
REMARK VINA RESULT:    -3.965      0.886      1.349
REMARK INTER + INTRA:          -8.483
REMARK INTER:                  -7.593
REMARK INTRA:                  -0.890
REMARK UNBOUND:                -1.040
REMARK SMILES CCCCCCCCC=CCCCCCCCC(=O)[O-]
REMARK SMILES IDX 10 1 9 2 11 3 12 4 13 5 14 6 15 7 16 8 17 9 18 10 19 11
REMARK SMILES IDX 20 12 8 13 7 14 6 15 5 16 4 17 3 18 2 19 1 20
REMARK H PARENT
REMARK Flexibility Score: inf
ROOT
ATOM      1  C   UNL     1     -43.748 -28.091  -0.494  1.00  0.00    -0.031 C 
ATOM      2  C   UNL     1     -44.136 -27.106   0.337  1.00  0.00    -0.031 C 
ENDROOT
BRANCH   1   3
ATOM      3  C   UNL     1     -44.675 -29.052  -1.198  1.00  0.00     0.027 C 
BRANCH   3   4
ATOM      4  C   UNL     1     -45.257 -28.434  -2.475  1.00  0.00     0.004 C 
BRANCH   4   5
ATOM      5  C   UNL     1     -45.736 -29.506  -3.469  1.00  0.00     0.000 C 
BRANCH   5   6
ATOM      6  C   UNL     1     -46.464 -28.894  -4.678  1.00  0.00     0.000 C 
BRANCH   6   7
ATOM      7  C   UNL     1     -45.656 -28.998  -5.994  1.00  0.00     0.000 C 
BRANCH   7   8
ATOM      8  C   UNL     1     -45.511 -27.652  -6.729  1.00  0.00     0.006 C 
BRANCH   8   9
ATOM      9  C   UNL     1     -44.055 -27.204  -6.921  1.00  0.00     0.053 C 
BRANCH   9  10
ATOM     10  C   UNL     1     -43.320 -28.088  -7.883  1.00  0.00     0.041 C 
ATOM     11  O   UNL     1     -43.850 -28.409  -8.978  1.00  0.00    -0.550 OA
ATOM     12  O   UNL     1     -42.044 -28.546  -7.577  1.00  0.00    -0.550 OA
ENDBRANCH   9  10
ENDBRANCH   8   9
ENDBRANCH   7   8
ENDBRANCH   6   7
ENDBRANCH   5   6
ENDBRANCH   4   5
ENDBRANCH   3   4
ENDBRANCH   1   3
BRANCH   2  13
ATOM     13  C   UNL     1     -45.560 -26.837   0.757  1.00  0.00     0.027 C 
BRANCH  13  14
ATOM     14  C   UNL     1     -45.646 -26.022   2.059  1.00  0.00     0.004 C 
BRANCH  14  15
ATOM     15  C   UNL     1     -46.567 -26.633   3.136  1.00  0.00     0.000 C 
BRANCH  15  16
ATOM     16  C   UNL     1     -46.357 -28.133   3.408  1.00  0.00     0.000 C 
BRANCH  16  17
ATOM     17  C   UNL     1     -46.664 -28.526   4.863  1.00  0.00    -0.000 C 
BRANCH  17  18
ATOM     18  C   UNL     1     -45.429 -29.070   5.599  1.00  0.00    -0.000 C 
BRANCH  18  19
ATOM     19  C   UNL     1     -45.113 -28.288   6.884  1.00  0.00    -0.003 C 
ATOM     20  C   UNL     1     -45.525 -26.825   6.750  1.00  0.00     0.004 C 
ENDBRANCH  18  19
ENDBRANCH  17  18
ENDBRANCH  16  17
ENDBRANCH  15  16
ENDBRANCH  14  15
ENDBRANCH  13  14
ENDBRANCH   2  13
TORSDOF 15
ENDMDL
MODEL 5
REMARK VINA RESULT:    -3.883      2.099      3.498
REMARK INTER + INTRA:          -8.329
REMARK INTER:                  -6.243
REMARK INTRA:                  -2.086
REMARK UNBOUND:                -1.040
REMARK SMILES CCCCCCCCC=CCCCCCCCC(=O)[O-]
REMARK SMILES IDX 10 1 9 2 11 3 12 4 13 5 14 6 15 7 16 8 17 9 18 10 19 11
REMARK SMILES IDX 20 12 8 13 7 14 6 15 5 16 4 17 3 18 2 19 1 20
REMARK H PARENT
REMARK Flexibility Score: inf
ROOT
ATOM      1  C   UNL     1     -44.134 -26.521   0.654  1.00  0.00    -0.031 C 
ATOM      2  C   UNL     1     -45.389 -26.459   1.137  1.00  0.00    -0.031 C 
ENDROOT
BRANCH   1   3
ATOM      3  C   UNL     1     -43.704 -27.315  -0.556  1.00  0.00     0.027 C 
BRANCH   3   4
ATOM      4  C   UNL     1     -42.981 -28.605  -0.151  1.00  0.00     0.004 C 
BRANCH   4   5
ATOM      5  C   UNL     1     -43.930 -29.816  -0.128  1.00  0.00     0.000 C 
BRANCH   5   6
ATOM      6  C   UNL     1     -44.551 -30.095  -1.507  1.00  0.00     0.000 C 
BRANCH   6   7
ATOM      7  C   UNL     1     -46.098 -30.125  -1.485  1.00  0.00     0.000 C 
BRANCH   7   8
ATOM      8  C   UNL     1     -46.741 -29.225  -2.557  1.00  0.00     0.006 C 
BRANCH   8   9
ATOM      9  C   UNL     1     -45.763 -28.233  -3.203  1.00  0.00     0.053 C 
BRANCH   9  10
ATOM     10  C   UNL     1     -45.979 -28.118  -4.682  1.00  0.00     0.041 C 
ATOM     11  O   UNL     1     -46.505 -27.081  -5.165  1.00  0.00    -0.550 OA
ATOM     12  O   UNL     1     -45.587 -29.147  -5.529  1.00  0.00    -0.550 OA
ENDBRANCH   9  10
ENDBRANCH   8   9
ENDBRANCH   7   8
ENDBRANCH   6   7
ENDBRANCH   5   6
ENDBRANCH   4   5
ENDBRANCH   3   4
ENDBRANCH   1   3
BRANCH   2  13
ATOM     13  C   UNL     1     -46.567 -27.226   0.589  1.00  0.00     0.027 C 
BRANCH  13  14
ATOM     14  C   UNL     1     -47.055 -28.322   1.552  1.00  0.00     0.004 C 
BRANCH  14  15
ATOM     15  C   UNL     1     -46.671 -28.094   3.029  1.00  0.00     0.000 C 
BRANCH  15  16
ATOM     16  C   UNL     1     -45.885 -29.241   3.689  1.00  0.00     0.000 C 
BRANCH  16  17
ATOM     17  C   UNL     1     -45.848 -29.134   5.224  1.00  0.00    -0.000 C 
BRANCH  17  18
ATOM     18  C   UNL     1     -46.395 -27.791   5.733  1.00  0.00    -0.000 C 
BRANCH  18  19
ATOM     19  C   UNL     1     -45.475 -27.133   6.773  1.00  0.00    -0.003 C 
ATOM     20  C   UNL     1     -46.284 -26.341   7.797  1.00  0.00     0.004 C 
ENDBRANCH  18  19
ENDBRANCH  17  18
ENDBRANCH  16  17
ENDBRANCH  15  16
ENDBRANCH  14  15
ENDBRANCH  13  14
ENDBRANCH   2  13
TORSDOF 15
ENDMDL
MODEL 6
REMARK VINA RESULT:    -3.824      5.073     10.440
REMARK INTER + INTRA:          -8.218
REMARK INTER:                  -7.153
REMARK INTRA:                  -1.065
REMARK UNBOUND:                -1.040
REMARK SMILES CCCCCCCCC=CCCCCCCCC(=O)[O-]
REMARK SMILES IDX 10 1 9 2 11 3 12 4 13 5 14 6 15 7 16 8 17 9 18 10 19 11
REMARK SMILES IDX 20 12 8 13 7 14 6 15 5 16 4 17 3 18 2 19 1 20
REMARK H PARENT
REMARK Flexibility Score: inf
ROOT
ATOM      1  C   UNL     1     -44.703 -26.745   1.050  1.00  0.00    -0.031 C 
ATOM      2  C   UNL     1     -44.360 -27.357  -0.099  1.00  0.00    -0.031 C 
ENDROOT
BRANCH   1   3
ATOM      3  C   UNL     1     -46.115 -26.424   1.478  1.00  0.00     0.027 C 
BRANCH   3   4
ATOM      4  C   UNL     1     -46.360 -26.819   2.940  1.00  0.00     0.004 C 
BRANCH   4   5
ATOM      5  C   UNL     1     -46.398 -28.346   3.127  1.00  0.00     0.000 C 
BRANCH   5   6
ATOM      6  C   UNL     1     -46.688 -28.747   4.583  1.00  0.00     0.000 C 
BRANCH   6   7
ATOM      7  C   UNL     1     -45.502 -29.470   5.265  1.00  0.00     0.000 C 
BRANCH   7   8
ATOM      8  C   UNL     1     -45.167 -28.910   6.660  1.00  0.00     0.006 C 
BRANCH   8   9
ATOM      9  C   UNL     1     -46.299 -28.084   7.286  1.00  0.00     0.053 C 
BRANCH   9  10
ATOM     10  C   UNL     1     -45.932 -26.636   7.413  1.00  0.00     0.041 C 
ATOM     11  O   UNL     1     -45.141 -26.109   6.588  1.00  0.00    -0.550 OA
ATOM     12  O   UNL     1     -46.472 -25.865   8.434  1.00  0.00    -0.550 OA
ENDBRANCH   9  10
ENDBRANCH   8   9
ENDBRANCH   7   8
ENDBRANCH   6   7
ENDBRANCH   5   6
ENDBRANCH   4   5
ENDBRANCH   3   4
ENDBRANCH   1   3
BRANCH   2  13
ATOM     13  C   UNL     1     -45.325 -27.766  -1.184  1.00  0.00     0.027 C 
BRANCH  13  14
ATOM     14  C   UNL     1     -45.106 -29.216  -1.650  1.00  0.00     0.004 C 
BRANCH  14  15
ATOM     15  C   UNL     1     -45.752 -29.556  -3.010  1.00  0.00     0.000 C 
BRANCH  15  16
ATOM     16  C   UNL     1     -46.898 -28.625  -3.444  1.00  0.00     0.000 C 
BRANCH  16  17
ATOM     17  C   UNL     1     -46.685 -28.027  -4.845  1.00  0.00    -0.000 C 
BRANCH  17  18
ATOM     18  C   UNL     1     -45.198 -27.826  -5.179  1.00  0.00    -0.000 C 
BRANCH  18  19
ATOM     19  C   UNL     1     -44.974 -27.339  -6.619  1.00  0.00    -0.003 C 
ATOM     20  C   UNL     1     -43.777 -28.040  -7.255  1.00  0.00     0.004 C 
ENDBRANCH  18  19
ENDBRANCH  17  18
ENDBRANCH  16  17
ENDBRANCH  15  16
ENDBRANCH  14  15
ENDBRANCH  13  14
ENDBRANCH   2  13
TORSDOF 15
ENDMDL
MODEL 7
REMARK VINA RESULT:    -3.773      4.984     10.485
REMARK INTER + INTRA:          -8.122
REMARK INTER:                  -7.275
REMARK INTRA:                  -0.847
REMARK UNBOUND:                -1.040
REMARK SMILES CCCCCCCCC=CCCCCCCCC(=O)[O-]
REMARK SMILES IDX 10 1 9 2 11 3 12 4 13 5 14 6 15 7 16 8 17 9 18 10 19 11
REMARK SMILES IDX 20 12 8 13 7 14 6 15 5 16 4 17 3 18 2 19 1 20
REMARK H PARENT
REMARK Flexibility Score: inf
ROOT
ATOM      1  C   UNL     1     -44.279 -28.979  -0.884  1.00  0.00    -0.031 C 
ATOM      2  C   UNL     1     -45.137 -29.257  -1.882  1.00  0.00    -0.031 C 
ENDROOT
BRANCH   1   3
ATOM      3  C   UNL     1     -43.976 -27.597  -0.356  1.00  0.00     0.027 C 
BRANCH   3   4
ATOM      4  C   UNL     1     -44.949 -27.199   0.761  1.00  0.00     0.004 C 
BRANCH   4   5
ATOM      5  C   UNL     1     -45.620 -28.425   1.406  1.00  0.00     0.000 C 
BRANCH   5   6
ATOM      6  C   UNL     1     -46.688 -28.028   2.438  1.00  0.00     0.000 C 
BRANCH   6   7
ATOM      7  C   UNL     1     -46.515 -26.586   2.973  1.00  0.00     0.000 C 
BRANCH   7   8
ATOM      8  C   UNL     1     -46.502 -26.504   4.511  1.00  0.00     0.006 C 
BRANCH   8   9
ATOM      9  C   UNL     1     -45.980 -27.774   5.196  1.00  0.00     0.053 C 
BRANCH   9  10
ATOM     10  C   UNL     1     -45.723 -27.557   6.657  1.00  0.00     0.041 C 
ATOM     11  O   UNL     1     -45.190 -26.488   7.054  1.00  0.00    -0.550 OA
ATOM     12  O   UNL     1     -46.086 -28.528   7.583  1.00  0.00    -0.550 OA
ENDBRANCH   9  10
ENDBRANCH   8   9
ENDBRANCH   7   8
ENDBRANCH   6   7
ENDBRANCH   5   6
ENDBRANCH   4   5
ENDBRANCH   3   4
ENDBRANCH   1   3
BRANCH   2  13
ATOM     13  C   UNL     1     -45.893 -28.230  -2.687  1.00  0.00     0.027 C 
BRANCH  13  14
ATOM     14  C   UNL     1     -45.957 -28.584  -4.183  1.00  0.00     0.004 C 
BRANCH  14  15
ATOM     15  C   UNL     1     -45.480 -27.461  -5.128  1.00  0.00     0.000 C 
BRANCH  15  16
ATOM     16  C   UNL     1     -46.171 -27.421  -6.503  1.00  0.00     0.000 C 
BRANCH  16  17
ATOM     17  C   UNL     1     -45.198 -27.668  -7.668  1.00  0.00    -0.000 C 
BRANCH  17  18
ATOM     18  C   UNL     1     -44.073 -28.648  -7.298  1.00  0.00    -0.000 C 
BRANCH  18  19
ATOM     19  C   UNL     1     -42.708 -28.223  -7.860  1.00  0.00    -0.003 C 
ATOM     20  C   UNL     1     -42.080 -29.345  -8.682  1.00  0.00     0.004 C 
ENDBRANCH  18  19
ENDBRANCH  17  18
ENDBRANCH  16  17
ENDBRANCH  15  16
ENDBRANCH  14  15
ENDBRANCH  13  14
ENDBRANCH   2  13
TORSDOF 15
ENDMDL
MODEL 8
REMARK VINA RESULT:    -3.446      3.681      9.409
REMARK INTER + INTRA:          -7.508
REMARK INTER:                  -5.865
REMARK INTRA:                  -1.643
REMARK UNBOUND:                -1.040
REMARK SMILES CCCCCCCCC=CCCCCCCCC(=O)[O-]
REMARK SMILES IDX 10 1 9 2 11 3 12 4 13 5 14 6 15 7 16 8 17 9 18 10 19 11
REMARK SMILES IDX 20 12 8 13 7 14 6 15 5 16 4 17 3 18 2 19 1 20
REMARK H PARENT
REMARK Flexibility Score: inf
ROOT
ATOM      1  C   UNL     1     -45.453 -27.743  -4.391  1.00  0.00    -0.031 C 
ATOM      2  C   UNL     1     -45.626 -27.552  -5.712  1.00  0.00    -0.031 C 
ENDROOT
BRANCH   1   3
ATOM      3  C   UNL     1     -46.506 -28.262  -3.441  1.00  0.00     0.027 C 
BRANCH   3   4
ATOM      4  C   UNL     1     -45.997 -29.472  -2.648  1.00  0.00     0.004 C 
BRANCH   4   5
ATOM      5  C   UNL     1     -46.364 -29.381  -1.157  1.00  0.00     0.000 C 
BRANCH   5   6
ATOM      6  C   UNL     1     -46.336 -27.934  -0.638  1.00  0.00     0.000 C 
BRANCH   6   7
ATOM      7  C   UNL     1     -45.532 -27.770   0.674  1.00  0.00     0.000 C 
BRANCH   7   8
ATOM      8  C   UNL     1     -44.251 -26.932   0.505  1.00  0.00     0.006 C 
BRANCH   8   9
ATOM      9  C   UNL     1     -43.410 -27.323  -0.719  1.00  0.00     0.053 C 
BRANCH   9  10
ATOM     10  C   UNL     1     -42.380 -28.358  -0.382  1.00  0.00     0.041 C 
ATOM     11  O   UNL     1     -42.732 -29.534  -0.104  1.00  0.00    -0.550 OA
ATOM     12  O   UNL     1     -41.030 -28.029  -0.389  1.00  0.00    -0.550 OA
ENDBRANCH   9  10
ENDBRANCH   8   9
ENDBRANCH   7   8
ENDBRANCH   6   7
ENDBRANCH   5   6
ENDBRANCH   4   5
ENDBRANCH   3   4
ENDBRANCH   1   3
BRANCH   2  13
ATOM     13  C   UNL     1     -46.922 -27.762  -6.456  1.00  0.00     0.027 C 
BRANCH  13  14
ATOM     14  C   UNL     1     -46.805 -28.835  -7.552  1.00  0.00     0.004 C 
BRANCH  14  15
ATOM     15  C   UNL     1     -47.017 -28.309  -8.987  1.00  0.00     0.000 C 
BRANCH  15  16
ATOM     16  C   UNL     1     -45.786 -28.397  -9.908  1.00  0.00     0.000 C 
BRANCH  16  17
ATOM     17  C   UNL     1     -45.076 -29.760  -9.827  1.00  0.00    -0.000 C 
BRANCH  17  18
ATOM     18  C   UNL     1     -43.545 -29.628  -9.862  1.00  0.00    -0.000 C 
BRANCH  18  19
ATOM     19  C   UNL     1     -43.008 -28.668  -8.789  1.00  0.00    -0.003 C 
ATOM     20  C   UNL     1     -43.032 -29.320  -7.409  1.00  0.00     0.004 C 
ENDBRANCH  18  19
ENDBRANCH  17  18
ENDBRANCH  16  17
ENDBRANCH  15  16
ENDBRANCH  14  15
ENDBRANCH  13  14
ENDBRANCH   2  13
TORSDOF 15
ENDMDL
MODEL 9
REMARK VINA RESULT:    -3.389      4.132     10.152
REMARK INTER + INTRA:          -7.402
REMARK INTER:                  -5.953
REMARK INTRA:                  -1.449
REMARK UNBOUND:                -1.040
REMARK SMILES CCCCCCCCC=CCCCCCCCC(=O)[O-]
REMARK SMILES IDX 10 1 9 2 11 3 12 4 13 5 14 6 15 7 16 8 17 9 18 10 19 11
REMARK SMILES IDX 20 12 8 13 7 14 6 15 5 16 4 17 3 18 2 19 1 20
REMARK H PARENT
REMARK Flexibility Score: inf
ROOT
ATOM      1  C   UNL     1     -45.259 -27.790  -3.829  1.00  0.00    -0.031 C 
ATOM      2  C   UNL     1     -45.408 -27.460  -5.126  1.00  0.00    -0.031 C 
ENDROOT
BRANCH   1   3
ATOM      3  C   UNL     1     -45.795 -29.045  -3.183  1.00  0.00     0.027 C 
BRANCH   3   4
ATOM      4  C   UNL     1     -46.849 -28.719  -2.118  1.00  0.00     0.004 C 
BRANCH   4   5
ATOM      5  C   UNL     1     -46.424 -29.198  -0.719  1.00  0.00     0.000 C 
BRANCH   5   6
ATOM      6  C   UNL     1     -44.949 -28.883  -0.420  1.00  0.00     0.000 C 
BRANCH   6   7
ATOM      7  C   UNL     1     -44.738 -27.483   0.205  1.00  0.00     0.000 C 
BRANCH   7   8
ATOM      8  C   UNL     1     -46.036 -26.854   0.745  1.00  0.00     0.006 C 
BRANCH   8   9
ATOM      9  C   UNL     1     -45.869 -26.158   2.103  1.00  0.00     0.053 C 
BRANCH   9  10
ATOM     10  C   UNL     1     -46.331 -27.024   3.236  1.00  0.00     0.041 C 
ATOM     11  O   UNL     1     -46.127 -26.670   4.427  1.00  0.00    -0.550 OA
ATOM     12  O   UNL     1     -47.000 -28.214   2.979  1.00  0.00    -0.550 OA
ENDBRANCH   9  10
ENDBRANCH   8   9
ENDBRANCH   7   8
ENDBRANCH   6   7
ENDBRANCH   5   6
ENDBRANCH   4   5
ENDBRANCH   3   4
ENDBRANCH   1   3
BRANCH   2  13
ATOM     13  C   UNL     1     -46.194 -28.256  -6.138  1.00  0.00     0.027 C 
BRANCH  13  14
ATOM     14  C   UNL     1     -46.415 -27.484  -7.451  1.00  0.00     0.004 C 
BRANCH  14  15
ATOM     15  C   UNL     1     -46.428 -28.367  -8.717  1.00  0.00     0.000 C 
BRANCH  15  16
ATOM     16  C   UNL     1     -45.752 -27.751  -9.955  1.00  0.00     0.000 C 
BRANCH  16  17
ATOM     17  C   UNL     1     -44.261 -28.114 -10.063  1.00  0.00    -0.000 C 
BRANCH  17  18
ATOM     18  C   UNL     1     -43.940 -29.477  -9.429  1.00  0.00    -0.000 C 
BRANCH  18  19
ATOM     19  C   UNL     1     -42.668 -29.445  -8.568  1.00  0.00    -0.003 C 
ATOM     20  C   UNL     1     -42.683 -28.255  -7.612  1.00  0.00     0.004 C 
ENDBRANCH  18  19
ENDBRANCH  17  18
ENDBRANCH  16  17
ENDBRANCH  15  16
ENDBRANCH  14  15
ENDBRANCH  13  14
ENDBRANCH   2  13
TORSDOF 15
ENDMDL
