MODEL 1
REMARK VINA RESULT:    -3.514      0.000      0.000
REMARK INTER + INTRA:          -9.630
REMARK INTER:                  -6.802
REMARK INTRA:                  -2.828
REMARK UNBOUND:                -2.828
REMARK SMILES CCCCCCCCCCCCCCCCCC(=O)[O-]
REMARK SMILES IDX 10 1 11 2 12 3 13 4 14 5 15 6 16 7 17 8 18 9 19 10 20 11
REMARK SMILES IDX 9 12 8 13 7 14 6 15 5 16 4 17 3 18 2 19 1 20
REMARK H PARENT
REMARK Flexibility Score: inf
ROOT
ATOM      1  C   UNL     1      39.827  22.539 222.118  1.00  0.00     0.000 C 
ENDROOT
BRANCH   1   2
ATOM      2  C   UNL     1      40.580  23.842 222.427  1.00  0.00     0.000 C 
BRANCH   2   3
ATOM      3  C   UNL     1      39.968  24.555 223.639  1.00  0.00     0.000 C 
BRANCH   3   4
ATOM      4  C   UNL     1      38.779  25.433 223.219  1.00  0.00     0.000 C 
BRANCH   4   5
ATOM      5  C   UNL     1      37.541  25.214 224.104  1.00  0.00     0.000 C 
BRANCH   5   6
ATOM      6  C   UNL     1      36.486  24.319 223.434  1.00  0.00     0.000 C 
BRANCH   6   7
ATOM      7  C   UNL     1      36.358  24.584 221.925  1.00  0.00     0.006 C 
BRANCH   7   8
ATOM      8  C   UNL     1      36.213  23.293 221.109  1.00  0.00     0.053 C 
BRANCH   8   9
ATOM      9  C   UNL     1      36.498  23.556 219.664  1.00  0.00     0.041 C 
ATOM     10  O   UNL     1      37.605  23.221 219.165  1.00  0.00    -0.550 OA
ATOM     11  O   UNL     1      35.559  24.212 218.879  1.00  0.00    -0.550 OA
ENDBRANCH   8   9
ENDBRANCH   7   8
ENDBRANCH   6   7
ENDBRANCH   5   6
ENDBRANCH   4   5
ENDBRANCH   3   4
ENDBRANCH   2   3
ENDBRANCH   1   2
BRANCH   1  12
ATOM     12  C   UNL     1      39.352  21.816 223.388  1.00  0.00     0.000 C 
BRANCH  12  13
ATOM     13  C   UNL     1      40.111  20.504 223.639  1.00  0.00    -0.000 C 
BRANCH  13  14
ATOM     14  C   UNL     1      40.866  20.058 222.381  1.00  0.00    -0.000 C 
BRANCH  14  15
ATOM     15  C   UNL     1      42.336  19.746 222.703  1.00  0.00    -0.000 C 
BRANCH  15  16
ATOM     16  C   UNL     1      43.211  21.009 222.792  1.00  0.00    -0.000 C 
BRANCH  16  17
ATOM     17  C   UNL     1      43.641  21.405 224.218  1.00  0.00    -0.000 C 
BRANCH  17  18
ATOM     18  C   UNL     1      43.102  22.762 224.708  1.00  0.00    -0.000 C 
BRANCH  18  19
ATOM     19  C   UNL     1      42.323  22.675 226.038  1.00  0.00    -0.003 C 
ATOM     20  C   UNL     1      42.135  21.236 226.517  1.00  0.00     0.004 C 
ENDBRANCH  18  19
ENDBRANCH  17  18
ENDBRANCH  16  17
ENDBRANCH  15  16
ENDBRANCH  14  15
ENDBRANCH  13  14
ENDBRANCH  12  13
ENDBRANCH   1  12
TORSDOF 16
ENDMDL
MODEL 2
REMARK VINA RESULT:    -3.489      1.439      2.975
REMARK INTER + INTRA:          -9.580
REMARK INTER:                  -7.317
REMARK INTRA:                  -2.263
REMARK UNBOUND:                -2.828
REMARK SMILES CCCCCCCCCCCCCCCCCC(=O)[O-]
REMARK SMILES IDX 10 1 11 2 12 3 13 4 14 5 15 6 16 7 17 8 18 9 19 10 20 11
REMARK SMILES IDX 9 12 8 13 7 14 6 15 5 16 4 17 3 18 2 19 1 20
REMARK H PARENT
REMARK Flexibility Score: inf
ROOT
ATOM      1  C   UNL     1      41.656  24.692 224.304  1.00  0.00     0.000 C 
ENDROOT
BRANCH   1   2
ATOM      2  C   UNL     1      40.612  23.702 223.767  1.00  0.00     0.000 C 
BRANCH   2   3
ATOM      3  C   UNL     1      40.621  23.673 222.233  1.00  0.00     0.000 C 
BRANCH   3   4
ATOM      4  C   UNL     1      39.292  23.133 221.685  1.00  0.00     0.000 C 
BRANCH   4   5
ATOM      5  C   UNL     1      38.108  24.068 221.983  1.00  0.00     0.000 C 
BRANCH   5   6
ATOM      6  C   UNL     1      36.948  23.346 222.690  1.00  0.00     0.000 C 
BRANCH   6   7
ATOM      7  C   UNL     1      35.751  23.097 221.758  1.00  0.00     0.006 C 
BRANCH   7   8
ATOM      8  C   UNL     1      35.684  24.103 220.603  1.00  0.00     0.053 C 
BRANCH   8   9
ATOM      9  C   UNL     1      34.392  23.960 219.861  1.00  0.00     0.041 C 
ATOM     10  O   UNL     1      34.360  24.104 218.610  1.00  0.00    -0.550 OA
ATOM     11  O   UNL     1      33.215  23.714 220.557  1.00  0.00    -0.550 OA
ENDBRANCH   8   9
ENDBRANCH   7   8
ENDBRANCH   6   7
ENDBRANCH   5   6
ENDBRANCH   4   5
ENDBRANCH   3   4
ENDBRANCH   2   3
ENDBRANCH   1   2
BRANCH   1  12
ATOM     12  C   UNL     1      42.801  23.994 225.056  1.00  0.00     0.000 C 
BRANCH  12  13
ATOM     13  C   UNL     1      42.636  22.467 225.095  1.00  0.00    -0.000 C 
BRANCH  13  14
ATOM     14  C   UNL     1      44.001  21.768 225.141  1.00  0.00    -0.000 C 
BRANCH  14  15
ATOM     15  C   UNL     1      44.099  20.683 224.056  1.00  0.00    -0.000 C 
BRANCH  15  16
ATOM     16  C   UNL     1      43.246  20.998 222.814  1.00  0.00    -0.000 C 
BRANCH  16  17
ATOM     17  C   UNL     1      42.414  19.815 222.279  1.00  0.00    -0.000 C 
BRANCH  17  18
ATOM     18  C   UNL     1      40.892  19.946 222.478  1.00  0.00    -0.000 C 
BRANCH  18  19
ATOM     19  C   UNL     1      40.430  19.665 223.924  1.00  0.00    -0.003 C 
ATOM     20  C   UNL     1      39.174  20.450 224.303  1.00  0.00     0.004 C 
ENDBRANCH  18  19
ENDBRANCH  17  18
ENDBRANCH  16  17
ENDBRANCH  15  16
ENDBRANCH  14  15
ENDBRANCH  13  14
ENDBRANCH  12  13
ENDBRANCH   1  12
TORSDOF 16
ENDMDL
MODEL 3
REMARK VINA RESULT:    -3.477      2.904      6.834
REMARK INTER + INTRA:          -9.558
REMARK INTER:                  -7.329
REMARK INTRA:                  -2.229
REMARK UNBOUND:                -2.828
REMARK SMILES CCCCCCCCCCCCCCCCCC(=O)[O-]
REMARK SMILES IDX 10 1 11 2 12 3 13 4 14 5 15 6 16 7 17 8 18 9 19 10 20 11
REMARK SMILES IDX 9 12 8 13 7 14 6 15 5 16 4 17 3 18 2 19 1 20
REMARK H PARENT
REMARK Flexibility Score: inf
ROOT
ATOM      1  C   UNL     1      40.242  24.070 222.543  1.00  0.00     0.000 C 
ENDROOT
BRANCH   1   2
ATOM      2  C   UNL     1      39.736  22.908 221.675  1.00  0.00     0.000 C 
BRANCH   2   3
ATOM      3  C   UNL     1      40.724  21.735 221.700  1.00  0.00     0.000 C 
BRANCH   3   4
ATOM      4  C   UNL     1      41.896  22.022 222.650  1.00  0.00     0.000 C 
BRANCH   4   5
ATOM      5  C   UNL     1      42.004  20.990 223.784  1.00  0.00     0.000 C 
BRANCH   5   6
ATOM      6  C   UNL     1      41.202  21.397 225.032  1.00  0.00     0.000 C 
BRANCH   6   7
ATOM      7  C   UNL     1      40.335  20.250 225.577  1.00  0.00     0.006 C 
BRANCH   7   8
ATOM      8  C   UNL     1      39.116  19.960 224.692  1.00  0.00     0.053 C 
BRANCH   8   9
ATOM      9  C   UNL     1      38.774  18.504 224.737  1.00  0.00     0.041 C 
ATOM     10  O   UNL     1      37.577  18.129 224.617  1.00  0.00    -0.550 OA
ATOM     11  O   UNL     1      39.772  17.562 224.959  1.00  0.00    -0.550 OA
ENDBRANCH   8   9
ENDBRANCH   7   8
ENDBRANCH   6   7
ENDBRANCH   5   6
ENDBRANCH   4   5
ENDBRANCH   3   4
ENDBRANCH   2   3
ENDBRANCH   1   2
BRANCH   1  12
ATOM     12  C   UNL     1      39.227  24.491 223.618  1.00  0.00     0.000 C 
BRANCH  12  13
ATOM     13  C   UNL     1      38.190  23.396 223.910  1.00  0.00    -0.000 C 
BRANCH  13  14
ATOM     14  C   UNL     1      36.903  23.999 224.488  1.00  0.00    -0.000 C 
BRANCH  14  15
ATOM     15  C   UNL     1      36.239  24.948 223.477  1.00  0.00    -0.000 C 
BRANCH  15  16
ATOM     16  C   UNL     1      35.572  24.204 222.305  1.00  0.00    -0.000 C 
BRANCH  16  17
ATOM     17  C   UNL     1      36.186  24.486 220.921  1.00  0.00    -0.000 C 
BRANCH  17  18
ATOM     18  C   UNL     1      35.300  24.095 219.723  1.00  0.00    -0.000 C 
BRANCH  18  19
ATOM     19  C   UNL     1      36.098  23.632 218.486  1.00  0.00    -0.003 C 
ATOM     20  C   UNL     1      37.484  23.097 218.846  1.00  0.00     0.004 C 
ENDBRANCH  18  19
ENDBRANCH  17  18
ENDBRANCH  16  17
ENDBRANCH  15  16
ENDBRANCH  14  15
ENDBRANCH  13  14
ENDBRANCH  12  13
ENDBRANCH   1  12
TORSDOF 16
ENDMDL
MODEL 4
REMARK VINA RESULT:    -3.312      2.315      4.895
REMARK INTER + INTRA:          -9.239
REMARK INTER:                  -6.762
REMARK INTRA:                  -2.476
REMARK UNBOUND:                -2.828
REMARK SMILES CCCCCCCCCCCCCCCCCC(=O)[O-]
REMARK SMILES IDX 10 1 11 2 12 3 13 4 14 5 15 6 16 7 17 8 18 9 19 10 20 11
REMARK SMILES IDX 9 12 8 13 7 14 6 15 5 16 4 17 3 18 2 19 1 20
REMARK H PARENT
REMARK Flexibility Score: inf
ROOT
ATOM      1  C   UNL     1      42.886  23.637 224.744  1.00  0.00     0.000 C 
ENDROOT
BRANCH   1   2
ATOM      2  C   UNL     1      41.726  22.772 225.259  1.00  0.00     0.000 C 
BRANCH   2   3
ATOM      3  C   UNL     1      40.656  22.589 224.174  1.00  0.00     0.000 C 
BRANCH   3   4
ATOM      4  C   UNL     1      41.197  22.994 222.794  1.00  0.00     0.000 C 
BRANCH   4   5
ATOM      5  C   UNL     1      40.285  24.003 222.076  1.00  0.00     0.000 C 
BRANCH   5   6
ATOM      6  C   UNL     1      39.001  23.354 221.530  1.00  0.00     0.000 C 
BRANCH   6   7
ATOM      7  C   UNL     1      37.744  23.798 222.296  1.00  0.00     0.006 C 
BRANCH   7   8
ATOM      8  C   UNL     1      36.498  22.996 221.899  1.00  0.00     0.053 C 
BRANCH   8   9
ATOM      9  C   UNL     1      35.278  23.859 221.969  1.00  0.00     0.041 C 
ATOM     10  O   UNL     1      35.057  24.563 222.990  1.00  0.00    -0.550 OA
ATOM     11  O   UNL     1      34.360  23.851 220.926  1.00  0.00    -0.550 OA
ENDBRANCH   8   9
ENDBRANCH   7   8
ENDBRANCH   6   7
ENDBRANCH   5   6
ENDBRANCH   4   5
ENDBRANCH   3   4
ENDBRANCH   2   3
ENDBRANCH   1   2
BRANCH   1  12
ATOM     12  C   UNL     1      43.611  24.386 225.875  1.00  0.00     0.000 C 
BRANCH  12  13
ATOM     13  C   UNL     1      43.005  25.771 226.149  1.00  0.00    -0.000 C 
BRANCH  13  14
ATOM     14  C   UNL     1      42.489  26.410 224.853  1.00  0.00    -0.000 C 
BRANCH  14  15
ATOM     15  C   UNL     1      41.820  27.764 225.137  1.00  0.00    -0.000 C 
BRANCH  15  16
ATOM     16  C   UNL     1      40.283  27.681 225.155  1.00  0.00    -0.000 C 
BRANCH  16  17
ATOM     17  C   UNL     1      39.699  26.312 224.755  1.00  0.00    -0.000 C 
BRANCH  17  18
ATOM     18  C   UNL     1      39.150  25.471 225.923  1.00  0.00    -0.000 C 
BRANCH  18  19
ATOM     19  C   UNL     1      37.663  25.088 225.766  1.00  0.00    -0.003 C 
ATOM     20  C   UNL     1      37.431  23.580 225.856  1.00  0.00     0.004 C 
ENDBRANCH  18  19
ENDBRANCH  17  18
ENDBRANCH  16  17
ENDBRANCH  15  16
ENDBRANCH  14  15
ENDBRANCH  13  14
ENDBRANCH  12  13
ENDBRANCH   1  12
TORSDOF 16
ENDMDL
MODEL 5
REMARK VINA RESULT:    -3.306      1.840      3.854
REMARK INTER + INTRA:          -9.227
REMARK INTER:                  -6.085
REMARK INTRA:                  -3.142
REMARK UNBOUND:                -2.828
REMARK SMILES CCCCCCCCCCCCCCCCCC(=O)[O-]
REMARK SMILES IDX 10 1 11 2 12 3 13 4 14 5 15 6 16 7 17 8 18 9 19 10 20 11
REMARK SMILES IDX 9 12 8 13 7 14 6 15 5 16 4 17 3 18 2 19 1 20
REMARK H PARENT
REMARK Flexibility Score: inf
ROOT
ATOM      1  C   UNL     1      38.048  23.079 225.660  1.00  0.00     0.000 C 
ENDROOT
BRANCH   1   2
ATOM      2  C   UNL     1      38.799  21.889 225.044  1.00  0.00     0.000 C 
BRANCH   2   3
ATOM      3  C   UNL     1      40.246  22.270 224.704  1.00  0.00     0.000 C 
BRANCH   3   4
ATOM      4  C   UNL     1      40.555  21.992 223.225  1.00  0.00     0.000 C 
BRANCH   4   5
ATOM      5  C   UNL     1      40.984  23.257 222.464  1.00  0.00     0.000 C 
BRANCH   5   6
ATOM      6  C   UNL     1      39.786  24.102 222.001  1.00  0.00     0.000 C 
BRANCH   6   7
ATOM      7  C   UNL     1      38.744  23.276 221.228  1.00  0.00     0.006 C 
BRANCH   7   8
ATOM      8  C   UNL     1      37.375  23.258 221.921  1.00  0.00     0.053 C 
BRANCH   8   9
ATOM      9  C   UNL     1      36.299  23.656 220.960  1.00  0.00     0.041 C 
ATOM     10  O   UNL     1      36.514  23.625 219.719  1.00  0.00    -0.550 OA
ATOM     11  O   UNL     1      35.075  24.108 221.436  1.00  0.00    -0.550 OA
ENDBRANCH   8   9
ENDBRANCH   7   8
ENDBRANCH   6   7
ENDBRANCH   5   6
ENDBRANCH   4   5
ENDBRANCH   3   4
ENDBRANCH   2   3
ENDBRANCH   1   2
BRANCH   1  12
ATOM     12  C   UNL     1      38.961  24.293 225.900  1.00  0.00     0.000 C 
BRANCH  12  13
ATOM     13  C   UNL     1      38.517  25.531 225.106  1.00  0.00    -0.000 C 
BRANCH  13  14
ATOM     14  C   UNL     1      39.714  26.435 224.784  1.00  0.00    -0.000 C 
BRANCH  14  15
ATOM     15  C   UNL     1      40.938  26.046 225.628  1.00  0.00    -0.000 C 
BRANCH  15  16
ATOM     16  C   UNL     1      42.239  25.985 224.806  1.00  0.00    -0.000 C 
BRANCH  16  17
ATOM     17  C   UNL     1      43.098  24.727 225.039  1.00  0.00    -0.000 C 
BRANCH  17  18
ATOM     18  C   UNL     1      42.898  24.046 226.406  1.00  0.00    -0.000 C 
BRANCH  18  19
ATOM     19  C   UNL     1      43.792  22.805 226.617  1.00  0.00    -0.003 C 
ATOM     20  C   UNL     1      43.899  21.937 225.362  1.00  0.00     0.004 C 
ENDBRANCH  18  19
ENDBRANCH  17  18
ENDBRANCH  16  17
ENDBRANCH  15  16
ENDBRANCH  14  15
ENDBRANCH  13  14
ENDBRANCH  12  13
ENDBRANCH   1  12
TORSDOF 16
ENDMDL
MODEL 6
REMARK VINA RESULT:    -3.293      3.877      7.177
REMARK INTER + INTRA:          -9.201
REMARK INTER:                  -7.431
REMARK INTRA:                  -1.770
REMARK UNBOUND:                -2.828
REMARK SMILES CCCCCCCCCCCCCCCCCC(=O)[O-]
REMARK SMILES IDX 10 1 11 2 12 3 13 4 14 5 15 6 16 7 17 8 18 9 19 10 20 11
REMARK SMILES IDX 9 12 8 13 7 14 6 15 5 16 4 17 3 18 2 19 1 20
REMARK H PARENT
REMARK Flexibility Score: inf
ROOT
ATOM      1  C   UNL     1      41.134  22.272 222.182  1.00  0.00     0.000 C 
ENDROOT
BRANCH   1   2
ATOM      2  C   UNL     1      41.407  22.660 223.643  1.00  0.00     0.000 C 
BRANCH   2   3
ATOM      3  C   UNL     1      41.229  21.453 224.573  1.00  0.00     0.000 C 
BRANCH   3   4
ATOM      4  C   UNL     1      39.800  21.399 225.135  1.00  0.00     0.000 C 
BRANCH   4   5
ATOM      5  C   UNL     1      39.045  20.131 224.706  1.00  0.00     0.000 C 
BRANCH   5   6
ATOM      6  C   UNL     1      38.041  19.652 225.769  1.00  0.00     0.000 C 
BRANCH   6   7
ATOM      7  C   UNL     1      38.627  19.681 227.190  1.00  0.00     0.006 C 
BRANCH   7   8
ATOM      8  C   UNL     1      38.336  18.394 227.974  1.00  0.00     0.053 C 
BRANCH   8   9
ATOM      9  C   UNL     1      37.918  17.300 227.043  1.00  0.00     0.041 C 
ATOM     10  O   UNL     1      36.701  17.000 226.923  1.00  0.00    -0.550 OA
ATOM     11  O   UNL     1      38.878  16.580 226.343  1.00  0.00    -0.550 OA
ENDBRANCH   8   9
ENDBRANCH   7   8
ENDBRANCH   6   7
ENDBRANCH   5   6
ENDBRANCH   4   5
ENDBRANCH   3   4
ENDBRANCH   2   3
ENDBRANCH   1   2
BRANCH   1  12
ATOM     12  C   UNL     1      39.800  22.833 221.661  1.00  0.00     0.000 C 
BRANCH  12  13
ATOM     13  C   UNL     1      39.505  24.243 222.195  1.00  0.00    -0.000 C 
BRANCH  13  14
ATOM     14  C   UNL     1      38.083  24.329 222.764  1.00  0.00    -0.000 C 
BRANCH  14  15
ATOM     15  C   UNL     1      37.434  22.937 222.830  1.00  0.00    -0.000 C 
BRANCH  15  16
ATOM     16  C   UNL     1      36.087  22.868 222.088  1.00  0.00    -0.000 C 
BRANCH  16  17
ATOM     17  C   UNL     1      35.708  24.141 221.307  1.00  0.00    -0.000 C 
BRANCH  17  18
ATOM     18  C   UNL     1      35.188  23.897 219.877  1.00  0.00    -0.000 C 
BRANCH  18  19
ATOM     19  C   UNL     1      36.252  24.127 218.783  1.00  0.00    -0.003 C 
ATOM     20  C   UNL     1      37.291  23.006 218.728  1.00  0.00     0.004 C 
ENDBRANCH  18  19
ENDBRANCH  17  18
ENDBRANCH  16  17
ENDBRANCH  15  16
ENDBRANCH  14  15
ENDBRANCH  13  14
ENDBRANCH  12  13
ENDBRANCH   1  12
TORSDOF 16
ENDMDL
MODEL 7
REMARK VINA RESULT:    -3.260      3.509      6.089
REMARK INTER + INTRA:          -9.138
REMARK INTER:                  -6.031
REMARK INTRA:                  -3.107
REMARK UNBOUND:                -2.828
REMARK SMILES CCCCCCCCCCCCCCCCCC(=O)[O-]
REMARK SMILES IDX 10 1 11 2 12 3 13 4 14 5 15 6 16 7 17 8 18 9 19 10 20 11
REMARK SMILES IDX 9 12 8 13 7 14 6 15 5 16 4 17 3 18 2 19 1 20
REMARK H PARENT
REMARK Flexibility Score: inf
ROOT
ATOM      1  C   UNL     1      41.751  22.116 222.510  1.00  0.00     0.000 C 
ENDROOT
BRANCH   1   2
ATOM      2  C   UNL     1      41.063  21.078 221.611  1.00  0.00     0.000 C 
BRANCH   2   3
ATOM      3  C   UNL     1      40.999  19.710 222.303  1.00  0.00     0.000 C 
BRANCH   3   4
ATOM      4  C   UNL     1      41.520  19.799 223.746  1.00  0.00     0.000 C 
BRANCH   4   5
ATOM      5  C   UNL     1      41.766  18.416 224.371  1.00  0.00     0.000 C 
BRANCH   5   6
ATOM      6  C   UNL     1      40.825  18.126 225.553  1.00  0.00     0.000 C 
BRANCH   6   7
ATOM      7  C   UNL     1      39.370  17.904 225.109  1.00  0.00     0.006 C 
BRANCH   7   8
ATOM      8  C   UNL     1      38.377  17.999 226.274  1.00  0.00     0.053 C 
BRANCH   8   9
ATOM      9  C   UNL     1      36.976  17.813 225.782  1.00  0.00     0.041 C 
ATOM     10  O   UNL     1      36.666  18.151 224.609  1.00  0.00    -0.550 OA
ATOM     11  O   UNL     1      36.002  17.308 226.634  1.00  0.00    -0.550 OA
ENDBRANCH   8   9
ENDBRANCH   7   8
ENDBRANCH   6   7
ENDBRANCH   5   6
ENDBRANCH   4   5
ENDBRANCH   3   4
ENDBRANCH   2   3
ENDBRANCH   1   2
BRANCH   1  12
ATOM     12  C   UNL     1      41.004  23.460 222.539  1.00  0.00     0.000 C 
BRANCH  12  13
ATOM     13  C   UNL     1      39.720  23.439 221.695  1.00  0.00    -0.000 C 
BRANCH  13  14
ATOM     14  C   UNL     1      38.659  24.377 222.286  1.00  0.00    -0.000 C 
BRANCH  14  15
ATOM     15  C   UNL     1      37.996  23.747 223.521  1.00  0.00    -0.000 C 
BRANCH  15  16
ATOM     16  C   UNL     1      37.596  22.276 223.302  1.00  0.00    -0.000 C 
BRANCH  16  17
ATOM     17  C   UNL     1      38.255  21.272 224.269  1.00  0.00    -0.000 C 
BRANCH  17  18
ATOM     18  C   UNL     1      38.251  21.695 225.750  1.00  0.00    -0.000 C 
BRANCH  18  19
ATOM     19  C   UNL     1      39.616  21.519 226.449  1.00  0.00    -0.003 C 
ATOM     20  C   UNL     1      40.613  22.617 226.076  1.00  0.00     0.004 C 
ENDBRANCH  18  19
ENDBRANCH  17  18
ENDBRANCH  16  17
ENDBRANCH  15  16
ENDBRANCH  14  15
ENDBRANCH  13  14
ENDBRANCH  12  13
ENDBRANCH   1  12
TORSDOF 16
ENDMDL
MODEL 8
REMARK VINA RESULT:    -3.248      1.840      2.774
REMARK INTER + INTRA:          -9.113
REMARK INTER:                  -5.861
REMARK INTRA:                  -3.253
REMARK UNBOUND:                -2.828
REMARK SMILES CCCCCCCCCCCCCCCCCC(=O)[O-]
REMARK SMILES IDX 10 1 11 2 12 3 13 4 14 5 15 6 16 7 17 8 18 9 19 10 20 11
REMARK SMILES IDX 9 12 8 13 7 14 6 15 5 16 4 17 3 18 2 19 1 20
REMARK H PARENT
REMARK Flexibility Score: inf
ROOT
ATOM      1  C   UNL     1      38.546  21.883 225.263  1.00  0.00     0.000 C 
ENDROOT
BRANCH   1   2
ATOM      2  C   UNL     1      39.811  22.258 226.049  1.00  0.00     0.000 C 
BRANCH   2   3
ATOM      3  C   UNL     1      40.175  23.732 225.830  1.00  0.00     0.000 C 
BRANCH   3   4
ATOM      4  C   UNL     1      41.309  23.873 224.804  1.00  0.00     0.000 C 
BRANCH   4   5
ATOM      5  C   UNL     1      40.857  24.585 223.518  1.00  0.00     0.000 C 
BRANCH   5   6
ATOM      6  C   UNL     1      40.517  23.602 222.386  1.00  0.00     0.000 C 
BRANCH   6   7
ATOM      7  C   UNL     1      39.161  23.907 221.727  1.00  0.00     0.006 C 
BRANCH   7   8
ATOM      8  C   UNL     1      38.156  24.528 222.705  1.00  0.00     0.053 C 
BRANCH   8   9
ATOM      9  C   UNL     1      36.838  23.827 222.613  1.00  0.00     0.041 C 
ATOM     10  O   UNL     1      36.724  22.777 221.927  1.00  0.00    -0.550 OA
ATOM     11  O   UNL     1      35.723  24.359 223.249  1.00  0.00    -0.550 OA
ENDBRANCH   8   9
ENDBRANCH   7   8
ENDBRANCH   6   7
ENDBRANCH   5   6
ENDBRANCH   4   5
ENDBRANCH   3   4
ENDBRANCH   2   3
ENDBRANCH   1   2
BRANCH   1  12
ATOM     12  C   UNL     1      38.825  20.867 224.143  1.00  0.00     0.000 C 
BRANCH  12  13
ATOM     13  C   UNL     1      39.589  19.632 224.645  1.00  0.00    -0.000 C 
BRANCH  13  14
ATOM     14  C   UNL     1      40.367  18.966 223.502  1.00  0.00    -0.000 C 
BRANCH  14  15
ATOM     15  C   UNL     1      40.916  20.019 222.526  1.00  0.00    -0.000 C 
BRANCH  15  16
ATOM     16  C   UNL     1      42.451  19.987 222.412  1.00  0.00    -0.000 C 
BRANCH  16  17
ATOM     17  C   UNL     1      43.173  21.214 223.001  1.00  0.00    -0.000 C 
BRANCH  17  18
ATOM     18  C   UNL     1      44.005  20.935 224.267  1.00  0.00    -0.000 C 
BRANCH  18  19
ATOM     19  C   UNL     1      43.151  20.723 225.536  1.00  0.00    -0.003 C 
ATOM     20  C   UNL     1      43.176  19.275 226.027  1.00  0.00     0.004 C 
ENDBRANCH  18  19
ENDBRANCH  17  18
ENDBRANCH  16  17
ENDBRANCH  15  16
ENDBRANCH  14  15
ENDBRANCH  13  14
ENDBRANCH  12  13
ENDBRANCH   1  12
TORSDOF 16
ENDMDL
MODEL 9
REMARK VINA RESULT:    -3.228      1.836      3.792
REMARK INTER + INTRA:          -9.075
REMARK INTER:                  -6.571
REMARK INTRA:                  -2.505
REMARK UNBOUND:                -2.828
REMARK SMILES CCCCCCCCCCCCCCCCCC(=O)[O-]
REMARK SMILES IDX 10 1 11 2 12 3 13 4 14 5 15 6 16 7 17 8 18 9 19 10 20 11
REMARK SMILES IDX 9 12 8 13 7 14 6 15 5 16 4 17 3 18 2 19 1 20
REMARK H PARENT
REMARK Flexibility Score: inf
ROOT
ATOM      1  C   UNL     1      43.211  21.433 225.936  1.00  0.00     0.000 C 
ENDROOT
BRANCH   1   2
ATOM      2  C   UNL     1      42.313  22.671 225.789  1.00  0.00     0.000 C 
BRANCH   2   3
ATOM      3  C   UNL     1      42.458  23.290 224.392  1.00  0.00     0.000 C 
BRANCH   3   4
ATOM      4  C   UNL     1      41.110  23.825 223.885  1.00  0.00     0.000 C 
BRANCH   4   5
ATOM      5  C   UNL     1      40.932  23.632 222.370  1.00  0.00     0.000 C 
BRANCH   5   6
ATOM      6  C   UNL     1      39.516  23.995 221.890  1.00  0.00     0.000 C 
BRANCH   6   7
ATOM      7  C   UNL     1      38.466  22.953 222.306  1.00  0.00     0.006 C 
BRANCH   7   8
ATOM      8  C   UNL     1      37.479  23.493 223.350  1.00  0.00     0.053 C 
BRANCH   8   9
ATOM      9  C   UNL     1      36.128  23.687 222.738  1.00  0.00     0.041 C 
ATOM     10  O   UNL     1      35.730  22.918 221.823  1.00  0.00    -0.550 OA
ATOM     11  O   UNL     1      35.326  24.746 223.145  1.00  0.00    -0.550 OA
ENDBRANCH   8   9
ENDBRANCH   7   8
ENDBRANCH   6   7
ENDBRANCH   5   6
ENDBRANCH   4   5
ENDBRANCH   3   4
ENDBRANCH   2   3
ENDBRANCH   1   2
BRANCH   1  12
ATOM     12  C   UNL     1      44.007  21.125 224.657  1.00  0.00     0.000 C 
BRANCH  12  13
ATOM     13  C   UNL     1      44.050  19.623 224.337  1.00  0.00    -0.000 C 
BRANCH  13  14
ATOM     14  C   UNL     1      43.822  19.374 222.841  1.00  0.00    -0.000 C 
BRANCH  14  15
ATOM     15  C   UNL     1      42.707  20.281 222.296  1.00  0.00    -0.000 C 
BRANCH  15  16
ATOM     16  C   UNL     1      41.312  19.635 222.382  1.00  0.00    -0.000 C 
BRANCH  16  17
ATOM     17  C   UNL     1      40.387  20.225 223.464  1.00  0.00    -0.000 C 
BRANCH  17  18
ATOM     18  C   UNL     1      40.311  19.412 224.770  1.00  0.00    -0.000 C 
BRANCH  18  19
ATOM     19  C   UNL     1      39.477  18.119 224.648  1.00  0.00    -0.003 C 
ATOM     20  C   UNL     1      38.002  18.336 224.988  1.00  0.00     0.004 C 
ENDBRANCH  18  19
ENDBRANCH  17  18
ENDBRANCH  16  17
ENDBRANCH  15  16
ENDBRANCH  14  15
ENDBRANCH  13  14
ENDBRANCH  12  13
ENDBRANCH   1  12
TORSDOF 16
ENDMDL
