MODEL 1
REMARK VINA RESULT:    -3.898      0.000      0.000
REMARK INTER + INTRA:         -14.802
REMARK INTER:                 -10.279
REMARK INTRA:                  -4.523
REMARK UNBOUND:                -4.523
REMARK SMILES CCCCCCCCCCCCCCCCCCCCCCCCCCCCCC(=O)[O-]
REMARK SMILES IDX 16 1 17 2 18 3 19 4 20 5 21 6 22 7 23 8 24 9 25 10 26 11
REMARK SMILES IDX 27 12 28 13 29 14 30 15 31 16 32 17 15 18 14 19 13 20 12 21
REMARK SMILES IDX 11 22 10 23 9 24 8 25 7 26 6 27 5 28 4 29 3 30 2 31 1 32
REMARK H PARENT
REMARK Flexibility Score: inf
ROOT
ATOM      1  C   UNL     1     175.836 174.663 185.185  1.00  0.00     0.000 C 
ENDROOT
BRANCH   1   2
ATOM      2  C   UNL     1     176.640 173.351 185.257  1.00  0.00     0.000 C 
BRANCH   2   3
ATOM      3  C   UNL     1     178.012 173.461 184.579  1.00  0.00     0.000 C 
BRANCH   3   4
ATOM      4  C   UNL     1     179.168 173.026 185.496  1.00  0.00     0.000 C 
BRANCH   4   5
ATOM      5  C   UNL     1     178.678 172.146 186.659  1.00  0.00     0.000 C 
BRANCH   5   6
ATOM      6  C   UNL     1     179.190 172.634 188.026  1.00  0.00     0.000 C 
BRANCH   6   7
ATOM      7  C   UNL     1     179.124 174.165 188.154  1.00  0.00     0.000 C 
BRANCH   7   8
ATOM      8  C   UNL     1     178.726 174.604 189.575  1.00  0.00     0.000 C 
BRANCH   8   9
ATOM      9  C   UNL     1     177.248 175.038 189.670  1.00  0.00     0.000 C 
BRANCH   9  10
ATOM     10  C   UNL     1     176.412 174.185 190.640  1.00  0.00     0.000 C 
BRANCH  10  11
ATOM     11  C   UNL     1     176.079 172.796 190.077  1.00  0.00     0.000 C 
BRANCH  11  12
ATOM     12  C   UNL     1     175.467 172.900 188.670  1.00  0.00     0.000 C 
BRANCH  12  13
ATOM     13  C   UNL     1     174.057 173.514 188.679  1.00  0.00     0.006 C 
BRANCH  13  14
ATOM     14  C   UNL     1     173.278 173.251 187.380  1.00  0.00     0.053 C 
BRANCH  14  15
ATOM     15  C   UNL     1     172.212 174.284 187.173  1.00  0.00     0.041 C 
ATOM     16  O   UNL     1     171.574 174.748 188.155  1.00  0.00    -0.550 OA
ATOM     17  O   UNL     1     171.943 174.755 185.893  1.00  0.00    -0.550 OA
ENDBRANCH  14  15
ENDBRANCH  13  14
ENDBRANCH  12  13
ENDBRANCH  11  12
ENDBRANCH  10  11
ENDBRANCH   9  10
ENDBRANCH   8   9
ENDBRANCH   7   8
ENDBRANCH   6   7
ENDBRANCH   5   6
ENDBRANCH   4   5
ENDBRANCH   3   4
ENDBRANCH   2   3
ENDBRANCH   1   2
BRANCH   1  18
ATOM     18  C   UNL     1     176.299 175.691 186.233  1.00  0.00     0.000 C 
BRANCH  18  19
ATOM     19  C   UNL     1     175.113 176.464 186.841  1.00  0.00     0.000 C 
BRANCH  19  20
ATOM     20  C   UNL     1     175.527 177.803 187.469  1.00  0.00     0.000 C 
BRANCH  20  21
ATOM     21  C   UNL     1     174.603 178.963 187.056  1.00  0.00     0.000 C 
BRANCH  21  22
ATOM     22  C   UNL     1     174.584 180.108 188.087  1.00  0.00     0.000 C 
BRANCH  22  23
ATOM     23  C   UNL     1     173.388 180.096 189.064  1.00  0.00     0.000 C 
BRANCH  23  24
ATOM     24  C   UNL     1     172.025 179.732 188.438  1.00  0.00    -0.000 C 
BRANCH  24  25
ATOM     25  C   UNL     1     171.544 178.302 188.739  1.00  0.00    -0.000 C 
BRANCH  25  26
ATOM     26  C   UNL     1     170.154 178.008 188.154  1.00  0.00    -0.000 C 
BRANCH  26  27
ATOM     27  C   UNL     1     169.646 179.128 187.230  1.00  0.00    -0.000 C 
BRANCH  27  28
ATOM     28  C   UNL     1     168.244 179.646 187.614  1.00  0.00    -0.000 C 
BRANCH  28  29
ATOM     29  C   UNL     1     167.923 179.413 189.103  1.00  0.00    -0.000 C 
BRANCH  29  30
ATOM     30  C   UNL     1     166.616 178.636 189.312  1.00  0.00    -0.000 C 
BRANCH  30  31
ATOM     31  C   UNL     1     166.841 177.121 189.427  1.00  0.00    -0.003 C 
ATOM     32  C   UNL     1     167.758 176.792 190.602  1.00  0.00     0.004 C 
ENDBRANCH  30  31
ENDBRANCH  29  30
ENDBRANCH  28  29
ENDBRANCH  27  28
ENDBRANCH  26  27
ENDBRANCH  25  26
ENDBRANCH  24  25
ENDBRANCH  23  24
ENDBRANCH  22  23
ENDBRANCH  21  22
ENDBRANCH  20  21
ENDBRANCH  19  20
ENDBRANCH  18  19
ENDBRANCH   1  18
TORSDOF 28
ENDMDL
MODEL 2
REMARK VINA RESULT:    -3.825     14.515     17.858
REMARK INTER + INTRA:         -14.610
REMARK INTER:                  -8.508
REMARK INTRA:                  -6.102
REMARK UNBOUND:                -4.523
REMARK SMILES CCCCCCCCCCCCCCCCCCCCCCCCCCCCCC(=O)[O-]
REMARK SMILES IDX 16 1 17 2 18 3 19 4 20 5 21 6 22 7 23 8 24 9 25 10 26 11
REMARK SMILES IDX 27 12 28 13 29 14 30 15 31 16 32 17 15 18 14 19 13 20 12 21
REMARK SMILES IDX 11 22 10 23 9 24 8 25 7 26 6 27 5 28 4 29 3 30 2 31 1 32
REMARK H PARENT
REMARK Flexibility Score: inf
ROOT
ATOM      1  C   UNL     1     163.216 162.500 188.499  1.00  0.00     0.000 C 
ENDROOT
BRANCH   1   2
ATOM      2  C   UNL     1     163.376 160.998 188.796  1.00  0.00     0.000 C 
BRANCH   2   3
ATOM      3  C   UNL     1     164.727 160.444 188.326  1.00  0.00     0.000 C 
BRANCH   3   4
ATOM      4  C   UNL     1     165.819 160.535 189.407  1.00  0.00     0.000 C 
BRANCH   4   5
ATOM      5  C   UNL     1     166.784 161.705 189.151  1.00  0.00     0.000 C 
BRANCH   5   6
ATOM      6  C   UNL     1     167.527 161.575 187.809  1.00  0.00     0.000 C 
BRANCH   6   7
ATOM      7  C   UNL     1     167.203 162.735 186.854  1.00  0.00     0.000 C 
BRANCH   7   8
ATOM      8  C   UNL     1     166.355 163.822 187.540  1.00  0.00     0.000 C 
BRANCH   8   9
ATOM      9  C   UNL     1     165.679 164.772 186.529  1.00  0.00     0.000 C 
BRANCH   9  10
ATOM     10  C   UNL     1     164.603 165.678 187.154  1.00  0.00     0.000 C 
BRANCH  10  11
ATOM     11  C   UNL     1     163.218 165.481 186.523  1.00  0.00     0.000 C 
BRANCH  11  12
ATOM     12  C   UNL     1     162.827 166.688 185.652  1.00  0.00     0.000 C 
BRANCH  12  13
ATOM     13  C   UNL     1     161.346 166.667 185.239  1.00  0.00     0.006 C 
BRANCH  13  14
ATOM     14  C   UNL     1     160.387 166.661 186.440  1.00  0.00     0.053 C 
BRANCH  14  15
ATOM     15  C   UNL     1     160.203 168.043 186.990  1.00  0.00     0.041 C 
ATOM     16  O   UNL     1     159.933 169.005 186.222  1.00  0.00    -0.550 OA
ATOM     17  O   UNL     1     160.303 168.264 188.358  1.00  0.00    -0.550 OA
ENDBRANCH  14  15
ENDBRANCH  13  14
ENDBRANCH  12  13
ENDBRANCH  11  12
ENDBRANCH  10  11
ENDBRANCH   9  10
ENDBRANCH   8   9
ENDBRANCH   7   8
ENDBRANCH   6   7
ENDBRANCH   5   6
ENDBRANCH   4   5
ENDBRANCH   3   4
ENDBRANCH   2   3
ENDBRANCH   1   2
BRANCH   1  18
ATOM     18  C   UNL     1     161.767 162.984 188.691  1.00  0.00     0.000 C 
BRANCH  18  19
ATOM     19  C   UNL     1     160.760 161.821 188.618  1.00  0.00     0.000 C 
BRANCH  19  20
ATOM     20  C   UNL     1     159.905 161.844 187.342  1.00  0.00     0.000 C 
BRANCH  20  21
ATOM     21  C   UNL     1     160.093 163.134 186.524  1.00  0.00     0.000 C 
BRANCH  21  22
ATOM     22  C   UNL     1     160.758 162.883 185.157  1.00  0.00     0.000 C 
BRANCH  22  23
ATOM     23  C   UNL     1     161.074 161.406 184.838  1.00  0.00     0.000 C 
BRANCH  23  24
ATOM     24  C   UNL     1     162.527 160.965 185.113  1.00  0.00    -0.000 C 
BRANCH  24  25
ATOM     25  C   UNL     1     163.551 162.112 185.133  1.00  0.00    -0.000 C 
BRANCH  25  26
ATOM     26  C   UNL     1     164.718 161.883 184.159  1.00  0.00    -0.000 C 
BRANCH  26  27
ATOM     27  C   UNL     1     164.956 163.079 183.222  1.00  0.00    -0.000 C 
BRANCH  27  28
ATOM     28  C   UNL     1     163.649 163.750 182.746  1.00  0.00    -0.000 C 
BRANCH  28  29
ATOM     29  C   UNL     1     163.255 163.315 181.321  1.00  0.00    -0.000 C 
BRANCH  29  30
ATOM     30  C   UNL     1     162.311 162.106 181.312  1.00  0.00    -0.000 C 
BRANCH  30  31
ATOM     31  C   UNL     1     162.821 160.963 180.422  1.00  0.00    -0.003 C 
ATOM     32  C   UNL     1     164.302 161.141 180.099  1.00  0.00     0.004 C 
ENDBRANCH  30  31
ENDBRANCH  29  30
ENDBRANCH  28  29
ENDBRANCH  27  28
ENDBRANCH  26  27
ENDBRANCH  25  26
ENDBRANCH  24  25
ENDBRANCH  23  24
ENDBRANCH  22  23
ENDBRANCH  21  22
ENDBRANCH  20  21
ENDBRANCH  19  20
ENDBRANCH  18  19
ENDBRANCH   1  18
TORSDOF 28
ENDMDL
MODEL 3
REMARK VINA RESULT:    -3.767     14.430     18.161
REMARK INTER + INTRA:         -14.456
REMARK INTER:                  -8.879
REMARK INTRA:                  -5.577
REMARK UNBOUND:                -4.523
REMARK SMILES CCCCCCCCCCCCCCCCCCCCCCCCCCCCCC(=O)[O-]
REMARK SMILES IDX 16 1 17 2 18 3 19 4 20 5 21 6 22 7 23 8 24 9 25 10 26 11
REMARK SMILES IDX 27 12 28 13 29 14 30 15 31 16 32 17 15 18 14 19 13 20 12 21
REMARK SMILES IDX 11 22 10 23 9 24 8 25 7 26 6 27 5 28 4 29 3 30 2 31 1 32
REMARK H PARENT
REMARK Flexibility Score: inf
ROOT
ATOM      1  C   UNL     1     163.440 164.240 185.569  1.00  0.00     0.000 C 
ENDROOT
BRANCH   1   2
ATOM      2  C   UNL     1     162.957 165.391 186.469  1.00  0.00     0.000 C 
BRANCH   2   3
ATOM      3  C   UNL     1     162.442 164.902 187.829  1.00  0.00     0.000 C 
BRANCH   3   4
ATOM      4  C   UNL     1     161.004 164.358 187.762  1.00  0.00     0.000 C 
BRANCH   4   5
ATOM      5  C   UNL     1     160.673 163.459 188.964  1.00  0.00     0.000 C 
BRANCH   5   6
ATOM      6  C   UNL     1     160.725 161.961 188.614  1.00  0.00     0.000 C 
BRANCH   6   7
ATOM      7  C   UNL     1     160.932 161.727 187.108  1.00  0.00     0.000 C 
BRANCH   7   8
ATOM      8  C   UNL     1     162.257 160.998 186.818  1.00  0.00     0.000 C 
BRANCH   8   9
ATOM      9  C   UNL     1     163.253 161.089 187.993  1.00  0.00     0.000 C 
BRANCH   9  10
ATOM     10  C   UNL     1     164.479 160.172 187.838  1.00  0.00     0.000 C 
BRANCH  10  11
ATOM     11  C   UNL     1     165.537 160.402 188.926  1.00  0.00     0.000 C 
BRANCH  11  12
ATOM     12  C   UNL     1     165.593 161.883 189.341  1.00  0.00     0.000 C 
BRANCH  12  13
ATOM     13  C   UNL     1     166.692 162.167 190.378  1.00  0.00     0.006 C 
BRANCH  13  14
ATOM     14  C   UNL     1     166.674 163.616 190.892  1.00  0.00     0.053 C 
BRANCH  14  15
ATOM     15  C   UNL     1     167.171 164.565 189.844  1.00  0.00     0.041 C 
ATOM     16  O   UNL     1     166.358 165.212 189.131  1.00  0.00    -0.550 OA
ATOM     17  O   UNL     1     168.537 164.757 189.674  1.00  0.00    -0.550 OA
ENDBRANCH  14  15
ENDBRANCH  13  14
ENDBRANCH  12  13
ENDBRANCH  11  12
ENDBRANCH  10  11
ENDBRANCH   9  10
ENDBRANCH   8   9
ENDBRANCH   7   8
ENDBRANCH   6   7
ENDBRANCH   5   6
ENDBRANCH   4   5
ENDBRANCH   3   4
ENDBRANCH   2   3
ENDBRANCH   1   2
BRANCH   1  18
ATOM     18  C   UNL     1     162.841 164.313 184.153  1.00  0.00     0.000 C 
BRANCH  18  19
ATOM     19  C   UNL     1     161.466 163.623 184.076  1.00  0.00     0.000 C 
BRANCH  19  20
ATOM     20  C   UNL     1     161.470 162.371 183.184  1.00  0.00     0.000 C 
BRANCH  20  21
ATOM     21  C   UNL     1     162.544 162.429 182.084  1.00  0.00     0.000 C 
BRANCH  21  22
ATOM     22  C   UNL     1     163.391 161.145 182.007  1.00  0.00     0.000 C 
BRANCH  22  23
ATOM     23  C   UNL     1     163.335 160.242 183.259  1.00  0.00     0.000 C 
BRANCH  23  24
ATOM     24  C   UNL     1     164.654 160.127 184.052  1.00  0.00    -0.000 C 
BRANCH  24  25
ATOM     25  C   UNL     1     165.188 161.460 184.603  1.00  0.00    -0.000 C 
BRANCH  25  26
ATOM     26  C   UNL     1     166.687 161.658 184.326  1.00  0.00    -0.000 C 
BRANCH  26  27
ATOM     27  C   UNL     1     167.093 163.141 184.276  1.00  0.00    -0.000 C 
BRANCH  27  28
ATOM     28  C   UNL     1     166.430 163.916 183.118  1.00  0.00    -0.000 C 
BRANCH  28  29
ATOM     29  C   UNL     1     167.126 163.656 181.768  1.00  0.00    -0.000 C 
BRANCH  29  30
ATOM     30  C   UNL     1     166.198 162.991 180.742  1.00  0.00    -0.000 C 
BRANCH  30  31
ATOM     31  C   UNL     1     166.860 161.804 180.028  1.00  0.00    -0.003 C 
ATOM     32  C   UNL     1     166.804 160.546 180.891  1.00  0.00     0.004 C 
ENDBRANCH  30  31
ENDBRANCH  29  30
ENDBRANCH  28  29
ENDBRANCH  27  28
ENDBRANCH  26  27
ENDBRANCH  25  26
ENDBRANCH  24  25
ENDBRANCH  23  24
ENDBRANCH  22  23
ENDBRANCH  21  22
ENDBRANCH  20  21
ENDBRANCH  19  20
ENDBRANCH  18  19
ENDBRANCH   1  18
TORSDOF 28
ENDMDL
MODEL 4
REMARK VINA RESULT:    -3.755      6.606      9.745
REMARK INTER + INTRA:         -14.426
REMARK INTER:                  -9.933
REMARK INTRA:                  -4.492
REMARK UNBOUND:                -4.523
REMARK SMILES CCCCCCCCCCCCCCCCCCCCCCCCCCCCCC(=O)[O-]
REMARK SMILES IDX 16 1 17 2 18 3 19 4 20 5 21 6 22 7 23 8 24 9 25 10 26 11
REMARK SMILES IDX 27 12 28 13 29 14 30 15 31 16 32 17 15 18 14 19 13 20 12 21
REMARK SMILES IDX 11 22 10 23 9 24 8 25 7 26 6 27 5 28 4 29 3 30 2 31 1 32
REMARK H PARENT
REMARK Flexibility Score: inf
ROOT
ATOM      1  C   UNL     1     180.101 169.138 186.732  1.00  0.00     0.000 C 
ENDROOT
BRANCH   1   2
ATOM      2  C   UNL     1     179.791 167.652 186.471  1.00  0.00     0.000 C 
BRANCH   2   3
ATOM      3  C   UNL     1     179.548 166.864 187.764  1.00  0.00     0.000 C 
BRANCH   3   4
ATOM      4  C   UNL     1     178.553 165.705 187.579  1.00  0.00     0.000 C 
BRANCH   4   5
ATOM      5  C   UNL     1     177.309 166.139 186.785  1.00  0.00     0.000 C 
BRANCH   5   6
ATOM      6  C   UNL     1     176.234 166.784 187.678  1.00  0.00     0.000 C 
BRANCH   6   7
ATOM      7  C   UNL     1     175.100 165.803 188.019  1.00  0.00     0.000 C 
BRANCH   7   8
ATOM      8  C   UNL     1     174.899 165.665 189.539  1.00  0.00     0.000 C 
BRANCH   8   9
ATOM      9  C   UNL     1     175.234 164.249 190.055  1.00  0.00     0.000 C 
BRANCH   9  10
ATOM     10  C   UNL     1     176.744 163.986 190.204  1.00  0.00     0.000 C 
BRANCH  10  11
ATOM     11  C   UNL     1     177.177 162.646 189.594  1.00  0.00     0.000 C 
BRANCH  11  12
ATOM     12  C   UNL     1     176.257 162.243 188.429  1.00  0.00     0.000 C 
BRANCH  12  13
ATOM     13  C   UNL     1     176.923 162.426 187.055  1.00  0.00     0.006 C 
BRANCH  13  14
ATOM     14  C   UNL     1     175.909 162.595 185.913  1.00  0.00     0.053 C 
BRANCH  14  15
ATOM     15  C   UNL     1     176.383 161.910 184.666  1.00  0.00     0.041 C 
ATOM     16  O   UNL     1     176.361 160.653 184.581  1.00  0.00    -0.550 OA
ATOM     17  O   UNL     1     176.823 162.665 183.585  1.00  0.00    -0.550 OA
ENDBRANCH  14  15
ENDBRANCH  13  14
ENDBRANCH  12  13
ENDBRANCH  11  12
ENDBRANCH  10  11
ENDBRANCH   9  10
ENDBRANCH   8   9
ENDBRANCH   7   8
ENDBRANCH   6   7
ENDBRANCH   5   6
ENDBRANCH   4   5
ENDBRANCH   3   4
ENDBRANCH   2   3
ENDBRANCH   1   2
BRANCH   1  18
ATOM     18  C   UNL     1     179.533 169.627 188.076  1.00  0.00     0.000 C 
BRANCH  18  19
ATOM     19  C   UNL     1     180.125 170.988 188.488  1.00  0.00     0.000 C 
BRANCH  19  20
ATOM     20  C   UNL     1     179.539 172.165 187.692  1.00  0.00     0.000 C 
BRANCH  20  21
ATOM     21  C   UNL     1     178.834 173.197 188.591  1.00  0.00     0.000 C 
BRANCH  21  22
ATOM     22  C   UNL     1     177.426 172.748 189.025  1.00  0.00     0.000 C 
BRANCH  22  23
ATOM     23  C   UNL     1     176.545 173.852 189.651  1.00  0.00     0.000 C 
BRANCH  23  24
ATOM     24  C   UNL     1     176.880 175.293 189.215  1.00  0.00    -0.000 C 
BRANCH  24  25
ATOM     25  C   UNL     1     175.993 175.842 188.085  1.00  0.00    -0.000 C 
BRANCH  25  26
ATOM     26  C   UNL     1     176.704 175.850 186.722  1.00  0.00    -0.000 C 
BRANCH  26  27
ATOM     27  C   UNL     1     176.534 174.529 185.953  1.00  0.00    -0.000 C 
BRANCH  27  28
ATOM     28  C   UNL     1     177.766 174.157 185.100  1.00  0.00    -0.000 C 
BRANCH  28  29
ATOM     29  C   UNL     1     177.658 172.741 184.504  1.00  0.00    -0.000 C 
BRANCH  29  30
ATOM     30  C   UNL     1     176.447 171.965 185.039  1.00  0.00    -0.000 C 
BRANCH  30  31
ATOM     31  C   UNL     1     176.230 170.631 184.311  1.00  0.00    -0.003 C 
ATOM     32  C   UNL     1     176.815 169.470 185.110  1.00  0.00     0.004 C 
ENDBRANCH  30  31
ENDBRANCH  29  30
ENDBRANCH  28  29
ENDBRANCH  27  28
ENDBRANCH  26  27
ENDBRANCH  25  26
ENDBRANCH  24  25
ENDBRANCH  23  24
ENDBRANCH  22  23
ENDBRANCH  21  22
ENDBRANCH  20  21
ENDBRANCH  19  20
ENDBRANCH  18  19
ENDBRANCH   1  18
TORSDOF 28
ENDMDL
MODEL 5
REMARK VINA RESULT:    -3.743      9.117     13.694
REMARK INTER + INTRA:         -14.393
REMARK INTER:                  -9.918
REMARK INTRA:                  -4.475
REMARK UNBOUND:                -4.523
REMARK SMILES CCCCCCCCCCCCCCCCCCCCCCCCCCCCCC(=O)[O-]
REMARK SMILES IDX 16 1 17 2 18 3 19 4 20 5 21 6 22 7 23 8 24 9 25 10 26 11
REMARK SMILES IDX 27 12 28 13 29 14 30 15 31 16 32 17 15 18 14 19 13 20 12 21
REMARK SMILES IDX 11 22 10 23 9 24 8 25 7 26 6 27 5 28 4 29 3 30 2 31 1 32
REMARK H PARENT
REMARK Flexibility Score: inf
ROOT
ATOM      1  C   UNL     1     173.428 163.749 188.198  1.00  0.00     0.000 C 
ENDROOT
BRANCH   1   2
ATOM      2  C   UNL     1     174.125 163.704 189.570  1.00  0.00     0.000 C 
BRANCH   2   3
ATOM      3  C   UNL     1     175.390 164.571 189.619  1.00  0.00     0.000 C 
BRANCH   3   4
ATOM      4  C   UNL     1     175.244 165.883 188.828  1.00  0.00     0.000 C 
BRANCH   4   5
ATOM      5  C   UNL     1     176.387 166.073 187.817  1.00  0.00     0.000 C 
BRANCH   5   6
ATOM      6  C   UNL     1     177.670 165.328 188.228  1.00  0.00     0.000 C 
BRANCH   6   7
ATOM      7  C   UNL     1     178.909 165.859 187.488  1.00  0.00     0.000 C 
BRANCH   7   8
ATOM      8  C   UNL     1     178.702 167.299 186.983  1.00  0.00     0.000 C 
BRANCH   8   9
ATOM      9  C   UNL     1     179.731 168.287 187.571  1.00  0.00     0.000 C 
BRANCH   9  10
ATOM     10  C   UNL     1     179.094 169.517 188.244  1.00  0.00     0.000 C 
BRANCH  10  11
ATOM     11  C   UNL     1     180.116 170.382 188.993  1.00  0.00     0.000 C 
BRANCH  11  12
ATOM     12  C   UNL     1     180.096 171.833 188.482  1.00  0.00     0.000 C 
BRANCH  12  13
ATOM     13  C   UNL     1     178.831 172.159 187.670  1.00  0.00     0.006 C 
BRANCH  13  14
ATOM     14  C   UNL     1     178.787 173.618 187.187  1.00  0.00     0.053 C 
BRANCH  14  15
ATOM     15  C   UNL     1     178.860 173.693 185.692  1.00  0.00     0.041 C 
ATOM     16  O   UNL     1     178.583 174.765 185.092  1.00  0.00    -0.550 OA
ATOM     17  O   UNL     1     179.264 172.582 184.961  1.00  0.00    -0.550 OA
ENDBRANCH  14  15
ENDBRANCH  13  14
ENDBRANCH  12  13
ENDBRANCH  11  12
ENDBRANCH  10  11
ENDBRANCH   9  10
ENDBRANCH   8   9
ENDBRANCH   7   8
ENDBRANCH   6   7
ENDBRANCH   5   6
ENDBRANCH   4   5
ENDBRANCH   3   4
ENDBRANCH   2   3
ENDBRANCH   1   2
BRANCH   1  18
ATOM     18  C   UNL     1     172.727 162.423 187.854  1.00  0.00     0.000 C 
BRANCH  18  19
ATOM     19  C   UNL     1     173.048 161.320 188.881  1.00  0.00     0.000 C 
BRANCH  19  20
ATOM     20  C   UNL     1     173.418 159.980 188.228  1.00  0.00     0.000 C 
BRANCH  20  21
ATOM     21  C   UNL     1     174.797 160.011 187.546  1.00  0.00     0.000 C 
BRANCH  21  22
ATOM     22  C   UNL     1     175.891 160.628 188.439  1.00  0.00     0.000 C 
BRANCH  22  23
ATOM     23  C   UNL     1     176.730 161.744 187.779  1.00  0.00     0.000 C 
BRANCH  23  24
ATOM     24  C   UNL     1     176.215 162.239 186.412  1.00  0.00    -0.000 C 
BRANCH  24  25
ATOM     25  C   UNL     1     177.275 162.940 185.544  1.00  0.00    -0.000 C 
BRANCH  25  26
ATOM     26  C   UNL     1     177.086 162.669 184.043  1.00  0.00    -0.000 C 
BRANCH  26  27
ATOM     27  C   UNL     1     176.751 161.199 183.740  1.00  0.00    -0.000 C 
BRANCH  27  28
ATOM     28  C   UNL     1     175.459 161.027 182.913  1.00  0.00    -0.000 C 
BRANCH  28  29
ATOM     29  C   UNL     1     174.354 160.298 183.701  1.00  0.00    -0.000 C 
BRANCH  29  30
ATOM     30  C   UNL     1     173.392 161.266 184.404  1.00  0.00    -0.000 C 
BRANCH  30  31
ATOM     31  C   UNL     1     171.935 161.080 183.957  1.00  0.00    -0.003 C 
ATOM     32  C   UNL     1     171.043 160.711 185.140  1.00  0.00     0.004 C 
ENDBRANCH  30  31
ENDBRANCH  29  30
ENDBRANCH  28  29
ENDBRANCH  27  28
ENDBRANCH  26  27
ENDBRANCH  25  26
ENDBRANCH  24  25
ENDBRANCH  23  24
ENDBRANCH  22  23
ENDBRANCH  21  22
ENDBRANCH  20  21
ENDBRANCH  19  20
ENDBRANCH  18  19
ENDBRANCH   1  18
TORSDOF 28
ENDMDL
MODEL 6
REMARK VINA RESULT:    -3.728     14.204     18.160
REMARK INTER + INTRA:         -14.352
REMARK INTER:                  -8.315
REMARK INTRA:                  -6.038
REMARK UNBOUND:                -4.523
REMARK SMILES CCCCCCCCCCCCCCCCCCCCCCCCCCCCCC(=O)[O-]
REMARK SMILES IDX 16 1 17 2 18 3 19 4 20 5 21 6 22 7 23 8 24 9 25 10 26 11
REMARK SMILES IDX 27 12 28 13 29 14 30 15 31 16 32 17 15 18 14 19 13 20 12 21
REMARK SMILES IDX 11 22 10 23 9 24 8 25 7 26 6 27 5 28 4 29 3 30 2 31 1 32
REMARK H PARENT
REMARK Flexibility Score: inf
ROOT
ATOM      1  C   UNL     1     164.194 163.868 186.102  1.00  0.00     0.000 C 
ENDROOT
BRANCH   1   2
ATOM      2  C   UNL     1     163.416 165.051 186.709  1.00  0.00     0.000 C 
BRANCH   2   3
ATOM      3  C   UNL     1     162.399 164.608 187.768  1.00  0.00     0.000 C 
BRANCH   3   4
ATOM      4  C   UNL     1     161.021 165.267 187.584  1.00  0.00     0.000 C 
BRANCH   4   5
ATOM      5  C   UNL     1     159.890 164.406 188.172  1.00  0.00     0.000 C 
BRANCH   5   6
ATOM      6  C   UNL     1     160.417 163.169 188.921  1.00  0.00     0.000 C 
BRANCH   6   7
ATOM      7  C   UNL     1     159.889 161.858 188.316  1.00  0.00     0.000 C 
BRANCH   7   8
ATOM      8  C   UNL     1     160.850 161.286 187.258  1.00  0.00     0.000 C 
BRANCH   8   9
ATOM      9  C   UNL     1     160.249 161.309 185.837  1.00  0.00     0.000 C 
BRANCH   9  10
ATOM     10  C   UNL     1     160.493 162.628 185.082  1.00  0.00     0.000 C 
BRANCH  10  11
ATOM     11  C   UNL     1     159.956 162.600 183.645  1.00  0.00     0.000 C 
BRANCH  11  12
ATOM     12  C   UNL     1     161.101 162.454 182.627  1.00  0.00     0.000 C 
BRANCH  12  13
ATOM     13  C   UNL     1     162.375 163.200 183.057  1.00  0.00     0.006 C 
BRANCH  13  14
ATOM     14  C   UNL     1     163.665 162.469 182.651  1.00  0.00     0.053 C 
BRANCH  14  15
ATOM     15  C   UNL     1     164.410 163.235 181.600  1.00  0.00     0.041 C 
ATOM     16  O   UNL     1     164.974 162.631 180.649  1.00  0.00    -0.550 OA
ATOM     17  O   UNL     1     164.458 164.623 181.656  1.00  0.00    -0.550 OA
ENDBRANCH  14  15
ENDBRANCH  13  14
ENDBRANCH  12  13
ENDBRANCH  11  12
ENDBRANCH  10  11
ENDBRANCH   9  10
ENDBRANCH   8   9
ENDBRANCH   7   8
ENDBRANCH   6   7
ENDBRANCH   5   6
ENDBRANCH   4   5
ENDBRANCH   3   4
ENDBRANCH   2   3
ENDBRANCH   1   2
BRANCH   1  18
ATOM     18  C   UNL     1     164.153 162.619 187.000  1.00  0.00     0.000 C 
BRANCH  18  19
ATOM     19  C   UNL     1     164.460 161.333 186.209  1.00  0.00     0.000 C 
BRANCH  19  20
ATOM     20  C   UNL     1     165.182 160.268 187.048  1.00  0.00     0.000 C 
BRANCH  20  21
ATOM     21  C   UNL     1     166.714 160.414 187.003  1.00  0.00     0.000 C 
BRANCH  21  22
ATOM     22  C   UNL     1     167.348 160.492 188.405  1.00  0.00     0.000 C 
BRANCH  22  23
ATOM     23  C   UNL     1     166.367 160.803 189.557  1.00  0.00     0.000 C 
BRANCH  23  24
ATOM     24  C   UNL     1     166.386 162.259 190.067  1.00  0.00    -0.000 C 
BRANCH  24  25
ATOM     25  C   UNL     1     167.478 163.143 189.441  1.00  0.00    -0.000 C 
BRANCH  25  26
ATOM     26  C   UNL     1     166.904 164.362 188.701  1.00  0.00    -0.000 C 
BRANCH  26  27
ATOM     27  C   UNL     1     167.593 164.619 187.351  1.00  0.00    -0.000 C 
BRANCH  27  28
ATOM     28  C   UNL     1     168.799 163.691 187.096  1.00  0.00    -0.000 C 
BRANCH  28  29
ATOM     29  C   UNL     1     168.757 163.049 185.695  1.00  0.00    -0.000 C 
BRANCH  29  30
ATOM     30  C   UNL     1     167.432 163.310 184.966  1.00  0.00    -0.000 C 
BRANCH  30  31
ATOM     31  C   UNL     1     167.595 163.350 183.440  1.00  0.00    -0.003 C 
ATOM     32  C   UNL     1     167.829 161.951 182.877  1.00  0.00     0.004 C 
ENDBRANCH  30  31
ENDBRANCH  29  30
ENDBRANCH  28  29
ENDBRANCH  27  28
ENDBRANCH  26  27
ENDBRANCH  25  26
ENDBRANCH  24  25
ENDBRANCH  23  24
ENDBRANCH  22  23
ENDBRANCH  21  22
ENDBRANCH  20  21
ENDBRANCH  19  20
ENDBRANCH  18  19
ENDBRANCH   1  18
TORSDOF 28
ENDMDL
MODEL 7
REMARK VINA RESULT:    -3.718     14.305     17.951
REMARK INTER + INTRA:         -14.328
REMARK INTER:                  -8.613
REMARK INTRA:                  -5.716
REMARK UNBOUND:                -4.523
REMARK SMILES CCCCCCCCCCCCCCCCCCCCCCCCCCCCCC(=O)[O-]
REMARK SMILES IDX 16 1 17 2 18 3 19 4 20 5 21 6 22 7 23 8 24 9 25 10 26 11
REMARK SMILES IDX 27 12 28 13 29 14 30 15 31 16 32 17 15 18 14 19 13 20 12 21
REMARK SMILES IDX 11 22 10 23 9 24 8 25 7 26 6 27 5 28 4 29 3 30 2 31 1 32
REMARK H PARENT
REMARK Flexibility Score: inf
ROOT
ATOM      1  C   UNL     1     164.124 165.327 185.605  1.00  0.00     0.000 C 
ENDROOT
BRANCH   1   2
ATOM      2  C   UNL     1     163.550 163.985 185.116  1.00  0.00     0.000 C 
BRANCH   2   3
ATOM      3  C   UNL     1     162.669 164.138 183.869  1.00  0.00     0.000 C 
BRANCH   3   4
ATOM      4  C   UNL     1     161.384 163.294 183.940  1.00  0.00     0.000 C 
BRANCH   4   5
ATOM      5  C   UNL     1     161.689 161.799 184.133  1.00  0.00     0.000 C 
BRANCH   5   6
ATOM      6  C   UNL     1     160.989 161.209 185.370  1.00  0.00     0.000 C 
BRANCH   6   7
ATOM      7  C   UNL     1     161.966 160.991 186.538  1.00  0.00     0.000 C 
BRANCH   7   8
ATOM      8  C   UNL     1     161.395 161.513 187.868  1.00  0.00     0.000 C 
BRANCH   8   9
ATOM      9  C   UNL     1     162.254 162.638 188.482  1.00  0.00     0.000 C 
BRANCH   9  10
ATOM     10  C   UNL     1     161.574 164.019 188.462  1.00  0.00     0.000 C 
BRANCH  10  11
ATOM     11  C   UNL     1     160.462 164.119 187.409  1.00  0.00     0.000 C 
BRANCH  11  12
ATOM     12  C   UNL     1     159.875 165.541 187.355  1.00  0.00     0.000 C 
BRANCH  12  13
ATOM     13  C   UNL     1     160.870 166.573 186.800  1.00  0.00     0.006 C 
BRANCH  13  14
ATOM     14  C   UNL     1     160.412 168.025 187.013  1.00  0.00     0.053 C 
BRANCH  14  15
ATOM     15  C   UNL     1     161.085 168.633 188.206  1.00  0.00     0.041 C 
ATOM     16  O   UNL     1     160.419 169.297 189.045  1.00  0.00    -0.550 OA
ATOM     17  O   UNL     1     162.446 168.441 188.407  1.00  0.00    -0.550 OA
ENDBRANCH  14  15
ENDBRANCH  13  14
ENDBRANCH  12  13
ENDBRANCH  11  12
ENDBRANCH  10  11
ENDBRANCH   9  10
ENDBRANCH   8   9
ENDBRANCH   7   8
ENDBRANCH   6   7
ENDBRANCH   5   6
ENDBRANCH   4   5
ENDBRANCH   3   4
ENDBRANCH   2   3
ENDBRANCH   1   2
BRANCH   1  18
ATOM     18  C   UNL     1     164.620 165.256 187.061  1.00  0.00     0.000 C 
BRANCH  18  19
ATOM     19  C   UNL     1     165.771 164.246 187.226  1.00  0.00     0.000 C 
BRANCH  19  20
ATOM     20  C   UNL     1     166.180 164.035 188.692  1.00  0.00     0.000 C 
BRANCH  20  21
ATOM     21  C   UNL     1     165.528 162.788 189.317  1.00  0.00     0.000 C 
BRANCH  21  22
ATOM     22  C   UNL     1     166.548 161.867 190.013  1.00  0.00     0.000 C 
BRANCH  22  23
ATOM     23  C   UNL     1     166.986 160.631 189.198  1.00  0.00     0.000 C 
BRANCH  23  24
ATOM     24  C   UNL     1     167.778 160.934 187.909  1.00  0.00    -0.000 C 
BRANCH  24  25
ATOM     25  C   UNL     1     167.255 160.218 186.652  1.00  0.00    -0.000 C 
BRANCH  25  26
ATOM     26  C   UNL     1     165.725 160.288 186.523  1.00  0.00    -0.000 C 
BRANCH  26  27
ATOM     27  C   UNL     1     165.266 160.943 185.209  1.00  0.00    -0.000 C 
BRANCH  27  28
ATOM     28  C   UNL     1     166.378 161.757 184.514  1.00  0.00    -0.000 C 
BRANCH  28  29
ATOM     29  C   UNL     1     166.517 161.399 183.022  1.00  0.00    -0.000 C 
BRANCH  29  30
ATOM     30  C   UNL     1     165.249 160.754 182.447  1.00  0.00    -0.000 C 
BRANCH  30  31
ATOM     31  C   UNL     1     164.432 161.723 181.581  1.00  0.00    -0.003 C 
ATOM     32  C   UNL     1     163.250 161.011 180.929  1.00  0.00     0.004 C 
ENDBRANCH  30  31
ENDBRANCH  29  30
ENDBRANCH  28  29
ENDBRANCH  27  28
ENDBRANCH  26  27
ENDBRANCH  25  26
ENDBRANCH  24  25
ENDBRANCH  23  24
ENDBRANCH  22  23
ENDBRANCH  21  22
ENDBRANCH  20  21
ENDBRANCH  19  20
ENDBRANCH  18  19
ENDBRANCH   1  18
TORSDOF 28
ENDMDL
MODEL 8
REMARK VINA RESULT:    -3.707     13.791     17.721
REMARK INTER + INTRA:         -14.298
REMARK INTER:                  -8.290
REMARK INTRA:                  -6.008
REMARK UNBOUND:                -4.523
REMARK SMILES CCCCCCCCCCCCCCCCCCCCCCCCCCCCCC(=O)[O-]
REMARK SMILES IDX 16 1 17 2 18 3 19 4 20 5 21 6 22 7 23 8 24 9 25 10 26 11
REMARK SMILES IDX 27 12 28 13 29 14 30 15 31 16 32 17 15 18 14 19 13 20 12 21
REMARK SMILES IDX 11 22 10 23 9 24 8 25 7 26 6 27 5 28 4 29 3 30 2 31 1 32
REMARK H PARENT
REMARK Flexibility Score: inf
ROOT
ATOM      1  C   UNL     1     160.355 165.544 186.028  1.00  0.00     0.000 C 
ENDROOT
BRANCH   1   2
ATOM      2  C   UNL     1     161.149 164.574 185.133  1.00  0.00     0.000 C 
BRANCH   2   3
ATOM      3  C   UNL     1     160.245 163.586 184.385  1.00  0.00     0.000 C 
BRANCH   3   4
ATOM      4  C   UNL     1     160.984 162.829 183.268  1.00  0.00     0.000 C 
BRANCH   4   5
ATOM      5  C   UNL     1     161.978 161.800 183.832  1.00  0.00     0.000 C 
BRANCH   5   6
ATOM      6  C   UNL     1     163.258 161.689 182.984  1.00  0.00     0.000 C 
BRANCH   6   7
ATOM      7  C   UNL     1     164.530 161.856 183.833  1.00  0.00     0.000 C 
BRANCH   7   8
ATOM      8  C   UNL     1     164.205 162.317 185.266  1.00  0.00     0.000 C 
BRANCH   8   9
ATOM      9  C   UNL     1     164.740 163.733 185.568  1.00  0.00     0.000 C 
BRANCH   9  10
ATOM     10  C   UNL     1     164.568 164.160 187.037  1.00  0.00     0.000 C 
BRANCH  10  11
ATOM     11  C   UNL     1     164.985 165.616 187.287  1.00  0.00     0.000 C 
BRANCH  11  12
ATOM     12  C   UNL     1     164.344 166.562 186.258  1.00  0.00     0.000 C 
BRANCH  12  13
ATOM     13  C   UNL     1     164.420 168.039 186.680  1.00  0.00     0.006 C 
BRANCH  13  14
ATOM     14  C   UNL     1     163.040 168.656 186.959  1.00  0.00     0.053 C 
BRANCH  14  15
ATOM     15  C   UNL     1     162.846 168.902 188.425  1.00  0.00     0.041 C 
ATOM     16  O   UNL     1     163.831 168.882 189.210  1.00  0.00    -0.550 OA
ATOM     17  O   UNL     1     161.578 169.182 188.919  1.00  0.00    -0.550 OA
ENDBRANCH  14  15
ENDBRANCH  13  14
ENDBRANCH  12  13
ENDBRANCH  11  12
ENDBRANCH  10  11
ENDBRANCH   9  10
ENDBRANCH   8   9
ENDBRANCH   7   8
ENDBRANCH   6   7
ENDBRANCH   5   6
ENDBRANCH   4   5
ENDBRANCH   3   4
ENDBRANCH   2   3
ENDBRANCH   1   2
BRANCH   1  18
ATOM     18  C   UNL     1     160.973 165.685 187.431  1.00  0.00     0.000 C 
BRANCH  18  19
ATOM     19  C   UNL     1     161.190 164.316 188.103  1.00  0.00     0.000 C 
BRANCH  19  20
ATOM     20  C   UNL     1     159.875 163.612 188.472  1.00  0.00     0.000 C 
BRANCH  20  21
ATOM     21  C   UNL     1     160.022 162.082 188.551  1.00  0.00     0.000 C 
BRANCH  21  22
ATOM     22  C   UNL     1     160.600 161.470 187.260  1.00  0.00     0.000 C 
BRANCH  22  23
ATOM     23  C   UNL     1     161.904 160.663 187.438  1.00  0.00     0.000 C 
BRANCH  23  24
ATOM     24  C   UNL     1     162.862 161.184 188.531  1.00  0.00    -0.000 C 
BRANCH  24  25
ATOM     25  C   UNL     1     163.998 160.216 188.901  1.00  0.00    -0.000 C 
BRANCH  25  26
ATOM     26  C   UNL     1     165.312 160.538 188.172  1.00  0.00    -0.000 C 
BRANCH  26  27
ATOM     27  C   UNL     1     166.496 160.733 189.135  1.00  0.00    -0.000 C 
BRANCH  27  28
ATOM     28  C   UNL     1     166.497 162.112 189.826  1.00  0.00    -0.000 C 
BRANCH  28  29
ATOM     29  C   UNL     1     167.440 163.114 189.131  1.00  0.00    -0.000 C 
BRANCH  29  30
ATOM     30  C   UNL     1     168.414 162.432 188.160  1.00  0.00    -0.000 C 
BRANCH  30  31
ATOM     31  C   UNL     1     168.323 162.998 186.736  1.00  0.00    -0.003 C 
ATOM     32  C   UNL     1     167.932 161.911 185.739  1.00  0.00     0.004 C 
ENDBRANCH  30  31
ENDBRANCH  29  30
ENDBRANCH  28  29
ENDBRANCH  27  28
ENDBRANCH  26  27
ENDBRANCH  25  26
ENDBRANCH  24  25
ENDBRANCH  23  24
ENDBRANCH  22  23
ENDBRANCH  21  22
ENDBRANCH  20  21
ENDBRANCH  19  20
ENDBRANCH  18  19
ENDBRANCH   1  18
TORSDOF 28
ENDMDL
MODEL 9
REMARK VINA RESULT:    -3.663      2.841      6.651
REMARK INTER + INTRA:         -14.182
REMARK INTER:                  -8.084
REMARK INTRA:                  -6.099
REMARK UNBOUND:                -4.523
REMARK SMILES CCCCCCCCCCCCCCCCCCCCCCCCCCCCCC(=O)[O-]
REMARK SMILES IDX 16 1 17 2 18 3 19 4 20 5 21 6 22 7 23 8 24 9 25 10 26 11
REMARK SMILES IDX 27 12 28 13 29 14 30 15 31 16 32 17 15 18 14 19 13 20 12 21
REMARK SMILES IDX 11 22 10 23 9 24 8 25 7 26 6 27 5 28 4 29 3 30 2 31 1 32
REMARK H PARENT
REMARK Flexibility Score: inf
ROOT
ATOM      1  C   UNL     1     170.315 176.694 183.878  1.00  0.00     0.000 C 
ENDROOT
BRANCH   1   2
ATOM      2  C   UNL     1     171.280 176.831 185.071  1.00  0.00     0.000 C 
BRANCH   2   3
ATOM      3  C   UNL     1     171.150 175.675 186.071  1.00  0.00     0.000 C 
BRANCH   3   4
ATOM      4  C   UNL     1     171.137 176.151 187.534  1.00  0.00     0.000 C 
BRANCH   4   5
ATOM      5  C   UNL     1     170.698 177.620 187.656  1.00  0.00     0.000 C 
BRANCH   5   6
ATOM      6  C   UNL     1     171.321 178.323 188.875  1.00  0.00     0.000 C 
BRANCH   6   7
ATOM      7  C   UNL     1     171.765 179.759 188.550  1.00  0.00     0.000 C 
BRANCH   7   8
ATOM      8  C   UNL     1     171.488 180.125 187.080  1.00  0.00     0.000 C 
BRANCH   8   9
ATOM      9  C   UNL     1     172.732 179.954 186.183  1.00  0.00     0.000 C 
BRANCH   9  10
ATOM     10  C   UNL     1     174.063 179.996 186.955  1.00  0.00     0.000 C 
BRANCH  10  11
ATOM     11  C   UNL     1     174.628 178.599 187.244  1.00  0.00     0.000 C 
BRANCH  11  12
ATOM     12  C   UNL     1     174.729 177.763 185.957  1.00  0.00     0.000 C 
BRANCH  12  13
ATOM     13  C   UNL     1     174.844 176.255 186.235  1.00  0.00     0.006 C 
BRANCH  13  14
ATOM     14  C   UNL     1     175.028 175.931 187.726  1.00  0.00     0.053 C 
BRANCH  14  15
ATOM     15  C   UNL     1     176.418 175.445 188.005  1.00  0.00     0.041 C 
ATOM     16  O   UNL     1     176.682 174.852 189.084  1.00  0.00    -0.550 OA
ATOM     17  O   UNL     1     177.418 175.625 187.057  1.00  0.00    -0.550 OA
ENDBRANCH  14  15
ENDBRANCH  13  14
ENDBRANCH  12  13
ENDBRANCH  11  12
ENDBRANCH  10  11
ENDBRANCH   9  10
ENDBRANCH   8   9
ENDBRANCH   7   8
ENDBRANCH   6   7
ENDBRANCH   5   6
ENDBRANCH   4   5
ENDBRANCH   3   4
ENDBRANCH   2   3
ENDBRANCH   1   2
BRANCH   1  18
ATOM     18  C   UNL     1     168.879 177.116 184.236  1.00  0.00     0.000 C 
BRANCH  18  19
ATOM     19  C   UNL     1     168.817 178.566 184.751  1.00  0.00     0.000 C 
BRANCH  19  20
ATOM     20  C   UNL     1     167.383 179.054 185.007  1.00  0.00     0.000 C 
BRANCH  20  21
ATOM     21  C   UNL     1     166.990 178.988 186.493  1.00  0.00     0.000 C 
BRANCH  21  22
ATOM     22  C   UNL     1     167.872 179.883 187.384  1.00  0.00     0.000 C 
BRANCH  22  23
ATOM     23  C   UNL     1     167.764 179.615 188.901  1.00  0.00     0.000 C 
BRANCH  23  24
ATOM     24  C   UNL     1     166.795 178.484 189.307  1.00  0.00    -0.000 C 
BRANCH  24  25
ATOM     25  C   UNL     1     167.370 177.481 190.321  1.00  0.00    -0.000 C 
BRANCH  25  26
ATOM     26  C   UNL     1     167.964 176.232 189.650  1.00  0.00    -0.000 C 
BRANCH  26  27
ATOM     27  C   UNL     1     167.361 175.958 188.262  1.00  0.00    -0.000 C 
BRANCH  27  28
ATOM     28  C   UNL     1     167.795 174.601 187.667  1.00  0.00    -0.000 C 
BRANCH  28  29
ATOM     29  C   UNL     1     167.334 174.430 186.206  1.00  0.00    -0.000 C 
BRANCH  29  30
ATOM     30  C   UNL     1     166.115 175.298 185.866  1.00  0.00    -0.000 C 
BRANCH  30  31
ATOM     31  C   UNL     1     164.800 174.506 185.891  1.00  0.00    -0.003 C 
ATOM     32  C   UNL     1     164.916 173.227 185.066  1.00  0.00     0.004 C 
ENDBRANCH  30  31
ENDBRANCH  29  30
ENDBRANCH  28  29
ENDBRANCH  27  28
ENDBRANCH  26  27
ENDBRANCH  25  26
ENDBRANCH  24  25
ENDBRANCH  23  24
ENDBRANCH  22  23
ENDBRANCH  21  22
ENDBRANCH  20  21
ENDBRANCH  19  20
ENDBRANCH  18  19
ENDBRANCH   1  18
TORSDOF 28
ENDMDL
