MODEL 1
REMARK VINA RESULT:    -5.387      0.000      0.000
REMARK INTER + INTRA:          -9.088
REMARK INTER:                  -7.906
REMARK INTRA:                  -1.182
REMARK UNBOUND:                -1.182
REMARK SMILES O=c1c(O[C@@H]2O[C@H](CO)[C@@H](O)[C@H](O)[C@@H]2O)c(-c2ccc(O)c(O)c2)oc2cc(O)cc(O)c12
REMARK SMILES IDX 4 1 3 2 16 3 25 4 2 5 26 6 1 7 33 8 27 9 31 10 28 11 30 12
REMARK SMILES IDX 17 13 18 14 19 15 20 16 24 17 22 18 21 19 23 21 32 23 29 25
REMARK SMILES IDX 5 27 14 28 6 29 12 30 7 31 10 32 15 33 13 35 8 37 9 38 11 40
REMARK H PARENT 21 20 23 22 32 24 29 26 15 34 13 36 9 39 11 41
REMARK Flexibility Score: inf
ROOT
ATOM      1  O   UNL     1     160.401 179.513  30.761  1.00  0.00    -0.454 OA
ENDROOT
BRANCH   1   2
ATOM      2  C   UNL     1     161.375 178.596  31.185  1.00  0.00     0.214 A 
ATOM      3  C   UNL     1     162.654 179.031  31.564  1.00  0.00     0.180 A 
ATOM      4  O   UNL     1     163.608 178.143  31.794  1.00  0.00    -0.452 OA
ATOM      5  C   UNL     1     161.089 177.223  31.181  1.00  0.00     0.239 A 
ATOM      6  C   UNL     1     163.419 176.830  31.700  1.00  0.00     0.146 A 
ATOM      7  O   UNL     1     159.896 176.866  30.997  1.00  0.00    -0.285 OA
ATOM      8  C   UNL     1     162.146 176.294  31.355  1.00  0.00     0.111 A 
ATOM      9  C   UNL     1     164.507 175.985  31.938  1.00  0.00     0.094 A 
ATOM     10  C   UNL     1     162.034 174.874  31.181  1.00  0.00     0.134 A 
ATOM     11  C   UNL     1     164.369 174.602  31.809  1.00  0.00     0.123 A 
ATOM     12  C   UNL     1     163.147 174.055  31.428  1.00  0.00     0.093 A 
BRANCH   3  13
ATOM     13  C   UNL     1     162.958 180.472  31.693  1.00  0.00     0.025 A 
ATOM     14  C   UNL     1     163.151 181.033  32.961  1.00  0.00     0.016 A 
ATOM     15  C   UNL     1     163.616 182.343  33.083  1.00  0.00     0.051 A 
ATOM     16  C   UNL     1     163.860 183.115  31.945  1.00  0.00     0.157 A 
ATOM     17  C   UNL     1     163.173 181.261  30.547  1.00  0.00     0.062 A 
ATOM     18  C   UNL     1     163.613 182.582  30.670  1.00  0.00     0.158 A 
BRANCH  16  19
ATOM     19  O   UNL     1     164.380 184.399  32.074  1.00  0.00    -0.504 OA
ATOM     20  H   UNL     1     163.780 185.207  32.181  1.00  0.00     0.293 HD
ENDBRANCH  16  19
BRANCH  18  21
ATOM     21  O   UNL     1     163.875 183.309  29.509  1.00  0.00    -0.504 OA
ATOM     22  H   UNL     1     164.715 183.856  29.405  1.00  0.00     0.293 HD
ENDBRANCH  18  21
ENDBRANCH   3  13
BRANCH  10  23
ATOM     23  O   UNL     1     160.870 174.219  30.750  1.00  0.00    -0.507 OA
ATOM     24  H   UNL     1     159.957 174.367  31.140  1.00  0.00     0.293 HD
ENDBRANCH  10  23
BRANCH  11  25
ATOM     25  O   UNL     1     165.450 173.757  32.063  1.00  0.00    -0.508 OA
ATOM     26  H   UNL     1     165.881 173.709  32.984  1.00  0.00     0.293 HD
ENDBRANCH  11  25
ENDBRANCH   1   2
BRANCH   1  27
ATOM     27  C   UNL     1     159.330 179.903  31.637  1.00  0.00     0.339 C 
ATOM     28  C   UNL     1     159.108 181.407  31.577  1.00  0.00     0.214 C 
ATOM     29  O   UNL     1     158.125 179.224  31.347  1.00  0.00    -0.332 OA
ATOM     30  C   UNL     1     158.787 181.831  30.129  1.00  0.00     0.180 C 
ATOM     31  C   UNL     1     157.627 179.418  30.032  1.00  0.00     0.179 C 
ATOM     32  C   UNL     1     158.028 180.745  29.293  1.00  0.00     0.177 C 
BRANCH  28  33
ATOM     33  O   UNL     1     160.248 182.063  32.098  1.00  0.00    -0.384 OA
ATOM     34  H   UNL     1     160.425 182.889  31.560  1.00  0.00     0.211 HD
ENDBRANCH  28  33
BRANCH  30  35
ATOM     35  O   UNL     1     159.984 182.162  29.467  1.00  0.00    -0.387 OA
ATOM     36  H   UNL     1     159.804 182.964  28.908  1.00  0.00     0.211 HD
ENDBRANCH  30  35
BRANCH  31  37
ATOM     37  C   UNL     1     157.914 178.160  29.199  1.00  0.00     0.191 C 
BRANCH  37  38
ATOM     38  O   UNL     1     159.103 178.313  28.464  1.00  0.00    -0.394 OA
ATOM     39  H   UNL     1     159.087 177.656  27.709  1.00  0.00     0.210 HD
ENDBRANCH  37  38
ENDBRANCH  31  37
BRANCH  32  40
ATOM     40  O   UNL     1     156.863 181.292  28.720  1.00  0.00    -0.387 OA
ATOM     41  H   UNL     1     157.097 182.214  28.420  1.00  0.00     0.211 HD
ENDBRANCH  32  40
ENDBRANCH   1  27
TORSDOF 12
ENDMDL
MODEL 2
REMARK VINA RESULT:    -5.148      1.966      6.843
REMARK INTER + INTRA:          -8.737
REMARK INTER:                  -6.841
REMARK INTRA:                  -1.896
REMARK UNBOUND:                -1.182
REMARK SMILES O=c1c(O[C@@H]2O[C@H](CO)[C@@H](O)[C@H](O)[C@@H]2O)c(-c2ccc(O)c(O)c2)oc2cc(O)cc(O)c12
REMARK SMILES IDX 4 1 3 2 16 3 25 4 2 5 26 6 1 7 33 8 27 9 31 10 28 11 30 12
REMARK SMILES IDX 17 13 18 14 19 15 20 16 24 17 22 18 21 19 23 21 32 23 29 25
REMARK SMILES IDX 5 27 14 28 6 29 12 30 7 31 10 32 15 33 13 35 8 37 9 38 11 40
REMARK H PARENT 21 20 23 22 32 24 29 26 15 34 13 36 9 39 11 41
REMARK Flexibility Score: inf
ROOT
ATOM      1  O   UNL     1     161.795 175.517  30.955  1.00  0.00    -0.454 OA
ENDROOT
BRANCH   1   2
ATOM      2  C   UNL     1     162.251 176.836  31.104  1.00  0.00     0.214 A 
ATOM      3  C   UNL     1     163.501 177.102  31.682  1.00  0.00     0.180 A 
ATOM      4  O   UNL     1     163.839 178.350  31.971  1.00  0.00    -0.452 OA
ATOM      5  C   UNL     1     161.428 177.906  30.722  1.00  0.00     0.239 A 
ATOM      6  C   UNL     1     163.050 179.392  31.727  1.00  0.00     0.146 A 
ATOM      7  O   UNL     1     160.389 177.648  30.060  1.00  0.00    -0.285 OA
ATOM      8  C   UNL     1     161.778 179.224  31.112  1.00  0.00     0.111 A 
ATOM      9  C   UNL     1     163.499 180.663  32.101  1.00  0.00     0.094 A 
ATOM     10  C   UNL     1     160.940 180.379  30.961  1.00  0.00     0.134 A 
ATOM     11  C   UNL     1     162.689 181.783  31.905  1.00  0.00     0.123 A 
ATOM     12  C   UNL     1     161.422 181.640  31.347  1.00  0.00     0.093 A 
BRANCH   3  13
ATOM     13  C   UNL     1     164.444 176.006  31.991  1.00  0.00     0.025 A 
ATOM     14  C   UNL     1     164.458 175.439  33.270  1.00  0.00     0.016 A 
ATOM     15  C   UNL     1     165.209 174.289  33.518  1.00  0.00     0.051 A 
ATOM     16  C   UNL     1     165.977 173.715  32.501  1.00  0.00     0.157 A 
ATOM     17  C   UNL     1     165.244 175.446  30.977  1.00  0.00     0.062 A 
ATOM     18  C   UNL     1     166.017 174.310  31.231  1.00  0.00     0.158 A 
BRANCH  16  19
ATOM     19  O   UNL     1     166.677 172.536  32.741  1.00  0.00    -0.504 OA
ATOM     20  H   UNL     1     167.548 172.329  32.270  1.00  0.00     0.293 HD
ENDBRANCH  16  19
BRANCH  18  21
ATOM     21  O   UNL     1     166.746 173.750  30.182  1.00  0.00    -0.504 OA
ATOM     22  H   UNL     1     166.453 173.848  29.222  1.00  0.00     0.293 HD
ENDBRANCH  18  21
ENDBRANCH   3  13
BRANCH  10  23
ATOM     23  O   UNL     1     159.629 180.346  30.462  1.00  0.00    -0.507 OA
ATOM     24  H   UNL     1     159.358 180.674  29.553  1.00  0.00     0.293 HD
ENDBRANCH  10  23
BRANCH  11  25
ATOM     25  O   UNL     1     163.142 183.054  32.262  1.00  0.00    -0.508 OA
ATOM     26  H   UNL     1     163.978 183.456  31.842  1.00  0.00     0.293 HD
ENDBRANCH  11  25
ENDBRANCH   1   2
BRANCH   1  27
ATOM     27  C   UNL     1     161.166 174.831  32.051  1.00  0.00     0.339 C 
ATOM     28  C   UNL     1     159.666 174.717  31.822  1.00  0.00     0.214 C 
ATOM     29  O   UNL     1     161.721 173.551  32.273  1.00  0.00    -0.332 OA
ATOM     30  C   UNL     1     159.394 173.965  30.504  1.00  0.00     0.180 C 
ATOM     31  C   UNL     1     161.637 172.660  31.171  1.00  0.00     0.179 C 
ATOM     32  C   UNL     1     160.474 172.891  30.139  1.00  0.00     0.177 C 
BRANCH  28  33
ATOM     33  O   UNL     1     159.096 176.011  31.841  1.00  0.00    -0.384 OA
ATOM     34  H   UNL     1     158.101 175.930  31.916  1.00  0.00     0.211 HD
ENDBRANCH  28  33
BRANCH  30  35
ATOM     35  O   UNL     1     159.302 174.895  29.451  1.00  0.00    -0.387 OA
ATOM     36  H   UNL     1     158.426 174.754  29.004  1.00  0.00     0.211 HD
ENDBRANCH  30  35
BRANCH  31  37
ATOM     37  C   UNL     1     163.016 172.557  30.505  1.00  0.00     0.191 C 
BRANCH  37  38
ATOM     38  O   UNL     1     162.930 171.851  29.292  1.00  0.00    -0.394 OA
ATOM     39  H   UNL     1     163.040 170.877  29.491  1.00  0.00     0.210 HD
ENDBRANCH  37  38
ENDBRANCH  31  37
BRANCH  32  40
ATOM     40  O   UNL     1     159.864 171.647  29.886  1.00  0.00    -0.387 OA
ATOM     41  H   UNL     1     159.022 171.838  29.388  1.00  0.00     0.211 HD
ENDBRANCH  32  40
ENDBRANCH   1  27
TORSDOF 12
ENDMDL
MODEL 3
REMARK VINA RESULT:    -4.934      2.123      3.560
REMARK INTER + INTRA:          -8.424
REMARK INTER:                  -6.627
REMARK INTRA:                  -1.797
REMARK UNBOUND:                -1.182
REMARK SMILES O=c1c(O[C@@H]2O[C@H](CO)[C@@H](O)[C@H](O)[C@@H]2O)c(-c2ccc(O)c(O)c2)oc2cc(O)cc(O)c12
REMARK SMILES IDX 4 1 3 2 16 3 25 4 2 5 26 6 1 7 33 8 27 9 31 10 28 11 30 12
REMARK SMILES IDX 17 13 18 14 19 15 20 16 24 17 22 18 21 19 23 21 32 23 29 25
REMARK SMILES IDX 5 27 14 28 6 29 12 30 7 31 10 32 15 33 13 35 8 37 9 38 11 40
REMARK H PARENT 21 20 23 22 32 24 29 26 15 34 13 36 9 39 11 41
REMARK Flexibility Score: inf
ROOT
ATOM      1  O   UNL     1     161.146 180.619  33.417  1.00  0.00    -0.454 OA
ENDROOT
BRANCH   1   2
ATOM      2  C   UNL     1     161.899 179.497  33.035  1.00  0.00     0.214 A 
ATOM      3  C   UNL     1     163.130 179.649  32.379  1.00  0.00     0.180 A 
ATOM      4  O   UNL     1     163.740 178.588  31.874  1.00  0.00    -0.452 OA
ATOM      5  C   UNL     1     161.394 178.208  33.260  1.00  0.00     0.239 A 
ATOM      6  C   UNL     1     163.251 177.355  31.967  1.00  0.00     0.146 A 
ATOM      7  O   UNL     1     160.375 178.089  33.989  1.00  0.00    -0.285 OA
ATOM      8  C   UNL     1     162.025 177.098  32.643  1.00  0.00     0.111 A 
ATOM      9  C   UNL     1     163.968 176.312  31.371  1.00  0.00     0.094 A 
ATOM     10  C   UNL     1     161.510 175.759  32.626  1.00  0.00     0.134 A 
ATOM     11  C   UNL     1     163.474 175.007  31.404  1.00  0.00     0.123 A 
ATOM     12  C   UNL     1     162.255 174.737  32.019  1.00  0.00     0.093 A 
BRANCH   3  13
ATOM     13  C   UNL     1     163.750 180.983  32.227  1.00  0.00     0.025 A 
ATOM     14  C   UNL     1     164.421 181.567  33.308  1.00  0.00     0.016 A 
ATOM     15  C   UNL     1     165.162 182.734  33.123  1.00  0.00     0.051 A 
ATOM     16  C   UNL     1     165.212 183.348  31.868  1.00  0.00     0.157 A 
ATOM     17  C   UNL     1     163.774 181.619  30.972  1.00  0.00     0.062 A 
ATOM     18  C   UNL     1     164.494 182.803  30.792  1.00  0.00     0.158 A 
BRANCH  16  19
ATOM     19  O   UNL     1     166.000 184.479  31.679  1.00  0.00    -0.504 OA
ATOM     20  H   UNL     1     166.893 184.589  32.141  1.00  0.00     0.293 HD
ENDBRANCH  16  19
BRANCH  18  21
ATOM     21  O   UNL     1     164.544 183.367  29.518  1.00  0.00    -0.504 OA
ATOM     22  H   UNL     1     165.412 183.682  29.112  1.00  0.00     0.293 HD
ENDBRANCH  18  21
ENDBRANCH   3  13
BRANCH  10  23
ATOM     23  O   UNL     1     160.271 175.382  33.168  1.00  0.00    -0.507 OA
ATOM     24  H   UNL     1     160.114 175.171  34.136  1.00  0.00     0.293 HD
ENDBRANCH  10  23
BRANCH  11  25
ATOM     25  O   UNL     1     164.196 173.963  30.824  1.00  0.00    -0.508 OA
ATOM     26  H   UNL     1     164.675 174.079  29.934  1.00  0.00     0.293 HD
ENDBRANCH  11  25
ENDBRANCH   1   2
BRANCH   1  27
ATOM     27  C   UNL     1     160.393 181.362  32.445  1.00  0.00     0.339 C 
ATOM     28  C   UNL     1     158.906 181.067  32.578  1.00  0.00     0.214 C 
ATOM     29  O   UNL     1     160.620 182.753  32.537  1.00  0.00    -0.332 OA
ATOM     30  C   UNL     1     158.428 181.423  34.000  1.00  0.00     0.180 C 
ATOM     31  C   UNL     1     160.295 183.334  33.791  1.00  0.00     0.179 C 
ATOM     32  C   UNL     1     159.203 182.614  34.661  1.00  0.00     0.177 C 
BRANCH  28  33
ATOM     33  O   UNL     1     158.673 179.712  32.247  1.00  0.00    -0.384 OA
ATOM     34  H   UNL     1     157.936 179.662  31.571  1.00  0.00     0.211 HD
ENDBRANCH  28  33
BRANCH  30  35
ATOM     35  O   UNL     1     158.544 180.289  34.826  1.00  0.00    -0.387 OA
ATOM     36  H   UNL     1     159.265 179.718  34.448  1.00  0.00     0.211 HD
ENDBRANCH  30  35
BRANCH  31  37
ATOM     37  C   UNL     1     161.592 183.609  34.566  1.00  0.00     0.191 C 
BRANCH  37  38
ATOM     38  O   UNL     1     162.285 184.695  34.003  1.00  0.00    -0.394 OA
ATOM     39  H   UNL     1     163.200 184.380  33.749  1.00  0.00     0.210 HD
ENDBRANCH  37  38
ENDBRANCH  31  37
BRANCH  32  40
ATOM     40  O   UNL     1     158.300 183.592  35.122  1.00  0.00    -0.387 OA
ATOM     41  H   UNL     1     157.559 183.634  34.456  1.00  0.00     0.211 HD
ENDBRANCH  32  40
ENDBRANCH   1  27
TORSDOF 12
ENDMDL
MODEL 4
REMARK VINA RESULT:    -4.924      1.100      2.385
REMARK INTER + INTRA:          -8.409
REMARK INTER:                  -6.289
REMARK INTRA:                  -2.120
REMARK UNBOUND:                -1.182
REMARK SMILES O=c1c(O[C@@H]2O[C@H](CO)[C@@H](O)[C@H](O)[C@@H]2O)c(-c2ccc(O)c(O)c2)oc2cc(O)cc(O)c12
REMARK SMILES IDX 4 1 3 2 16 3 25 4 2 5 26 6 1 7 33 8 27 9 31 10 28 11 30 12
REMARK SMILES IDX 17 13 18 14 19 15 20 16 24 17 22 18 21 19 23 21 32 23 29 25
REMARK SMILES IDX 5 27 14 28 6 29 12 30 7 31 10 32 15 33 13 35 8 37 9 38 11 40
REMARK H PARENT 21 20 23 22 32 24 29 26 15 34 13 36 9 39 11 41
REMARK Flexibility Score: inf
ROOT
ATOM      1  O   UNL     1     160.240 179.732  31.908  1.00  0.00    -0.454 OA
ENDROOT
BRANCH   1   2
ATOM      2  C   UNL     1     161.297 178.810  31.962  1.00  0.00     0.214 A 
ATOM      3  C   UNL     1     162.630 179.246  31.956  1.00  0.00     0.180 A 
ATOM      4  O   UNL     1     163.610 178.363  31.833  1.00  0.00    -0.452 OA
ATOM      5  C   UNL     1     161.023 177.435  31.967  1.00  0.00     0.239 A 
ATOM      6  C   UNL     1     163.400 177.054  31.727  1.00  0.00     0.146 A 
ATOM      7  O   UNL     1     159.832 177.067  32.137  1.00  0.00    -0.285 OA
ATOM      8  C   UNL     1     162.083 176.516  31.757  1.00  0.00     0.111 A 
ATOM      9  C   UNL     1     164.509 176.217  31.573  1.00  0.00     0.094 A 
ATOM     10  C   UNL     1     161.923 175.105  31.546  1.00  0.00     0.134 A 
ATOM     11  C   UNL     1     164.338 174.840  31.415  1.00  0.00     0.123 A 
ATOM     12  C   UNL     1     163.058 174.294  31.395  1.00  0.00     0.093 A 
BRANCH   3  13
ATOM     13  C   UNL     1     162.960 180.683  32.068  1.00  0.00     0.025 A 
ATOM     14  C   UNL     1     163.076 181.275  33.331  1.00  0.00     0.016 A 
ATOM     15  C   UNL     1     163.563 182.577  33.451  1.00  0.00     0.051 A 
ATOM     16  C   UNL     1     163.906 183.311  32.312  1.00  0.00     0.157 A 
ATOM     17  C   UNL     1     163.274 181.434  30.919  1.00  0.00     0.062 A 
ATOM     18  C   UNL     1     163.736 182.748  31.038  1.00  0.00     0.158 A 
BRANCH  16  19
ATOM     19  O   UNL     1     164.446 184.587  32.443  1.00  0.00    -0.504 OA
ATOM     20  H   UNL     1     165.269 184.872  31.929  1.00  0.00     0.293 HD
ENDBRANCH  16  19
BRANCH  18  21
ATOM     21  O   UNL     1     164.097 183.435  29.879  1.00  0.00    -0.504 OA
ATOM     22  H   UNL     1     164.315 184.419  29.894  1.00  0.00     0.293 HD
ENDBRANCH  18  21
ENDBRANCH   3  13
BRANCH  10  23
ATOM     23  O   UNL     1     160.682 174.455  31.455  1.00  0.00    -0.507 OA
ATOM     24  H   UNL     1     160.122 174.187  32.242  1.00  0.00     0.293 HD
ENDBRANCH  10  23
BRANCH  11  25
ATOM     25  O   UNL     1     165.445 174.001  31.278  1.00  0.00    -0.508 OA
ATOM     26  H   UNL     1     165.358 172.991  31.364  1.00  0.00     0.293 HD
ENDBRANCH  11  25
ENDBRANCH   1   2
BRANCH   1  27
ATOM     27  C   UNL     1     159.862 180.342  30.662  1.00  0.00     0.339 C 
ATOM     28  C   UNL     1     158.539 179.777  30.168  1.00  0.00     0.214 C 
ATOM     29  O   UNL     1     159.783 181.749  30.755  1.00  0.00    -0.332 OA
ATOM     30  C   UNL     1     157.441 180.014  31.225  1.00  0.00     0.180 C 
ATOM     31  C   UNL     1     158.855 182.237  31.712  1.00  0.00     0.179 C 
ATOM     32  C   UNL     1     157.637 181.314  32.077  1.00  0.00     0.177 C 
BRANCH  28  33
ATOM     33  O   UNL     1     158.709 178.408  29.855  1.00  0.00    -0.384 OA
ATOM     34  H   UNL     1     159.540 178.299  29.307  1.00  0.00     0.211 HD
ENDBRANCH  28  33
BRANCH  30  35
ATOM     35  O   UNL     1     157.386 178.905  32.091  1.00  0.00    -0.387 OA
ATOM     36  H   UNL     1     156.578 178.379  31.850  1.00  0.00     0.211 HD
ENDBRANCH  30  35
BRANCH  31  37
ATOM     37  C   UNL     1     159.622 182.731  32.947  1.00  0.00     0.191 C 
BRANCH  37  38
ATOM     38  O   UNL     1     159.619 181.753  33.956  1.00  0.00    -0.394 OA
ATOM     39  H   UNL     1     159.116 180.958  33.617  1.00  0.00     0.210 HD
ENDBRANCH  37  38
ENDBRANCH  31  37
BRANCH  32  40
ATOM     40  O   UNL     1     156.470 182.101  32.046  1.00  0.00    -0.387 OA
ATOM     41  H   UNL     1     155.829 181.689  32.690  1.00  0.00     0.211 HD
ENDBRANCH  32  40
ENDBRANCH   1  27
TORSDOF 12
ENDMDL
MODEL 5
REMARK VINA RESULT:    -4.912      1.834      6.052
REMARK INTER + INTRA:          -8.391
REMARK INTER:                  -6.281
REMARK INTRA:                  -2.110
REMARK UNBOUND:                -1.182
REMARK SMILES O=c1c(O[C@@H]2O[C@H](CO)[C@@H](O)[C@H](O)[C@@H]2O)c(-c2ccc(O)c(O)c2)oc2cc(O)cc(O)c12
REMARK SMILES IDX 4 1 3 2 16 3 25 4 2 5 26 6 1 7 33 8 27 9 31 10 28 11 30 12
REMARK SMILES IDX 17 13 18 14 19 15 20 16 24 17 22 18 21 19 23 21 32 23 29 25
REMARK SMILES IDX 5 27 14 28 6 29 12 30 7 31 10 32 15 33 13 35 8 37 9 38 11 40
REMARK H PARENT 21 20 23 22 32 24 29 26 15 34 13 36 9 39 11 41
REMARK Flexibility Score: inf
ROOT
ATOM      1  O   UNL     1     161.204 179.612  31.967  1.00  0.00    -0.454 OA
ENDROOT
BRANCH   1   2
ATOM      2  C   UNL     1     160.429 178.759  31.166  1.00  0.00     0.214 A 
ATOM      3  C   UNL     1     160.755 177.401  31.040  1.00  0.00     0.180 A 
ATOM      4  O   UNL     1     160.122 176.652  30.150  1.00  0.00    -0.452 OA
ATOM      5  C   UNL     1     159.349 179.277  30.436  1.00  0.00     0.239 A 
ATOM      6  C   UNL     1     159.163 177.120  29.357  1.00  0.00     0.146 A 
ATOM      7  O   UNL     1     158.974 180.452  30.685  1.00  0.00    -0.285 OA
ATOM      8  C   UNL     1     158.741 178.478  29.436  1.00  0.00     0.111 A 
ATOM      9  C   UNL     1     158.582 176.245  28.433  1.00  0.00     0.094 A 
ATOM     10  C   UNL     1     157.765 178.939  28.489  1.00  0.00     0.134 A 
ATOM     11  C   UNL     1     157.601 176.700  27.551  1.00  0.00     0.123 A 
ATOM     12  C   UNL     1     157.203 178.035  27.576  1.00  0.00     0.093 A 
BRANCH   3  13
ATOM     13  C   UNL     1     161.811 176.793  31.879  1.00  0.00     0.025 A 
ATOM     14  C   UNL     1     161.477 176.215  33.109  1.00  0.00     0.016 A 
ATOM     15  C   UNL     1     162.429 175.481  33.818  1.00  0.00     0.051 A 
ATOM     16  C   UNL     1     163.729 175.347  33.324  1.00  0.00     0.157 A 
ATOM     17  C   UNL     1     163.130 176.685  31.398  1.00  0.00     0.062 A 
ATOM     18  C   UNL     1     164.090 175.973  32.122  1.00  0.00     0.158 A 
BRANCH  16  19
ATOM     19  O   UNL     1     164.655 174.565  34.009  1.00  0.00    -0.504 OA
ATOM     20  H   UNL     1     165.453 174.974  34.477  1.00  0.00     0.293 HD
ENDBRANCH  16  19
BRANCH  18  21
ATOM     21  O   UNL     1     165.368 175.836  31.579  1.00  0.00    -0.504 OA
ATOM     22  H   UNL     1     165.510 175.531  30.629  1.00  0.00     0.293 HD
ENDBRANCH  18  21
ENDBRANCH   3  13
BRANCH  10  23
ATOM     23  O   UNL     1     157.329 180.269  28.389  1.00  0.00    -0.507 OA
ATOM     24  H   UNL     1     157.917 181.072  28.518  1.00  0.00     0.293 HD
ENDBRANCH  10  23
BRANCH  11  25
ATOM     25  O   UNL     1     157.009 175.825  26.639  1.00  0.00    -0.508 OA
ATOM     26  H   UNL     1     157.278 175.820  25.658  1.00  0.00     0.293 HD
ENDBRANCH  11  25
ENDBRANCH   1   2
BRANCH   1  27
ATOM     27  C   UNL     1     162.445 180.149  31.480  1.00  0.00     0.339 C 
ATOM     28  C   UNL     1     162.317 181.642  31.215  1.00  0.00     0.214 C 
ATOM     29  O   UNL     1     163.520 179.905  32.364  1.00  0.00    -0.332 OA
ATOM     30  C   UNL     1     161.900 182.369  32.510  1.00  0.00     0.180 C 
ATOM     31  C   UNL     1     163.361 180.444  33.668  1.00  0.00     0.179 C 
ATOM     32  C   UNL     1     162.429 181.700  33.824  1.00  0.00     0.177 C 
BRANCH  28  33
ATOM     33  O   UNL     1     161.403 181.846  30.156  1.00  0.00    -0.384 OA
ATOM     34  H   UNL     1     161.552 181.146  29.456  1.00  0.00     0.211 HD
ENDBRANCH  28  33
BRANCH  30  35
ATOM     35  O   UNL     1     160.495 182.441  32.569  1.00  0.00    -0.387 OA
ATOM     36  H   UNL     1     160.259 183.304  33.001  1.00  0.00     0.211 HD
ENDBRANCH  30  35
BRANCH  31  37
ATOM     37  C   UNL     1     163.002 179.309  34.638  1.00  0.00     0.191 C 
BRANCH  37  38
ATOM     38  O   UNL     1     161.616 179.279  34.876  1.00  0.00    -0.394 OA
ATOM     39  H   UNL     1     161.459 179.537  35.829  1.00  0.00     0.210 HD
ENDBRANCH  37  38
ENDBRANCH  31  37
BRANCH  32  40
ATOM     40  O   UNL     1     163.105 182.646  34.619  1.00  0.00    -0.387 OA
ATOM     41  H   UNL     1     162.791 183.545  34.323  1.00  0.00     0.211 HD
ENDBRANCH  32  40
ENDBRANCH   1  27
TORSDOF 12
ENDMDL
MODEL 6
REMARK VINA RESULT:    -4.828      1.687      3.149
REMARK INTER + INTRA:          -8.268
REMARK INTER:                  -6.194
REMARK INTRA:                  -2.074
REMARK UNBOUND:                -1.182
REMARK SMILES O=c1c(O[C@@H]2O[C@H](CO)[C@@H](O)[C@H](O)[C@@H]2O)c(-c2ccc(O)c(O)c2)oc2cc(O)cc(O)c12
REMARK SMILES IDX 4 1 3 2 16 3 25 4 2 5 26 6 1 7 33 8 27 9 31 10 28 11 30 12
REMARK SMILES IDX 17 13 18 14 19 15 20 16 24 17 22 18 21 19 23 21 32 23 29 25
REMARK SMILES IDX 5 27 14 28 6 29 12 30 7 31 10 32 15 33 13 35 8 37 9 38 11 40
REMARK H PARENT 21 20 23 22 32 24 29 26 15 34 13 36 9 39 11 41
REMARK Flexibility Score: inf
ROOT
ATOM      1  O   UNL     1     160.462 177.145  31.489  1.00  0.00    -0.454 OA
ENDROOT
BRANCH   1   2
ATOM      2  C   UNL     1     161.760 176.621  31.590  1.00  0.00     0.214 A 
ATOM      3  C   UNL     1     162.869 177.471  31.717  1.00  0.00     0.180 A 
ATOM      4  O   UNL     1     164.093 176.972  31.636  1.00  0.00    -0.452 OA
ATOM      5  C   UNL     1     161.962 175.236  31.508  1.00  0.00     0.239 A 
ATOM      6  C   UNL     1     164.339 175.678  31.452  1.00  0.00     0.146 A 
ATOM      7  O   UNL     1     160.953 174.485  31.559  1.00  0.00    -0.285 OA
ATOM      8  C   UNL     1     163.278 174.735  31.346  1.00  0.00     0.111 A 
ATOM      9  C   UNL     1     165.672 175.266  31.354  1.00  0.00     0.094 A 
ATOM     10  C   UNL     1     163.613 173.370  31.057  1.00  0.00     0.134 A 
ATOM     11  C   UNL     1     165.981 173.925  31.118  1.00  0.00     0.123 A 
ATOM     12  C   UNL     1     164.961 172.990  30.965  1.00  0.00     0.093 A 
BRANCH   3  13
ATOM     13  C   UNL     1     162.691 178.925  31.922  1.00  0.00     0.025 A 
ATOM     14  C   UNL     1     162.732 179.456  33.216  1.00  0.00     0.016 A 
ATOM     15  C   UNL     1     162.749 180.838  33.405  1.00  0.00     0.051 A 
ATOM     16  C   UNL     1     162.692 181.702  32.308  1.00  0.00     0.157 A 
ATOM     17  C   UNL     1     162.600 179.795  30.819  1.00  0.00     0.062 A 
ATOM     18  C   UNL     1     162.591 181.180  31.010  1.00  0.00     0.158 A 
BRANCH  16  19
ATOM     19  O   UNL     1     162.769 183.078  32.502  1.00  0.00    -0.504 OA
ATOM     20  H   UNL     1     163.475 183.640  32.046  1.00  0.00     0.293 HD
ENDBRANCH  16  19
BRANCH  18  21
ATOM     21  O   UNL     1     162.564 182.007  29.887  1.00  0.00    -0.504 OA
ATOM     22  H   UNL     1     162.842 182.975  29.937  1.00  0.00     0.293 HD
ENDBRANCH  18  21
ENDBRANCH   3  13
BRANCH  10  23
ATOM     23  O   UNL     1     162.669 172.355  30.831  1.00  0.00    -0.507 OA
ATOM     24  H   UNL     1     161.783 172.492  30.382  1.00  0.00     0.293 HD
ENDBRANCH  10  23
BRANCH  11  25
ATOM     25  O   UNL     1     167.311 173.510  31.037  1.00  0.00    -0.508 OA
ATOM     26  H   UNL     1     168.000 174.039  30.508  1.00  0.00     0.293 HD
ENDBRANCH  11  25
ENDBRANCH   1   2
BRANCH   1  27
ATOM     27  C   UNL     1     159.931 177.549  30.216  1.00  0.00     0.339 C 
ATOM     28  C   UNL     1     158.802 176.623  29.787  1.00  0.00     0.214 C 
ATOM     29  O   UNL     1     159.483 178.889  30.220  1.00  0.00    -0.332 OA
ATOM     30  C   UNL     1     157.685 176.633  30.851  1.00  0.00     0.180 C 
ATOM     31  C   UNL     1     158.463 179.178  31.164  1.00  0.00     0.179 C 
ATOM     32  C   UNL     1     157.534 177.993  31.614  1.00  0.00     0.177 C 
BRANCH  28  33
ATOM     33  O   UNL     1     159.327 175.330  29.558  1.00  0.00    -0.384 OA
ATOM     34  H   UNL     1     159.122 174.749  30.347  1.00  0.00     0.211 HD
ENDBRANCH  28  33
BRANCH  30  35
ATOM     35  O   UNL     1     157.929 175.610  31.787  1.00  0.00    -0.387 OA
ATOM     36  H   UNL     1     158.835 175.247  31.603  1.00  0.00     0.211 HD
ENDBRANCH  30  35
BRANCH  31  37
ATOM     37  C   UNL     1     159.078 179.939  32.348  1.00  0.00     0.191 C 
BRANCH  37  38
ATOM     38  O   UNL     1     159.289 179.074  33.436  1.00  0.00    -0.394 OA
ATOM     39  H   UNL     1     159.586 178.189  33.077  1.00  0.00     0.210 HD
ENDBRANCH  37  38
ENDBRANCH  31  37
BRANCH  32  40
ATOM     40  O   UNL     1     156.200 178.442  31.559  1.00  0.00    -0.387 OA
ATOM     41  H   UNL     1     155.829 178.350  32.480  1.00  0.00     0.211 HD
ENDBRANCH  32  40
ENDBRANCH   1  27
TORSDOF 12
ENDMDL
MODEL 7
REMARK VINA RESULT:    -4.789      2.800      5.715
REMARK INTER + INTRA:          -8.210
REMARK INTER:                  -6.312
REMARK INTRA:                  -1.898
REMARK UNBOUND:                -1.182
REMARK SMILES O=c1c(O[C@@H]2O[C@H](CO)[C@@H](O)[C@H](O)[C@@H]2O)c(-c2ccc(O)c(O)c2)oc2cc(O)cc(O)c12
REMARK SMILES IDX 4 1 3 2 16 3 25 4 2 5 26 6 1 7 33 8 27 9 31 10 28 11 30 12
REMARK SMILES IDX 17 13 18 14 19 15 20 16 24 17 22 18 21 19 23 21 32 23 29 25
REMARK SMILES IDX 5 27 14 28 6 29 12 30 7 31 10 32 15 33 13 35 8 37 9 38 11 40
REMARK H PARENT 21 20 23 22 32 24 29 26 15 34 13 36 9 39 11 41
REMARK Flexibility Score: inf
ROOT
ATOM      1  O   UNL     1     161.487 174.689  33.055  1.00  0.00    -0.454 OA
ENDROOT
BRANCH   1   2
ATOM      2  C   UNL     1     162.786 174.458  32.579  1.00  0.00     0.214 A 
ATOM      3  C   UNL     1     163.448 175.421  31.802  1.00  0.00     0.180 A 
ATOM      4  O   UNL     1     164.598 175.119  31.219  1.00  0.00    -0.452 OA
ATOM      5  C   UNL     1     163.414 173.230  32.832  1.00  0.00     0.239 A 
ATOM      6  C   UNL     1     165.184 173.931  31.340  1.00  0.00     0.146 A 
ATOM      7  O   UNL     1     162.878 172.448  33.660  1.00  0.00    -0.285 OA
ATOM      8  C   UNL     1     164.605 172.902  32.135  1.00  0.00     0.111 A 
ATOM      9  C   UNL     1     166.384 173.714  30.656  1.00  0.00     0.094 A 
ATOM     10  C   UNL     1     165.243 171.617  32.147  1.00  0.00     0.134 A 
ATOM     11  C   UNL     1     167.016 172.470  30.717  1.00  0.00     0.123 A 
ATOM     12  C   UNL     1     166.446 171.433  31.450  1.00  0.00     0.093 A 
BRANCH   3  13
ATOM     13  C   UNL     1     162.870 176.769  31.610  1.00  0.00     0.025 A 
ATOM     14  C   UNL     1     163.387 177.857  32.323  1.00  0.00     0.016 A 
ATOM     15  C   UNL     1     162.975 179.154  32.016  1.00  0.00     0.051 A 
ATOM     16  C   UNL     1     162.020 179.374  31.020  1.00  0.00     0.157 A 
ATOM     17  C   UNL     1     161.883 176.989  30.631  1.00  0.00     0.062 A 
ATOM     18  C   UNL     1     161.451 178.286  30.341  1.00  0.00     0.158 A 
BRANCH  16  19
ATOM     19  O   UNL     1     161.658 180.674  30.680  1.00  0.00    -0.504 OA
ATOM     20  H   UNL     1     161.912 181.465  31.256  1.00  0.00     0.293 HD
ENDBRANCH  16  19
BRANCH  18  21
ATOM     21  O   UNL     1     160.518 178.466  29.320  1.00  0.00    -0.504 OA
ATOM     22  H   UNL     1     160.798 178.732  28.388  1.00  0.00     0.293 HD
ENDBRANCH  18  21
ENDBRANCH   3  13
BRANCH  10  23
ATOM     23  O   UNL     1     164.733 170.488  32.807  1.00  0.00    -0.507 OA
ATOM     24  H   UNL     1     165.022 170.182  33.717  1.00  0.00     0.293 HD
ENDBRANCH  10  23
BRANCH  11  25
ATOM     25  O   UNL     1     168.223 172.257  30.048  1.00  0.00    -0.508 OA
ATOM     26  H   UNL     1     168.331 171.497  29.380  1.00  0.00     0.293 HD
ENDBRANCH  11  25
ENDBRANCH   1   2
BRANCH   1  27
ATOM     27  C   UNL     1     160.343 174.400  32.234  1.00  0.00     0.339 C 
ATOM     28  C   UNL     1     159.574 173.208  32.786  1.00  0.00     0.214 C 
ATOM     29  O   UNL     1     159.481 175.512  32.101  1.00  0.00    -0.332 OA
ATOM     30  C   UNL     1     159.125 173.499  34.232  1.00  0.00     0.180 C 
ATOM     31  C   UNL     1     158.955 176.013  33.321  1.00  0.00     0.179 C 
ATOM     32  C   UNL     1     158.833 175.011  34.524  1.00  0.00     0.177 C 
BRANCH  28  33
ATOM     33  O   UNL     1     160.382 172.052  32.687  1.00  0.00    -0.384 OA
ATOM     34  H   UNL     1     161.345 172.319  32.745  1.00  0.00     0.211 HD
ENDBRANCH  28  33
BRANCH  30  35
ATOM     35  O   UNL     1     160.115 173.046  35.125  1.00  0.00    -0.387 OA
ATOM     36  H   UNL     1     160.995 173.339  34.768  1.00  0.00     0.211 HD
ENDBRANCH  30  35
BRANCH  31  37
ATOM     37  C   UNL     1     159.697 177.306  33.692  1.00  0.00     0.191 C 
BRANCH  37  38
ATOM     38  O   UNL     1     160.753 177.033  34.579  1.00  0.00    -0.394 OA
ATOM     39  H   UNL     1     160.948 176.053  34.538  1.00  0.00     0.210 HD
ENDBRANCH  37  38
ENDBRANCH  31  37
BRANCH  32  40
ATOM     40  O   UNL     1     157.551 175.163  35.088  1.00  0.00    -0.387 OA
ATOM     41  H   UNL     1     156.971 174.466  34.673  1.00  0.00     0.211 HD
ENDBRANCH  32  40
ENDBRANCH   1  27
TORSDOF 12
ENDMDL
MODEL 8
REMARK VINA RESULT:    -4.717      3.491      6.587
REMARK INTER + INTRA:          -8.105
REMARK INTER:                  -5.977
REMARK INTRA:                  -2.129
REMARK UNBOUND:                -1.182
REMARK SMILES O=c1c(O[C@@H]2O[C@H](CO)[C@@H](O)[C@H](O)[C@@H]2O)c(-c2ccc(O)c(O)c2)oc2cc(O)cc(O)c12
REMARK SMILES IDX 4 1 3 2 16 3 25 4 2 5 26 6 1 7 33 8 27 9 31 10 28 11 30 12
REMARK SMILES IDX 17 13 18 14 19 15 20 16 24 17 22 18 21 19 23 21 32 23 29 25
REMARK SMILES IDX 5 27 14 28 6 29 12 30 7 31 10 32 15 33 13 35 8 37 9 38 11 40
REMARK H PARENT 21 20 23 22 32 24 29 26 15 34 13 36 9 39 11 41
REMARK Flexibility Score: inf
ROOT
ATOM      1  O   UNL     1     161.360 173.027  30.980  1.00  0.00    -0.454 OA
ENDROOT
BRANCH   1   2
ATOM      2  C   UNL     1     162.723 173.240  31.239  1.00  0.00     0.214 A 
ATOM      3  C   UNL     1     163.211 174.531  31.493  1.00  0.00     0.180 A 
ATOM      4  O   UNL     1     164.518 174.736  31.563  1.00  0.00    -0.452 OA
ATOM      5  C   UNL     1     163.619 172.163  31.190  1.00  0.00     0.239 A 
ATOM      6  C   UNL     1     165.415 173.766  31.418  1.00  0.00     0.146 A 
ATOM      7  O   UNL     1     163.145 170.999  31.124  1.00  0.00    -0.285 OA
ATOM      8  C   UNL     1     165.013 172.420  31.191  1.00  0.00     0.111 A 
ATOM      9  C   UNL     1     166.771 174.104  31.483  1.00  0.00     0.094 A 
ATOM     10  C   UNL     1     166.034 171.440  30.952  1.00  0.00     0.134 A 
ATOM     11  C   UNL     1     167.751 173.129  31.294  1.00  0.00     0.123 A 
ATOM     12  C   UNL     1     167.385 171.813  31.025  1.00  0.00     0.093 A 
BRANCH   3  13
ATOM     13  C   UNL     1     162.287 175.672  31.667  1.00  0.00     0.025 A 
ATOM     14  C   UNL     1     161.726 175.928  32.923  1.00  0.00     0.016 A 
ATOM     15  C   UNL     1     161.002 177.102  33.140  1.00  0.00     0.051 A 
ATOM     16  C   UNL     1     160.805 178.012  32.098  1.00  0.00     0.157 A 
ATOM     17  C   UNL     1     162.059 176.573  30.610  1.00  0.00     0.062 A 
ATOM     18  C   UNL     1     161.313 177.735  30.819  1.00  0.00     0.158 A 
BRANCH  16  19
ATOM     19  O   UNL     1     160.133 179.207  32.337  1.00  0.00    -0.504 OA
ATOM     20  H   UNL     1     160.227 179.704  33.212  1.00  0.00     0.293 HD
ENDBRANCH  16  19
BRANCH  18  21
ATOM     21  O   UNL     1     161.164 178.632  29.762  1.00  0.00    -0.504 OA
ATOM     22  H   UNL     1     160.663 178.383  28.922  1.00  0.00     0.293 HD
ENDBRANCH  18  21
ENDBRANCH   3  13
BRANCH  10  23
ATOM     23  O   UNL     1     165.781 170.099  30.621  1.00  0.00    -0.507 OA
ATOM     24  H   UNL     1     165.378 169.426  31.245  1.00  0.00     0.293 HD
ENDBRANCH  10  23
BRANCH  11  25
ATOM     25  O   UNL     1     169.105 173.461  31.376  1.00  0.00    -0.508 OA
ATOM     26  H   UNL     1     169.816 172.752  31.537  1.00  0.00     0.293 HD
ENDBRANCH  11  25
ENDBRANCH   1   2
BRANCH   1  27
ATOM     27  C   UNL     1     160.808 173.303  29.681  1.00  0.00     0.339 C 
ATOM     28  C   UNL     1     160.476 172.009  28.953  1.00  0.00     0.214 C 
ATOM     29  O   UNL     1     159.663 174.129  29.748  1.00  0.00    -0.332 OA
ATOM     30  C   UNL     1     159.476 171.182  29.786  1.00  0.00     0.180 C 
ATOM     31  C   UNL     1     158.588 173.604  30.511  1.00  0.00     0.179 C 
ATOM     32  C   UNL     1     158.492 172.042  30.650  1.00  0.00     0.177 C 
BRANCH  28  33
ATOM     33  O   UNL     1     161.676 171.309  28.687  1.00  0.00    -0.384 OA
ATOM     34  H   UNL     1     161.811 170.611  29.392  1.00  0.00     0.211 HD
ENDBRANCH  28  33
BRANCH  30  35
ATOM     35  O   UNL     1     160.187 170.312  30.634  1.00  0.00    -0.387 OA
ATOM     36  H   UNL     1     159.544 169.957  31.303  1.00  0.00     0.211 HD
ENDBRANCH  30  35
BRANCH  31  37
ATOM     37  C   UNL     1     158.535 174.329  31.864  1.00  0.00     0.191 C 
BRANCH  37  38
ATOM     38  O   UNL     1     159.131 173.547  32.869  1.00  0.00    -0.394 OA
ATOM     39  H   UNL     1     158.909 173.957  33.754  1.00  0.00     0.210 HD
ENDBRANCH  37  38
ENDBRANCH  31  37
BRANCH  32  40
ATOM     40  O   UNL     1     157.158 171.664  30.397  1.00  0.00    -0.387 OA
ATOM     41  H   UNL     1     156.861 172.182  29.598  1.00  0.00     0.211 HD
ENDBRANCH  32  40
ENDBRANCH   1  27
TORSDOF 12
ENDMDL
MODEL 9
REMARK VINA RESULT:    -4.669      3.513      8.585
REMARK INTER + INTRA:          -8.034
REMARK INTER:                  -5.892
REMARK INTRA:                  -2.142
REMARK UNBOUND:                -1.182
REMARK SMILES O=c1c(O[C@@H]2O[C@H](CO)[C@@H](O)[C@H](O)[C@@H]2O)c(-c2ccc(O)c(O)c2)oc2cc(O)cc(O)c12
REMARK SMILES IDX 4 1 3 2 16 3 25 4 2 5 26 6 1 7 33 8 27 9 31 10 28 11 30 12
REMARK SMILES IDX 17 13 18 14 19 15 20 16 24 17 22 18 21 19 23 21 32 23 29 25
REMARK SMILES IDX 5 27 14 28 6 29 12 30 7 31 10 32 15 33 13 35 8 37 9 38 11 40
REMARK H PARENT 21 20 23 22 32 24 29 26 15 34 13 36 9 39 11 41
REMARK Flexibility Score: inf
ROOT
ATOM      1  O   UNL     1     160.010 182.087  32.909  1.00  0.00    -0.454 OA
ENDROOT
BRANCH   1   2
ATOM      2  C   UNL     1     159.221 183.243  32.805  1.00  0.00     0.214 A 
ATOM      3  C   UNL     1     158.197 183.329  31.849  1.00  0.00     0.180 A 
ATOM      4  O   UNL     1     157.581 184.483  31.649  1.00  0.00    -0.452 OA
ATOM      5  C   UNL     1     159.491 184.348  33.624  1.00  0.00     0.239 A 
ATOM      6  C   UNL     1     157.872 185.590  32.325  1.00  0.00     0.146 A 
ATOM      7  O   UNL     1     160.298 184.197  34.578  1.00  0.00    -0.285 OA
ATOM      8  C   UNL     1     158.873 185.592  33.338  1.00  0.00     0.111 A 
ATOM      9  C   UNL     1     157.175 186.761  32.010  1.00  0.00     0.094 A 
ATOM     10  C   UNL     1     159.200 186.841  33.964  1.00  0.00     0.134 A 
ATOM     11  C   UNL     1     157.475 187.958  32.662  1.00  0.00     0.123 A 
ATOM     12  C   UNL     1     158.481 187.997  33.624  1.00  0.00     0.093 A 
BRANCH   3  13
ATOM     13  C   UNL     1     157.806 182.149  31.048  1.00  0.00     0.025 A 
ATOM     14  C   UNL     1     156.872 181.239  31.557  1.00  0.00     0.016 A 
ATOM     15  C   UNL     1     156.362 180.229  30.740  1.00  0.00     0.051 A 
ATOM     16  C   UNL     1     156.803 180.098  29.421  1.00  0.00     0.157 A 
ATOM     17  C   UNL     1     158.274 181.995  29.729  1.00  0.00     0.062 A 
ATOM     18  C   UNL     1     157.783 180.968  28.919  1.00  0.00     0.158 A 
BRANCH  16  19
ATOM     19  O   UNL     1     156.247 179.125  28.596  1.00  0.00    -0.504 OA
ATOM     20  H   UNL     1     156.770 178.708  27.837  1.00  0.00     0.293 HD
ENDBRANCH  16  19
BRANCH  18  21
ATOM     21  O   UNL     1     158.226 180.889  27.599  1.00  0.00    -0.504 OA
ATOM     22  H   UNL     1     158.576 180.028  27.208  1.00  0.00     0.293 HD
ENDBRANCH  18  21
ENDBRANCH   3  13
BRANCH  10  23
ATOM     23  O   UNL     1     160.227 187.008  34.905  1.00  0.00    -0.507 OA
ATOM     24  H   UNL     1     160.124 187.485  35.782  1.00  0.00     0.293 HD
ENDBRANCH  10  23
BRANCH  11  25
ATOM     25  O   UNL     1     156.769 189.124  32.360  1.00  0.00    -0.508 OA
ATOM     26  H   UNL     1     156.642 189.861  33.051  1.00  0.00     0.293 HD
ENDBRANCH  11  25
ENDBRANCH   1   2
BRANCH   1  27
ATOM     27  C   UNL     1     161.102 181.860  32.002  1.00  0.00     0.339 C 
ATOM     28  C   UNL     1     162.435 182.016  32.718  1.00  0.00     0.214 C 
ATOM     29  O   UNL     1     161.030 180.592  31.382  1.00  0.00    -0.332 OA
ATOM     30  C   UNL     1     162.515 181.026  33.897  1.00  0.00     0.180 C 
ATOM     31  C   UNL     1     161.042 179.486  32.272  1.00  0.00     0.179 C 
ATOM     32  C   UNL     1     161.733 179.687  33.669  1.00  0.00     0.177 C 
BRANCH  28  33
ATOM     33  O   UNL     1     162.587 183.362  33.123  1.00  0.00    -0.384 OA
ATOM     34  H   UNL     1     163.537 183.517  33.398  1.00  0.00     0.211 HD
ENDBRANCH  28  33
BRANCH  30  35
ATOM     35  O   UNL     1     162.022 181.649  35.059  1.00  0.00    -0.387 OA
ATOM     36  H   UNL     1     161.110 181.292  35.225  1.00  0.00     0.211 HD
ENDBRANCH  30  35
BRANCH  31  37
ATOM     37  C   UNL     1     159.620 178.920  32.385  1.00  0.00     0.191 C 
BRANCH  37  38
ATOM     38  O   UNL     1     159.019 179.325  33.590  1.00  0.00    -0.394 OA
ATOM     39  H   UNL     1     159.072 180.323  33.643  1.00  0.00     0.210 HD
ENDBRANCH  37  38
ENDBRANCH  31  37
BRANCH  32  40
ATOM     40  O   UNL     1     162.575 178.581  33.901  1.00  0.00    -0.387 OA
ATOM     41  H   UNL     1     163.222 178.551  33.143  1.00  0.00     0.211 HD
ENDBRANCH  32  40
ENDBRANCH   1  27
TORSDOF 12
ENDMDL
