MODEL 1
REMARK VINA RESULT:    -1.894      0.000      0.000
REMARK INTER + INTRA:          -3.850
REMARK INTER:                  -3.224
REMARK INTRA:                  -0.626
REMARK UNBOUND:                -0.626
REMARK SMILES CCCCCCCCCCCCCC(=O)[O-]
REMARK SMILES IDX 8 1 9 2 10 3 11 4 12 5 13 6 14 7 15 8 16 9 7 10 6 11 5 12
REMARK SMILES IDX 4 13 3 14 2 15 1 16
REMARK H PARENT
REMARK Flexibility Score: inf
ROOT
ATOM      1  C   UNL     1       3.066  76.837   5.001  1.00  0.00     0.000 C 
ENDROOT
BRANCH   1   2
ATOM      2  C   UNL     1       2.118  77.982   5.400  1.00  0.00     0.000 C 
BRANCH   2   3
ATOM      3  C   UNL     1       1.998  78.153   6.925  1.00  0.00     0.000 C 
BRANCH   3   4
ATOM      4  C   UNL     1       2.828  77.118   7.702  1.00  0.00     0.000 C 
BRANCH   4   5
ATOM      5  C   UNL     1       3.973  77.760   8.506  1.00  0.00     0.006 C 
BRANCH   5   6
ATOM      6  C   UNL     1       3.456  78.554   9.714  1.00  0.00     0.053 C 
BRANCH   6   7
ATOM      7  C   UNL     1       3.788  77.879  11.009  1.00  0.00     0.041 C 
ATOM      8  O   UNL     1       4.969  77.509  11.245  1.00  0.00    -0.550 OA
ATOM      9  O   UNL     1       2.789  77.631  11.941  1.00  0.00    -0.550 OA
ENDBRANCH   6   7
ENDBRANCH   5   6
ENDBRANCH   4   5
ENDBRANCH   3   4
ENDBRANCH   2   3
ENDBRANCH   1   2
BRANCH   1  10
ATOM     10  C   UNL     1       4.467  77.276   4.526  1.00  0.00     0.000 C 
BRANCH  10  11
ATOM     11  C   UNL     1       4.958  76.605   3.231  1.00  0.00    -0.000 C 
BRANCH  11  12
ATOM     12  C   UNL     1       5.770  77.554   2.338  1.00  0.00    -0.000 C 
BRANCH  12  13
ATOM     13  C   UNL     1       5.861  77.017   0.905  1.00  0.00    -0.000 C 
BRANCH  13  14
ATOM     14  C   UNL     1       6.878  75.874   0.809  1.00  0.00    -0.000 C 
BRANCH  14  15
ATOM     15  C   UNL     1       6.182  74.541   0.510  1.00  0.00    -0.003 C 
ATOM     16  C   UNL     1       4.746  74.762   0.043  1.00  0.00     0.004 C 
ENDBRANCH  14  15
ENDBRANCH  13  14
ENDBRANCH  12  13
ENDBRANCH  11  12
ENDBRANCH  10  11
ENDBRANCH   1  10
TORSDOF 12
ENDMDL
MODEL 2
REMARK VINA RESULT:    -1.547      4.278      8.663
REMARK INTER + INTRA:          -3.258
REMARK INTER:                  -2.797
REMARK INTRA:                  -0.461
REMARK UNBOUND:                -0.626
REMARK SMILES CCCCCCCCCCCCCC(=O)[O-]
REMARK SMILES IDX 8 1 9 2 10 3 11 4 12 5 13 6 14 7 15 8 16 9 7 10 6 11 5 12
REMARK SMILES IDX 4 13 3 14 2 15 1 16
REMARK H PARENT
REMARK Flexibility Score: inf
ROOT
ATOM      1  C   UNL     1       3.177  77.226   4.892  1.00  0.00     0.000 C 
ENDROOT
BRANCH   1   2
ATOM      2  C   UNL     1       4.677  77.099   4.571  1.00  0.00     0.000 C 
BRANCH   2   3
ATOM      3  C   UNL     1       4.939  76.545   3.159  1.00  0.00     0.000 C 
BRANCH   3   4
ATOM      4  C   UNL     1       5.777  77.504   2.296  1.00  0.00     0.000 C 
BRANCH   4   5
ATOM      5  C   UNL     1       6.037  76.954   0.882  1.00  0.00     0.006 C 
BRANCH   5   6
ATOM      6  C   UNL     1       6.406  75.464   0.901  1.00  0.00     0.053 C 
BRANCH   6   7
ATOM      7  C   UNL     1       5.393  74.629   0.181  1.00  0.00     0.041 C 
ATOM      8  O   UNL     1       5.718  73.509  -0.294  1.00  0.00    -0.550 OA
ATOM      9  O   UNL     1       4.098  75.100   0.008  1.00  0.00    -0.550 OA
ENDBRANCH   6   7
ENDBRANCH   5   6
ENDBRANCH   4   5
ENDBRANCH   3   4
ENDBRANCH   2   3
ENDBRANCH   1   2
BRANCH   1  10
ATOM     10  C   UNL     1       2.815  77.146   6.390  1.00  0.00     0.000 C 
BRANCH  10  11
ATOM     11  C   UNL     1       1.984  78.324   6.926  1.00  0.00    -0.000 C 
BRANCH  11  12
ATOM     12  C   UNL     1       2.653  79.038   8.110  1.00  0.00    -0.000 C 
BRANCH  12  13
ATOM     13  C   UNL     1       3.479  78.054   8.948  1.00  0.00    -0.000 C 
BRANCH  13  14
ATOM     14  C   UNL     1       3.699  78.589  10.367  1.00  0.00    -0.000 C 
BRANCH  14  15
ATOM     15  C   UNL     1       3.935  77.442  11.357  1.00  0.00    -0.003 C 
ATOM     16  C   UNL     1       5.309  77.553  12.010  1.00  0.00     0.004 C 
ENDBRANCH  14  15
ENDBRANCH  13  14
ENDBRANCH  12  13
ENDBRANCH  11  12
ENDBRANCH  10  11
ENDBRANCH   1  10
TORSDOF 12
ENDMDL
MODEL 3
REMARK VINA RESULT:    -1.322     20.068     21.496
REMARK INTER + INTRA:          -2.876
REMARK INTER:                  -2.413
REMARK INTRA:                  -0.464
REMARK UNBOUND:                -0.626
REMARK SMILES CCCCCCCCCCCCCC(=O)[O-]
REMARK SMILES IDX 8 1 9 2 10 3 11 4 12 5 13 6 14 7 15 8 16 9 7 10 6 11 5 12
REMARK SMILES IDX 4 13 3 14 2 15 1 16
REMARK H PARENT
REMARK Flexibility Score: inf
ROOT
ATOM      1  C   UNL     1       2.051  61.363  -5.150  1.00  0.00     0.000 C 
ENDROOT
BRANCH   1   2
ATOM      2  C   UNL     1       1.375  60.207  -4.390  1.00  0.00     0.000 C 
BRANCH   2   3
ATOM      3  C   UNL     1      -0.090  59.992  -4.810  1.00  0.00     0.000 C 
BRANCH   3   4
ATOM      4  C   UNL     1      -1.078  60.266  -3.664  1.00  0.00     0.000 C 
BRANCH   4   5
ATOM      5  C   UNL     1      -2.249  59.267  -3.641  1.00  0.00     0.006 C 
BRANCH   5   6
ATOM      6  C   UNL     1      -3.581  59.930  -4.021  1.00  0.00     0.053 C 
BRANCH   6   7
ATOM      7  C   UNL     1      -3.877  59.788  -5.483  1.00  0.00     0.041 C 
ATOM      8  O   UNL     1      -3.202  58.997  -6.192  1.00  0.00    -0.550 OA
ATOM      9  O   UNL     1      -4.878  60.553  -6.067  1.00  0.00    -0.550 OA
ENDBRANCH   6   7
ENDBRANCH   5   6
ENDBRANCH   4   5
ENDBRANCH   3   4
ENDBRANCH   2   3
ENDBRANCH   1   2
BRANCH   1  10
ATOM     10  C   UNL     1       2.437  61.053  -6.611  1.00  0.00     0.000 C 
BRANCH  10  11
ATOM     11  C   UNL     1       2.385  59.564  -6.999  1.00  0.00    -0.000 C 
BRANCH  11  12
ATOM     12  C   UNL     1       3.756  58.877  -6.913  1.00  0.00    -0.000 C 
BRANCH  12  13
ATOM     13  C   UNL     1       4.625  59.231  -8.125  1.00  0.00    -0.000 C 
BRANCH  13  14
ATOM     14  C   UNL     1       5.942  59.882  -7.687  1.00  0.00    -0.000 C 
BRANCH  14  15
ATOM     15  C   UNL     1       7.122  58.924  -7.887  1.00  0.00    -0.003 C 
ATOM     16  C   UNL     1       8.455  59.657  -7.765  1.00  0.00     0.004 C 
ENDBRANCH  14  15
ENDBRANCH  13  14
ENDBRANCH  12  13
ENDBRANCH  11  12
ENDBRANCH  10  11
ENDBRANCH   1  10
TORSDOF 12
ENDMDL
MODEL 4
REMARK VINA RESULT:    -1.111     19.946     22.167
REMARK INTER + INTRA:          -2.517
REMARK INTER:                  -1.546
REMARK INTRA:                  -0.971
REMARK UNBOUND:                -0.626
REMARK SMILES CCCCCCCCCCCCCC(=O)[O-]
REMARK SMILES IDX 8 1 9 2 10 3 11 4 12 5 13 6 14 7 15 8 16 9 7 10 6 11 5 12
REMARK SMILES IDX 4 13 3 14 2 15 1 16
REMARK H PARENT
REMARK Flexibility Score: inf
ROOT
ATOM      1  C   UNL     1       0.177  60.803  -3.277  1.00  0.00     0.000 C 
ENDROOT
BRANCH   1   2
ATOM      2  C   UNL     1       1.112  59.922  -4.126  1.00  0.00     0.000 C 
BRANCH   2   3
ATOM      3  C   UNL     1       0.358  59.110  -5.195  1.00  0.00     0.000 C 
BRANCH   3   4
ATOM      4  C   UNL     1       0.995  59.237  -6.589  1.00  0.00     0.000 C 
BRANCH   4   5
ATOM      5  C   UNL     1       2.352  59.963  -6.557  1.00  0.00     0.006 C 
BRANCH   5   6
ATOM      6  C   UNL     1       3.526  59.001  -6.788  1.00  0.00     0.053 C 
BRANCH   6   7
ATOM      7  C   UNL     1       4.549  59.582  -7.716  1.00  0.00     0.041 C 
ATOM      8  O   UNL     1       5.508  58.875  -8.123  1.00  0.00    -0.550 OA
ATOM      9  O   UNL     1       4.459  60.912  -8.106  1.00  0.00    -0.550 OA
ENDBRANCH   6   7
ENDBRANCH   5   6
ENDBRANCH   4   5
ENDBRANCH   3   4
ENDBRANCH   2   3
ENDBRANCH   1   2
BRANCH   1  10
ATOM     10  C   UNL     1      -0.940  60.047  -2.528  1.00  0.00     0.000 C 
BRANCH  10  11
ATOM     11  C   UNL     1      -2.352  60.218  -3.115  1.00  0.00    -0.000 C 
BRANCH  11  12
ATOM     12  C   UNL     1      -3.045  58.878  -3.403  1.00  0.00    -0.000 C 
BRANCH  12  13
ATOM     13  C   UNL     1      -3.718  58.892  -4.780  1.00  0.00    -0.000 C 
BRANCH  13  14
ATOM     14  C   UNL     1      -3.677  60.294  -5.399  1.00  0.00    -0.000 C 
BRANCH  14  15
ATOM     15  C   UNL     1      -4.280  60.291  -6.809  1.00  0.00    -0.003 C 
ATOM     16  C   UNL     1      -3.550  59.307  -7.718  1.00  0.00     0.004 C 
ENDBRANCH  14  15
ENDBRANCH  13  14
ENDBRANCH  12  13
ENDBRANCH  11  12
ENDBRANCH  10  11
ENDBRANCH   1  10
TORSDOF 12
ENDMDL
MODEL 5
REMARK VINA RESULT:    -0.885      4.530      8.653
REMARK INTER + INTRA:          -2.132
REMARK INTER:                  -1.435
REMARK INTRA:                  -0.697
REMARK UNBOUND:                -0.626
REMARK SMILES CCCCCCCCCCCCCC(=O)[O-]
REMARK SMILES IDX 8 1 9 2 10 3 11 4 12 5 13 6 14 7 15 8 16 9 7 10 6 11 5 12
REMARK SMILES IDX 4 13 3 14 2 15 1 16
REMARK H PARENT
REMARK Flexibility Score: inf
ROOT
ATOM      1  C   UNL     1       5.399  77.173   3.353  1.00  0.00     0.000 C 
ENDROOT
BRANCH   1   2
ATOM      2  C   UNL     1       5.387  78.060   2.095  1.00  0.00     0.000 C 
BRANCH   2   3
ATOM      3  C   UNL     1       6.129  77.422   0.907  1.00  0.00     0.000 C 
BRANCH   3   4
ATOM      4  C   UNL     1       6.874  76.135   1.300  1.00  0.00     0.000 C 
BRANCH   4   5
ATOM      5  C   UNL     1       6.901  75.096   0.163  1.00  0.00     0.006 C 
BRANCH   5   6
ATOM      6  C   UNL     1       5.850  73.996   0.361  1.00  0.00     0.053 C 
BRANCH   6   7
ATOM      7  C   UNL     1       4.648  74.209  -0.505  1.00  0.00     0.041 C 
ATOM      8  O   UNL     1       3.749  75.018  -0.153  1.00  0.00    -0.550 OA
ATOM      9  O   UNL     1       4.505  73.494  -1.687  1.00  0.00    -0.550 OA
ENDBRANCH   6   7
ENDBRANCH   5   6
ENDBRANCH   4   5
ENDBRANCH   3   4
ENDBRANCH   2   3
ENDBRANCH   1   2
BRANCH   1  10
ATOM     10  C   UNL     1       4.010  76.791   3.903  1.00  0.00     0.000 C 
BRANCH  10  11
ATOM     11  C   UNL     1       3.783  77.117   5.390  1.00  0.00    -0.000 C 
BRANCH  11  12
ATOM     12  C   UNL     1       2.309  77.387   5.725  1.00  0.00    -0.000 C 
BRANCH  12  13
ATOM     13  C   UNL     1       2.130  77.689   7.217  1.00  0.00    -0.000 C 
BRANCH  13  14
ATOM     14  C   UNL     1       3.459  77.552   7.970  1.00  0.00    -0.000 C 
BRANCH  14  15
ATOM     15  C   UNL     1       3.496  78.476   9.193  1.00  0.00    -0.003 C 
ATOM     16  C   UNL     1       3.836  77.698  10.461  1.00  0.00     0.004 C 
ENDBRANCH  14  15
ENDBRANCH  13  14
ENDBRANCH  12  13
ENDBRANCH  11  12
ENDBRANCH  10  11
ENDBRANCH   1  10
TORSDOF 12
ENDMDL
MODEL 6
REMARK VINA RESULT:    -0.311      1.350      2.325
REMARK INTER + INTRA:          -1.156
REMARK INTER:                  -0.740
REMARK INTRA:                  -0.416
REMARK UNBOUND:                -0.626
REMARK SMILES CCCCCCCCCCCCCC(=O)[O-]
REMARK SMILES IDX 8 1 9 2 10 3 11 4 12 5 13 6 14 7 15 8 16 9 7 10 6 11 5 12
REMARK SMILES IDX 4 13 3 14 2 15 1 16
REMARK H PARENT
REMARK Flexibility Score: inf
ROOT
ATOM      1  C   UNL     1       5.351  76.866   3.313  1.00  0.00     0.000 C 
ENDROOT
BRANCH   1   2
ATOM      2  C   UNL     1       3.913  76.714   3.843  1.00  0.00     0.000 C 
BRANCH   2   3
ATOM      3  C   UNL     1       3.771  77.142   5.315  1.00  0.00     0.000 C 
BRANCH   3   4
ATOM      4  C   UNL     1       2.308  77.385   5.720  1.00  0.00     0.000 C 
BRANCH   4   5
ATOM      5  C   UNL     1       2.181  78.172   7.037  1.00  0.00     0.006 C 
BRANCH   5   6
ATOM      6  C   UNL     1       3.403  77.978   7.946  1.00  0.00     0.053 C 
BRANCH   6   7
ATOM      7  C   UNL     1       3.234  76.807   8.865  1.00  0.00     0.041 C 
ATOM      8  O   UNL     1       2.862  75.693   8.410  1.00  0.00    -0.550 OA
ATOM      9  O   UNL     1       3.457  76.955  10.228  1.00  0.00    -0.550 OA
ENDBRANCH   6   7
ENDBRANCH   5   6
ENDBRANCH   4   5
ENDBRANCH   3   4
ENDBRANCH   2   3
ENDBRANCH   1   2
BRANCH   1  10
ATOM     10  C   UNL     1       5.692  78.250   2.723  1.00  0.00     0.000 C 
BRANCH  10  11
ATOM     11  C   UNL     1       5.971  78.264   1.210  1.00  0.00    -0.000 C 
BRANCH  11  12
ATOM     12  C   UNL     1       5.660  76.921   0.533  1.00  0.00    -0.000 C 
BRANCH  12  13
ATOM     13  C   UNL     1       6.847  75.958   0.655  1.00  0.00    -0.000 C 
BRANCH  13  14
ATOM     14  C   UNL     1       6.379  74.499   0.604  1.00  0.00    -0.000 C 
BRANCH  14  15
ATOM     15  C   UNL     1       4.878  74.412   0.304  1.00  0.00    -0.003 C 
ATOM     16  C   UNL     1       4.626  73.810  -1.076  1.00  0.00     0.004 C 
ENDBRANCH  14  15
ENDBRANCH  13  14
ENDBRANCH  12  13
ENDBRANCH  11  12
ENDBRANCH  10  11
ENDBRANCH   1  10
TORSDOF 12
ENDMDL
MODEL 7
REMARK VINA RESULT:    -0.066      1.179      2.840
REMARK INTER + INTRA:          -0.739
REMARK INTER:                  -0.636
REMARK INTRA:                  -0.103
REMARK UNBOUND:                -0.626
REMARK SMILES CCCCCCCCCCCCCC(=O)[O-]
REMARK SMILES IDX 8 1 9 2 10 3 11 4 12 5 13 6 14 7 15 8 16 9 7 10 6 11 5 12
REMARK SMILES IDX 4 13 3 14 2 15 1 16
REMARK H PARENT
REMARK Flexibility Score: inf
ROOT
ATOM      1  C   UNL     1       2.618  76.352   7.366  1.00  0.00     0.000 C 
ENDROOT
BRANCH   1   2
ATOM      2  C   UNL     1       3.009  76.638   8.828  1.00  0.00     0.000 C 
BRANCH   2   3
ATOM      3  C   UNL     1       3.899  77.885   8.974  1.00  0.00     0.000 C 
BRANCH   3   4
ATOM      4  C   UNL     1       3.125  79.102   9.510  1.00  0.00     0.000 C 
BRANCH   4   5
ATOM      5  C   UNL     1       2.987  79.087  11.044  1.00  0.00     0.006 C 
BRANCH   5   6
ATOM      6  C   UNL     1       4.351  79.056  11.746  1.00  0.00     0.053 C 
BRANCH   6   7
ATOM      7  C   UNL     1       4.856  77.657  11.924  1.00  0.00     0.041 C 
ATOM      8  O   UNL     1       4.049  76.691  11.946  1.00  0.00    -0.550 OA
ATOM      9  O   UNL     1       6.214  77.423  12.098  1.00  0.00    -0.550 OA
ENDBRANCH   6   7
ENDBRANCH   5   6
ENDBRANCH   4   5
ENDBRANCH   3   4
ENDBRANCH   2   3
ENDBRANCH   1   2
BRANCH   1  10
ATOM     10  C   UNL     1       2.120  77.573   6.567  1.00  0.00     0.000 C 
BRANCH  10  11
ATOM     11  C   UNL     1       2.891  77.863   5.267  1.00  0.00    -0.000 C 
BRANCH  11  12
ATOM     12  C   UNL     1       3.865  76.737   4.888  1.00  0.00    -0.000 C 
BRANCH  12  13
ATOM     13  C   UNL     1       4.989  77.263   3.987  1.00  0.00    -0.000 C 
BRANCH  13  14
ATOM     14  C   UNL     1       5.077  76.455   2.687  1.00  0.00    -0.000 C 
BRANCH  14  15
ATOM     15  C   UNL     1       5.936  77.181   1.645  1.00  0.00    -0.003 C 
ATOM     16  C   UNL     1       6.809  76.199   0.870  1.00  0.00     0.004 C 
ENDBRANCH  14  15
ENDBRANCH  13  14
ENDBRANCH  12  13
ENDBRANCH  11  12
ENDBRANCH  10  11
ENDBRANCH   1  10
TORSDOF 12
ENDMDL
MODEL 8
REMARK VINA RESULT:     0.691     20.560     21.902
REMARK INTER + INTRA:           0.550
REMARK INTER:                   0.929
REMARK INTRA:                  -0.379
REMARK UNBOUND:                -0.626
REMARK SMILES CCCCCCCCCCCCCC(=O)[O-]
REMARK SMILES IDX 8 1 9 2 10 3 11 4 12 5 13 6 14 7 15 8 16 9 7 10 6 11 5 12
REMARK SMILES IDX 4 13 3 14 2 15 1 16
REMARK H PARENT
REMARK Flexibility Score: inf
ROOT
ATOM      1  C   UNL     1       0.729  59.630  -4.166  1.00  0.00     0.000 C 
ENDROOT
BRANCH   1   2
ATOM      2  C   UNL     1      -0.482  60.576  -4.065  1.00  0.00     0.000 C 
BRANCH   2   3
ATOM      3  C   UNL     1      -1.481  60.151  -2.974  1.00  0.00     0.000 C 
BRANCH   3   4
ATOM      4  C   UNL     1      -2.822  59.672  -3.556  1.00  0.00     0.000 C 
BRANCH   4   5
ATOM      5  C   UNL     1      -2.675  59.073  -4.967  1.00  0.00     0.006 C 
BRANCH   5   6
ATOM      6  C   UNL     1      -4.025  58.955  -5.687  1.00  0.00     0.053 C 
BRANCH   6   7
ATOM      7  C   UNL     1      -4.109  59.871  -6.869  1.00  0.00     0.041 C 
ATOM      8  O   UNL     1      -4.743  60.956  -6.785  1.00  0.00    -0.550 OA
ATOM      9  O   UNL     1      -3.515  59.512  -8.071  1.00  0.00    -0.550 OA
ENDBRANCH   6   7
ENDBRANCH   5   6
ENDBRANCH   4   5
ENDBRANCH   3   4
ENDBRANCH   2   3
ENDBRANCH   1   2
BRANCH   1  10
ATOM     10  C   UNL     1       1.810  60.051  -5.183  1.00  0.00     0.000 C 
BRANCH  10  11
ATOM     11  C   UNL     1       2.505  58.890  -5.916  1.00  0.00    -0.000 C 
BRANCH  11  12
ATOM     12  C   UNL     1       2.212  58.875  -7.424  1.00  0.00    -0.000 C 
BRANCH  12  13
ATOM     13  C   UNL     1       2.543  60.230  -8.060  1.00  0.00    -0.000 C 
BRANCH  13  14
ATOM     14  C   UNL     1       4.056  60.480  -8.068  1.00  0.00    -0.000 C 
BRANCH  14  15
ATOM     15  C   UNL     1       4.832  59.159  -8.125  1.00  0.00    -0.003 C 
ATOM     16  C   UNL     1       6.338  59.403  -8.103  1.00  0.00     0.004 C 
ENDBRANCH  14  15
ENDBRANCH  13  14
ENDBRANCH  12  13
ENDBRANCH  11  12
ENDBRANCH  10  11
ENDBRANCH   1  10
TORSDOF 12
ENDMDL
MODEL 9
REMARK VINA RESULT:     0.724     19.697     21.799
REMARK INTER + INTRA:           0.605
REMARK INTER:                   0.335
REMARK INTRA:                   0.270
REMARK UNBOUND:                -0.626
REMARK SMILES CCCCCCCCCCCCCC(=O)[O-]
REMARK SMILES IDX 8 1 9 2 10 3 11 4 12 5 13 6 14 7 15 8 16 9 7 10 6 11 5 12
REMARK SMILES IDX 4 13 3 14 2 15 1 16
REMARK H PARENT
REMARK Flexibility Score: inf
ROOT
ATOM      1  C   UNL     1       0.615  60.592  -3.628  1.00  0.00     0.000 C 
ENDROOT
BRANCH   1   2
ATOM      2  C   UNL     1       1.676  59.485  -3.762  1.00  0.00     0.000 C 
BRANCH   2   3
ATOM      3  C   UNL     1       2.078  59.218  -5.223  1.00  0.00     0.000 C 
BRANCH   3   4
ATOM      4  C   UNL     1       3.579  58.919  -5.377  1.00  0.00     0.000 C 
BRANCH   4   5
ATOM      5  C   UNL     1       4.026  58.875  -6.849  1.00  0.00     0.006 C 
BRANCH   5   6
ATOM      6  C   UNL     1       4.099  60.276  -7.473  1.00  0.00     0.053 C 
BRANCH   6   7
ATOM      7  C   UNL     1       2.744  60.901  -7.601  1.00  0.00     0.041 C 
ATOM      8  O   UNL     1       1.759  60.207  -7.965  1.00  0.00    -0.550 OA
ATOM      9  O   UNL     1       2.576  62.256  -7.348  1.00  0.00    -0.550 OA
ENDBRANCH   6   7
ENDBRANCH   5   6
ENDBRANCH   4   5
ENDBRANCH   3   4
ENDBRANCH   2   3
ENDBRANCH   1   2
BRANCH   1  10
ATOM     10  C   UNL     1      -0.274  60.503  -2.371  1.00  0.00     0.000 C 
BRANCH  10  11
ATOM     11  C   UNL     1      -1.696  59.964  -2.612  1.00  0.00    -0.000 C 
BRANCH  11  12
ATOM     12  C   UNL     1      -2.055  59.875  -4.103  1.00  0.00    -0.000 C 
BRANCH  12  13
ATOM     13  C   UNL     1      -3.543  59.557  -4.290  1.00  0.00    -0.000 C 
BRANCH  13  14
ATOM     14  C   UNL     1      -4.121  60.314  -5.491  1.00  0.00    -0.000 C 
BRANCH  14  15
ATOM     15  C   UNL     1      -3.542  59.783  -6.808  1.00  0.00    -0.003 C 
ATOM     16  C   UNL     1      -4.510  60.008  -7.966  1.00  0.00     0.004 C 
ENDBRANCH  14  15
ENDBRANCH  13  14
ENDBRANCH  12  13
ENDBRANCH  11  12
ENDBRANCH  10  11
ENDBRANCH   1  10
TORSDOF 12
ENDMDL
