MODEL 1
REMARK VINA RESULT:    -4.493      0.000      0.000
REMARK INTER + INTRA:         -17.036
REMARK INTER:                 -11.847
REMARK INTRA:                  -5.188
REMARK UNBOUND:                -5.188
REMARK SMILES CCCCCCCCCCCCCCCCCCCCCCCCCCCCCC(=O)[O-]
REMARK SMILES IDX 16 1 17 2 18 3 19 4 20 5 21 6 22 7 23 8 24 9 25 10 26 11
REMARK SMILES IDX 27 12 28 13 29 14 30 15 31 16 32 17 15 18 14 19 13 20 12 21
REMARK SMILES IDX 11 22 10 23 9 24 8 25 7 26 6 27 5 28 4 29 3 30 2 31 1 32
REMARK H PARENT
REMARK Flexibility Score: inf
ROOT
ATOM      1  C   UNL     1      60.533  28.734  12.795  1.00  0.00     0.000 C 
ENDROOT
BRANCH   1   2
ATOM      2  C   UNL     1      61.989  28.254  12.956  1.00  0.00     0.000 C 
BRANCH   2   3
ATOM      3  C   UNL     1      63.022  29.395  13.077  1.00  0.00     0.000 C 
BRANCH   3   4
ATOM      4  C   UNL     1      62.473  30.626  13.820  1.00  0.00     0.000 C 
BRANCH   4   5
ATOM      5  C   UNL     1      62.457  31.890  12.944  1.00  0.00     0.000 C 
BRANCH   5   6
ATOM      6  C   UNL     1      61.153  32.712  13.061  1.00  0.00     0.000 C 
BRANCH   6   7
ATOM      7  C   UNL     1      60.694  32.982  14.511  1.00  0.00     0.000 C 
BRANCH   7   8
ATOM      8  C   UNL     1      60.897  34.424  15.020  1.00  0.00     0.000 C 
BRANCH   8   9
ATOM      9  C   UNL     1      61.200  34.506  16.524  1.00  0.00     0.000 C 
BRANCH   9  10
ATOM     10  C   UNL     1      61.933  33.244  17.006  1.00  0.00     0.000 C 
BRANCH  10  11
ATOM     11  C   UNL     1      63.021  33.543  18.051  1.00  0.00     0.000 C 
BRANCH  11  12
ATOM     12  C   UNL     1      63.414  35.030  18.089  1.00  0.00     0.000 C 
BRANCH  12  13
ATOM     13  C   UNL     1      63.901  35.485  19.478  1.00  0.00     0.006 C 
BRANCH  13  14
ATOM     14  C   UNL     1      65.225  34.845  19.927  1.00  0.00     0.053 C 
BRANCH  14  15
ATOM     15  C   UNL     1      65.056  33.988  21.144  1.00  0.00     0.041 C 
ATOM     16  O   UNL     1      66.058  33.445  21.682  1.00  0.00    -0.550 OA
ATOM     17  O   UNL     1      63.797  33.825  21.710  1.00  0.00    -0.550 OA
ENDBRANCH  14  15
ENDBRANCH  13  14
ENDBRANCH  12  13
ENDBRANCH  11  12
ENDBRANCH  10  11
ENDBRANCH   9  10
ENDBRANCH   8   9
ENDBRANCH   7   8
ENDBRANCH   6   7
ENDBRANCH   5   6
ENDBRANCH   4   5
ENDBRANCH   3   4
ENDBRANCH   2   3
ENDBRANCH   1   2
BRANCH   1  18
ATOM     18  C   UNL     1      60.007  28.774  11.348  1.00  0.00     0.000 C 
BRANCH  18  19
ATOM     19  C   UNL     1      60.316  30.070  10.568  1.00  0.00     0.000 C 
BRANCH  19  20
ATOM     20  C   UNL     1      61.091  29.867   9.253  1.00  0.00     0.000 C 
BRANCH  20  21
ATOM     21  C   UNL     1      61.972  28.607   9.269  1.00  0.00     0.000 C 
BRANCH  21  22
ATOM     22  C   UNL     1      63.465  28.943   9.479  1.00  0.00     0.000 C 
BRANCH  22  23
ATOM     23  C   UNL     1      63.775  30.448   9.421  1.00  0.00     0.000 C 
BRANCH  23  24
ATOM     24  C   UNL     1      64.917  30.863  10.362  1.00  0.00    -0.000 C 
BRANCH  24  25
ATOM     25  C   UNL     1      65.355  32.326  10.135  1.00  0.00    -0.000 C 
BRANCH  25  26
ATOM     26  C   UNL     1      66.238  32.889  11.262  1.00  0.00    -0.000 C 
BRANCH  26  27
ATOM     27  C   UNL     1      65.681  34.190  11.861  1.00  0.00    -0.000 C 
BRANCH  27  28
ATOM     28  C   UNL     1      66.470  34.664  13.094  1.00  0.00    -0.000 C 
BRANCH  28  29
ATOM     29  C   UNL     1      65.623  34.897  14.361  1.00  0.00    -0.000 C 
BRANCH  29  30
ATOM     30  C   UNL     1      64.939  33.622  14.896  1.00  0.00    -0.000 C 
BRANCH  30  31
ATOM     31  C   UNL     1      65.945  32.622  15.486  1.00  0.00    -0.003 C 
ATOM     32  C   UNL     1      65.791  31.245  14.848  1.00  0.00     0.004 C 
ENDBRANCH  30  31
ENDBRANCH  29  30
ENDBRANCH  28  29
ENDBRANCH  27  28
ENDBRANCH  26  27
ENDBRANCH  25  26
ENDBRANCH  24  25
ENDBRANCH  23  24
ENDBRANCH  22  23
ENDBRANCH  21  22
ENDBRANCH  20  21
ENDBRANCH  19  20
ENDBRANCH  18  19
ENDBRANCH   1  18
TORSDOF 28
ENDMDL
MODEL 2
REMARK VINA RESULT:    -4.147      6.440     12.392
REMARK INTER + INTRA:         -16.123
REMARK INTER:                 -12.981
REMARK INTRA:                  -3.142
REMARK UNBOUND:                -5.188
REMARK SMILES CCCCCCCCCCCCCCCCCCCCCCCCCCCCCC(=O)[O-]
REMARK SMILES IDX 16 1 17 2 18 3 19 4 20 5 21 6 22 7 23 8 24 9 25 10 26 11
REMARK SMILES IDX 27 12 28 13 29 14 30 15 31 16 32 17 15 18 14 19 13 20 12 21
REMARK SMILES IDX 11 22 10 23 9 24 8 25 7 26 6 27 5 28 4 29 3 30 2 31 1 32
REMARK H PARENT
REMARK Flexibility Score: inf
ROOT
ATOM      1  C   UNL     1      63.822  31.526  23.701  1.00  0.00     0.000 C 
ENDROOT
BRANCH   1   2
ATOM      2  C   UNL     1      64.616  32.417  22.725  1.00  0.00     0.000 C 
BRANCH   2   3
ATOM      3  C   UNL     1      63.772  33.511  22.037  1.00  0.00     0.000 C 
BRANCH   3   4
ATOM      4  C   UNL     1      64.499  34.175  20.854  1.00  0.00     0.000 C 
BRANCH   4   5
ATOM      5  C   UNL     1      63.536  34.632  19.745  1.00  0.00     0.000 C 
BRANCH   5   6
ATOM      6  C   UNL     1      63.387  33.613  18.593  1.00  0.00     0.000 C 
BRANCH   6   7
ATOM      7  C   UNL     1      61.934  33.386  18.121  1.00  0.00     0.000 C 
BRANCH   7   8
ATOM      8  C   UNL     1      61.591  33.935  16.720  1.00  0.00     0.000 C 
BRANCH   8   9
ATOM      9  C   UNL     1      62.783  33.929  15.751  1.00  0.00     0.000 C 
BRANCH   9  10
ATOM     10  C   UNL     1      62.369  33.382  14.375  1.00  0.00     0.000 C 
BRANCH  10  11
ATOM     11  C   UNL     1      60.851  33.446  14.135  1.00  0.00     0.000 C 
BRANCH  11  12
ATOM     12  C   UNL     1      60.252  32.080  13.759  1.00  0.00     0.000 C 
BRANCH  12  13
ATOM     13  C   UNL     1      61.215  30.909  14.033  1.00  0.00     0.006 C 
BRANCH  13  14
ATOM     14  C   UNL     1      61.603  30.100  12.785  1.00  0.00     0.053 C 
BRANCH  14  15
ATOM     15  C   UNL     1      60.405  29.568  12.059  1.00  0.00     0.041 C 
ATOM     16  O   UNL     1      59.677  28.691  12.594  1.00  0.00    -0.550 OA
ATOM     17  O   UNL     1      60.069  30.074  10.809  1.00  0.00    -0.550 OA
ENDBRANCH  14  15
ENDBRANCH  13  14
ENDBRANCH  12  13
ENDBRANCH  11  12
ENDBRANCH  10  11
ENDBRANCH   9  10
ENDBRANCH   8   9
ENDBRANCH   7   8
ENDBRANCH   6   7
ENDBRANCH   5   6
ENDBRANCH   4   5
ENDBRANCH   3   4
ENDBRANCH   2   3
ENDBRANCH   1   2
BRANCH   1  18
ATOM     18  C   UNL     1      64.295  30.063  23.792  1.00  0.00     0.000 C 
BRANCH  18  19
ATOM     19  C   UNL     1      65.397  29.789  24.838  1.00  0.00     0.000 C 
BRANCH  19  20
ATOM     20  C   UNL     1      64.918  29.067  26.110  1.00  0.00     0.000 C 
BRANCH  20  21
ATOM     21  C   UNL     1      64.544  30.038  27.243  1.00  0.00     0.000 C 
BRANCH  21  22
ATOM     22  C   UNL     1      63.028  30.329  27.285  1.00  0.00     0.000 C 
BRANCH  22  23
ATOM     23  C   UNL     1      62.370  29.988  28.633  1.00  0.00     0.000 C 
BRANCH  23  24
ATOM     24  C   UNL     1      61.291  28.900  28.516  1.00  0.00    -0.000 C 
BRANCH  24  25
ATOM     25  C   UNL     1      61.883  27.479  28.629  1.00  0.00    -0.000 C 
BRANCH  25  26
ATOM     26  C   UNL     1      61.941  26.725  27.290  1.00  0.00    -0.000 C 
BRANCH  26  27
ATOM     27  C   UNL     1      61.100  27.396  26.192  1.00  0.00    -0.000 C 
BRANCH  27  28
ATOM     28  C   UNL     1      61.792  27.380  24.817  1.00  0.00    -0.000 C 
BRANCH  28  29
ATOM     29  C   UNL     1      63.058  26.503  24.735  1.00  0.00    -0.000 C 
BRANCH  29  30
ATOM     30  C   UNL     1      63.491  26.167  23.292  1.00  0.00    -0.000 C 
BRANCH  30  31
ATOM     31  C   UNL     1      64.946  25.681  23.216  1.00  0.00    -0.003 C 
ATOM     32  C   UNL     1      65.890  26.823  22.855  1.00  0.00     0.004 C 
ENDBRANCH  30  31
ENDBRANCH  29  30
ENDBRANCH  28  29
ENDBRANCH  27  28
ENDBRANCH  26  27
ENDBRANCH  25  26
ENDBRANCH  24  25
ENDBRANCH  23  24
ENDBRANCH  22  23
ENDBRANCH  21  22
ENDBRANCH  20  21
ENDBRANCH  19  20
ENDBRANCH  18  19
ENDBRANCH   1  18
TORSDOF 28
ENDMDL
MODEL 3
REMARK VINA RESULT:    -4.116      6.228     11.262
REMARK INTER + INTRA:         -16.042
REMARK INTER:                 -12.657
REMARK INTRA:                  -3.384
REMARK UNBOUND:                -5.188
REMARK SMILES CCCCCCCCCCCCCCCCCCCCCCCCCCCCCC(=O)[O-]
REMARK SMILES IDX 16 1 17 2 18 3 19 4 20 5 21 6 22 7 23 8 24 9 25 10 26 11
REMARK SMILES IDX 27 12 28 13 29 14 30 15 31 16 32 17 15 18 14 19 13 20 12 21
REMARK SMILES IDX 11 22 10 23 9 24 8 25 7 26 6 27 5 28 4 29 3 30 2 31 1 32
REMARK H PARENT
REMARK Flexibility Score: inf
ROOT
ATOM      1  C   UNL     1      62.128  28.289  25.065  1.00  0.00     0.000 C 
ENDROOT
BRANCH   1   2
ATOM      2  C   UNL     1      60.777  27.791  25.617  1.00  0.00     0.000 C 
BRANCH   2   3
ATOM      3  C   UNL     1      60.836  27.284  27.074  1.00  0.00     0.000 C 
BRANCH   3   4
ATOM      4  C   UNL     1      62.167  27.614  27.771  1.00  0.00     0.000 C 
BRANCH   4   5
ATOM      5  C   UNL     1      62.028  28.736  28.815  1.00  0.00     0.000 C 
BRANCH   5   6
ATOM      6  C   UNL     1      62.416  30.133  28.281  1.00  0.00     0.000 C 
BRANCH   6   7
ATOM      7  C   UNL     1      63.594  30.800  29.025  1.00  0.00     0.000 C 
BRANCH   7   8
ATOM      8  C   UNL     1      65.002  30.307  28.628  1.00  0.00     0.000 C 
BRANCH   8   9
ATOM      9  C   UNL     1      65.340  30.544  27.149  1.00  0.00     0.000 C 
BRANCH   9  10
ATOM     10  C   UNL     1      65.589  29.212  26.423  1.00  0.00     0.000 C 
BRANCH  10  11
ATOM     11  C   UNL     1      66.562  29.346  25.239  1.00  0.00     0.000 C 
BRANCH  11  12
ATOM     12  C   UNL     1      66.318  28.288  24.149  1.00  0.00     0.000 C 
BRANCH  12  13
ATOM     13  C   UNL     1      65.370  27.164  24.608  1.00  0.00     0.006 C 
BRANCH  13  14
ATOM     14  C   UNL     1      65.225  26.007  23.606  1.00  0.00     0.053 C 
BRANCH  14  15
ATOM     15  C   UNL     1      63.824  25.874  23.092  1.00  0.00     0.041 C 
ATOM     16  O   UNL     1      63.027  25.057  23.626  1.00  0.00    -0.550 OA
ATOM     17  O   UNL     1      63.386  26.685  22.052  1.00  0.00    -0.550 OA
ENDBRANCH  14  15
ENDBRANCH  13  14
ENDBRANCH  12  13
ENDBRANCH  11  12
ENDBRANCH  10  11
ENDBRANCH   9  10
ENDBRANCH   8   9
ENDBRANCH   7   8
ENDBRANCH   6   7
ENDBRANCH   5   6
ENDBRANCH   4   5
ENDBRANCH   3   4
ENDBRANCH   2   3
ENDBRANCH   1   2
BRANCH   1  18
ATOM     18  C   UNL     1      62.150  29.757  24.600  1.00  0.00     0.000 C 
BRANCH  18  19
ATOM     19  C   UNL     1      63.425  30.193  23.847  1.00  0.00     0.000 C 
BRANCH  19  20
ATOM     20  C   UNL     1      63.700  31.707  23.859  1.00  0.00     0.000 C 
BRANCH  20  21
ATOM     21  C   UNL     1      64.557  32.168  22.669  1.00  0.00     0.000 C 
BRANCH  21  22
ATOM     22  C   UNL     1      64.088  33.526  22.103  1.00  0.00     0.000 C 
BRANCH  22  23
ATOM     23  C   UNL     1      64.774  33.917  20.783  1.00  0.00     0.000 C 
BRANCH  23  24
ATOM     24  C   UNL     1      64.145  35.155  20.123  1.00  0.00    -0.000 C 
BRANCH  24  25
ATOM     25  C   UNL     1      62.891  34.797  19.297  1.00  0.00    -0.000 C 
BRANCH  25  26
ATOM     26  C   UNL     1      62.972  33.421  18.614  1.00  0.00    -0.000 C 
BRANCH  26  27
ATOM     27  C   UNL     1      61.959  33.262  17.470  1.00  0.00    -0.000 C 
BRANCH  27  28
ATOM     28  C   UNL     1      61.404  34.609  16.974  1.00  0.00    -0.000 C 
BRANCH  28  29
ATOM     29  C   UNL     1      60.805  34.585  15.553  1.00  0.00    -0.000 C 
BRANCH  29  30
ATOM     30  C   UNL     1      60.759  33.178  14.921  1.00  0.00    -0.000 C 
BRANCH  30  31
ATOM     31  C   UNL     1      61.241  33.176  13.462  1.00  0.00    -0.003 C 
ATOM     32  C   UNL     1      62.737  32.885  13.377  1.00  0.00     0.004 C 
ENDBRANCH  30  31
ENDBRANCH  29  30
ENDBRANCH  28  29
ENDBRANCH  27  28
ENDBRANCH  26  27
ENDBRANCH  25  26
ENDBRANCH  24  25
ENDBRANCH  23  24
ENDBRANCH  22  23
ENDBRANCH  21  22
ENDBRANCH  20  21
ENDBRANCH  19  20
ENDBRANCH  18  19
ENDBRANCH   1  18
TORSDOF 28
ENDMDL
MODEL 4
REMARK VINA RESULT:    -4.104      6.110     10.878
REMARK INTER + INTRA:         -16.011
REMARK INTER:                 -12.774
REMARK INTRA:                  -3.237
REMARK UNBOUND:                -5.188
REMARK SMILES CCCCCCCCCCCCCCCCCCCCCCCCCCCCCC(=O)[O-]
REMARK SMILES IDX 16 1 17 2 18 3 19 4 20 5 21 6 22 7 23 8 24 9 25 10 26 11
REMARK SMILES IDX 27 12 28 13 29 14 30 15 31 16 32 17 15 18 14 19 13 20 12 21
REMARK SMILES IDX 11 22 10 23 9 24 8 25 7 26 6 27 5 28 4 29 3 30 2 31 1 32
REMARK H PARENT
REMARK Flexibility Score: inf
ROOT
ATOM      1  C   UNL     1      63.697  30.802  24.989  1.00  0.00     0.000 C 
ENDROOT
BRANCH   1   2
ATOM      2  C   UNL     1      64.725  30.071  25.876  1.00  0.00     0.000 C 
BRANCH   2   3
ATOM      3  C   UNL     1      64.139  29.500  27.185  1.00  0.00     0.000 C 
BRANCH   3   4
ATOM      4  C   UNL     1      62.894  30.263  27.669  1.00  0.00     0.000 C 
BRANCH   4   5
ATOM      5  C   UNL     1      61.886  29.356  28.396  1.00  0.00     0.000 C 
BRANCH   5   6
ATOM      6  C   UNL     1      62.435  27.946  28.712  1.00  0.00     0.000 C 
BRANCH   6   7
ATOM      7  C   UNL     1      61.877  26.823  27.810  1.00  0.00     0.000 C 
BRANCH   7   8
ATOM      8  C   UNL     1      60.488  27.087  27.193  1.00  0.00     0.000 C 
BRANCH   8   9
ATOM      9  C   UNL     1      60.456  26.932  25.665  1.00  0.00     0.000 C 
BRANCH   9  10
ATOM     10  C   UNL     1      61.061  28.165  24.975  1.00  0.00     0.000 C 
BRANCH  10  11
ATOM     11  C   UNL     1      62.221  27.815  24.028  1.00  0.00     0.000 C 
BRANCH  11  12
ATOM     12  C   UNL     1      62.822  26.429  24.314  1.00  0.00     0.000 C 
BRANCH  12  13
ATOM     13  C   UNL     1      64.262  26.501  24.857  1.00  0.00     0.006 C 
BRANCH  13  14
ATOM     14  C   UNL     1      65.312  25.816  23.967  1.00  0.00     0.053 C 
BRANCH  14  15
ATOM     15  C   UNL     1      65.777  26.704  22.853  1.00  0.00     0.041 C 
ATOM     16  O   UNL     1      65.740  26.298  21.661  1.00  0.00    -0.550 OA
ATOM     17  O   UNL     1      66.210  27.995  23.129  1.00  0.00    -0.550 OA
ENDBRANCH  14  15
ENDBRANCH  13  14
ENDBRANCH  12  13
ENDBRANCH  11  12
ENDBRANCH  10  11
ENDBRANCH   9  10
ENDBRANCH   8   9
ENDBRANCH   7   8
ENDBRANCH   6   7
ENDBRANCH   5   6
ENDBRANCH   4   5
ENDBRANCH   3   4
ENDBRANCH   2   3
ENDBRANCH   1   2
BRANCH   1  18
ATOM     18  C   UNL     1      64.093  30.955  23.509  1.00  0.00     0.000 C 
BRANCH  18  19
ATOM     19  C   UNL     1      64.729  32.310  23.131  1.00  0.00     0.000 C 
BRANCH  19  20
ATOM     20  C   UNL     1      63.899  33.167  22.160  1.00  0.00     0.000 C 
BRANCH  20  21
ATOM     21  C   UNL     1      64.770  34.031  21.232  1.00  0.00     0.000 C 
BRANCH  21  22
ATOM     22  C   UNL     1      63.944  34.696  20.109  1.00  0.00     0.000 C 
BRANCH  22  23
ATOM     23  C   UNL     1      63.074  33.708  19.313  1.00  0.00     0.000 C 
BRANCH  23  24
ATOM     24  C   UNL     1      61.742  34.319  18.850  1.00  0.00    -0.000 C 
BRANCH  24  25
ATOM     25  C   UNL     1      61.686  34.496  17.317  1.00  0.00    -0.000 C 
BRANCH  25  26
ATOM     26  C   UNL     1      63.057  34.376  16.630  1.00  0.00    -0.000 C 
BRANCH  26  27
ATOM     27  C   UNL     1      62.956  33.882  15.179  1.00  0.00    -0.000 C 
BRANCH  27  28
ATOM     28  C   UNL     1      61.821  32.862  14.974  1.00  0.00    -0.000 C 
BRANCH  28  29
ATOM     29  C   UNL     1      61.097  32.956  13.616  1.00  0.00    -0.000 C 
BRANCH  29  30
ATOM     30  C   UNL     1      59.996  31.892  13.422  1.00  0.00    -0.000 C 
BRANCH  30  31
ATOM     31  C   UNL     1      60.438  30.759  12.483  1.00  0.00    -0.003 C 
ATOM     32  C   UNL     1      61.039  29.597  13.268  1.00  0.00     0.004 C 
ENDBRANCH  30  31
ENDBRANCH  29  30
ENDBRANCH  28  29
ENDBRANCH  27  28
ENDBRANCH  26  27
ENDBRANCH  25  26
ENDBRANCH  24  25
ENDBRANCH  23  24
ENDBRANCH  22  23
ENDBRANCH  21  22
ENDBRANCH  20  21
ENDBRANCH  19  20
ENDBRANCH  18  19
ENDBRANCH   1  18
TORSDOF 28
ENDMDL
MODEL 5
REMARK VINA RESULT:    -4.090      6.526     12.336
REMARK INTER + INTRA:         -15.973
REMARK INTER:                 -11.905
REMARK INTRA:                  -4.068
REMARK UNBOUND:                -5.188
REMARK SMILES CCCCCCCCCCCCCCCCCCCCCCCCCCCCCC(=O)[O-]
REMARK SMILES IDX 16 1 17 2 18 3 19 4 20 5 21 6 22 7 23 8 24 9 25 10 26 11
REMARK SMILES IDX 27 12 28 13 29 14 30 15 31 16 32 17 15 18 14 19 13 20 12 21
REMARK SMILES IDX 11 22 10 23 9 24 8 25 7 26 6 27 5 28 4 29 3 30 2 31 1 32
REMARK H PARENT
REMARK Flexibility Score: inf
ROOT
ATOM      1  C   UNL     1      61.044  27.772  25.168  1.00  0.00     0.000 C 
ENDROOT
BRANCH   1   2
ATOM      2  C   UNL     1      61.500  29.150  24.645  1.00  0.00     0.000 C 
BRANCH   2   3
ATOM      3  C   UNL     1      63.026  29.373  24.698  1.00  0.00     0.000 C 
BRANCH   3   4
ATOM      4  C   UNL     1      63.421  30.855  24.568  1.00  0.00     0.000 C 
BRANCH   4   5
ATOM      5  C   UNL     1      64.022  31.191  23.193  1.00  0.00     0.000 C 
BRANCH   5   6
ATOM      6  C   UNL     1      64.508  32.652  23.067  1.00  0.00     0.000 C 
BRANCH   6   7
ATOM      7  C   UNL     1      63.818  33.464  21.949  1.00  0.00     0.000 C 
BRANCH   7   8
ATOM      8  C   UNL     1      64.738  33.954  20.811  1.00  0.00     0.000 C 
BRANCH   8   9
ATOM      9  C   UNL     1      64.163  35.143  20.027  1.00  0.00     0.000 C 
BRANCH   9  10
ATOM     10  C   UNL     1      62.826  34.772  19.368  1.00  0.00     0.000 C 
BRANCH  10  11
ATOM     11  C   UNL     1      62.927  33.533  18.462  1.00  0.00     0.000 C 
BRANCH  11  12
ATOM     12  C   UNL     1      62.820  33.881  16.967  1.00  0.00     0.000 C 
BRANCH  12  13
ATOM     13  C   UNL     1      61.881  32.934  16.197  1.00  0.00     0.006 C 
BRANCH  13  14
ATOM     14  C   UNL     1      60.921  33.642  15.228  1.00  0.00     0.053 C 
BRANCH  14  15
ATOM     15  C   UNL     1      60.820  32.933  13.911  1.00  0.00     0.041 C 
ATOM     16  O   UNL     1      61.728  33.066  13.048  1.00  0.00    -0.550 OA
ATOM     17  O   UNL     1      59.745  32.091  13.655  1.00  0.00    -0.550 OA
ENDBRANCH  14  15
ENDBRANCH  13  14
ENDBRANCH  12  13
ENDBRANCH  11  12
ENDBRANCH  10  11
ENDBRANCH   9  10
ENDBRANCH   8   9
ENDBRANCH   7   8
ENDBRANCH   6   7
ENDBRANCH   5   6
ENDBRANCH   4   5
ENDBRANCH   3   4
ENDBRANCH   2   3
ENDBRANCH   1   2
BRANCH   1  18
ATOM     18  C   UNL     1      61.913  27.171  26.287  1.00  0.00     0.000 C 
BRANCH  18  19
ATOM     19  C   UNL     1      61.248  27.107  27.679  1.00  0.00     0.000 C 
BRANCH  19  20
ATOM     20  C   UNL     1      61.067  28.468  28.374  1.00  0.00     0.000 C 
BRANCH  20  21
ATOM     21  C   UNL     1      62.395  29.068  28.867  1.00  0.00     0.000 C 
BRANCH  21  22
ATOM     22  C   UNL     1      62.652  30.475  28.285  1.00  0.00     0.000 C 
BRANCH  22  23
ATOM     23  C   UNL     1      64.136  30.879  28.273  1.00  0.00     0.000 C 
BRANCH  23  24
ATOM     24  C   UNL     1      65.052  29.782  27.707  1.00  0.00    -0.000 C 
BRANCH  24  25
ATOM     25  C   UNL     1      66.462  30.317  27.376  1.00  0.00    -0.000 C 
BRANCH  25  26
ATOM     26  C   UNL     1      66.869  30.116  25.906  1.00  0.00    -0.000 C 
BRANCH  26  27
ATOM     27  C   UNL     1      66.366  28.785  25.325  1.00  0.00    -0.000 C 
BRANCH  27  28
ATOM     28  C   UNL     1      66.650  28.648  23.818  1.00  0.00    -0.000 C 
BRANCH  28  29
ATOM     29  C   UNL     1      65.846  27.543  23.102  1.00  0.00    -0.000 C 
BRANCH  29  30
ATOM     30  C   UNL     1      65.260  26.481  24.055  1.00  0.00    -0.000 C 
BRANCH  30  31
ATOM     31  C   UNL     1      63.985  25.833  23.495  1.00  0.00    -0.003 C 
ATOM     32  C   UNL     1      63.461  26.603  22.287  1.00  0.00     0.004 C 
ENDBRANCH  30  31
ENDBRANCH  29  30
ENDBRANCH  28  29
ENDBRANCH  27  28
ENDBRANCH  26  27
ENDBRANCH  25  26
ENDBRANCH  24  25
ENDBRANCH  23  24
ENDBRANCH  22  23
ENDBRANCH  21  22
ENDBRANCH  20  21
ENDBRANCH  19  20
ENDBRANCH  18  19
ENDBRANCH   1  18
TORSDOF 28
ENDMDL
MODEL 6
REMARK VINA RESULT:    -4.002      1.223      3.210
REMARK INTER + INTRA:         -15.740
REMARK INTER:                 -11.001
REMARK INTRA:                  -4.739
REMARK UNBOUND:                -5.188
REMARK SMILES CCCCCCCCCCCCCCCCCCCCCCCCCCCCCC(=O)[O-]
REMARK SMILES IDX 16 1 17 2 18 3 19 4 20 5 21 6 22 7 23 8 24 9 25 10 26 11
REMARK SMILES IDX 27 12 28 13 29 14 30 15 31 16 32 17 15 18 14 19 13 20 12 21
REMARK SMILES IDX 11 22 10 23 9 24 8 25 7 26 6 27 5 28 4 29 3 30 2 31 1 32
REMARK H PARENT
REMARK Flexibility Score: inf
ROOT
ATOM      1  C   UNL     1      60.008  28.626  11.672  1.00  0.00     0.000 C 
ENDROOT
BRANCH   1   2
ATOM      2  C   UNL     1      60.566  29.783  12.524  1.00  0.00     0.000 C 
BRANCH   2   3
ATOM      3  C   UNL     1      61.361  29.329  13.767  1.00  0.00     0.000 C 
BRANCH   3   4
ATOM      4  C   UNL     1      62.874  29.226  13.507  1.00  0.00     0.000 C 
BRANCH   4   5
ATOM      5  C   UNL     1      63.709  29.987  14.550  1.00  0.00     0.000 C 
BRANCH   5   6
ATOM      6  C   UNL     1      65.235  29.829  14.361  1.00  0.00     0.000 C 
BRANCH   6   7
ATOM      7  C   UNL     1      66.074  31.009  14.899  1.00  0.00     0.000 C 
BRANCH   7   8
ATOM      8  C   UNL     1      65.277  32.263  15.317  1.00  0.00     0.000 C 
BRANCH   8   9
ATOM      9  C   UNL     1      66.129  33.540  15.371  1.00  0.00     0.000 C 
BRANCH   9  10
ATOM     10  C   UNL     1      65.239  34.792  15.416  1.00  0.00     0.000 C 
BRANCH  10  11
ATOM     11  C   UNL     1      65.482  35.659  16.663  1.00  0.00     0.000 C 
BRANCH  11  12
ATOM     12  C   UNL     1      65.980  34.839  17.866  1.00  0.00     0.000 C 
BRANCH  12  13
ATOM     13  C   UNL     1      65.901  35.617  19.193  1.00  0.00     0.006 C 
BRANCH  13  14
ATOM     14  C   UNL     1      64.529  35.556  19.884  1.00  0.00     0.053 C 
BRANCH  14  15
ATOM     15  C   UNL     1      64.375  34.331  20.733  1.00  0.00     0.041 C 
ATOM     16  O   UNL     1      65.312  33.962  21.490  1.00  0.00    -0.550 OA
ATOM     17  O   UNL     1      63.179  33.623  20.721  1.00  0.00    -0.550 OA
ENDBRANCH  14  15
ENDBRANCH  13  14
ENDBRANCH  12  13
ENDBRANCH  11  12
ENDBRANCH  10  11
ENDBRANCH   9  10
ENDBRANCH   8   9
ENDBRANCH   7   8
ENDBRANCH   6   7
ENDBRANCH   5   6
ENDBRANCH   4   5
ENDBRANCH   3   4
ENDBRANCH   2   3
ENDBRANCH   1   2
BRANCH   1  18
ATOM     18  C   UNL     1      60.057  28.845  10.149  1.00  0.00     0.000 C 
BRANCH  18  19
ATOM     19  C   UNL     1      60.781  30.128   9.688  1.00  0.00     0.000 C 
BRANCH  19  20
ATOM     20  C   UNL     1      62.076  29.891   8.891  1.00  0.00     0.000 C 
BRANCH  20  21
ATOM     21  C   UNL     1      63.082  29.000   9.639  1.00  0.00     0.000 C 
BRANCH  21  22
ATOM     22  C   UNL     1      64.510  29.589   9.620  1.00  0.00     0.000 C 
BRANCH  22  23
ATOM     23  C   UNL     1      64.556  31.090   9.284  1.00  0.00     0.000 C 
BRANCH  23  24
ATOM     24  C   UNL     1      64.804  31.974  10.517  1.00  0.00    -0.000 C 
BRANCH  24  25
ATOM     25  C   UNL     1      63.820  31.659  11.665  1.00  0.00    -0.000 C 
BRANCH  25  26
ATOM     26  C   UNL     1      63.548  32.857  12.591  1.00  0.00    -0.000 C 
BRANCH  26  27
ATOM     27  C   UNL     1      62.069  32.975  12.993  1.00  0.00    -0.000 C 
BRANCH  27  28
ATOM     28  C   UNL     1      61.879  33.606  14.384  1.00  0.00    -0.000 C 
BRANCH  28  29
ATOM     29  C   UNL     1      60.859  32.888  15.292  1.00  0.00    -0.000 C 
BRANCH  29  30
ATOM     30  C   UNL     1      61.489  32.224  16.534  1.00  0.00    -0.000 C 
BRANCH  30  31
ATOM     31  C   UNL     1      62.435  33.171  17.287  1.00  0.00    -0.003 C 
ATOM     32  C   UNL     1      61.757  34.506  17.583  1.00  0.00     0.004 C 
ENDBRANCH  30  31
ENDBRANCH  29  30
ENDBRANCH  28  29
ENDBRANCH  27  28
ENDBRANCH  26  27
ENDBRANCH  25  26
ENDBRANCH  24  25
ENDBRANCH  23  24
ENDBRANCH  22  23
ENDBRANCH  21  22
ENDBRANCH  20  21
ENDBRANCH  19  20
ENDBRANCH  18  19
ENDBRANCH   1  18
TORSDOF 28
ENDMDL
MODEL 7
REMARK VINA RESULT:    -3.897      1.341      4.450
REMARK INTER + INTRA:         -15.463
REMARK INTER:                 -11.036
REMARK INTRA:                  -4.427
REMARK UNBOUND:                -5.188
REMARK SMILES CCCCCCCCCCCCCCCCCCCCCCCCCCCCCC(=O)[O-]
REMARK SMILES IDX 16 1 17 2 18 3 19 4 20 5 21 6 22 7 23 8 24 9 25 10 26 11
REMARK SMILES IDX 27 12 28 13 29 14 30 15 31 16 32 17 15 18 14 19 13 20 12 21
REMARK SMILES IDX 11 22 10 23 9 24 8 25 7 26 6 27 5 28 4 29 3 30 2 31 1 32
REMARK H PARENT
REMARK Flexibility Score: inf
ROOT
ATOM      1  C   UNL     1      62.627  28.920  11.564  1.00  0.00     0.000 C 
ENDROOT
BRANCH   1   2
ATOM      2  C   UNL     1      62.410  28.659  10.060  1.00  0.00     0.000 C 
BRANCH   2   3
ATOM      3  C   UNL     1      63.638  28.976   9.179  1.00  0.00     0.000 C 
BRANCH   3   4
ATOM      4  C   UNL     1      63.964  30.479   9.121  1.00  0.00     0.000 C 
BRANCH   4   5
ATOM      5  C   UNL     1      65.181  30.856   9.982  1.00  0.00     0.000 C 
BRANCH   5   6
ATOM      6  C   UNL     1      65.291  32.370  10.272  1.00  0.00     0.000 C 
BRANCH   6   7
ATOM      7  C   UNL     1      65.125  32.752  11.760  1.00  0.00     0.000 C 
BRANCH   7   8
ATOM      8  C   UNL     1      66.127  33.793  12.300  1.00  0.00     0.000 C 
BRANCH   8   9
ATOM      9  C   UNL     1      66.172  33.862  13.834  1.00  0.00     0.000 C 
BRANCH   9  10
ATOM     10  C   UNL     1      64.873  34.462  14.395  1.00  0.00     0.000 C 
BRANCH  10  11
ATOM     11  C   UNL     1      64.944  34.743  15.906  1.00  0.00     0.000 C 
BRANCH  11  12
ATOM     12  C   UNL     1      65.688  33.640  16.679  1.00  0.00     0.000 C 
BRANCH  12  13
ATOM     13  C   UNL     1      66.456  34.181  17.901  1.00  0.00     0.006 C 
BRANCH  13  14
ATOM     14  C   UNL     1      66.111  33.482  19.226  1.00  0.00     0.053 C 
BRANCH  14  15
ATOM     15  C   UNL     1      65.141  34.273  20.049  1.00  0.00     0.041 C 
ATOM     16  O   UNL     1      65.518  35.317  20.646  1.00  0.00    -0.550 OA
ATOM     17  O   UNL     1      63.809  33.882  20.120  1.00  0.00    -0.550 OA
ENDBRANCH  14  15
ENDBRANCH  13  14
ENDBRANCH  12  13
ENDBRANCH  11  12
ENDBRANCH  10  11
ENDBRANCH   9  10
ENDBRANCH   8   9
ENDBRANCH   7   8
ENDBRANCH   6   7
ENDBRANCH   5   6
ENDBRANCH   4   5
ENDBRANCH   3   4
ENDBRANCH   2   3
ENDBRANCH   1   2
BRANCH   1  18
ATOM     18  C   UNL     1      61.504  28.416  12.489  1.00  0.00     0.000 C 
BRANCH  18  19
ATOM     19  C   UNL     1      60.090  28.939  12.158  1.00  0.00     0.000 C 
BRANCH  19  20
ATOM     20  C   UNL     1      60.024  30.425  11.763  1.00  0.00     0.000 C 
BRANCH  20  21
ATOM     21  C   UNL     1      60.289  31.370  12.947  1.00  0.00     0.000 C 
BRANCH  21  22
ATOM     22  C   UNL     1      60.795  32.754  12.487  1.00  0.00     0.000 C 
BRANCH  22  23
ATOM     23  C   UNL     1      61.508  33.552  13.592  1.00  0.00     0.000 C 
BRANCH  23  24
ATOM     24  C   UNL     1      60.626  33.782  14.830  1.00  0.00    -0.000 C 
BRANCH  24  25
ATOM     25  C   UNL     1      61.463  34.062  16.096  1.00  0.00    -0.000 C 
BRANCH  25  26
ATOM     26  C   UNL     1      61.892  32.790  16.847  1.00  0.00    -0.000 C 
BRANCH  26  27
ATOM     27  C   UNL     1      61.186  31.527  16.331  1.00  0.00    -0.000 C 
BRANCH  27  28
ATOM     28  C   UNL     1      62.137  30.576  15.584  1.00  0.00    -0.000 C 
BRANCH  28  29
ATOM     29  C   UNL     1      63.465  31.211  15.123  1.00  0.00    -0.000 C 
BRANCH  29  30
ATOM     30  C   UNL     1      64.370  30.251  14.322  1.00  0.00    -0.000 C 
BRANCH  30  31
ATOM     31  C   UNL     1      65.850  30.377  14.715  1.00  0.00    -0.003 C 
ATOM     32  C   UNL     1      66.397  29.049  15.230  1.00  0.00     0.004 C 
ENDBRANCH  30  31
ENDBRANCH  29  30
ENDBRANCH  28  29
ENDBRANCH  27  28
ENDBRANCH  26  27
ENDBRANCH  25  26
ENDBRANCH  24  25
ENDBRANCH  23  24
ENDBRANCH  22  23
ENDBRANCH  21  22
ENDBRANCH  20  21
ENDBRANCH  19  20
ENDBRANCH  18  19
ENDBRANCH   1  18
TORSDOF 28
ENDMDL
MODEL 8
REMARK VINA RESULT:    -3.876      5.439     10.507
REMARK INTER + INTRA:         -15.410
REMARK INTER:                 -12.844
REMARK INTRA:                  -2.565
REMARK UNBOUND:                -5.188
REMARK SMILES CCCCCCCCCCCCCCCCCCCCCCCCCCCCCC(=O)[O-]
REMARK SMILES IDX 16 1 17 2 18 3 19 4 20 5 21 6 22 7 23 8 24 9 25 10 26 11
REMARK SMILES IDX 27 12 28 13 29 14 30 15 31 16 32 17 15 18 14 19 13 20 12 21
REMARK SMILES IDX 11 22 10 23 9 24 8 25 7 26 6 27 5 28 4 29 3 30 2 31 1 32
REMARK H PARENT
REMARK Flexibility Score: inf
ROOT
ATOM      1  C   UNL     1      64.679  31.365  23.394  1.00  0.00     0.000 C 
ENDROOT
BRANCH   1   2
ATOM      2  C   UNL     1      65.580  30.117  23.492  1.00  0.00     0.000 C 
BRANCH   2   3
ATOM      3  C   UNL     1      66.513  30.105  24.722  1.00  0.00     0.000 C 
BRANCH   3   4
ATOM      4  C   UNL     1      65.847  29.510  25.975  1.00  0.00     0.000 C 
BRANCH   4   5
ATOM      5  C   UNL     1      66.363  30.142  27.279  1.00  0.00     0.000 C 
BRANCH   5   6
ATOM      6  C   UNL     1      65.348  31.093  27.952  1.00  0.00     0.000 C 
BRANCH   6   7
ATOM      7  C   UNL     1      64.367  30.401  28.924  1.00  0.00     0.000 C 
BRANCH   7   8
ATOM      8  C   UNL     1      62.882  30.417  28.503  1.00  0.00     0.000 C 
BRANCH   8   9
ATOM      9  C   UNL     1      62.265  29.015  28.381  1.00  0.00     0.000 C 
BRANCH   9  10
ATOM     10  C   UNL     1      61.730  28.773  26.961  1.00  0.00     0.000 C 
BRANCH  10  11
ATOM     11  C   UNL     1      62.399  29.670  25.905  1.00  0.00     0.000 C 
BRANCH  11  12
ATOM     12  C   UNL     1      61.976  29.313  24.470  1.00  0.00     0.000 C 
BRANCH  12  13
ATOM     13  C   UNL     1      62.030  27.800  24.189  1.00  0.00     0.006 C 
BRANCH  13  14
ATOM     14  C   UNL     1      63.338  27.321  23.538  1.00  0.00     0.053 C 
BRANCH  14  15
ATOM     15  C   UNL     1      64.156  26.475  24.465  1.00  0.00     0.041 C 
ATOM     16  O   UNL     1      65.239  25.967  24.071  1.00  0.00    -0.550 OA
ATOM     17  O   UNL     1      63.743  26.284  25.778  1.00  0.00    -0.550 OA
ENDBRANCH  14  15
ENDBRANCH  13  14
ENDBRANCH  12  13
ENDBRANCH  11  12
ENDBRANCH  10  11
ENDBRANCH   9  10
ENDBRANCH   8   9
ENDBRANCH   7   8
ENDBRANCH   6   7
ENDBRANCH   5   6
ENDBRANCH   4   5
ENDBRANCH   3   4
ENDBRANCH   2   3
ENDBRANCH   1   2
BRANCH   1  18
ATOM     18  C   UNL     1      65.160  32.451  22.414  1.00  0.00     0.000 C 
BRANCH  18  19
ATOM     19  C   UNL     1      64.100  33.501  22.018  1.00  0.00     0.000 C 
BRANCH  19  20
ATOM     20  C   UNL     1      64.488  34.397  20.828  1.00  0.00     0.000 C 
BRANCH  20  21
ATOM     21  C   UNL     1      63.961  33.866  19.485  1.00  0.00     0.000 C 
BRANCH  21  22
ATOM     22  C   UNL     1      62.420  33.933  19.396  1.00  0.00     0.000 C 
BRANCH  22  23
ATOM     23  C   UNL     1      61.850  33.354  18.089  1.00  0.00     0.000 C 
BRANCH  23  24
ATOM     24  C   UNL     1      61.632  34.421  17.005  1.00  0.00    -0.000 C 
BRANCH  24  25
ATOM     25  C   UNL     1      62.021  33.910  15.601  1.00  0.00    -0.000 C 
BRANCH  25  26
ATOM     26  C   UNL     1      60.900  33.127  14.896  1.00  0.00    -0.000 C 
BRANCH  26  27
ATOM     27  C   UNL     1      61.052  33.114  13.367  1.00  0.00    -0.000 C 
BRANCH  27  28
ATOM     28  C   UNL     1      60.419  31.872  12.716  1.00  0.00    -0.000 C 
BRANCH  28  29
ATOM     29  C   UNL     1      61.023  30.524  13.158  1.00  0.00    -0.000 C 
BRANCH  29  30
ATOM     30  C   UNL     1      60.947  29.423  12.079  1.00  0.00    -0.000 C 
BRANCH  30  31
ATOM     31  C   UNL     1      60.475  28.077  12.650  1.00  0.00    -0.003 C 
ATOM     32  C   UNL     1      58.953  28.012  12.721  1.00  0.00     0.004 C 
ENDBRANCH  30  31
ENDBRANCH  29  30
ENDBRANCH  28  29
ENDBRANCH  27  28
ENDBRANCH  26  27
ENDBRANCH  25  26
ENDBRANCH  24  25
ENDBRANCH  23  24
ENDBRANCH  22  23
ENDBRANCH  21  22
ENDBRANCH  20  21
ENDBRANCH  19  20
ENDBRANCH  18  19
ENDBRANCH   1  18
TORSDOF 28
ENDMDL
MODEL 9
REMARK VINA RESULT:    -3.853      3.980      6.369
REMARK INTER + INTRA:         -15.347
REMARK INTER:                 -11.645
REMARK INTRA:                  -3.702
REMARK UNBOUND:                -5.188
REMARK SMILES CCCCCCCCCCCCCCCCCCCCCCCCCCCCCC(=O)[O-]
REMARK SMILES IDX 16 1 17 2 18 3 19 4 20 5 21 6 22 7 23 8 24 9 25 10 26 11
REMARK SMILES IDX 27 12 28 13 29 14 30 15 31 16 32 17 15 18 14 19 13 20 12 21
REMARK SMILES IDX 11 22 10 23 9 24 8 25 7 26 6 27 5 28 4 29 3 30 2 31 1 32
REMARK H PARENT
REMARK Flexibility Score: inf
ROOT
ATOM      1  C   UNL     1      61.764  32.599  16.051  1.00  0.00     0.000 C 
ENDROOT
BRANCH   1   2
ATOM      2  C   UNL     1      61.865  33.040  17.524  1.00  0.00     0.000 C 
BRANCH   2   3
ATOM      3  C   UNL     1      61.728  34.562  17.741  1.00  0.00     0.000 C 
BRANCH   3   4
ATOM      4  C   UNL     1      62.764  35.124  18.730  1.00  0.00     0.000 C 
BRANCH   4   5
ATOM      5  C   UNL     1      63.436  34.028  19.574  1.00  0.00     0.000 C 
BRANCH   5   6
ATOM      6  C   UNL     1      64.165  34.566  20.825  1.00  0.00     0.000 C 
BRANCH   6   7
ATOM      7  C   UNL     1      64.918  33.491  21.641  1.00  0.00     0.000 C 
BRANCH   7   8
ATOM      8  C   UNL     1      64.079  32.739  22.695  1.00  0.00     0.000 C 
BRANCH   8   9
ATOM      9  C   UNL     1      64.733  31.439  23.185  1.00  0.00     0.000 C 
BRANCH   9  10
ATOM     10  C   UNL     1      63.760  30.629  24.056  1.00  0.00     0.000 C 
BRANCH  10  11
ATOM     11  C   UNL     1      63.966  29.109  23.933  1.00  0.00     0.000 C 
BRANCH  11  12
ATOM     12  C   UNL     1      62.664  28.360  23.602  1.00  0.00     0.000 C 
BRANCH  12  13
ATOM     13  C   UNL     1      61.481  28.797  24.485  1.00  0.00     0.006 C 
BRANCH  13  14
ATOM     14  C   UNL     1      60.945  27.699  25.419  1.00  0.00     0.053 C 
BRANCH  14  15
ATOM     15  C   UNL     1      61.285  27.960  26.855  1.00  0.00     0.041 C 
ATOM     16  O   UNL     1      60.933  27.144  27.748  1.00  0.00    -0.550 OA
ATOM     17  O   UNL     1      62.030  29.081  27.200  1.00  0.00    -0.550 OA
ENDBRANCH  14  15
ENDBRANCH  13  14
ENDBRANCH  12  13
ENDBRANCH  11  12
ENDBRANCH  10  11
ENDBRANCH   9  10
ENDBRANCH   8   9
ENDBRANCH   7   8
ENDBRANCH   6   7
ENDBRANCH   5   6
ENDBRANCH   4   5
ENDBRANCH   3   4
ENDBRANCH   2   3
ENDBRANCH   1   2
BRANCH   1  18
ATOM     18  C   UNL     1      61.361  33.704  15.057  1.00  0.00     0.000 C 
BRANCH  18  19
ATOM     19  C   UNL     1      61.049  33.224  13.624  1.00  0.00     0.000 C 
BRANCH  19  20
ATOM     20  C   UNL     1      60.053  32.053  13.534  1.00  0.00     0.000 C 
BRANCH  20  21
ATOM     21  C   UNL     1      60.713  30.742  13.076  1.00  0.00     0.000 C 
BRANCH  21  22
ATOM     22  C   UNL     1      60.393  30.413  11.601  1.00  0.00     0.000 C 
BRANCH  22  23
ATOM     23  C   UNL     1      61.599  29.877  10.810  1.00  0.00     0.000 C 
BRANCH  23  24
ATOM     24  C   UNL     1      62.648  29.196  11.704  1.00  0.00    -0.000 C 
BRANCH  24  25
ATOM     25  C   UNL     1      64.057  29.794  11.503  1.00  0.00    -0.000 C 
BRANCH  25  26
ATOM     26  C   UNL     1      64.048  31.219  10.926  1.00  0.00    -0.000 C 
BRANCH  26  27
ATOM     27  C   UNL     1      64.357  32.292  11.982  1.00  0.00    -0.000 C 
BRANCH  27  28
ATOM     28  C   UNL     1      64.314  31.744  13.419  1.00  0.00    -0.000 C 
BRANCH  28  29
ATOM     29  C   UNL     1      65.196  32.501  14.432  1.00  0.00    -0.000 C 
BRANCH  29  30
ATOM     30  C   UNL     1      65.014  34.033  14.393  1.00  0.00    -0.000 C 
BRANCH  30  31
ATOM     31  C   UNL     1      64.933  34.649  15.798  1.00  0.00    -0.003 C 
ATOM     32  C   UNL     1      65.805  33.880  16.787  1.00  0.00     0.004 C 
ENDBRANCH  30  31
ENDBRANCH  29  30
ENDBRANCH  28  29
ENDBRANCH  27  28
ENDBRANCH  26  27
ENDBRANCH  25  26
ENDBRANCH  24  25
ENDBRANCH  23  24
ENDBRANCH  22  23
ENDBRANCH  21  22
ENDBRANCH  20  21
ENDBRANCH  19  20
ENDBRANCH  18  19
ENDBRANCH   1  18
TORSDOF 28
ENDMDL
