MODEL 1
REMARK VINA RESULT:    -5.375      0.000      0.000
REMARK INTER + INTRA:         -19.282
REMARK INTER:                 -14.172
REMARK INTRA:                  -5.110
REMARK UNBOUND:                -5.110
REMARK SMILES CCCCCCCCCCCCCCCCCCCCCCCCCCCCCC(=O)[O-]
REMARK SMILES IDX 16 1 17 2 18 3 19 4 20 5 21 6 22 7 23 8 24 9 25 10 26 11
REMARK SMILES IDX 27 12 28 13 29 14 30 15 31 16 32 17 15 18 14 19 13 20 12 21
REMARK SMILES IDX 11 22 10 23 9 24 8 25 7 26 6 27 5 28 4 29 3 30 2 31 1 32
REMARK H PARENT
REMARK Flexibility Score: inf
ROOT
ATOM      1  C   UNL     1      -1.022   5.369  21.893  1.00  0.00     0.000 C 
ENDROOT
BRANCH   1   2
ATOM      2  C   UNL     1      -0.014   4.584  22.749  1.00  0.00     0.000 C 
BRANCH   2   3
ATOM      3  C   UNL     1       0.245   5.172  24.151  1.00  0.00     0.000 C 
BRANCH   3   4
ATOM      4  C   UNL     1       0.104   4.145  25.294  1.00  0.00     0.000 C 
BRANCH   4   5
ATOM      5  C   UNL     1      -1.364   3.757  25.552  1.00  0.00     0.000 C 
BRANCH   5   6
ATOM      6  C   UNL     1      -2.257   4.974  25.845  1.00  0.00     0.000 C 
BRANCH   6   7
ATOM      7  C   UNL     1      -2.960   4.876  27.210  1.00  0.00     0.000 C 
BRANCH   7   8
ATOM      8  C   UNL     1      -1.999   4.504  28.354  1.00  0.00     0.000 C 
BRANCH   8   9
ATOM      9  C   UNL     1      -1.321   5.700  29.054  1.00  0.00     0.000 C 
BRANCH   9  10
ATOM     10  C   UNL     1       0.218   5.720  28.961  1.00  0.00     0.000 C 
BRANCH  10  11
ATOM     11  C   UNL     1       0.953   5.172  30.200  1.00  0.00     0.000 C 
BRANCH  11  12
ATOM     12  C   UNL     1       1.928   4.014  29.919  1.00  0.00     0.000 C 
BRANCH  12  13
ATOM     13  C   UNL     1       2.073   3.707  28.418  1.00  0.00     0.006 C 
BRANCH  13  14
ATOM     14  C   UNL     1       3.535   3.766  27.952  1.00  0.00     0.053 C 
BRANCH  14  15
ATOM     15  C   UNL     1       3.736   4.792  26.879  1.00  0.00     0.041 C 
ATOM     16  O   UNL     1       3.737   6.018  27.166  1.00  0.00    -0.550 OA
ATOM     17  O   UNL     1       3.888   4.394  25.557  1.00  0.00    -0.550 OA
ENDBRANCH  14  15
ENDBRANCH  13  14
ENDBRANCH  12  13
ENDBRANCH  11  12
ENDBRANCH  10  11
ENDBRANCH   9  10
ENDBRANCH   8   9
ENDBRANCH   7   8
ENDBRANCH   6   7
ENDBRANCH   5   6
ENDBRANCH   4   5
ENDBRANCH   3   4
ENDBRANCH   2   3
ENDBRANCH   1   2
BRANCH   1  18
ATOM     18  C   UNL     1      -1.603   6.588  22.626  1.00  0.00     0.000 C 
BRANCH  18  19
ATOM     19  C   UNL     1      -2.516   7.404  21.700  1.00  0.00     0.000 C 
BRANCH  19  20
ATOM     20  C   UNL     1      -2.438   6.938  20.236  1.00  0.00     0.000 C 
BRANCH  20  21
ATOM     21  C   UNL     1      -3.734   7.220  19.456  1.00  0.00     0.000 C 
BRANCH  21  22
ATOM     22  C   UNL     1      -4.370   5.941  18.888  1.00  0.00     0.000 C 
BRANCH  22  23
ATOM     23  C   UNL     1      -3.712   4.664  19.435  1.00  0.00     0.000 C 
BRANCH  23  24
ATOM     24  C   UNL     1      -4.747   3.751  20.104  1.00  0.00    -0.000 C 
BRANCH  24  25
ATOM     25  C   UNL     1      -4.906   4.099  21.592  1.00  0.00    -0.000 C 
BRANCH  25  26
ATOM     26  C   UNL     1      -3.945   3.311  22.496  1.00  0.00    -0.000 C 
BRANCH  26  27
ATOM     27  C   UNL     1      -4.598   2.880  23.820  1.00  0.00    -0.000 C 
BRANCH  27  28
ATOM     28  C   UNL     1      -5.945   3.580  24.068  1.00  0.00    -0.000 C 
BRANCH  28  29
ATOM     29  C   UNL     1      -6.009   4.273  25.438  1.00  0.00    -0.000 C 
BRANCH  29  30
ATOM     30  C   UNL     1      -5.950   5.800  25.282  1.00  0.00    -0.000 C 
BRANCH  30  31
ATOM     31  C   UNL     1      -6.586   6.285  23.971  1.00  0.00    -0.003 C 
ATOM     32  C   UNL     1      -5.767   7.377  23.283  1.00  0.00     0.004 C 
ENDBRANCH  30  31
ENDBRANCH  29  30
ENDBRANCH  28  29
ENDBRANCH  27  28
ENDBRANCH  26  27
ENDBRANCH  25  26
ENDBRANCH  24  25
ENDBRANCH  23  24
ENDBRANCH  22  23
ENDBRANCH  21  22
ENDBRANCH  20  21
ENDBRANCH  19  20
ENDBRANCH  18  19
ENDBRANCH   1  18
TORSDOF 28
ENDMDL
MODEL 2
REMARK VINA RESULT:    -5.184      1.379      3.248
REMARK INTER + INTRA:         -18.779
REMARK INTER:                 -13.727
REMARK INTRA:                  -5.052
REMARK UNBOUND:                -5.110
REMARK SMILES CCCCCCCCCCCCCCCCCCCCCCCCCCCCCC(=O)[O-]
REMARK SMILES IDX 16 1 17 2 18 3 19 4 20 5 21 6 22 7 23 8 24 9 25 10 26 11
REMARK SMILES IDX 27 12 28 13 29 14 30 15 31 16 32 17 15 18 14 19 13 20 12 21
REMARK SMILES IDX 11 22 10 23 9 24 8 25 7 26 6 27 5 28 4 29 3 30 2 31 1 32
REMARK H PARENT
REMARK Flexibility Score: inf
ROOT
ATOM      1  C   UNL     1      -0.992   5.422  21.970  1.00  0.00     0.000 C 
ENDROOT
BRANCH   1   2
ATOM      2  C   UNL     1      -0.505   4.357  22.967  1.00  0.00     0.000 C 
BRANCH   2   3
ATOM      3  C   UNL     1       0.255   4.911  24.189  1.00  0.00     0.000 C 
BRANCH   3   4
ATOM      4  C   UNL     1      -0.206   4.311  25.534  1.00  0.00     0.000 C 
BRANCH   4   5
ATOM      5  C   UNL     1      -0.365   5.382  26.627  1.00  0.00     0.000 C 
BRANCH   5   6
ATOM      6  C   UNL     1      -1.650   5.202  27.453  1.00  0.00     0.000 C 
BRANCH   6   7
ATOM      7  C   UNL     1      -1.436   5.491  28.949  1.00  0.00     0.000 C 
BRANCH   7   8
ATOM      8  C   UNL     1       0.048   5.468  29.358  1.00  0.00     0.000 C 
BRANCH   8   9
ATOM      9  C   UNL     1       0.414   6.378  30.548  1.00  0.00     0.000 C 
BRANCH   9  10
ATOM     10  C   UNL     1       1.275   5.707  31.637  1.00  0.00     0.000 C 
BRANCH  10  11
ATOM     11  C   UNL     1       2.115   4.508  31.157  1.00  0.00     0.000 C 
BRANCH  11  12
ATOM     12  C   UNL     1       3.597   4.821  30.878  1.00  0.00     0.000 C 
BRANCH  12  13
ATOM     13  C   UNL     1       3.832   5.387  29.466  1.00  0.00     0.006 C 
BRANCH  13  14
ATOM     14  C   UNL     1       4.244   4.298  28.467  1.00  0.00     0.053 C 
BRANCH  14  15
ATOM     15  C   UNL     1       3.233   4.134  27.374  1.00  0.00     0.041 C 
ATOM     16  O   UNL     1       3.201   4.946  26.412  1.00  0.00    -0.550 OA
ATOM     17  O   UNL     1       2.302   3.105  27.437  1.00  0.00    -0.550 OA
ENDBRANCH  14  15
ENDBRANCH  13  14
ENDBRANCH  12  13
ENDBRANCH  11  12
ENDBRANCH  10  11
ENDBRANCH   9  10
ENDBRANCH   8   9
ENDBRANCH   7   8
ENDBRANCH   6   7
ENDBRANCH   5   6
ENDBRANCH   4   5
ENDBRANCH   3   4
ENDBRANCH   2   3
ENDBRANCH   1   2
BRANCH   1  18
ATOM     18  C   UNL     1      -1.243   6.786  22.631  1.00  0.00     0.000 C 
BRANCH  18  19
ATOM     19  C   UNL     1      -2.735   6.985  22.933  1.00  0.00     0.000 C 
BRANCH  19  20
ATOM     20  C   UNL     1      -3.082   6.699  24.404  1.00  0.00     0.000 C 
BRANCH  20  21
ATOM     21  C   UNL     1      -4.552   6.286  24.594  1.00  0.00     0.000 C 
BRANCH  21  22
ATOM     22  C   UNL     1      -4.695   4.914  25.273  1.00  0.00     0.000 C 
BRANCH  22  23
ATOM     23  C   UNL     1      -3.749   3.861  24.675  1.00  0.00     0.000 C 
BRANCH  23  24
ATOM     24  C   UNL     1      -4.496   2.557  24.367  1.00  0.00    -0.000 C 
BRANCH  24  25
ATOM     25  C   UNL     1      -6.016   2.780  24.377  1.00  0.00    -0.000 C 
BRANCH  25  26
ATOM     26  C   UNL     1      -6.680   2.423  23.037  1.00  0.00    -0.000 C 
BRANCH  26  27
ATOM     27  C   UNL     1      -7.346   3.636  22.365  1.00  0.00    -0.000 C 
BRANCH  27  28
ATOM     28  C   UNL     1      -6.605   4.087  21.095  1.00  0.00    -0.000 C 
BRANCH  28  29
ATOM     29  C   UNL     1      -5.240   4.723  21.401  1.00  0.00    -0.000 C 
BRANCH  29  30
ATOM     30  C   UNL     1      -4.105   3.935  20.730  1.00  0.00    -0.000 C 
BRANCH  30  31
ATOM     31  C   UNL     1      -3.801   4.430  19.309  1.00  0.00    -0.003 C 
ATOM     32  C   UNL     1      -3.523   5.932  19.250  1.00  0.00     0.004 C 
ENDBRANCH  30  31
ENDBRANCH  29  30
ENDBRANCH  28  29
ENDBRANCH  27  28
ENDBRANCH  26  27
ENDBRANCH  25  26
ENDBRANCH  24  25
ENDBRANCH  23  24
ENDBRANCH  22  23
ENDBRANCH  21  22
ENDBRANCH  20  21
ENDBRANCH  19  20
ENDBRANCH  18  19
ENDBRANCH   1  18
TORSDOF 28
ENDMDL
MODEL 3
REMARK VINA RESULT:    -5.182      3.159      8.641
REMARK INTER + INTRA:         -18.775
REMARK INTER:                 -12.691
REMARK INTRA:                  -6.083
REMARK UNBOUND:                -5.110
REMARK SMILES CCCCCCCCCCCCCCCCCCCCCCCCCCCCCC(=O)[O-]
REMARK SMILES IDX 16 1 17 2 18 3 19 4 20 5 21 6 22 7 23 8 24 9 25 10 26 11
REMARK SMILES IDX 27 12 28 13 29 14 30 15 31 16 32 17 15 18 14 19 13 20 12 21
REMARK SMILES IDX 11 22 10 23 9 24 8 25 7 26 6 27 5 28 4 29 3 30 2 31 1 32
REMARK H PARENT
REMARK Flexibility Score: inf
ROOT
ATOM      1  C   UNL     1      -0.706   5.557  28.967  1.00  0.00     0.000 C 
ENDROOT
BRANCH   1   2
ATOM      2  C   UNL     1      -1.841   4.760  28.303  1.00  0.00     0.000 C 
BRANCH   2   3
ATOM      3  C   UNL     1      -1.532   4.253  26.880  1.00  0.00     0.000 C 
BRANCH   3   4
ATOM      4  C   UNL     1      -1.142   5.372  25.891  1.00  0.00     0.000 C 
BRANCH   4   5
ATOM      5  C   UNL     1      -2.219   6.468  25.796  1.00  0.00     0.000 C 
BRANCH   5   6
ATOM      6  C   UNL     1      -1.752   7.690  24.988  1.00  0.00     0.000 C 
BRANCH   6   7
ATOM      7  C   UNL     1      -0.816   7.309  23.828  1.00  0.00     0.000 C 
BRANCH   7   8
ATOM      8  C   UNL     1      -1.438   7.576  22.445  1.00  0.00     0.000 C 
BRANCH   8   9
ATOM      9  C   UNL     1      -1.640   6.325  21.566  1.00  0.00     0.000 C 
BRANCH   9  10
ATOM     10  C   UNL     1      -1.163   5.003  22.199  1.00  0.00     0.000 C 
BRANCH  10  11
ATOM     11  C   UNL     1      -2.289   4.049  22.643  1.00  0.00     0.000 C 
BRANCH  11  12
ATOM     12  C   UNL     1      -3.614   4.738  23.020  1.00  0.00     0.000 C 
BRANCH  12  13
ATOM     13  C   UNL     1      -4.806   4.240  22.183  1.00  0.00     0.006 C 
BRANCH  13  14
ATOM     14  C   UNL     1      -4.363   3.662  20.831  1.00  0.00     0.053 C 
BRANCH  14  15
ATOM     15  C   UNL     1      -4.399   4.695  19.746  1.00  0.00     0.041 C 
ATOM     16  O   UNL     1      -3.512   4.707  18.852  1.00  0.00    -0.550 OA
ATOM     17  O   UNL     1      -5.393   5.666  19.743  1.00  0.00    -0.550 OA
ENDBRANCH  14  15
ENDBRANCH  13  14
ENDBRANCH  12  13
ENDBRANCH  11  12
ENDBRANCH  10  11
ENDBRANCH   9  10
ENDBRANCH   8   9
ENDBRANCH   7   8
ENDBRANCH   6   7
ENDBRANCH   5   6
ENDBRANCH   4   5
ENDBRANCH   3   4
ENDBRANCH   2   3
ENDBRANCH   1   2
BRANCH   1  18
ATOM     18  C   UNL     1      -1.072   7.030  29.204  1.00  0.00     0.000 C 
BRANCH  18  19
ATOM     19  C   UNL     1       0.092   7.956  28.821  1.00  0.00     0.000 C 
BRANCH  19  20
ATOM     20  C   UNL     1       1.258   7.196  28.168  1.00  0.00     0.000 C 
BRANCH  20  21
ATOM     21  C   UNL     1       1.578   7.709  26.752  1.00  0.00     0.000 C 
BRANCH  21  22
ATOM     22  C   UNL     1       2.261   6.643  25.880  1.00  0.00     0.000 C 
BRANCH  22  23
ATOM     23  C   UNL     1       3.662   6.272  26.393  1.00  0.00     0.000 C 
BRANCH  23  24
ATOM     24  C   UNL     1       3.789   4.760  26.611  1.00  0.00    -0.000 C 
BRANCH  24  25
ATOM     25  C   UNL     1       2.407   4.089  26.624  1.00  0.00    -0.000 C 
BRANCH  25  26
ATOM     26  C   UNL     1       2.079   3.423  27.970  1.00  0.00    -0.000 C 
BRANCH  26  27
ATOM     27  C   UNL     1       2.889   4.015  29.136  1.00  0.00    -0.000 C 
BRANCH  27  28
ATOM     28  C   UNL     1       2.056   4.153  30.422  1.00  0.00    -0.000 C 
BRANCH  28  29
ATOM     29  C   UNL     1       2.479   5.361  31.273  1.00  0.00    -0.000 C 
BRANCH  29  30
ATOM     30  C   UNL     1       1.287   5.913  32.070  1.00  0.00    -0.000 C 
BRANCH  30  31
ATOM     31  C   UNL     1       1.483   7.379  32.485  1.00  0.00    -0.003 C 
ATOM     32  C   UNL     1       2.497   8.113  31.607  1.00  0.00     0.004 C 
ENDBRANCH  30  31
ENDBRANCH  29  30
ENDBRANCH  28  29
ENDBRANCH  27  28
ENDBRANCH  26  27
ENDBRANCH  25  26
ENDBRANCH  24  25
ENDBRANCH  23  24
ENDBRANCH  22  23
ENDBRANCH  21  22
ENDBRANCH  20  21
ENDBRANCH  19  20
ENDBRANCH  18  19
ENDBRANCH   1  18
TORSDOF 28
ENDMDL
MODEL 4
REMARK VINA RESULT:    -5.119      2.905      9.147
REMARK INTER + INTRA:         -18.607
REMARK INTER:                 -13.232
REMARK INTRA:                  -5.374
REMARK UNBOUND:                -5.110
REMARK SMILES CCCCCCCCCCCCCCCCCCCCCCCCCCCCCC(=O)[O-]
REMARK SMILES IDX 16 1 17 2 18 3 19 4 20 5 21 6 22 7 23 8 24 9 25 10 26 11
REMARK SMILES IDX 27 12 28 13 29 14 30 15 31 16 32 17 15 18 14 19 13 20 12 21
REMARK SMILES IDX 11 22 10 23 9 24 8 25 7 26 6 27 5 28 4 29 3 30 2 31 1 32
REMARK H PARENT
REMARK Flexibility Score: inf
ROOT
ATOM      1  C   UNL     1      -1.466   4.481  28.199  1.00  0.00     0.000 C 
ENDROOT
BRANCH   1   2
ATOM      2  C   UNL     1      -0.095   4.380  27.510  1.00  0.00     0.000 C 
BRANCH   2   3
ATOM      3  C   UNL     1      -0.148   4.052  26.004  1.00  0.00     0.000 C 
BRANCH   3   4
ATOM      4  C   UNL     1       1.060   4.586  25.206  1.00  0.00     0.000 C 
BRANCH   4   5
ATOM      5  C   UNL     1       0.784   4.637  23.693  1.00  0.00     0.000 C 
BRANCH   5   6
ATOM      6  C   UNL     1      -0.696   4.397  23.351  1.00  0.00     0.000 C 
BRANCH   6   7
ATOM      7  C   UNL     1      -1.165   5.224  22.141  1.00  0.00     0.000 C 
BRANCH   7   8
ATOM      8  C   UNL     1      -2.329   6.173  22.479  1.00  0.00     0.000 C 
BRANCH   8   9
ATOM      9  C   UNL     1      -3.650   5.877  21.740  1.00  0.00     0.000 C 
BRANCH   9  10
ATOM     10  C   UNL     1      -3.611   4.652  20.805  1.00  0.00     0.000 C 
BRANCH  10  11
ATOM     11  C   UNL     1      -4.276   3.381  21.367  1.00  0.00     0.000 C 
BRANCH  11  12
ATOM     12  C   UNL     1      -5.041   3.577  22.689  1.00  0.00     0.000 C 
BRANCH  12  13
ATOM     13  C   UNL     1      -4.393   2.833  23.870  1.00  0.00     0.006 C 
BRANCH  13  14
ATOM     14  C   UNL     1      -3.928   3.792  24.975  1.00  0.00     0.053 C 
BRANCH  14  15
ATOM     15  C   UNL     1      -5.026   4.715  25.409  1.00  0.00     0.041 C 
ATOM     16  O   UNL     1      -6.062   4.254  25.957  1.00  0.00    -0.550 OA
ATOM     17  O   UNL     1      -4.920   6.080  25.176  1.00  0.00    -0.550 OA
ENDBRANCH  14  15
ENDBRANCH  13  14
ENDBRANCH  12  13
ENDBRANCH  11  12
ENDBRANCH  10  11
ENDBRANCH   9  10
ENDBRANCH   8   9
ENDBRANCH   7   8
ENDBRANCH   6   7
ENDBRANCH   5   6
ENDBRANCH   4   5
ENDBRANCH   3   4
ENDBRANCH   2   3
ENDBRANCH   1   2
BRANCH   1  18
ATOM     18  C   UNL     1      -1.647   5.796  28.974  1.00  0.00     0.000 C 
BRANCH  18  19
ATOM     19  C   UNL     1      -0.906   6.949  28.282  1.00  0.00     0.000 C 
BRANCH  19  20
ATOM     20  C   UNL     1      -0.311   7.953  29.284  1.00  0.00     0.000 C 
BRANCH  20  21
ATOM     21  C   UNL     1      -0.233   7.385  30.712  1.00  0.00     0.000 C 
BRANCH  21  22
ATOM     22  C   UNL     1       1.081   7.753  31.421  1.00  0.00     0.000 C 
BRANCH  22  23
ATOM     23  C   UNL     1       2.047   6.563  31.522  1.00  0.00     0.000 C 
BRANCH  23  24
ATOM     24  C   UNL     1       1.375   5.263  31.063  1.00  0.00    -0.000 C 
BRANCH  24  25
ATOM     25  C   UNL     1       2.424   4.201  30.701  1.00  0.00    -0.000 C 
BRANCH  25  26
ATOM     26  C   UNL     1       3.860   4.750  30.713  1.00  0.00    -0.000 C 
BRANCH  26  27
ATOM     27  C   UNL     1       4.610   4.475  29.398  1.00  0.00    -0.000 C 
BRANCH  27  28
ATOM     28  C   UNL     1       3.684   4.517  28.171  1.00  0.00    -0.000 C 
BRANCH  28  29
ATOM     29  C   UNL     1       3.895   5.773  27.312  1.00  0.00    -0.000 C 
BRANCH  29  30
ATOM     30  C   UNL     1       2.768   6.791  27.544  1.00  0.00    -0.000 C 
BRANCH  30  31
ATOM     31  C   UNL     1       3.248   8.041  28.297  1.00  0.00    -0.003 C 
ATOM     32  C   UNL     1       4.770   8.104  28.433  1.00  0.00     0.004 C 
ENDBRANCH  30  31
ENDBRANCH  29  30
ENDBRANCH  28  29
ENDBRANCH  27  28
ENDBRANCH  26  27
ENDBRANCH  25  26
ENDBRANCH  24  25
ENDBRANCH  23  24
ENDBRANCH  22  23
ENDBRANCH  21  22
ENDBRANCH  20  21
ENDBRANCH  19  20
ENDBRANCH  18  19
ENDBRANCH   1  18
TORSDOF 28
ENDMDL
MODEL 5
REMARK VINA RESULT:    -5.114      2.970      9.149
REMARK INTER + INTRA:         -18.594
REMARK INTER:                 -13.460
REMARK INTRA:                  -5.134
REMARK UNBOUND:                -5.110
REMARK SMILES CCCCCCCCCCCCCCCCCCCCCCCCCCCCCC(=O)[O-]
REMARK SMILES IDX 16 1 17 2 18 3 19 4 20 5 21 6 22 7 23 8 24 9 25 10 26 11
REMARK SMILES IDX 27 12 28 13 29 14 30 15 31 16 32 17 15 18 14 19 13 20 12 21
REMARK SMILES IDX 11 22 10 23 9 24 8 25 7 26 6 27 5 28 4 29 3 30 2 31 1 32
REMARK H PARENT
REMARK Flexibility Score: inf
ROOT
ATOM      1  C   UNL     1      -2.426   4.655  27.933  1.00  0.00     0.000 C 
ENDROOT
BRANCH   1   2
ATOM      2  C   UNL     1      -2.994   5.452  26.746  1.00  0.00     0.000 C 
BRANCH   2   3
ATOM      3  C   UNL     1      -2.530   4.970  25.358  1.00  0.00     0.000 C 
BRANCH   3   4
ATOM      4  C   UNL     1      -2.579   6.063  24.269  1.00  0.00     0.000 C 
BRANCH   4   5
ATOM      5  C   UNL     1      -1.295   6.101  23.421  1.00  0.00     0.000 C 
BRANCH   5   6
ATOM      6  C   UNL     1      -1.489   5.488  22.024  1.00  0.00     0.000 C 
BRANCH   6   7
ATOM      7  C   UNL     1      -1.779   6.550  20.949  1.00  0.00     0.000 C 
BRANCH   7   8
ATOM      8  C   UNL     1      -3.283   6.721  20.667  1.00  0.00     0.000 C 
BRANCH   8   9
ATOM      9  C   UNL     1      -3.847   5.820  19.549  1.00  0.00     0.000 C 
BRANCH   9  10
ATOM     10  C   UNL     1      -4.913   4.806  20.009  1.00  0.00     0.000 C 
BRANCH  10  11
ATOM     11  C   UNL     1      -4.360   3.445  20.475  1.00  0.00     0.000 C 
BRANCH  11  12
ATOM     12  C   UNL     1      -4.350   3.233  22.000  1.00  0.00     0.000 C 
BRANCH  12  13
ATOM     13  C   UNL     1      -5.272   4.216  22.745  1.00  0.00     0.006 C 
BRANCH  13  14
ATOM     14  C   UNL     1      -5.675   3.695  24.131  1.00  0.00     0.053 C 
BRANCH  14  15
ATOM     15  C   UNL     1      -6.257   4.780  24.986  1.00  0.00     0.041 C 
ATOM     16  O   UNL     1      -6.520   5.906  24.488  1.00  0.00    -0.550 OA
ATOM     17  O   UNL     1      -6.474   4.557  26.339  1.00  0.00    -0.550 OA
ENDBRANCH  14  15
ENDBRANCH  13  14
ENDBRANCH  12  13
ENDBRANCH  11  12
ENDBRANCH  10  11
ENDBRANCH   9  10
ENDBRANCH   8   9
ENDBRANCH   7   8
ENDBRANCH   6   7
ENDBRANCH   5   6
ENDBRANCH   4   5
ENDBRANCH   3   4
ENDBRANCH   2   3
ENDBRANCH   1   2
BRANCH   1  18
ATOM     18  C   UNL     1      -1.590   5.523  28.886  1.00  0.00     0.000 C 
BRANCH  18  19
ATOM     19  C   UNL     1      -0.820   6.604  28.115  1.00  0.00     0.000 C 
BRANCH  19  20
ATOM     20  C   UNL     1       0.133   7.406  29.018  1.00  0.00     0.000 C 
BRANCH  20  21
ATOM     21  C   UNL     1      -0.162   7.204  30.515  1.00  0.00     0.000 C 
BRANCH  21  22
ATOM     22  C   UNL     1       0.895   7.862  31.417  1.00  0.00     0.000 C 
BRANCH  22  23
ATOM     23  C   UNL     1       1.603   6.848  32.330  1.00  0.00     0.000 C 
BRANCH  23  24
ATOM     24  C   UNL     1       1.361   5.411  31.852  1.00  0.00    -0.000 C 
BRANCH  24  25
ATOM     25  C   UNL     1       2.643   4.808  31.258  1.00  0.00    -0.000 C 
BRANCH  25  26
ATOM     26  C   UNL     1       2.671   4.859  29.722  1.00  0.00    -0.000 C 
BRANCH  26  27
ATOM     27  C   UNL     1       1.701   3.853  29.079  1.00  0.00    -0.000 C 
BRANCH  27  28
ATOM     28  C   UNL     1       2.164   3.396  27.685  1.00  0.00    -0.000 C 
BRANCH  28  29
ATOM     29  C   UNL     1       0.991   3.157  26.721  1.00  0.00    -0.000 C 
BRANCH  29  30
ATOM     30  C   UNL     1       0.934   4.252  25.645  1.00  0.00    -0.000 C 
BRANCH  30  31
ATOM     31  C   UNL     1       2.231   5.072  25.568  1.00  0.00    -0.003 C 
ATOM     32  C   UNL     1       1.983   6.579  25.623  1.00  0.00     0.004 C 
ENDBRANCH  30  31
ENDBRANCH  29  30
ENDBRANCH  28  29
ENDBRANCH  27  28
ENDBRANCH  26  27
ENDBRANCH  25  26
ENDBRANCH  24  25
ENDBRANCH  23  24
ENDBRANCH  22  23
ENDBRANCH  21  22
ENDBRANCH  20  21
ENDBRANCH  19  20
ENDBRANCH  18  19
ENDBRANCH   1  18
TORSDOF 28
ENDMDL
MODEL 6
REMARK VINA RESULT:    -5.108      2.935      8.267
REMARK INTER + INTRA:         -18.579
REMARK INTER:                 -12.537
REMARK INTRA:                  -6.042
REMARK UNBOUND:                -5.110
REMARK SMILES CCCCCCCCCCCCCCCCCCCCCCCCCCCCCC(=O)[O-]
REMARK SMILES IDX 16 1 17 2 18 3 19 4 20 5 21 6 22 7 23 8 24 9 25 10 26 11
REMARK SMILES IDX 27 12 28 13 29 14 30 15 31 16 32 17 15 18 14 19 13 20 12 21
REMARK SMILES IDX 11 22 10 23 9 24 8 25 7 26 6 27 5 28 4 29 3 30 2 31 1 32
REMARK H PARENT
REMARK Flexibility Score: inf
ROOT
ATOM      1  C   UNL     1      -3.727   7.382  23.214  1.00  0.00     0.000 C 
ENDROOT
BRANCH   1   2
ATOM      2  C   UNL     1      -2.411   7.789  22.529  1.00  0.00     0.000 C 
BRANCH   2   3
ATOM      3  C   UNL     1      -1.211   6.869  22.830  1.00  0.00     0.000 C 
BRANCH   3   4
ATOM      4  C   UNL     1      -1.098   5.660  21.878  1.00  0.00     0.000 C 
BRANCH   4   5
ATOM      5  C   UNL     1      -0.825   4.346  22.632  1.00  0.00     0.000 C 
BRANCH   5   6
ATOM      6  C   UNL     1      -1.909   4.023  23.673  1.00  0.00     0.000 C 
BRANCH   6   7
ATOM      7  C   UNL     1      -3.277   3.731  23.030  1.00  0.00     0.000 C 
BRANCH   7   8
ATOM      8  C   UNL     1      -4.147   2.786  23.878  1.00  0.00     0.000 C 
BRANCH   8   9
ATOM      9  C   UNL     1      -5.665   2.888  23.623  1.00  0.00     0.000 C 
BRANCH   9  10
ATOM     10  C   UNL     1      -6.264   4.294  23.828  1.00  0.00     0.000 C 
BRANCH  10  11
ATOM     11  C   UNL     1      -6.731   4.997  22.538  1.00  0.00     0.000 C 
BRANCH  11  12
ATOM     12  C   UNL     1      -6.941   4.067  21.329  1.00  0.00     0.000 C 
BRANCH  12  13
ATOM     13  C   UNL     1      -5.807   4.168  20.293  1.00  0.00     0.006 C 
BRANCH  13  14
ATOM     14  C   UNL     1      -5.133   5.546  20.305  1.00  0.00     0.053 C 
BRANCH  14  15
ATOM     15  C   UNL     1      -4.004   5.622  19.322  1.00  0.00     0.041 C 
ATOM     16  O   UNL     1      -3.544   4.571  18.803  1.00  0.00    -0.550 OA
ATOM     17  O   UNL     1      -3.438   6.850  19.007  1.00  0.00    -0.550 OA
ENDBRANCH  14  15
ENDBRANCH  13  14
ENDBRANCH  12  13
ENDBRANCH  11  12
ENDBRANCH  10  11
ENDBRANCH   9  10
ENDBRANCH   8   9
ENDBRANCH   7   8
ENDBRANCH   6   7
ENDBRANCH   5   6
ENDBRANCH   4   5
ENDBRANCH   3   4
ENDBRANCH   2   3
ENDBRANCH   1   2
BRANCH   1  18
ATOM     18  C   UNL     1      -3.769   7.770  24.700  1.00  0.00     0.000 C 
BRANCH  18  19
ATOM     19  C   UNL     1      -4.011   6.538  25.584  1.00  0.00     0.000 C 
BRANCH  19  20
ATOM     20  C   UNL     1      -2.789   6.185  26.449  1.00  0.00     0.000 C 
BRANCH  20  21
ATOM     21  C   UNL     1      -2.945   4.833  27.168  1.00  0.00     0.000 C 
BRANCH  21  22
ATOM     22  C   UNL     1      -1.889   4.625  28.266  1.00  0.00     0.000 C 
BRANCH  22  23
ATOM     23  C   UNL     1      -1.245   5.944  28.720  1.00  0.00     0.000 C 
BRANCH  23  24
ATOM     24  C   UNL     1      -0.095   5.689  29.702  1.00  0.00    -0.000 C 
BRANCH  24  25
ATOM     25  C   UNL     1       1.055   6.682  29.470  1.00  0.00    -0.000 C 
BRANCH  25  26
ATOM     26  C   UNL     1       0.913   7.463  28.154  1.00  0.00    -0.000 C 
BRANCH  26  27
ATOM     27  C   UNL     1       2.235   7.551  27.372  1.00  0.00    -0.000 C 
BRANCH  27  28
ATOM     28  C   UNL     1       2.181   6.794  26.035  1.00  0.00    -0.000 C 
BRANCH  28  29
ATOM     29  C   UNL     1       0.848   6.060  25.823  1.00  0.00    -0.000 C 
BRANCH  29  30
ATOM     30  C   UNL     1       1.067   4.543  25.720  1.00  0.00    -0.000 C 
BRANCH  30  31
ATOM     31  C   UNL     1       2.291   4.068  26.516  1.00  0.00    -0.003 C 
ATOM     32  C   UNL     1       1.913   3.321  27.796  1.00  0.00     0.004 C 
ENDBRANCH  30  31
ENDBRANCH  29  30
ENDBRANCH  28  29
ENDBRANCH  27  28
ENDBRANCH  26  27
ENDBRANCH  25  26
ENDBRANCH  24  25
ENDBRANCH  23  24
ENDBRANCH  22  23
ENDBRANCH  21  22
ENDBRANCH  20  21
ENDBRANCH  19  20
ENDBRANCH  18  19
ENDBRANCH   1  18
TORSDOF 28
ENDMDL
MODEL 7
REMARK VINA RESULT:    -5.073      3.131      8.940
REMARK INTER + INTRA:         -18.488
REMARK INTER:                 -12.506
REMARK INTRA:                  -5.982
REMARK UNBOUND:                -5.110
REMARK SMILES CCCCCCCCCCCCCCCCCCCCCCCCCCCCCC(=O)[O-]
REMARK SMILES IDX 16 1 17 2 18 3 19 4 20 5 21 6 22 7 23 8 24 9 25 10 26 11
REMARK SMILES IDX 27 12 28 13 29 14 30 15 31 16 32 17 15 18 14 19 13 20 12 21
REMARK SMILES IDX 11 22 10 23 9 24 8 25 7 26 6 27 5 28 4 29 3 30 2 31 1 32
REMARK H PARENT
REMARK Flexibility Score: inf
ROOT
ATOM      1  C   UNL     1      -1.530   5.615  29.010  1.00  0.00     0.000 C 
ENDROOT
BRANCH   1   2
ATOM      2  C   UNL     1      -1.572   4.473  27.980  1.00  0.00     0.000 C 
BRANCH   2   3
ATOM      3  C   UNL     1      -0.325   4.365  27.079  1.00  0.00     0.000 C 
BRANCH   3   4
ATOM      4  C   UNL     1      -0.618   3.800  25.674  1.00  0.00     0.000 C 
BRANCH   4   5
ATOM      5  C   UNL     1       0.160   4.543  24.572  1.00  0.00     0.000 C 
BRANCH   5   6
ATOM      6  C   UNL     1       0.411   6.020  24.916  1.00  0.00     0.000 C 
BRANCH   6   7
ATOM      7  C   UNL     1      -0.516   6.973  24.140  1.00  0.00     0.000 C 
BRANCH   7   8
ATOM      8  C   UNL     1      -1.774   7.365  24.936  1.00  0.00     0.000 C 
BRANCH   8   9
ATOM      9  C   UNL     1      -3.003   6.462  24.705  1.00  0.00     0.000 C 
BRANCH   9  10
ATOM     10  C   UNL     1      -3.998   6.407  25.881  1.00  0.00     0.000 C 
BRANCH  10  11
ATOM     11  C   UNL     1      -4.729   5.061  26.053  1.00  0.00     0.000 C 
BRANCH  11  12
ATOM     12  C   UNL     1      -6.207   5.064  25.621  1.00  0.00     0.000 C 
BRANCH  12  13
ATOM     13  C   UNL     1      -6.390   4.794  24.116  1.00  0.00     0.006 C 
BRANCH  13  14
ATOM     14  C   UNL     1      -5.373   3.777  23.582  1.00  0.00     0.053 C 
BRANCH  14  15
ATOM     15  C   UNL     1      -5.189   3.900  22.100  1.00  0.00     0.041 C 
ATOM     16  O   UNL     1      -5.940   4.655  21.428  1.00  0.00    -0.550 OA
ATOM     17  O   UNL     1      -4.210   3.154  21.456  1.00  0.00    -0.550 OA
ENDBRANCH  14  15
ENDBRANCH  13  14
ENDBRANCH  12  13
ENDBRANCH  11  12
ENDBRANCH  10  11
ENDBRANCH   9  10
ENDBRANCH   8   9
ENDBRANCH   7   8
ENDBRANCH   6   7
ENDBRANCH   5   6
ENDBRANCH   4   5
ENDBRANCH   3   4
ENDBRANCH   2   3
ENDBRANCH   1   2
BRANCH   1  18
ATOM     18  C   UNL     1      -1.305   6.990  28.364  1.00  0.00     0.000 C 
BRANCH  18  19
ATOM     19  C   UNL     1      -0.129   7.723  29.027  1.00  0.00     0.000 C 
BRANCH  19  20
ATOM     20  C   UNL     1       1.096   7.827  28.104  1.00  0.00     0.000 C 
BRANCH  20  21
ATOM     21  C   UNL     1       2.403   8.067  28.881  1.00  0.00     0.000 C 
BRANCH  21  22
ATOM     22  C   UNL     1       2.155   8.628  30.291  1.00  0.00     0.000 C 
BRANCH  22  23
ATOM     23  C   UNL     1       2.696   7.705  31.394  1.00  0.00     0.000 C 
BRANCH  23  24
ATOM     24  C   UNL     1       1.567   7.209  32.304  1.00  0.00    -0.000 C 
BRANCH  24  25
ATOM     25  C   UNL     1       1.230   5.739  32.009  1.00  0.00    -0.000 C 
BRANCH  25  26
ATOM     26  C   UNL     1       2.328   5.024  31.205  1.00  0.00    -0.000 C 
BRANCH  26  27
ATOM     27  C   UNL     1       1.795   4.394  29.907  1.00  0.00    -0.000 C 
BRANCH  27  28
ATOM     28  C   UNL     1       2.916   3.803  29.035  1.00  0.00    -0.000 C 
BRANCH  28  29
ATOM     29  C   UNL     1       3.297   4.718  27.861  1.00  0.00    -0.000 C 
BRANCH  29  30
ATOM     30  C   UNL     1       3.408   3.916  26.555  1.00  0.00    -0.000 C 
BRANCH  30  31
ATOM     31  C   UNL     1       3.862   4.780  25.369  1.00  0.00    -0.003 C 
ATOM     32  C   UNL     1       4.113   6.237  25.758  1.00  0.00     0.004 C 
ENDBRANCH  30  31
ENDBRANCH  29  30
ENDBRANCH  28  29
ENDBRANCH  27  28
ENDBRANCH  26  27
ENDBRANCH  25  26
ENDBRANCH  24  25
ENDBRANCH  23  24
ENDBRANCH  22  23
ENDBRANCH  21  22
ENDBRANCH  20  21
ENDBRANCH  19  20
ENDBRANCH  18  19
ENDBRANCH   1  18
TORSDOF 28
ENDMDL
MODEL 8
REMARK VINA RESULT:    -5.055      1.543      4.261
REMARK INTER + INTRA:         -18.438
REMARK INTER:                 -13.101
REMARK INTRA:                  -5.337
REMARK UNBOUND:                -5.110
REMARK SMILES CCCCCCCCCCCCCCCCCCCCCCCCCCCCCC(=O)[O-]
REMARK SMILES IDX 16 1 17 2 18 3 19 4 20 5 21 6 22 7 23 8 24 9 25 10 26 11
REMARK SMILES IDX 27 12 28 13 29 14 30 15 31 16 32 17 15 18 14 19 13 20 12 21
REMARK SMILES IDX 11 22 10 23 9 24 8 25 7 26 6 27 5 28 4 29 3 30 2 31 1 32
REMARK H PARENT
REMARK Flexibility Score: inf
ROOT
ATOM      1  C   UNL     1      -1.867   4.488  28.215  1.00  0.00     0.000 C 
ENDROOT
BRANCH   1   2
ATOM      2  C   UNL     1      -1.402   5.701  29.038  1.00  0.00     0.000 C 
BRANCH   2   3
ATOM      3  C   UNL     1      -0.546   6.722  28.262  1.00  0.00     0.000 C 
BRANCH   3   4
ATOM      4  C   UNL     1       0.100   7.801  29.157  1.00  0.00     0.000 C 
BRANCH   4   5
ATOM      5  C   UNL     1       1.637   7.793  29.062  1.00  0.00     0.000 C 
BRANCH   5   6
ATOM      6  C   UNL     1       2.316   8.019  30.423  1.00  0.00     0.000 C 
BRANCH   6   7
ATOM      7  C   UNL     1       1.378   7.726  31.607  1.00  0.00     0.000 C 
BRANCH   7   8
ATOM      8  C   UNL     1       1.702   6.396  32.313  1.00  0.00     0.000 C 
BRANCH   8   9
ATOM      9  C   UNL     1       1.138   5.136  31.627  1.00  0.00     0.000 C 
BRANCH   9  10
ATOM     10  C   UNL     1       2.184   4.272  30.893  1.00  0.00     0.000 C 
BRANCH  10  11
ATOM     11  C   UNL     1       1.931   4.084  29.385  1.00  0.00     0.000 C 
BRANCH  11  12
ATOM     12  C   UNL     1       3.186   4.183  28.498  1.00  0.00     0.000 C 
BRANCH  12  13
ATOM     13  C   UNL     1       2.903   3.849  27.022  1.00  0.00     0.006 C 
BRANCH  13  14
ATOM     14  C   UNL     1       1.764   4.700  26.444  1.00  0.00     0.053 C 
BRANCH  14  15
ATOM     15  C   UNL     1       2.280   5.923  25.749  1.00  0.00     0.041 C 
ATOM     16  O   UNL     1       1.492   6.667  25.107  1.00  0.00    -0.550 OA
ATOM     17  O   UNL     1       3.636   6.221  25.781  1.00  0.00    -0.550 OA
ENDBRANCH  14  15
ENDBRANCH  13  14
ENDBRANCH  12  13
ENDBRANCH  11  12
ENDBRANCH  10  11
ENDBRANCH   9  10
ENDBRANCH   8   9
ENDBRANCH   7   8
ENDBRANCH   6   7
ENDBRANCH   5   6
ENDBRANCH   4   5
ENDBRANCH   3   4
ENDBRANCH   2   3
ENDBRANCH   1   2
BRANCH   1  18
ATOM     18  C   UNL     1      -2.517   4.887  26.881  1.00  0.00     0.000 C 
BRANCH  18  19
ATOM     19  C   UNL     1      -1.794   4.226  25.698  1.00  0.00     0.000 C 
BRANCH  19  20
ATOM     20  C   UNL     1      -1.699   5.153  24.474  1.00  0.00     0.000 C 
BRANCH  20  21
ATOM     21  C   UNL     1      -0.789   4.584  23.372  1.00  0.00     0.000 C 
BRANCH  21  22
ATOM     22  C   UNL     1      -1.039   5.241  22.004  1.00  0.00     0.000 C 
BRANCH  22  23
ATOM     23  C   UNL     1      -2.108   6.343  22.068  1.00  0.00     0.000 C 
BRANCH  23  24
ATOM     24  C   UNL     1      -2.605   6.715  20.666  1.00  0.00    -0.000 C 
BRANCH  24  25
ATOM     25  C   UNL     1      -3.155   5.482  19.934  1.00  0.00    -0.000 C 
BRANCH  25  26
ATOM     26  C   UNL     1      -4.692   5.452  19.886  1.00  0.00    -0.000 C 
BRANCH  26  27
ATOM     27  C   UNL     1      -5.286   4.288  20.698  1.00  0.00    -0.000 C 
BRANCH  27  28
ATOM     28  C   UNL     1      -4.204   3.367  21.287  1.00  0.00    -0.000 C 
BRANCH  28  29
ATOM     29  C   UNL     1      -4.358   3.167  22.803  1.00  0.00    -0.000 C 
BRANCH  29  30
ATOM     30  C   UNL     1      -5.110   4.346  23.438  1.00  0.00    -0.000 C 
BRANCH  30  31
ATOM     31  C   UNL     1      -5.550   4.058  24.881  1.00  0.00    -0.003 C 
ATOM     32  C   UNL     1      -6.162   5.278  25.570  1.00  0.00     0.004 C 
ENDBRANCH  30  31
ENDBRANCH  29  30
ENDBRANCH  28  29
ENDBRANCH  27  28
ENDBRANCH  26  27
ENDBRANCH  25  26
ENDBRANCH  24  25
ENDBRANCH  23  24
ENDBRANCH  22  23
ENDBRANCH  21  22
ENDBRANCH  20  21
ENDBRANCH  19  20
ENDBRANCH  18  19
ENDBRANCH   1  18
TORSDOF 28
ENDMDL
MODEL 9
REMARK VINA RESULT:    -5.047      3.139      8.831
REMARK INTER + INTRA:         -18.419
REMARK INTER:                 -12.423
REMARK INTRA:                  -5.995
REMARK UNBOUND:                -5.110
REMARK SMILES CCCCCCCCCCCCCCCCCCCCCCCCCCCCCC(=O)[O-]
REMARK SMILES IDX 16 1 17 2 18 3 19 4 20 5 21 6 22 7 23 8 24 9 25 10 26 11
REMARK SMILES IDX 27 12 28 13 29 14 30 15 31 16 32 17 15 18 14 19 13 20 12 21
REMARK SMILES IDX 11 22 10 23 9 24 8 25 7 26 6 27 5 28 4 29 3 30 2 31 1 32
REMARK H PARENT
REMARK Flexibility Score: inf
ROOT
ATOM      1  C   UNL     1      -2.530   4.853  26.761  1.00  0.00     0.000 C 
ENDROOT
BRANCH   1   2
ATOM      2  C   UNL     1      -3.934   5.286  26.303  1.00  0.00     0.000 C 
BRANCH   2   3
ATOM      3  C   UNL     1      -4.082   6.790  25.998  1.00  0.00     0.000 C 
BRANCH   3   4
ATOM      4  C   UNL     1      -4.313   7.103  24.505  1.00  0.00     0.000 C 
BRANCH   4   5
ATOM      5  C   UNL     1      -3.214   8.010  23.921  1.00  0.00     0.000 C 
BRANCH   5   6
ATOM      6  C   UNL     1      -1.917   7.977  24.747  1.00  0.00     0.000 C 
BRANCH   6   7
ATOM      7  C   UNL     1      -0.701   7.525  23.920  1.00  0.00     0.000 C 
BRANCH   7   8
ATOM      8  C   UNL     1       0.134   6.441  24.626  1.00  0.00     0.000 C 
BRANCH   8   9
ATOM      9  C   UNL     1      -0.088   5.005  24.111  1.00  0.00     0.000 C 
BRANCH   9  10
ATOM     10  C   UNL     1      -0.377   4.893  22.601  1.00  0.00     0.000 C 
BRANCH  10  11
ATOM     11  C   UNL     1      -1.853   4.645  22.236  1.00  0.00     0.000 C 
BRANCH  11  12
ATOM     12  C   UNL     1      -2.634   3.777  23.239  1.00  0.00     0.000 C 
BRANCH  12  13
ATOM     13  C   UNL     1      -4.102   3.561  22.827  1.00  0.00     0.006 C 
BRANCH  13  14
ATOM     14  C   UNL     1      -4.619   4.683  21.916  1.00  0.00     0.053 C 
BRANCH  14  15
ATOM     15  C   UNL     1      -5.079   4.156  20.591  1.00  0.00     0.041 C 
ATOM     16  O   UNL     1      -6.307   4.001  20.362  1.00  0.00    -0.550 OA
ATOM     17  O   UNL     1      -4.148   3.805  19.621  1.00  0.00    -0.550 OA
ENDBRANCH  14  15
ENDBRANCH  13  14
ENDBRANCH  12  13
ENDBRANCH  11  12
ENDBRANCH  10  11
ENDBRANCH   9  10
ENDBRANCH   8   9
ENDBRANCH   7   8
ENDBRANCH   6   7
ENDBRANCH   5   6
ENDBRANCH   4   5
ENDBRANCH   3   4
ENDBRANCH   2   3
ENDBRANCH   1   2
BRANCH   1  18
ATOM     18  C   UNL     1      -2.473   4.504  28.256  1.00  0.00     0.000 C 
BRANCH  18  19
ATOM     19  C   UNL     1      -1.468   5.400  28.993  1.00  0.00     0.000 C 
BRANCH  19  20
ATOM     20  C   UNL     1      -1.058   6.630  28.164  1.00  0.00     0.000 C 
BRANCH  20  21
ATOM     21  C   UNL     1      -0.414   7.733  29.023  1.00  0.00     0.000 C 
BRANCH  21  22
ATOM     22  C   UNL     1      -0.162   7.280  30.470  1.00  0.00     0.000 C 
BRANCH  22  23
ATOM     23  C   UNL     1       1.108   7.905  31.069  1.00  0.00     0.000 C 
BRANCH  23  24
ATOM     24  C   UNL     1       1.901   6.875  31.883  1.00  0.00    -0.000 C 
BRANCH  24  25
ATOM     25  C   UNL     1       1.269   5.480  31.767  1.00  0.00    -0.000 C 
BRANCH  25  26
ATOM     26  C   UNL     1       2.239   4.430  31.202  1.00  0.00    -0.000 C 
BRANCH  26  27
ATOM     27  C   UNL     1       2.671   4.741  29.758  1.00  0.00    -0.000 C 
BRANCH  27  28
ATOM     28  C   UNL     1       1.958   3.853  28.725  1.00  0.00    -0.000 C 
BRANCH  28  29
ATOM     29  C   UNL     1       1.814   4.536  27.356  1.00  0.00    -0.000 C 
BRANCH  29  30
ATOM     30  C   UNL     1       2.503   5.909  27.354  1.00  0.00    -0.000 C 
BRANCH  30  31
ATOM     31  C   UNL     1       3.620   6.008  26.305  1.00  0.00    -0.003 C 
ATOM     32  C   UNL     1       3.559   4.889  25.266  1.00  0.00     0.004 C 
ENDBRANCH  30  31
ENDBRANCH  29  30
ENDBRANCH  28  29
ENDBRANCH  27  28
ENDBRANCH  26  27
ENDBRANCH  25  26
ENDBRANCH  24  25
ENDBRANCH  23  24
ENDBRANCH  22  23
ENDBRANCH  21  22
ENDBRANCH  20  21
ENDBRANCH  19  20
ENDBRANCH  18  19
ENDBRANCH   1  18
TORSDOF 28
ENDMDL
