MODEL 1
REMARK VINA RESULT:    -4.853      0.000      0.000
REMARK INTER + INTRA:          -5.137
REMARK INTER:                  -5.137
REMARK INTRA:                   0.000
REMARK UNBOUND:                 0.000
REMARK SMILES O=c1ccc2cc(O)c(O)cc2o1
REMARK SMILES IDX 4 1 3 2 2 3 1 4 13 5 12 6 11 7 9 8 7 9 6 10 5 11 8 12 10 14
REMARK H PARENT 8 13 10 15
REMARK Flexibility Score: inf
ROOT
ATOM      1  C   UNL     1      19.629 -43.453   7.272  1.00  0.00     0.019 A 
ATOM      2  C   UNL     1      20.427 -42.579   8.008  1.00  0.00     0.094 A 
ATOM      3  C   UNL     1      21.728 -42.968   8.345  1.00  0.00     0.336 A 
ATOM      4  O   UNL     1      22.463 -42.191   9.008  1.00  0.00    -0.246 OA
ATOM      5  O   UNL     1      22.195 -44.155   7.967  1.00  0.00    -0.423 OA
ATOM      6  C   UNL     1      21.467 -45.020   7.264  1.00  0.00     0.142 A 
ATOM      7  C   UNL     1      22.010 -46.254   6.895  1.00  0.00     0.098 A 
ATOM      8  C   UNL     1      21.248 -47.169   6.154  1.00  0.00     0.161 A 
ATOM      9  C   UNL     1      19.935 -46.847   5.781  1.00  0.00     0.158 A 
ATOM     10  C   UNL     1      19.384 -45.610   6.148  1.00  0.00     0.062 A 
ATOM     11  C   UNL     1      20.145 -44.695   6.888  1.00  0.00     0.022 A 
ENDROOT
BRANCH   9  12
ATOM     12  O   UNL     1      19.183 -47.762   5.044  1.00  0.00    -0.504 OA
ATOM     13  H   UNL     1      18.321 -48.152   5.405  1.00  0.00     0.293 HD
ENDBRANCH   9  12
BRANCH   8  14
ATOM     14  O   UNL     1      21.787 -48.400   5.785  1.00  0.00    -0.504 OA
ATOM     15  H   UNL     1      22.346 -48.503   4.945  1.00  0.00     0.293 HD
ENDBRANCH   8  14
TORSDOF 2
ENDMDL
MODEL 2
REMARK VINA RESULT:    -4.770      1.782      2.410
REMARK INTER + INTRA:          -5.049
REMARK INTER:                  -5.049
REMARK INTRA:                   0.000
REMARK UNBOUND:                 0.000
REMARK SMILES O=c1ccc2cc(O)c(O)cc2o1
REMARK SMILES IDX 4 1 3 2 2 3 1 4 13 5 12 6 11 7 9 8 7 9 6 10 5 11 8 12 10 14
REMARK H PARENT 8 13 10 15
REMARK Flexibility Score: inf
ROOT
ATOM      1  C   UNL     1      20.709 -42.606   8.366  1.00  0.00     0.019 A 
ATOM      2  C   UNL     1      22.096 -42.482   8.287  1.00  0.00     0.094 A 
ATOM      3  C   UNL     1      22.851 -43.576   7.851  1.00  0.00     0.336 A 
ATOM      4  O   UNL     1      24.104 -43.483   7.773  1.00  0.00    -0.246 OA
ATOM      5  O   UNL     1      22.253 -44.717   7.518  1.00  0.00    -0.423 OA
ATOM      6  C   UNL     1      20.933 -44.878   7.578  1.00  0.00     0.142 A 
ATOM      7  C   UNL     1      20.359 -46.101   7.215  1.00  0.00     0.098 A 
ATOM      8  C   UNL     1      18.970 -46.275   7.278  1.00  0.00     0.161 A 
ATOM      9  C   UNL     1      18.149 -45.221   7.706  1.00  0.00     0.158 A 
ATOM     10  C   UNL     1      18.718 -43.992   8.071  1.00  0.00     0.062 A 
ATOM     11  C   UNL     1      20.107 -43.817   8.009  1.00  0.00     0.022 A 
ENDROOT
BRANCH   9  12
ATOM     12  O   UNL     1      16.767 -45.403   7.764  1.00  0.00    -0.504 OA
ATOM     13  H   UNL     1      16.193 -44.888   8.420  1.00  0.00     0.293 HD
ENDBRANCH   9  12
BRANCH   8  14
ATOM     14  O   UNL     1      18.396 -47.493   6.916  1.00  0.00    -0.504 OA
ATOM     15  H   UNL     1      17.725 -47.960   7.515  1.00  0.00     0.293 HD
ENDBRANCH   8  14
TORSDOF 2
ENDMDL
MODEL 3
REMARK VINA RESULT:    -4.562      1.833      3.018
REMARK INTER + INTRA:          -4.829
REMARK INTER:                  -4.829
REMARK INTRA:                   0.000
REMARK UNBOUND:                 0.000
REMARK SMILES O=c1ccc2cc(O)c(O)cc2o1
REMARK SMILES IDX 4 1 3 2 2 3 1 4 13 5 12 6 11 7 9 8 7 9 6 10 5 11 8 12 10 14
REMARK H PARENT 8 13 10 15
REMARK Flexibility Score: inf
ROOT
ATOM      1  C   UNL     1      23.319 -44.822   7.680  1.00  0.00     0.019 A 
ATOM      2  C   UNL     1      24.061 -43.691   8.019  1.00  0.00     0.094 A 
ATOM      3  C   UNL     1      23.396 -42.474   8.206  1.00  0.00     0.336 A 
ATOM      4  O   UNL     1      24.050 -41.443   8.513  1.00  0.00    -0.246 OA
ATOM      5  O   UNL     1      22.076 -42.399   8.063  1.00  0.00    -0.423 OA
ATOM      6  C   UNL     1      21.330 -43.453   7.741  1.00  0.00     0.142 A 
ATOM      7  C   UNL     1      19.945 -43.315   7.603  1.00  0.00     0.098 A 
ATOM      8  C   UNL     1      19.155 -44.422   7.264  1.00  0.00     0.161 A 
ATOM      9  C   UNL     1      19.752 -45.675   7.060  1.00  0.00     0.158 A 
ATOM     10  C   UNL     1      21.141 -45.820   7.196  1.00  0.00     0.062 A 
ATOM     11  C   UNL     1      21.932 -44.714   7.536  1.00  0.00     0.022 A 
ENDROOT
BRANCH   9  12
ATOM     12  O   UNL     1      18.959 -46.771   6.722  1.00  0.00    -0.504 OA
ATOM     13  H   UNL     1      18.148 -46.674   6.124  1.00  0.00     0.293 HD
ENDBRANCH   9  12
BRANCH   8  14
ATOM     14  O   UNL     1      17.774 -44.287   7.126  1.00  0.00    -0.504 OA
ATOM     15  H   UNL     1      17.233 -43.709   7.759  1.00  0.00     0.293 HD
ENDBRANCH   8  14
TORSDOF 2
ENDMDL
MODEL 4
REMARK VINA RESULT:    -4.482      2.561      3.371
REMARK INTER + INTRA:          -4.744
REMARK INTER:                  -4.744
REMARK INTRA:                   0.000
REMARK UNBOUND:                 0.000
REMARK SMILES O=c1ccc2cc(O)c(O)cc2o1
REMARK SMILES IDX 4 1 3 2 2 3 1 4 13 5 12 6 11 7 9 8 7 9 6 10 5 11 8 12 10 14
REMARK H PARENT 8 13 10 15
REMARK Flexibility Score: inf
ROOT
ATOM      1  C   UNL     1      21.818 -45.717   8.659  1.00  0.00     0.019 A 
ATOM      2  C   UNL     1      22.583 -44.592   8.356  1.00  0.00     0.094 A 
ATOM      3  C   UNL     1      21.944 -43.451   7.858  1.00  0.00     0.336 A 
ATOM      4  O   UNL     1      22.618 -42.425   7.580  1.00  0.00    -0.246 OA
ATOM      5  O   UNL     1      20.626 -43.442   7.677  1.00  0.00    -0.423 OA
ATOM      6  C   UNL     1      19.858 -44.495   7.953  1.00  0.00     0.142 A 
ATOM      7  C   UNL     1      18.478 -44.428   7.742  1.00  0.00     0.098 A 
ATOM      8  C   UNL     1      17.665 -45.533   8.030  1.00  0.00     0.161 A 
ATOM      9  C   UNL     1      18.236 -46.712   8.532  1.00  0.00     0.158 A 
ATOM     10  C   UNL     1      19.621 -46.785   8.747  1.00  0.00     0.062 A 
ATOM     11  C   UNL     1      20.434 -45.680   8.458  1.00  0.00     0.022 A 
ENDROOT
BRANCH   9  12
ATOM     12  O   UNL     1      17.421 -47.807   8.817  1.00  0.00    -0.504 OA
ATOM     13  H   UNL     1      17.252 -48.108   9.769  1.00  0.00     0.293 HD
ENDBRANCH   9  12
BRANCH   8  14
ATOM     14  O   UNL     1      16.288 -45.470   7.821  1.00  0.00    -0.504 OA
ATOM     15  H   UNL     1      15.839 -46.004   7.086  1.00  0.00     0.293 HD
ENDBRANCH   8  14
TORSDOF 2
ENDMDL
MODEL 5
REMARK VINA RESULT:    -4.390      2.599      4.882
REMARK INTER + INTRA:          -4.646
REMARK INTER:                  -4.646
REMARK INTRA:                   0.000
REMARK UNBOUND:                 0.000
REMARK SMILES O=c1ccc2cc(O)c(O)cc2o1
REMARK SMILES IDX 4 1 3 2 2 3 1 4 13 5 12 6 11 7 9 8 7 9 6 10 5 11 8 12 10 14
REMARK H PARENT 8 13 10 15
REMARK Flexibility Score: inf
ROOT
ATOM      1  C   UNL     1      19.686 -49.029   6.892  1.00  0.00     0.019 A 
ATOM      2  C   UNL     1      20.771 -49.447   6.123  1.00  0.00     0.094 A 
ATOM      3  C   UNL     1      21.471 -48.500   5.366  1.00  0.00     0.336 A 
ATOM      4  O   UNL     1      22.454 -48.859   4.666  1.00  0.00    -0.246 OA
ATOM      5  O   UNL     1      21.105 -47.221   5.382  1.00  0.00    -0.423 OA
ATOM      6  C   UNL     1      20.076 -46.780   6.102  1.00  0.00     0.142 A 
ATOM      7  C   UNL     1      19.736 -45.424   6.080  1.00  0.00     0.098 A 
ATOM      8  C   UNL     1      18.653 -44.954   6.836  1.00  0.00     0.161 A 
ATOM      9  C   UNL     1      17.905 -45.846   7.618  1.00  0.00     0.158 A 
ATOM     10  C   UNL     1      18.241 -47.208   7.645  1.00  0.00     0.062 A 
ATOM     11  C   UNL     1      19.323 -47.678   6.890  1.00  0.00     0.022 A 
ENDROOT
BRANCH   9  12
ATOM     12  O   UNL     1      16.829 -45.370   8.368  1.00  0.00    -0.504 OA
ATOM     13  H   UNL     1      16.058 -44.878   7.934  1.00  0.00     0.293 HD
ENDBRANCH   9  12
BRANCH   8  14
ATOM     14  O   UNL     1      18.313 -43.602   6.815  1.00  0.00    -0.504 OA
ATOM     15  H   UNL     1      17.405 -43.290   6.492  1.00  0.00     0.293 HD
ENDBRANCH   8  14
TORSDOF 2
ENDMDL
MODEL 6
REMARK VINA RESULT:    -4.354      1.032      2.255
REMARK INTER + INTRA:          -4.608
REMARK INTER:                  -4.608
REMARK INTRA:                   0.000
REMARK UNBOUND:                 0.000
REMARK SMILES O=c1ccc2cc(O)c(O)cc2o1
REMARK SMILES IDX 4 1 3 2 2 3 1 4 13 5 12 6 11 7 9 8 7 9 6 10 5 11 8 12 10 14
REMARK H PARENT 8 13 10 15
REMARK Flexibility Score: inf
ROOT
ATOM      1  C   UNL     1      22.834 -44.880   7.953  1.00  0.00     0.019 A 
ATOM      2  C   UNL     1      22.445 -43.661   8.506  1.00  0.00     0.094 A 
ATOM      3  C   UNL     1      21.139 -43.206   8.295  1.00  0.00     0.336 A 
ATOM      4  O   UNL     1      20.769 -42.108   8.787  1.00  0.00    -0.246 OA
ATOM      5  O   UNL     1      20.283 -43.927   7.576  1.00  0.00    -0.423 OA
ATOM      6  C   UNL     1      20.613 -45.095   7.030  1.00  0.00     0.142 A 
ATOM      7  C   UNL     1      19.671 -45.810   6.283  1.00  0.00     0.098 A 
ATOM      8  C   UNL     1      20.013 -47.041   5.706  1.00  0.00     0.161 A 
ATOM      9  C   UNL     1      21.306 -47.560   5.875  1.00  0.00     0.158 A 
ATOM     10  C   UNL     1      22.255 -46.848   6.624  1.00  0.00     0.062 A 
ATOM     11  C   UNL     1      21.913 -45.617   7.201  1.00  0.00     0.022 A 
ENDROOT
BRANCH   9  12
ATOM     12  O   UNL     1      21.638 -48.785   5.298  1.00  0.00    -0.504 OA
ATOM     13  H   UNL     1      20.942 -49.502   5.140  1.00  0.00     0.293 HD
ENDBRANCH   9  12
BRANCH   8  14
ATOM     14  O   UNL     1      19.076 -47.755   4.961  1.00  0.00    -0.504 OA
ATOM     15  H   UNL     1      18.635 -47.355   4.141  1.00  0.00     0.293 HD
ENDBRANCH   8  14
TORSDOF 2
ENDMDL
MODEL 7
REMARK VINA RESULT:    -4.273      2.248      4.584
REMARK INTER + INTRA:          -4.523
REMARK INTER:                  -4.523
REMARK INTRA:                   0.000
REMARK UNBOUND:                 0.000
REMARK SMILES O=c1ccc2cc(O)c(O)cc2o1
REMARK SMILES IDX 4 1 3 2 2 3 1 4 13 5 12 6 11 7 9 8 7 9 6 10 5 11 8 12 10 14
REMARK H PARENT 8 13 10 15
REMARK Flexibility Score: inf
ROOT
ATOM      1  C   UNL     1      19.470 -46.742   7.529  1.00  0.00     0.019 A 
ATOM      2  C   UNL     1      18.083 -46.665   7.644  1.00  0.00     0.094 A 
ATOM      3  C   UNL     1      17.499 -45.445   8.000  1.00  0.00     0.336 A 
ATOM      4  O   UNL     1      16.248 -45.355   8.108  1.00  0.00    -0.246 OA
ATOM      5  O   UNL     1      18.257 -44.375   8.225  1.00  0.00    -0.423 OA
ATOM      6  C   UNL     1      19.585 -44.405   8.126  1.00  0.00     0.142 A 
ATOM      7  C   UNL     1      20.331 -43.249   8.375  1.00  0.00     0.098 A 
ATOM      8  C   UNL     1      21.729 -43.276   8.273  1.00  0.00     0.161 A 
ATOM      9  C   UNL     1      22.385 -44.465   7.920  1.00  0.00     0.158 A 
ATOM     10  C   UNL     1      21.641 -45.628   7.669  1.00  0.00     0.062 A 
ATOM     11  C   UNL     1      20.243 -45.602   7.771  1.00  0.00     0.022 A 
ENDROOT
BRANCH   9  12
ATOM     12  O   UNL     1      23.775 -44.483   7.820  1.00  0.00    -0.504 OA
ATOM     13  H   UNL     1      24.365 -44.165   8.579  1.00  0.00     0.293 HD
ENDBRANCH   9  12
BRANCH   8  14
ATOM     14  O   UNL     1      22.476 -42.125   8.520  1.00  0.00    -0.504 OA
ATOM     15  H   UNL     1      22.820 -41.544   7.764  1.00  0.00     0.293 HD
ENDBRANCH   8  14
TORSDOF 2
ENDMDL
MODEL 8
REMARK VINA RESULT:    -4.244      1.309      1.336
REMARK INTER + INTRA:          -4.493
REMARK INTER:                  -4.493
REMARK INTRA:                   0.000
REMARK UNBOUND:                 0.000
REMARK SMILES O=c1ccc2cc(O)c(O)cc2o1
REMARK SMILES IDX 4 1 3 2 2 3 1 4 13 5 12 6 11 7 9 8 7 9 6 10 5 11 8 12 10 14
REMARK H PARENT 8 13 10 15
REMARK Flexibility Score: inf
ROOT
ATOM      1  C   UNL     1      19.992 -43.295   8.369  1.00  0.00     0.019 A 
ATOM      2  C   UNL     1      21.095 -42.442   8.374  1.00  0.00     0.094 A 
ATOM      3  C   UNL     1      22.338 -42.939   7.968  1.00  0.00     0.336 A 
ATOM      4  O   UNL     1      23.345 -42.184   7.965  1.00  0.00    -0.246 OA
ATOM      5  O   UNL     1      22.465 -44.206   7.584  1.00  0.00    -0.423 OA
ATOM      6  C   UNL     1      21.438 -45.054   7.564  1.00  0.00     0.142 A 
ATOM      7  C   UNL     1      21.630 -46.376   7.151  1.00  0.00     0.098 A 
ATOM      8  C   UNL     1      20.552 -47.272   7.129  1.00  0.00     0.161 A 
ATOM      9  C   UNL     1      19.275 -46.845   7.522  1.00  0.00     0.158 A 
ATOM     10  C   UNL     1      19.076 -45.520   7.937  1.00  0.00     0.062 A 
ATOM     11  C   UNL     1      20.153 -44.623   7.960  1.00  0.00     0.022 A 
ENDROOT
BRANCH   9  12
ATOM     12  O   UNL     1      18.209 -47.743   7.497  1.00  0.00    -0.504 OA
ATOM     13  H   UNL     1      18.329 -48.715   7.752  1.00  0.00     0.293 HD
ENDBRANCH   9  12
BRANCH   8  14
ATOM     14  O   UNL     1      20.741 -48.591   6.717  1.00  0.00    -0.504 OA
ATOM     15  H   UNL     1      20.705 -49.361   7.375  1.00  0.00     0.293 HD
ENDBRANCH   8  14
TORSDOF 2
ENDMDL
MODEL 9
REMARK VINA RESULT:    -4.094      2.416      4.327
REMARK INTER + INTRA:          -4.334
REMARK INTER:                  -4.334
REMARK INTRA:                   0.000
REMARK UNBOUND:                 0.000
REMARK SMILES O=c1ccc2cc(O)c(O)cc2o1
REMARK SMILES IDX 4 1 3 2 2 3 1 4 13 5 12 6 11 7 9 8 7 9 6 10 5 11 8 12 10 14
REMARK H PARENT 8 13 10 15
REMARK Flexibility Score: inf
ROOT
ATOM      1  C   UNL     1      18.825 -43.835   7.421  1.00  0.00     0.019 A 
ATOM      2  C   UNL     1      17.927 -44.875   7.654  1.00  0.00     0.094 A 
ATOM      3  C   UNL     1      18.380 -46.030   8.301  1.00  0.00     0.336 A 
ATOM      4  O   UNL     1      17.583 -46.980   8.521  1.00  0.00    -0.246 OA
ATOM      5  O   UNL     1      19.649 -46.133   8.687  1.00  0.00    -0.423 OA
ATOM      6  C   UNL     1      20.539 -45.164   8.484  1.00  0.00     0.142 A 
ATOM      7  C   UNL     1      21.861 -45.327   8.912  1.00  0.00     0.098 A 
ATOM      8  C   UNL     1      22.802 -44.310   8.700  1.00  0.00     0.161 A 
ATOM      9  C   UNL     1      22.420 -43.123   8.057  1.00  0.00     0.158 A 
ATOM     10  C   UNL     1      21.095 -42.953   7.627  1.00  0.00     0.062 A 
ATOM     11  C   UNL     1      20.154 -43.969   7.838  1.00  0.00     0.022 A 
ENDROOT
BRANCH   9  12
ATOM     12  O   UNL     1      23.362 -42.116   7.851  1.00  0.00    -0.504 OA
ATOM     13  H   UNL     1      23.399 -41.595   6.984  1.00  0.00     0.293 HD
ENDBRANCH   9  12
BRANCH   8  14
ATOM     14  O   UNL     1      24.120 -44.470   9.125  1.00  0.00    -0.504 OA
ATOM     15  H   UNL     1      24.819 -43.754   8.963  1.00  0.00     0.293 HD
ENDBRANCH   8  14
TORSDOF 2
ENDMDL
