MODEL 1
REMARK VINA RESULT:    -3.295      0.000      0.000
REMARK INTER + INTRA:          -5.988
REMARK INTER:                  -5.221
REMARK INTRA:                  -0.767
REMARK UNBOUND:                -0.767
REMARK SMILES CCCCCCCCCCCC(=O)[O-]
REMARK SMILES IDX 7 1 8 2 9 3 10 4 11 5 12 6 13 7 14 8 6 9 5 10 4 11 3 12 2 13
REMARK SMILES IDX 1 14
REMARK H PARENT
REMARK Flexibility Score: inf
ROOT
ATOM      1  C   UNL     1     -22.026   0.472   2.607  1.00  0.00     0.000 C 
ENDROOT
BRANCH   1   2
ATOM      2  C   UNL     1     -23.398   0.692   1.951  1.00  0.00     0.000 C 
BRANCH   2   3
ATOM      3  C   UNL     1     -24.078   1.949   2.513  1.00  0.00     0.000 C 
BRANCH   3   4
ATOM      4  C   UNL     1     -23.155   3.178   2.506  1.00  0.00     0.006 C 
BRANCH   4   5
ATOM      5  C   UNL     1     -23.813   4.413   3.136  1.00  0.00     0.053 C 
BRANCH   5   6
ATOM      6  C   UNL     1     -23.651   5.602   2.242  1.00  0.00     0.041 C 
ATOM      7  O   UNL     1     -22.564   5.797   1.637  1.00  0.00    -0.550 OA
ATOM      8  O   UNL     1     -24.684   6.522   2.115  1.00  0.00    -0.550 OA
ENDBRANCH   5   6
ENDBRANCH   4   5
ENDBRANCH   3   4
ENDBRANCH   2   3
ENDBRANCH   1   2
BRANCH   1   9
ATOM      9  C   UNL     1     -20.894   0.274   1.582  1.00  0.00     0.000 C 
BRANCH   9  10
ATOM     10  C   UNL     1     -21.073   1.042   0.260  1.00  0.00    -0.000 C 
BRANCH  10  11
ATOM     11  C   UNL     1     -20.281   2.358   0.218  1.00  0.00    -0.000 C 
BRANCH  11  12
ATOM     12  C   UNL     1     -18.799   2.116   0.544  1.00  0.00    -0.000 C 
BRANCH  12  13
ATOM     13  C   UNL     1     -17.873   3.142  -0.125  1.00  0.00    -0.003 C 
ATOM     14  C   UNL     1     -18.152   4.574   0.326  1.00  0.00     0.004 C 
ENDBRANCH  12  13
ENDBRANCH  11  12
ENDBRANCH  10  11
ENDBRANCH   9  10
ENDBRANCH   1   9
TORSDOF 10
ENDMDL
MODEL 2
REMARK VINA RESULT:    -3.249      3.388      5.248
REMARK INTER + INTRA:          -5.916
REMARK INTER:                  -4.461
REMARK INTRA:                  -1.454
REMARK UNBOUND:                -0.767
REMARK SMILES CCCCCCCCCCCC(=O)[O-]
REMARK SMILES IDX 7 1 8 2 9 3 10 4 11 5 12 6 13 7 14 8 6 9 5 10 4 11 3 12 2 13
REMARK SMILES IDX 1 14
REMARK H PARENT
REMARK Flexibility Score: inf
ROOT
ATOM      1  C   UNL     1     -25.369   2.446   3.250  1.00  0.00     0.000 C 
ENDROOT
BRANCH   1   2
ATOM      2  C   UNL     1     -25.537   1.896   1.826  1.00  0.00     0.000 C 
BRANCH   2   3
ATOM      3  C   UNL     1     -24.274   1.149   1.374  1.00  0.00     0.000 C 
BRANCH   3   4
ATOM      4  C   UNL     1     -23.044   1.492   2.230  1.00  0.00     0.006 C 
BRANCH   4   5
ATOM      5  C   UNL     1     -22.307   0.242   2.732  1.00  0.00     0.053 C 
BRANCH   5   6
ATOM      6  C   UNL     1     -21.387  -0.280   1.674  1.00  0.00     0.041 C 
ATOM      7  O   UNL     1     -20.315   0.327   1.411  1.00  0.00    -0.550 OA
ATOM      8  O   UNL     1     -21.736  -1.409   0.944  1.00  0.00    -0.550 OA
ENDBRANCH   5   6
ENDBRANCH   4   5
ENDBRANCH   3   4
ENDBRANCH   2   3
ENDBRANCH   1   2
BRANCH   1   9
ATOM      9  C   UNL     1     -25.563   3.972   3.332  1.00  0.00     0.000 C 
BRANCH   9  10
ATOM     10  C   UNL     1     -24.338   4.757   3.835  1.00  0.00    -0.000 C 
BRANCH  10  11
ATOM     11  C   UNL     1     -23.431   5.247   2.696  1.00  0.00    -0.000 C 
BRANCH  11  12
ATOM     12  C   UNL     1     -24.225   5.402   1.391  1.00  0.00    -0.000 C 
BRANCH  12  13
ATOM     13  C   UNL     1     -23.571   4.667   0.211  1.00  0.00    -0.003 C 
ATOM     14  C   UNL     1     -22.051   4.576   0.340  1.00  0.00     0.004 C 
ENDBRANCH  12  13
ENDBRANCH  11  12
ENDBRANCH  10  11
ENDBRANCH   9  10
ENDBRANCH   1   9
TORSDOF 10
ENDMDL
MODEL 3
REMARK VINA RESULT:    -3.138      3.147      5.016
REMARK INTER + INTRA:          -5.739
REMARK INTER:                  -4.424
REMARK INTRA:                  -1.314
REMARK UNBOUND:                -0.767
REMARK SMILES CCCCCCCCCCCC(=O)[O-]
REMARK SMILES IDX 7 1 8 2 9 3 10 4 11 5 12 6 13 7 14 8 6 9 5 10 4 11 3 12 2 13
REMARK SMILES IDX 1 14
REMARK H PARENT
REMARK Flexibility Score: inf
ROOT
ATOM      1  C   UNL     1     -25.167   3.829   3.496  1.00  0.00     0.000 C 
ENDROOT
BRANCH   1   2
ATOM      2  C   UNL     1     -25.214   2.355   3.064  1.00  0.00     0.000 C 
BRANCH   2   3
ATOM      3  C   UNL     1     -24.286   2.105   1.867  1.00  0.00     0.000 C 
BRANCH   3   4
ATOM      4  C   UNL     1     -23.520   0.777   1.977  1.00  0.00     0.006 C 
BRANCH   4   5
ATOM      5  C   UNL     1     -22.084   0.965   2.489  1.00  0.00     0.053 C 
BRANCH   5   6
ATOM      6  C   UNL     1     -21.134   0.134   1.688  1.00  0.00     0.041 C 
ATOM      7  O   UNL     1     -20.045   0.625   1.286  1.00  0.00    -0.550 OA
ATOM      8  O   UNL     1     -21.470  -1.169   1.342  1.00  0.00    -0.550 OA
ENDBRANCH   5   6
ENDBRANCH   4   5
ENDBRANCH   3   4
ENDBRANCH   2   3
ENDBRANCH   1   2
BRANCH   1   9
ATOM      9  C   UNL     1     -23.731   4.370   3.632  1.00  0.00     0.000 C 
BRANCH   9  10
ATOM     10  C   UNL     1     -23.448   5.663   2.846  1.00  0.00    -0.000 C 
BRANCH  10  11
ATOM     11  C   UNL     1     -24.332   5.814   1.599  1.00  0.00    -0.000 C 
BRANCH  11  12
ATOM     12  C   UNL     1     -23.561   5.424   0.329  1.00  0.00    -0.000 C 
BRANCH  12  13
ATOM     13  C   UNL     1     -22.068   5.181   0.596  1.00  0.00    -0.003 C 
ATOM     14  C   UNL     1     -21.577   3.845   0.043  1.00  0.00     0.004 C 
ENDBRANCH  12  13
ENDBRANCH  11  12
ENDBRANCH  10  11
ENDBRANCH   9  10
ENDBRANCH   1   9
TORSDOF 10
ENDMDL
MODEL 4
REMARK VINA RESULT:    -3.122      1.905      5.029
REMARK INTER + INTRA:          -5.715
REMARK INTER:                  -5.183
REMARK INTRA:                  -0.532
REMARK UNBOUND:                -0.767
REMARK SMILES CCCCCCCCCCCC(=O)[O-]
REMARK SMILES IDX 7 1 8 2 9 3 10 4 11 5 12 6 13 7 14 8 6 9 5 10 4 11 3 12 2 13
REMARK SMILES IDX 1 14
REMARK H PARENT
REMARK Flexibility Score: inf
ROOT
ATOM      1  C   UNL     1     -21.001   1.340   0.184  1.00  0.00     0.000 C 
ENDROOT
BRANCH   1   2
ATOM      2  C   UNL     1     -19.746   1.138   1.046  1.00  0.00     0.000 C 
BRANCH   2   3
ATOM      3  C   UNL     1     -18.552   1.910   0.465  1.00  0.00     0.000 C 
BRANCH   3   4
ATOM      4  C   UNL     1     -18.948   3.289  -0.086  1.00  0.00     0.006 C 
BRANCH   4   5
ATOM      5  C   UNL     1     -17.904   4.371   0.225  1.00  0.00     0.053 C 
BRANCH   5   6
ATOM      6  C   UNL     1     -18.531   5.728   0.181  1.00  0.00     0.041 C 
ATOM      7  O   UNL     1     -19.784   5.846   0.115  1.00  0.00    -0.550 OA
ATOM      8  O   UNL     1     -17.732   6.864   0.164  1.00  0.00    -0.550 OA
ENDBRANCH   5   6
ENDBRANCH   4   5
ENDBRANCH   3   4
ENDBRANCH   2   3
ENDBRANCH   1   2
BRANCH   1   9
ATOM      9  C   UNL     1     -22.007   0.180   0.306  1.00  0.00     0.000 C 
BRANCH   9  10
ATOM     10  C   UNL     1     -23.311   0.527   1.049  1.00  0.00    -0.000 C 
BRANCH  10  11
ATOM     11  C   UNL     1     -23.071   1.305   2.351  1.00  0.00    -0.000 C 
BRANCH  11  12
ATOM     12  C   UNL     1     -24.099   2.435   2.511  1.00  0.00    -0.000 C 
BRANCH  12  13
ATOM     13  C   UNL     1     -23.450   3.827   2.517  1.00  0.00    -0.003 C 
ATOM     14  C   UNL     1     -23.821   4.648   3.750  1.00  0.00     0.004 C 
ENDBRANCH  12  13
ENDBRANCH  11  12
ENDBRANCH  10  11
ENDBRANCH   9  10
ENDBRANCH   1   9
TORSDOF 10
ENDMDL
MODEL 5
REMARK VINA RESULT:    -3.109      1.698      2.896
REMARK INTER + INTRA:          -5.693
REMARK INTER:                  -4.491
REMARK INTRA:                  -1.202
REMARK UNBOUND:                -0.767
REMARK SMILES CCCCCCCCCCCC(=O)[O-]
REMARK SMILES IDX 7 1 8 2 9 3 10 4 11 5 12 6 13 7 14 8 6 9 5 10 4 11 3 12 2 13
REMARK SMILES IDX 1 14
REMARK H PARENT
REMARK Flexibility Score: inf
ROOT
ATOM      1  C   UNL     1     -24.183   1.651   2.499  1.00  0.00     0.000 C 
ENDROOT
BRANCH   1   2
ATOM      2  C   UNL     1     -24.467   3.161   2.473  1.00  0.00     0.000 C 
BRANCH   2   3
ATOM      3  C   UNL     1     -23.187   3.953   2.169  1.00  0.00     0.000 C 
BRANCH   3   4
ATOM      4  C   UNL     1     -23.282   4.753   0.859  1.00  0.00     0.006 C 
BRANCH   4   5
ATOM      5  C   UNL     1     -22.025   4.610  -0.011  1.00  0.00     0.053 C 
BRANCH   5   6
ATOM      6  C   UNL     1     -21.013   5.646   0.362  1.00  0.00     0.041 C 
ATOM      7  O   UNL     1     -19.784   5.420   0.198  1.00  0.00    -0.550 OA
ATOM      8  O   UNL     1     -21.421   6.842   0.938  1.00  0.00    -0.550 OA
ENDBRANCH   5   6
ENDBRANCH   4   5
ENDBRANCH   3   4
ENDBRANCH   2   3
ENDBRANCH   1   2
BRANCH   1   9
ATOM      9  C   UNL     1     -24.111   1.029   1.093  1.00  0.00     0.000 C 
BRANCH   9  10
ATOM     10  C   UNL     1     -22.797   0.292   0.775  1.00  0.00    -0.000 C 
BRANCH  10  11
ATOM     11  C   UNL     1     -21.877   0.153   1.997  1.00  0.00    -0.000 C 
BRANCH  11  12
ATOM     12  C   UNL     1     -20.409   0.382   1.607  1.00  0.00    -0.000 C 
BRANCH  12  13
ATOM     13  C   UNL     1     -20.234   1.550   0.625  1.00  0.00    -0.003 C 
ATOM     14  C   UNL     1     -18.779   1.995   0.487  1.00  0.00     0.004 C 
ENDBRANCH  12  13
ENDBRANCH  11  12
ENDBRANCH  10  11
ENDBRANCH   9  10
ENDBRANCH   1   9
TORSDOF 10
ENDMDL
MODEL 6
REMARK VINA RESULT:    -3.020      2.171      4.311
REMARK INTER + INTRA:          -5.552
REMARK INTER:                  -4.879
REMARK INTRA:                  -0.673
REMARK UNBOUND:                -0.767
REMARK SMILES CCCCCCCCCCCC(=O)[O-]
REMARK SMILES IDX 7 1 8 2 9 3 10 4 11 5 12 6 13 7 14 8 6 9 5 10 4 11 3 12 2 13
REMARK SMILES IDX 1 14
REMARK H PARENT
REMARK Flexibility Score: inf
ROOT
ATOM      1  C   UNL     1     -23.518   4.058   3.295  1.00  0.00     0.000 C 
ENDROOT
BRANCH   1   2
ATOM      2  C   UNL     1     -23.933   5.519   3.525  1.00  0.00     0.000 C 
BRANCH   2   3
ATOM      3  C   UNL     1     -23.335   6.435   2.447  1.00  0.00     0.000 C 
BRANCH   3   4
ATOM      4  C   UNL     1     -22.761   5.652   1.255  1.00  0.00     0.006 C 
BRANCH   4   5
ATOM      5  C   UNL     1     -21.594   6.382   0.577  1.00  0.00     0.053 C 
BRANCH   5   6
ATOM      6  C   UNL     1     -20.511   5.414   0.220  1.00  0.00     0.041 C 
ATOM      7  O   UNL     1     -20.798   4.227  -0.090  1.00  0.00    -0.550 OA
ATOM      8  O   UNL     1     -19.180   5.807   0.276  1.00  0.00    -0.550 OA
ENDBRANCH   5   6
ENDBRANCH   4   5
ENDBRANCH   3   4
ENDBRANCH   2   3
ENDBRANCH   1   2
BRANCH   1   9
ATOM      9  C   UNL     1     -24.718   3.123   3.058  1.00  0.00     0.000 C 
BRANCH   9  10
ATOM     10  C   UNL     1     -24.365   1.760   2.433  1.00  0.00    -0.000 C 
BRANCH  10  11
ATOM     11  C   UNL     1     -22.867   1.606   2.135  1.00  0.00    -0.000 C 
BRANCH  11  12
ATOM     12  C   UNL     1     -22.356   0.230   2.587  1.00  0.00    -0.000 C 
BRANCH  12  13
ATOM     13  C   UNL     1     -21.206  -0.290   1.711  1.00  0.00    -0.003 C 
ATOM     14  C   UNL     1     -20.297   0.827   1.203  1.00  0.00     0.004 C 
ENDBRANCH  12  13
ENDBRANCH  11  12
ENDBRANCH  10  11
ENDBRANCH   9  10
ENDBRANCH   1   9
TORSDOF 10
ENDMDL
MODEL 7
REMARK VINA RESULT:    -2.993      1.403      2.590
REMARK INTER + INTRA:          -5.510
REMARK INTER:                  -4.652
REMARK INTRA:                  -0.857
REMARK UNBOUND:                -0.767
REMARK SMILES CCCCCCCCCCCC(=O)[O-]
REMARK SMILES IDX 7 1 8 2 9 3 10 4 11 5 12 6 13 7 14 8 6 9 5 10 4 11 3 12 2 13
REMARK SMILES IDX 1 14
REMARK H PARENT
REMARK Flexibility Score: inf
ROOT
ATOM      1  C   UNL     1     -24.587   1.310   1.508  1.00  0.00     0.000 C 
ENDROOT
BRANCH   1   2
ATOM      2  C   UNL     1     -25.750   2.201   1.972  1.00  0.00     0.000 C 
BRANCH   2   3
ATOM      3  C   UNL     1     -25.621   2.537   3.464  1.00  0.00     0.000 C 
BRANCH   3   4
ATOM      4  C   UNL     1     -25.864   4.026   3.761  1.00  0.00     0.006 C 
BRANCH   4   5
ATOM      5  C   UNL     1     -25.347   4.942   2.643  1.00  0.00     0.053 C 
BRANCH   5   6
ATOM      6  C   UNL     1     -23.902   5.262   2.859  1.00  0.00     0.041 C 
ATOM      7  O   UNL     1     -23.525   5.798   3.934  1.00  0.00    -0.550 OA
ATOM      8  O   UNL     1     -22.977   5.013   1.853  1.00  0.00    -0.550 OA
ENDBRANCH   5   6
ENDBRANCH   4   5
ENDBRANCH   3   4
ENDBRANCH   2   3
ENDBRANCH   1   2
BRANCH   1   9
ATOM      9  C   UNL     1     -23.312   1.499   2.352  1.00  0.00     0.000 C 
BRANCH   9  10
ATOM     10  C   UNL     1     -22.442   0.238   2.506  1.00  0.00    -0.000 C 
BRANCH  10  11
ATOM     11  C   UNL     1     -21.931  -0.306   1.164  1.00  0.00    -0.000 C 
BRANCH  11  12
ATOM     12  C   UNL     1     -21.108   0.756   0.419  1.00  0.00    -0.000 C 
BRANCH  12  13
ATOM     13  C   UNL     1     -19.763   1.046   1.101  1.00  0.00    -0.003 C 
ATOM     14  C   UNL     1     -18.970   2.148   0.400  1.00  0.00     0.004 C 
ENDBRANCH  12  13
ENDBRANCH  11  12
ENDBRANCH  10  11
ENDBRANCH   9  10
ENDBRANCH   1   9
TORSDOF 10
ENDMDL
MODEL 8
REMARK VINA RESULT:    -2.969      1.944      4.967
REMARK INTER + INTRA:          -5.471
REMARK INTER:                  -4.527
REMARK INTRA:                  -0.944
REMARK UNBOUND:                -0.767
REMARK SMILES CCCCCCCCCCCC(=O)[O-]
REMARK SMILES IDX 7 1 8 2 9 3 10 4 11 5 12 6 13 7 14 8 6 9 5 10 4 11 3 12 2 13
REMARK SMILES IDX 1 14
REMARK H PARENT
REMARK Flexibility Score: inf
ROOT
ATOM      1  C   UNL     1     -22.866   0.758   2.248  1.00  0.00     0.000 C 
ENDROOT
BRANCH   1   2
ATOM      2  C   UNL     1     -21.881   0.070   1.290  1.00  0.00     0.000 C 
BRANCH   2   3
ATOM      3  C   UNL     1     -20.490   0.713   1.380  1.00  0.00     0.000 C 
BRANCH   3   4
ATOM      4  C   UNL     1     -20.190   1.647   0.196  1.00  0.00     0.006 C 
BRANCH   4   5
ATOM      5  C   UNL     1     -18.768   2.224   0.246  1.00  0.00     0.053 C 
BRANCH   5   6
ATOM      6  C   UNL     1     -18.810   3.717   0.169  1.00  0.00     0.041 C 
ATOM      7  O   UNL     1     -17.777   4.394   0.414  1.00  0.00    -0.550 OA
ATOM      8  O   UNL     1     -20.003   4.366  -0.125  1.00  0.00    -0.550 OA
ENDBRANCH   5   6
ENDBRANCH   4   5
ENDBRANCH   3   4
ENDBRANCH   2   3
ENDBRANCH   1   2
BRANCH   1   9
ATOM      9  C   UNL     1     -24.118   1.300   1.534  1.00  0.00     0.000 C 
BRANCH   9  10
ATOM     10  C   UNL     1     -23.921   2.642   0.806  1.00  0.00    -0.000 C 
BRANCH  10  11
ATOM     11  C   UNL     1     -23.000   3.608   1.566  1.00  0.00    -0.000 C 
BRANCH  11  12
ATOM     12  C   UNL     1     -23.736   4.912   1.910  1.00  0.00    -0.000 C 
BRANCH  12  13
ATOM     13  C   UNL     1     -23.870   5.132   3.424  1.00  0.00    -0.003 C 
ATOM     14  C   UNL     1     -25.073   4.406   4.023  1.00  0.00     0.004 C 
ENDBRANCH  12  13
ENDBRANCH  11  12
ENDBRANCH  10  11
ENDBRANCH   9  10
ENDBRANCH   1   9
TORSDOF 10
ENDMDL
