MODEL 1
REMARK VINA RESULT:     2.230      0.000      0.000
REMARK INTER + INTRA:           4.485
REMARK INTER:                   5.620
REMARK INTRA:                  -1.135
REMARK UNBOUND:                -1.135
REMARK SMILES CCCCCCCCCCCCCCCCCCCCCCCCCCCC(=O)[O-]
REMARK SMILES IDX 15 1 16 2 17 3 18 4 19 5 20 6 21 7 22 8 23 9 24 10 25 11
REMARK SMILES IDX 26 12 27 13 28 14 29 15 30 16 14 17 13 18 12 19 11 20 10 21
REMARK SMILES IDX 9 22 8 23 7 24 6 25 5 26 4 27 3 28 2 29 1 30
REMARK H PARENT
REMARK Flexibility Score: inf
ROOT
ATOM      1  C   UNL     1      18.824  20.785  16.138  1.00  0.00     0.000 C 
ENDROOT
BRANCH   1   2
ATOM      2  C   UNL     1      19.822  20.784  14.971  1.00  0.00     0.000 C 
BRANCH   2   3
ATOM      3  C   UNL     1      21.182  20.164  15.341  1.00  0.00     0.000 C 
BRANCH   3   4
ATOM      4  C   UNL     1      22.144  19.898  14.163  1.00  0.00     0.000 C 
BRANCH   4   5
ATOM      5  C   UNL     1      23.545  20.544  14.259  1.00  0.00     0.000 C 
BRANCH   5   6
ATOM      6  C   UNL     1      24.141  20.601  15.679  1.00  0.00     0.000 C 
BRANCH   6   7
ATOM      7  C   UNL     1      25.636  20.970  15.707  1.00  0.00     0.000 C 
BRANCH   7   8
ATOM      8  C   UNL     1      26.334  20.575  17.027  1.00  0.00     0.000 C 
BRANCH   8   9
ATOM      9  C   UNL     1      27.855  20.824  17.039  1.00  0.00     0.000 C 
BRANCH   9  10
ATOM     10  C   UNL     1      28.687  19.875  16.155  1.00  0.00     0.000 C 
BRANCH  10  11
ATOM     11  C   UNL     1      28.717  20.233  14.656  1.00  0.00     0.000 C 
BRANCH  11  12
ATOM     12  C   UNL     1      30.009  20.927  14.177  1.00  0.00     0.006 C 
BRANCH  12  13
ATOM     13  C   UNL     1      30.064  21.193  12.664  1.00  0.00     0.053 C 
BRANCH  13  14
ATOM     14  C   UNL     1      28.726  21.591  12.118  1.00  0.00     0.041 C 
ATOM     15  O   UNL     1      28.320  22.777  12.238  1.00  0.00    -0.550 OA
ATOM     16  O   UNL     1      27.947  20.661  11.442  1.00  0.00    -0.550 OA
ENDBRANCH  13  14
ENDBRANCH  12  13
ENDBRANCH  11  12
ENDBRANCH  10  11
ENDBRANCH   9  10
ENDBRANCH   8   9
ENDBRANCH   7   8
ENDBRANCH   6   7
ENDBRANCH   5   6
ENDBRANCH   4   5
ENDBRANCH   3   4
ENDBRANCH   2   3
ENDBRANCH   1   2
BRANCH   1  17
ATOM     17  C   UNL     1      17.627  19.876  15.830  1.00  0.00     0.000 C 
BRANCH  17  18
ATOM     18  C   UNL     1      16.435  20.116  16.773  1.00  0.00     0.000 C 
BRANCH  18  19
ATOM     19  C   UNL     1      15.548  21.306  16.353  1.00  0.00     0.000 C 
BRANCH  19  20
ATOM     20  C   UNL     1      14.147  21.243  16.988  1.00  0.00     0.000 C 
BRANCH  20  21
ATOM     21  C   UNL     1      13.063  20.819  15.984  1.00  0.00     0.000 C 
BRANCH  21  22
ATOM     22  C   UNL     1      12.160  21.990  15.559  1.00  0.00    -0.000 C 
BRANCH  22  23
ATOM     23  C   UNL     1      10.942  22.162  16.479  1.00  0.00    -0.000 C 
BRANCH  23  24
ATOM     24  C   UNL     1      10.761  20.978  17.447  1.00  0.00    -0.000 C 
BRANCH  24  25
ATOM     25  C   UNL     1      10.149  21.406  18.790  1.00  0.00    -0.000 C 
BRANCH  25  26
ATOM     26  C   UNL     1      11.023  22.426  19.540  1.00  0.00    -0.000 C 
BRANCH  26  27
ATOM     27  C   UNL     1      11.046  22.162  21.061  1.00  0.00    -0.000 C 
BRANCH  27  28
ATOM     28  C   UNL     1      12.219  21.268  21.512  1.00  0.00    -0.000 C 
BRANCH  28  29
ATOM     29  C   UNL     1      11.823  20.125  22.461  1.00  0.00    -0.003 C 
ATOM     30  C   UNL     1      10.316  19.875  22.491  1.00  0.00     0.004 C 
ENDBRANCH  28  29
ENDBRANCH  27  28
ENDBRANCH  26  27
ENDBRANCH  25  26
ENDBRANCH  24  25
ENDBRANCH  23  24
ENDBRANCH  22  23
ENDBRANCH  21  22
ENDBRANCH  20  21
ENDBRANCH  19  20
ENDBRANCH  18  19
ENDBRANCH  17  18
ENDBRANCH   1  17
TORSDOF 26
ENDMDL
MODEL 2
REMARK VINA RESULT:     2.840      1.264      2.394
REMARK INTER + INTRA:           6.021
REMARK INTER:                   7.062
REMARK INTRA:                  -1.042
REMARK UNBOUND:                -1.135
REMARK SMILES CCCCCCCCCCCCCCCCCCCCCCCCCCCC(=O)[O-]
REMARK SMILES IDX 15 1 16 2 17 3 18 4 19 5 20 6 21 7 22 8 23 9 24 10 25 11
REMARK SMILES IDX 26 12 27 13 28 14 29 15 30 16 14 17 13 18 12 19 11 20 10 21
REMARK SMILES IDX 9 22 8 23 7 24 6 25 5 26 4 27 3 28 2 29 1 30
REMARK H PARENT
REMARK Flexibility Score: inf
ROOT
ATOM      1  C   UNL     1      18.866  21.047  16.194  1.00  0.00     0.000 C 
ENDROOT
BRANCH   1   2
ATOM      2  C   UNL     1      20.054  20.900  15.232  1.00  0.00     0.000 C 
BRANCH   2   3
ATOM      3  C   UNL     1      21.236  20.128  15.846  1.00  0.00     0.000 C 
BRANCH   3   4
ATOM      4  C   UNL     1      22.440  19.884  14.911  1.00  0.00     0.000 C 
BRANCH   4   5
ATOM      5  C   UNL     1      23.754  20.611  15.275  1.00  0.00     0.000 C 
BRANCH   5   6
ATOM      6  C   UNL     1      24.624  19.895  16.327  1.00  0.00     0.000 C 
BRANCH   6   7
ATOM      7  C   UNL     1      25.659  20.816  17.002  1.00  0.00     0.000 C 
BRANCH   7   8
ATOM      8  C   UNL     1      27.043  20.151  17.170  1.00  0.00     0.000 C 
BRANCH   8   9
ATOM      9  C   UNL     1      28.198  20.912  16.487  1.00  0.00     0.000 C 
BRANCH   9  10
ATOM     10  C   UNL     1      28.980  20.113  15.427  1.00  0.00     0.000 C 
BRANCH  10  11
ATOM     11  C   UNL     1      28.281  19.978  14.060  1.00  0.00     0.000 C 
BRANCH  11  12
ATOM     12  C   UNL     1      27.948  21.314  13.363  1.00  0.00     0.006 C 
BRANCH  12  13
ATOM     13  C   UNL     1      29.072  22.360  13.425  1.00  0.00     0.053 C 
BRANCH  13  14
ATOM     14  C   UNL     1      29.471  22.833  12.060  1.00  0.00     0.041 C 
ATOM     15  O   UNL     1      30.070  22.057  11.270  1.00  0.00    -0.550 OA
ATOM     16  O   UNL     1      29.145  24.119  11.649  1.00  0.00    -0.550 OA
ENDBRANCH  13  14
ENDBRANCH  12  13
ENDBRANCH  11  12
ENDBRANCH  10  11
ENDBRANCH   9  10
ENDBRANCH   8   9
ENDBRANCH   7   8
ENDBRANCH   6   7
ENDBRANCH   5   6
ENDBRANCH   4   5
ENDBRANCH   3   4
ENDBRANCH   2   3
ENDBRANCH   1   2
BRANCH   1  17
ATOM     17  C   UNL     1      17.757  20.046  15.844  1.00  0.00     0.000 C 
BRANCH  17  18
ATOM     18  C   UNL     1      16.459  20.293  16.632  1.00  0.00     0.000 C 
BRANCH  18  19
ATOM     19  C   UNL     1      15.774  21.632  16.286  1.00  0.00     0.000 C 
BRANCH  19  20
ATOM     20  C   UNL     1      14.433  21.809  17.021  1.00  0.00     0.000 C 
BRANCH  20  21
ATOM     21  C   UNL     1      13.836  20.472  17.487  1.00  0.00     0.000 C 
BRANCH  21  22
ATOM     22  C   UNL     1      12.303  20.434  17.363  1.00  0.00    -0.000 C 
BRANCH  22  23
ATOM     23  C   UNL     1      11.621  19.877  18.622  1.00  0.00    -0.000 C 
BRANCH  23  24
ATOM     24  C   UNL     1      12.399  20.203  19.909  1.00  0.00    -0.000 C 
BRANCH  24  25
ATOM     25  C   UNL     1      11.472  20.445  21.110  1.00  0.00    -0.000 C 
BRANCH  25  26
ATOM     26  C   UNL     1      10.864  21.858  21.113  1.00  0.00    -0.000 C 
BRANCH  26  27
ATOM     27  C   UNL     1      10.745  22.440  19.688  1.00  0.00    -0.000 C 
BRANCH  27  28
ATOM     28  C   UNL     1      10.251  23.900  19.659  1.00  0.00    -0.000 C 
BRANCH  28  29
ATOM     29  C   UNL     1       9.875  24.421  18.262  1.00  0.00    -0.003 C 
ATOM     30  C   UNL     1      10.027  23.359  17.175  1.00  0.00     0.004 C 
ENDBRANCH  28  29
ENDBRANCH  27  28
ENDBRANCH  26  27
ENDBRANCH  25  26
ENDBRANCH  24  25
ENDBRANCH  23  24
ENDBRANCH  22  23
ENDBRANCH  21  22
ENDBRANCH  20  21
ENDBRANCH  19  20
ENDBRANCH  18  19
ENDBRANCH  17  18
ENDBRANCH   1  17
TORSDOF 26
ENDMDL
MODEL 3
REMARK VINA RESULT:     4.436      5.373     15.691
REMARK INTER + INTRA:          10.043
REMARK INTER:                  11.286
REMARK INTRA:                  -1.243
REMARK UNBOUND:                -1.135
REMARK SMILES CCCCCCCCCCCCCCCCCCCCCCCCCCCC(=O)[O-]
REMARK SMILES IDX 15 1 16 2 17 3 18 4 19 5 20 6 21 7 22 8 23 9 24 10 25 11
REMARK SMILES IDX 26 12 27 13 28 14 29 15 30 16 14 17 13 18 12 19 11 20 10 21
REMARK SMILES IDX 9 22 8 23 7 24 6 25 5 26 4 27 3 28 2 29 1 30
REMARK H PARENT
REMARK Flexibility Score: inf
ROOT
ATOM      1  C   UNL     1      20.651  21.088  14.883  1.00  0.00     0.000 C 
ENDROOT
BRANCH   1   2
ATOM      2  C   UNL     1      19.551  20.018  14.835  1.00  0.00     0.000 C 
BRANCH   2   3
ATOM      3  C   UNL     1      18.186  20.534  15.328  1.00  0.00     0.000 C 
BRANCH   3   4
ATOM      4  C   UNL     1      17.801  20.146  16.772  1.00  0.00     0.000 C 
BRANCH   4   5
ATOM      5  C   UNL     1      16.302  19.875  17.036  1.00  0.00     0.000 C 
BRANCH   5   6
ATOM      6  C   UNL     1      15.415  21.134  17.103  1.00  0.00     0.000 C 
BRANCH   6   7
ATOM      7  C   UNL     1      14.442  21.267  15.915  1.00  0.00     0.000 C 
BRANCH   7   8
ATOM      8  C   UNL     1      13.057  20.644  16.194  1.00  0.00     0.000 C 
BRANCH   8   9
ATOM      9  C   UNL     1      12.105  21.550  16.999  1.00  0.00     0.000 C 
BRANCH   9  10
ATOM     10  C   UNL     1      10.701  20.971  17.257  1.00  0.00     0.000 C 
BRANCH  10  11
ATOM     11  C   UNL     1      10.266  20.937  18.735  1.00  0.00     0.000 C 
BRANCH  11  12
ATOM     12  C   UNL     1      11.275  21.554  19.726  1.00  0.00     0.006 C 
BRANCH  12  13
ATOM     13  C   UNL     1      11.126  21.061  21.174  1.00  0.00     0.053 C 
BRANCH  13  14
ATOM     14  C   UNL     1      11.057  22.198  22.148  1.00  0.00     0.041 C 
ATOM     15  O   UNL     1      11.790  23.210  21.993  1.00  0.00    -0.550 OA
ATOM     16  O   UNL     1      10.155  22.155  23.203  1.00  0.00    -0.550 OA
ENDBRANCH  13  14
ENDBRANCH  12  13
ENDBRANCH  11  12
ENDBRANCH  10  11
ENDBRANCH   9  10
ENDBRANCH   8   9
ENDBRANCH   7   8
ENDBRANCH   6   7
ENDBRANCH   5   6
ENDBRANCH   4   5
ENDBRANCH   3   4
ENDBRANCH   2   3
ENDBRANCH   1   2
BRANCH   1  17
ATOM     17  C   UNL     1      21.353  21.085  16.248  1.00  0.00     0.000 C 
BRANCH  17  18
ATOM     18  C   UNL     1      22.694  20.332  16.229  1.00  0.00     0.000 C 
BRANCH  18  19
ATOM     19  C   UNL     1      23.923  21.264  16.204  1.00  0.00     0.000 C 
BRANCH  19  20
ATOM     20  C   UNL     1      25.244  20.494  16.379  1.00  0.00     0.000 C 
BRANCH  20  21
ATOM     21  C   UNL     1      25.746  19.879  15.063  1.00  0.00     0.000 C 
BRANCH  21  22
ATOM     22  C   UNL     1      27.056  20.519  14.573  1.00  0.00    -0.000 C 
BRANCH  22  23
ATOM     23  C   UNL     1      28.239  20.240  15.512  1.00  0.00    -0.000 C 
BRANCH  23  24
ATOM     24  C   UNL     1      29.600  20.374  14.804  1.00  0.00    -0.000 C 
BRANCH  24  25
ATOM     25  C   UNL     1      29.492  20.185  13.283  1.00  0.00    -0.000 C 
BRANCH  25  26
ATOM     26  C   UNL     1      30.036  21.390  12.497  1.00  0.00    -0.000 C 
BRANCH  26  27
ATOM     27  C   UNL     1      28.906  22.225  11.858  1.00  0.00    -0.000 C 
BRANCH  27  28
ATOM     28  C   UNL     1      28.630  21.861  10.385  1.00  0.00    -0.000 C 
BRANCH  28  29
ATOM     29  C   UNL     1      28.741  20.361  10.065  1.00  0.00    -0.003 C 
ATOM     30  C   UNL     1      29.867  20.048   9.081  1.00  0.00     0.004 C 
ENDBRANCH  28  29
ENDBRANCH  27  28
ENDBRANCH  26  27
ENDBRANCH  25  26
ENDBRANCH  24  25
ENDBRANCH  23  24
ENDBRANCH  22  23
ENDBRANCH  21  22
ENDBRANCH  20  21
ENDBRANCH  19  20
ENDBRANCH  18  19
ENDBRANCH  17  18
ENDBRANCH   1  17
TORSDOF 26
ENDMDL
