MODEL 1
REMARK VINA RESULT:    -5.364      0.000      0.000
REMARK INTER + INTRA:         -13.239
REMARK INTER:                 -10.067
REMARK INTRA:                  -3.172
REMARK UNBOUND:                -3.172
REMARK SMILES CCCCCCCCC=CCCCCCCCC(=O)[O-]
REMARK SMILES IDX 10 1 9 2 11 3 12 4 13 5 14 6 15 7 16 8 17 9 18 10 19 11
REMARK SMILES IDX 20 12 8 13 7 14 6 15 5 16 4 17 3 18 2 19 1 20
REMARK H PARENT
REMARK Flexibility Score: inf
ROOT
ATOM      1  C   UNL     1      36.749  -0.243   4.142  1.00  0.00    -0.031 C 
ATOM      2  C   UNL     1      36.035   0.315   3.145  1.00  0.00    -0.031 C 
ENDROOT
BRANCH   1   3
ATOM      3  C   UNL     1      36.282  -0.403   5.571  1.00  0.00     0.027 C 
BRANCH   3   4
ATOM      4  C   UNL     1      37.330   0.096   6.582  1.00  0.00     0.004 C 
BRANCH   4   5
ATOM      5  C   UNL     1      37.017   1.459   7.228  1.00  0.00     0.000 C 
BRANCH   5   6
ATOM      6  C   UNL     1      37.977   2.572   6.773  1.00  0.00     0.000 C 
BRANCH   6   7
ATOM      7  C   UNL     1      37.387   3.430   5.641  1.00  0.00     0.000 C 
BRANCH   7   8
ATOM      8  C   UNL     1      38.306   3.499   4.409  1.00  0.00     0.006 C 
BRANCH   8   9
ATOM      9  C   UNL     1      39.543   2.603   4.559  1.00  0.00     0.053 C 
BRANCH   9  10
ATOM     10  C   UNL     1      40.792   3.300   4.115  1.00  0.00     0.041 C 
ATOM     11  O   UNL     1      40.735   4.208   3.245  1.00  0.00    -0.550 OA
ATOM     12  O   UNL     1      42.014   2.973   4.690  1.00  0.00    -0.550 OA
ENDBRANCH   9  10
ENDBRANCH   8   9
ENDBRANCH   7   8
ENDBRANCH   6   7
ENDBRANCH   5   6
ENDBRANCH   4   5
ENDBRANCH   3   4
ENDBRANCH   1   3
BRANCH   2  13
ATOM     13  C   UNL     1      34.651   0.896   3.286  1.00  0.00     0.027 C 
BRANCH  13  14
ATOM     14  C   UNL     1      34.683   2.432   3.279  1.00  0.00     0.004 C 
BRANCH  14  15
ATOM     15  C   UNL     1      33.776   3.049   4.357  1.00  0.00     0.000 C 
BRANCH  15  16
ATOM     16  C   UNL     1      33.775   2.239   5.664  1.00  0.00     0.000 C 
BRANCH  16  17
ATOM     17  C   UNL     1      33.864   3.127   6.918  1.00  0.00    -0.000 C 
BRANCH  17  18
ATOM     18  C   UNL     1      33.876   4.647   6.648  1.00  0.00    -0.000 C 
BRANCH  18  19
ATOM     19  C   UNL     1      34.978   5.429   7.382  1.00  0.00    -0.003 C 
ATOM     20  C   UNL     1      35.397   4.774   8.698  1.00  0.00     0.004 C 
ENDBRANCH  18  19
ENDBRANCH  17  18
ENDBRANCH  16  17
ENDBRANCH  15  16
ENDBRANCH  14  15
ENDBRANCH  13  14
ENDBRANCH   2  13
TORSDOF 15
ENDMDL
MODEL 2
REMARK VINA RESULT:    -5.262      1.707      3.802
REMARK INTER + INTRA:         -13.048
REMARK INTER:                 -10.002
REMARK INTRA:                  -3.046
REMARK UNBOUND:                -3.172
REMARK SMILES CCCCCCCCC=CCCCCCCCC(=O)[O-]
REMARK SMILES IDX 10 1 9 2 11 3 12 4 13 5 14 6 15 7 16 8 17 9 18 10 19 11
REMARK SMILES IDX 20 12 8 13 7 14 6 15 5 16 4 17 3 18 2 19 1 20
REMARK H PARENT
REMARK Flexibility Score: inf
ROOT
ATOM      1  C   UNL     1      34.242   1.277   3.221  1.00  0.00    -0.031 C 
ATOM      2  C   UNL     1      35.207   0.358   3.024  1.00  0.00    -0.031 C 
ENDROOT
BRANCH   1   3
ATOM      3  C   UNL     1      34.473   2.737   3.543  1.00  0.00     0.027 C 
BRANCH   3   4
ATOM      4  C   UNL     1      33.281   3.362   4.288  1.00  0.00     0.004 C 
BRANCH   4   5
ATOM      5  C   UNL     1      33.553   3.739   5.756  1.00  0.00     0.000 C 
BRANCH   5   6
ATOM      6  C   UNL     1      34.719   4.730   5.914  1.00  0.00     0.000 C 
BRANCH   6   7
ATOM      7  C   UNL     1      35.390   4.632   7.294  1.00  0.00     0.000 C 
BRANCH   7   8
ATOM      8  C   UNL     1      36.810   4.044   7.221  1.00  0.00     0.006 C 
BRANCH   8   9
ATOM      9  C   UNL     1      37.250   3.771   5.776  1.00  0.00     0.053 C 
BRANCH   9  10
ATOM     10  C   UNL     1      38.414   2.830   5.718  1.00  0.00     0.041 C 
ATOM     11  O   UNL     1      38.721   2.139   6.725  1.00  0.00    -0.550 OA
ATOM     12  O   UNL     1      39.137   2.689   4.540  1.00  0.00    -0.550 OA
ENDBRANCH   9  10
ENDBRANCH   8   9
ENDBRANCH   7   8
ENDBRANCH   6   7
ENDBRANCH   5   6
ENDBRANCH   4   5
ENDBRANCH   3   4
ENDBRANCH   1   3
BRANCH   2  13
ATOM     13  C   UNL     1      36.689   0.622   3.109  1.00  0.00     0.027 C 
BRANCH  13  14
ATOM     14  C   UNL     1      37.395  -0.415   3.995  1.00  0.00     0.004 C 
BRANCH  14  15
ATOM     15  C   UNL     1      36.444  -1.076   5.007  1.00  0.00     0.000 C 
BRANCH  15  16
ATOM     16  C   UNL     1      36.565  -0.470   6.415  1.00  0.00     0.000 C 
BRANCH  16  17
ATOM     17  C   UNL     1      35.505   0.611   6.694  1.00  0.00    -0.000 C 
BRANCH  17  18
ATOM     18  C   UNL     1      34.050   0.103   6.767  1.00  0.00    -0.000 C 
BRANCH  18  19
ATOM     19  C   UNL     1      33.289   0.492   8.045  1.00  0.00    -0.003 C 
ATOM     20  C   UNL     1      33.991   1.588   8.846  1.00  0.00     0.004 C 
ENDBRANCH  18  19
ENDBRANCH  17  18
ENDBRANCH  16  17
ENDBRANCH  15  16
ENDBRANCH  14  15
ENDBRANCH  13  14
ENDBRANCH   2  13
TORSDOF 15
ENDMDL
MODEL 3
REMARK VINA RESULT:    -5.248      2.117      2.762
REMARK INTER + INTRA:         -13.023
REMARK INTER:                 -10.041
REMARK INTRA:                  -2.982
REMARK UNBOUND:                -3.172
REMARK SMILES CCCCCCCCC=CCCCCCCCC(=O)[O-]
REMARK SMILES IDX 10 1 9 2 11 3 12 4 13 5 14 6 15 7 16 8 17 9 18 10 19 11
REMARK SMILES IDX 20 12 8 13 7 14 6 15 5 16 4 17 3 18 2 19 1 20
REMARK H PARENT
REMARK Flexibility Score: inf
ROOT
ATOM      1  C   UNL     1      35.643  -1.160   4.097  1.00  0.00    -0.031 C 
ATOM      2  C   UNL     1      34.996  -0.290   3.299  1.00  0.00    -0.031 C 
ENDROOT
BRANCH   1   3
ATOM      3  C   UNL     1      36.867  -0.845   4.928  1.00  0.00     0.027 C 
BRANCH   3   4
ATOM      4  C   UNL     1      36.500  -0.388   6.350  1.00  0.00     0.004 C 
BRANCH   4   5
ATOM      5  C   UNL     1      37.433   0.677   6.956  1.00  0.00     0.000 C 
BRANCH   5   6
ATOM      6  C   UNL     1      38.072   1.587   5.893  1.00  0.00     0.000 C 
BRANCH   6   7
ATOM      7  C   UNL     1      37.655   3.059   6.052  1.00  0.00     0.000 C 
BRANCH   7   8
ATOM      8  C   UNL     1      37.573   3.800   4.706  1.00  0.00     0.006 C 
BRANCH   8   9
ATOM      9  C   UNL     1      36.861   5.154   4.835  1.00  0.00     0.053 C 
BRANCH   9  10
ATOM     10  C   UNL     1      36.902   5.927   3.553  1.00  0.00     0.041 C 
ATOM     11  O   UNL     1      37.624   6.955   3.456  1.00  0.00    -0.550 OA
ATOM     12  O   UNL     1      36.173   5.492   2.453  1.00  0.00    -0.550 OA
ENDBRANCH   9  10
ENDBRANCH   8   9
ENDBRANCH   7   8
ENDBRANCH   6   7
ENDBRANCH   5   6
ENDBRANCH   4   5
ENDBRANCH   3   4
ENDBRANCH   1   3
BRANCH   2  13
ATOM     13  C   UNL     1      35.392   1.149   3.079  1.00  0.00     0.027 C 
BRANCH  13  14
ATOM     14  C   UNL     1      34.269   2.111   3.498  1.00  0.00     0.004 C 
BRANCH  14  15
ATOM     15  C   UNL     1      34.129   2.229   5.025  1.00  0.00     0.000 C 
BRANCH  15  16
ATOM     16  C   UNL     1      33.554   3.586   5.463  1.00  0.00     0.000 C 
BRANCH  16  17
ATOM     17  C   UNL     1      33.636   3.808   6.984  1.00  0.00    -0.000 C 
BRANCH  17  18
ATOM     18  C   UNL     1      34.638   2.900   7.727  1.00  0.00    -0.000 C 
BRANCH  18  19
ATOM     19  C   UNL     1      34.026   2.024   8.833  1.00  0.00    -0.003 C 
ATOM     20  C   UNL     1      33.509   0.683   8.312  1.00  0.00     0.004 C 
ENDBRANCH  18  19
ENDBRANCH  17  18
ENDBRANCH  16  17
ENDBRANCH  15  16
ENDBRANCH  14  15
ENDBRANCH  13  14
ENDBRANCH   2  13
TORSDOF 15
ENDMDL
MODEL 4
REMARK VINA RESULT:    -5.222      1.155      3.093
REMARK INTER + INTRA:         -12.974
REMARK INTER:                 -10.469
REMARK INTRA:                  -2.505
REMARK UNBOUND:                -3.172
REMARK SMILES CCCCCCCCC=CCCCCCCCC(=O)[O-]
REMARK SMILES IDX 10 1 9 2 11 3 12 4 13 5 14 6 15 7 16 8 17 9 18 10 19 11
REMARK SMILES IDX 20 12 8 13 7 14 6 15 5 16 4 17 3 18 2 19 1 20
REMARK H PARENT
REMARK Flexibility Score: inf
ROOT
ATOM      1  C   UNL     1      34.315  -0.265   5.461  1.00  0.00    -0.031 C 
ATOM      2  C   UNL     1      35.206  -0.115   6.460  1.00  0.00    -0.031 C 
ENDROOT
BRANCH   1   3
ATOM      3  C   UNL     1      34.636  -0.754   4.066  1.00  0.00     0.027 C 
BRANCH   3   4
ATOM      4  C   UNL     1      34.746   0.403   3.058  1.00  0.00     0.004 C 
BRANCH   4   5
ATOM      5  C   UNL     1      34.833   1.808   3.683  1.00  0.00     0.000 C 
BRANCH   5   6
ATOM      6  C   UNL     1      36.229   2.439   3.546  1.00  0.00     0.000 C 
BRANCH   6   7
ATOM      7  C   UNL     1      37.312   1.403   3.202  1.00  0.00     0.000 C 
BRANCH   7   8
ATOM      8  C   UNL     1      38.696   2.039   2.989  1.00  0.00     0.006 C 
BRANCH   8   9
ATOM      9  C   UNL     1      39.284   2.594   4.294  1.00  0.00     0.053 C 
BRANCH   9  10
ATOM     10  C   UNL     1      40.522   3.400   4.047  1.00  0.00     0.041 C 
ATOM     11  O   UNL     1      40.443   4.530   3.497  1.00  0.00    -0.550 OA
ATOM     12  O   UNL     1      41.759   2.919   4.457  1.00  0.00    -0.550 OA
ENDBRANCH   9  10
ENDBRANCH   8   9
ENDBRANCH   7   8
ENDBRANCH   6   7
ENDBRANCH   5   6
ENDBRANCH   4   5
ENDBRANCH   3   4
ENDBRANCH   1   3
BRANCH   2  13
ATOM     13  C   UNL     1      36.685  -0.391   6.356  1.00  0.00     0.027 C 
BRANCH  13  14
ATOM     14  C   UNL     1      37.513   0.757   6.952  1.00  0.00     0.004 C 
BRANCH  14  15
ATOM     15  C   UNL     1      36.671   2.011   7.238  1.00  0.00     0.000 C 
BRANCH  15  16
ATOM     16  C   UNL     1      37.522   3.289   7.321  1.00  0.00     0.000 C 
BRANCH  16  17
ATOM     17  C   UNL     1      36.762   4.474   7.943  1.00  0.00    -0.000 C 
BRANCH  17  18
ATOM     18  C   UNL     1      35.281   4.202   8.279  1.00  0.00    -0.000 C 
BRANCH  18  19
ATOM     19  C   UNL     1      34.268   4.824   7.303  1.00  0.00    -0.003 C 
ATOM     20  C   UNL     1      33.516   3.780   6.479  1.00  0.00     0.004 C 
ENDBRANCH  18  19
ENDBRANCH  17  18
ENDBRANCH  16  17
ENDBRANCH  15  16
ENDBRANCH  14  15
ENDBRANCH  13  14
ENDBRANCH   2  13
TORSDOF 15
ENDMDL
MODEL 5
REMARK VINA RESULT:    -5.192     14.775     18.228
REMARK INTER + INTRA:         -12.917
REMARK INTER:                  -9.763
REMARK INTRA:                  -3.154
REMARK UNBOUND:                -3.172
REMARK SMILES CCCCCCCCC=CCCCCCCCC(=O)[O-]
REMARK SMILES IDX 10 1 9 2 11 3 12 4 13 5 14 6 15 7 16 8 17 9 18 10 19 11
REMARK SMILES IDX 20 12 8 13 7 14 6 15 5 16 4 17 3 18 2 19 1 20
REMARK H PARENT
REMARK Flexibility Score: inf
ROOT
ATOM      1  C   UNL     1      44.327  11.396  -8.795  1.00  0.00    -0.031 C 
ATOM      2  C   UNL     1      44.289  10.099  -9.156  1.00  0.00    -0.031 C 
ENDROOT
BRANCH   1   3
ATOM      3  C   UNL     1      45.458  12.356  -9.089  1.00  0.00     0.027 C 
BRANCH   3   4
ATOM      4  C   UNL     1      45.922  13.107  -7.829  1.00  0.00     0.004 C 
BRANCH   4   5
ATOM      5  C   UNL     1      47.062  12.428  -7.046  1.00  0.00     0.000 C 
BRANCH   5   6
ATOM      6  C   UNL     1      46.783  12.343  -5.535  1.00  0.00     0.000 C 
BRANCH   6   7
ATOM      7  C   UNL     1      45.666  11.340  -5.199  1.00  0.00     0.000 C 
BRANCH   7   8
ATOM      8  C   UNL     1      46.090   9.880  -5.434  1.00  0.00     0.006 C 
BRANCH   8   9
ATOM      9  C   UNL     1      44.884   8.954  -5.643  1.00  0.00     0.053 C 
BRANCH   9  10
ATOM     10  C   UNL     1      45.213   7.531  -5.314  1.00  0.00     0.041 C 
ATOM     11  O   UNL     1      46.237   6.987  -5.805  1.00  0.00    -0.550 OA
ATOM     12  O   UNL     1      44.410   6.815  -4.434  1.00  0.00    -0.550 OA
ENDBRANCH   9  10
ENDBRANCH   8   9
ENDBRANCH   7   8
ENDBRANCH   6   7
ENDBRANCH   5   6
ENDBRANCH   4   5
ENDBRANCH   3   4
ENDBRANCH   1   3
BRANCH   2  13
ATOM     13  C   UNL     1      45.381   9.371  -9.901  1.00  0.00     0.027 C 
BRANCH  13  14
ATOM     14  C   UNL     1      46.329   8.643  -8.937  1.00  0.00     0.004 C 
BRANCH  14  15
ATOM     15  C   UNL     1      47.670   9.373  -8.758  1.00  0.00     0.000 C 
BRANCH  15  16
ATOM     16  C   UNL     1      48.663   8.583  -7.889  1.00  0.00     0.000 C 
BRANCH  16  17
ATOM     17  C   UNL     1      49.703   9.485  -7.200  1.00  0.00    -0.000 C 
BRANCH  17  18
ATOM     18  C   UNL     1      49.814   9.310  -5.671  1.00  0.00    -0.000 C 
BRANCH  18  19
ATOM     19  C   UNL     1      49.924  10.620  -4.872  1.00  0.00    -0.003 C 
ATOM     20  C   UNL     1      50.514  11.768  -5.691  1.00  0.00     0.004 C 
ENDBRANCH  18  19
ENDBRANCH  17  18
ENDBRANCH  16  17
ENDBRANCH  15  16
ENDBRANCH  14  15
ENDBRANCH  13  14
ENDBRANCH   2  13
TORSDOF 15
ENDMDL
MODEL 6
REMARK VINA RESULT:    -5.192      1.625      4.769
REMARK INTER + INTRA:         -12.916
REMARK INTER:                 -10.060
REMARK INTRA:                  -2.856
REMARK UNBOUND:                -3.172
REMARK SMILES CCCCCCCCC=CCCCCCCCC(=O)[O-]
REMARK SMILES IDX 10 1 9 2 11 3 12 4 13 5 14 6 15 7 16 8 17 9 18 10 19 11
REMARK SMILES IDX 20 12 8 13 7 14 6 15 5 16 4 17 3 18 2 19 1 20
REMARK H PARENT
REMARK Flexibility Score: inf
ROOT
ATOM      1  C   UNL     1      33.871   4.101   7.231  1.00  0.00    -0.031 C 
ATOM      2  C   UNL     1      34.796   4.426   8.155  1.00  0.00    -0.031 C 
ENDROOT
BRANCH   1   3
ATOM      3  C   UNL     1      33.987   4.360   5.746  1.00  0.00     0.027 C 
BRANCH   3   4
ATOM      4  C   UNL     1      33.130   3.386   4.919  1.00  0.00     0.004 C 
BRANCH   4   5
ATOM      5  C   UNL     1      33.645   3.110   3.494  1.00  0.00     0.000 C 
BRANCH   5   6
ATOM      6  C   UNL     1      34.601   1.907   3.425  1.00  0.00     0.000 C 
BRANCH   6   7
ATOM      7  C   UNL     1      36.079   2.330   3.391  1.00  0.00     0.000 C 
BRANCH   7   8
ATOM      8  C   UNL     1      37.005   1.210   2.888  1.00  0.00     0.006 C 
BRANCH   8   9
ATOM      9  C   UNL     1      38.480   1.493   3.207  1.00  0.00     0.053 C 
BRANCH   9  10
ATOM     10  C   UNL     1      39.175   2.170   2.067  1.00  0.00     0.041 C 
ATOM     11  O   UNL     1      38.650   2.183   0.922  1.00  0.00    -0.550 OA
ATOM     12  O   UNL     1      40.385   2.820   2.275  1.00  0.00    -0.550 OA
ENDBRANCH   9  10
ENDBRANCH   8   9
ENDBRANCH   7   8
ENDBRANCH   6   7
ENDBRANCH   5   6
ENDBRANCH   4   5
ENDBRANCH   3   4
ENDBRANCH   1   3
BRANCH   2  13
ATOM     13  C   UNL     1      36.102   5.124   7.871  1.00  0.00     0.027 C 
BRANCH  13  14
ATOM     14  C   UNL     1      37.289   4.152   7.954  1.00  0.00     0.004 C 
BRANCH  14  15
ATOM     15  C   UNL     1      37.485   3.342   6.662  1.00  0.00     0.000 C 
BRANCH  15  16
ATOM     16  C   UNL     1      38.268   2.039   6.893  1.00  0.00     0.000 C 
BRANCH  16  17
ATOM     17  C   UNL     1      37.411   0.779   6.678  1.00  0.00    -0.000 C 
BRANCH  17  18
ATOM     18  C   UNL     1      35.894   0.973   6.887  1.00  0.00    -0.000 C 
BRANCH  18  19
ATOM     19  C   UNL     1      35.028  -0.251   6.543  1.00  0.00    -0.003 C 
ATOM     20  C   UNL     1      33.531   0.050   6.579  1.00  0.00     0.004 C 
ENDBRANCH  18  19
ENDBRANCH  17  18
ENDBRANCH  16  17
ENDBRANCH  15  16
ENDBRANCH  14  15
ENDBRANCH  13  14
ENDBRANCH   2  13
TORSDOF 15
ENDMDL
MODEL 7
REMARK VINA RESULT:    -5.179     14.914     18.622
REMARK INTER + INTRA:         -12.891
REMARK INTER:                  -9.791
REMARK INTRA:                  -3.101
REMARK UNBOUND:                -3.172
REMARK SMILES CCCCCCCCC=CCCCCCCCC(=O)[O-]
REMARK SMILES IDX 10 1 9 2 11 3 12 4 13 5 14 6 15 7 16 8 17 9 18 10 19 11
REMARK SMILES IDX 20 12 8 13 7 14 6 15 5 16 4 17 3 18 2 19 1 20
REMARK H PARENT
REMARK Flexibility Score: inf
ROOT
ATOM      1  C   UNL     1      48.589  12.074  -4.925  1.00  0.00    -0.031 C 
ATOM      2  C   UNL     1      47.269  11.894  -5.126  1.00  0.00    -0.031 C 
ENDROOT
BRANCH   1   3
ATOM      3  C   UNL     1      49.658  11.978  -5.990  1.00  0.00     0.027 C 
BRANCH   3   4
ATOM      4  C   UNL     1      50.268  10.568  -6.073  1.00  0.00     0.004 C 
BRANCH   4   5
ATOM      5  C   UNL     1      49.973   9.805  -7.379  1.00  0.00     0.000 C 
BRANCH   5   6
ATOM      6  C   UNL     1      49.260   8.463  -7.140  1.00  0.00     0.000 C 
BRANCH   6   7
ATOM      7  C   UNL     1      47.975   8.325  -7.973  1.00  0.00     0.000 C 
BRANCH   7   8
ATOM      8  C   UNL     1      46.771   7.864  -7.134  1.00  0.00     0.006 C 
BRANCH   8   9
ATOM      9  C   UNL     1      46.999   8.075  -5.631  1.00  0.00     0.053 C 
BRANCH   9  10
ATOM     10  C   UNL     1      46.234   7.084  -4.808  1.00  0.00     0.041 C 
ATOM     11  O   UNL     1      45.876   7.376  -3.637  1.00  0.00    -0.550 OA
ATOM     12  O   UNL     1      45.884   5.853  -5.349  1.00  0.00    -0.550 OA
ENDBRANCH   9  10
ENDBRANCH   8   9
ENDBRANCH   7   8
ENDBRANCH   6   7
ENDBRANCH   5   6
ENDBRANCH   4   5
ENDBRANCH   3   4
ENDBRANCH   1   3
BRANCH   2  13
ATOM     13  C   UNL     1      46.629  11.546  -6.447  1.00  0.00     0.027 C 
BRANCH  13  14
ATOM     14  C   UNL     1      46.031  12.787  -7.126  1.00  0.00     0.004 C 
BRANCH  14  15
ATOM     15  C   UNL     1      46.229  12.783  -8.650  1.00  0.00     0.000 C 
BRANCH  15  16
ATOM     16  C   UNL     1      47.478  11.997  -9.083  1.00  0.00     0.000 C 
BRANCH  16  17
ATOM     17  C   UNL     1      47.204  11.036 -10.254  1.00  0.00    -0.000 C 
BRANCH  17  18
ATOM     18  C   UNL     1      45.714  10.796 -10.572  1.00  0.00    -0.000 C 
BRANCH  18  19
ATOM     19  C   UNL     1      45.133   9.486 -10.014  1.00  0.00    -0.003 C 
ATOM     20  C   UNL     1      44.130   9.715  -8.883  1.00  0.00     0.004 C 
ENDBRANCH  18  19
ENDBRANCH  17  18
ENDBRANCH  16  17
ENDBRANCH  15  16
ENDBRANCH  14  15
ENDBRANCH  13  14
ENDBRANCH   2  13
TORSDOF 15
ENDMDL
MODEL 8
REMARK VINA RESULT:    -5.130      1.156      4.400
REMARK INTER + INTRA:         -12.801
REMARK INTER:                  -9.647
REMARK INTRA:                  -3.155
REMARK UNBOUND:                -3.172
REMARK SMILES CCCCCCCCC=CCCCCCCCC(=O)[O-]
REMARK SMILES IDX 10 1 9 2 11 3 12 4 13 5 14 6 15 7 16 8 17 9 18 10 19 11
REMARK SMILES IDX 20 12 8 13 7 14 6 15 5 16 4 17 3 18 2 19 1 20
REMARK H PARENT
REMARK Flexibility Score: inf
ROOT
ATOM      1  C   UNL     1      33.500   4.120   5.412  1.00  0.00    -0.031 C 
ATOM      2  C   UNL     1      33.887   4.486   6.649  1.00  0.00    -0.031 C 
ENDROOT
BRANCH   1   3
ATOM      3  C   UNL     1      33.576   2.718   4.849  1.00  0.00     0.027 C 
BRANCH   3   4
ATOM      4  C   UNL     1      34.438   2.651   3.577  1.00  0.00     0.004 C 
BRANCH   4   5
ATOM      5  C   UNL     1      35.351   3.869   3.341  1.00  0.00     0.000 C 
BRANCH   5   6
ATOM      6  C   UNL     1      36.836   3.563   3.602  1.00  0.00     0.000 C 
BRANCH   6   7
ATOM      7  C   UNL     1      37.245   2.166   3.106  1.00  0.00     0.000 C 
BRANCH   7   8
ATOM      8  C   UNL     1      38.675   1.784   3.525  1.00  0.00     0.006 C 
BRANCH   8   9
ATOM      9  C   UNL     1      39.294   2.815   4.478  1.00  0.00     0.053 C 
BRANCH   9  10
ATOM     10  C   UNL     1      40.515   3.452   3.891  1.00  0.00     0.041 C 
ATOM     11  O   UNL     1      40.476   4.644   3.485  1.00  0.00    -0.550 OA
ATOM     12  O   UNL     1      41.708   2.742   3.824  1.00  0.00    -0.550 OA
ENDBRANCH   9  10
ENDBRANCH   8   9
ENDBRANCH   7   8
ENDBRANCH   6   7
ENDBRANCH   5   6
ENDBRANCH   4   5
ENDBRANCH   3   4
ENDBRANCH   1   3
BRANCH   2  13
ATOM     13  C   UNL     1      34.481   3.564   7.684  1.00  0.00     0.027 C 
BRANCH  13  14
ATOM     14  C   UNL     1      35.974   3.853   7.902  1.00  0.00     0.004 C 
BRANCH  14  15
ATOM     15  C   UNL     1      36.885   2.854   7.171  1.00  0.00     0.000 C 
BRANCH  15  16
ATOM     16  C   UNL     1      36.287   1.438   7.115  1.00  0.00     0.000 C 
BRANCH  16  17
ATOM     17  C   UNL     1      37.294   0.382   6.625  1.00  0.00    -0.000 C 
BRANCH  17  18
ATOM     18  C   UNL     1      36.737  -0.635   5.606  1.00  0.00    -0.000 C 
BRANCH  18  19
ATOM     19  C   UNL     1      35.227  -0.523   5.335  1.00  0.00    -0.003 C 
ATOM     20  C   UNL     1      34.837  -0.995   3.935  1.00  0.00     0.004 C 
ENDBRANCH  18  19
ENDBRANCH  17  18
ENDBRANCH  16  17
ENDBRANCH  15  16
ENDBRANCH  14  15
ENDBRANCH  13  14
ENDBRANCH   2  13
TORSDOF 15
ENDMDL
MODEL 9
REMARK VINA RESULT:    -5.113      1.319      1.977
REMARK INTER + INTRA:         -12.768
REMARK INTER:                 -10.245
REMARK INTRA:                  -2.523
REMARK UNBOUND:                -3.172
REMARK SMILES CCCCCCCCC=CCCCCCCCC(=O)[O-]
REMARK SMILES IDX 10 1 9 2 11 3 12 4 13 5 14 6 15 7 16 8 17 9 18 10 19 11
REMARK SMILES IDX 20 12 8 13 7 14 6 15 5 16 4 17 3 18 2 19 1 20
REMARK H PARENT
REMARK Flexibility Score: inf
ROOT
ATOM      1  C   UNL     1      34.611  -0.209   3.946  1.00  0.00    -0.031 C 
ATOM      2  C   UNL     1      34.713   0.843   3.111  1.00  0.00    -0.031 C 
ENDROOT
BRANCH   1   3
ATOM      3  C   UNL     1      34.642  -0.137   5.456  1.00  0.00     0.027 C 
BRANCH   3   4
ATOM      4  C   UNL     1      35.932  -0.741   6.039  1.00  0.00     0.004 C 
BRANCH   4   5
ATOM      5  C   UNL     1      37.224   0.022   5.694  1.00  0.00     0.000 C 
BRANCH   5   6
ATOM      6  C   UNL     1      37.853   0.718   6.914  1.00  0.00     0.000 C 
BRANCH   6   7
ATOM      7  C   UNL     1      38.252   2.173   6.619  1.00  0.00     0.000 C 
BRANCH   7   8
ATOM      8  C   UNL     1      38.304   2.480   5.112  1.00  0.00     0.006 C 
BRANCH   8   9
ATOM      9  C   UNL     1      39.693   2.957   4.666  1.00  0.00     0.053 C 
BRANCH   9  10
ATOM     10  C   UNL     1      39.982   2.576   3.248  1.00  0.00     0.041 C 
ATOM     11  O   UNL     1      39.095   2.021   2.547  1.00  0.00    -0.550 OA
ATOM     12  O   UNL     1      41.220   2.866   2.687  1.00  0.00    -0.550 OA
ENDBRANCH   9  10
ENDBRANCH   8   9
ENDBRANCH   7   8
ENDBRANCH   6   7
ENDBRANCH   5   6
ENDBRANCH   4   5
ENDBRANCH   3   4
ENDBRANCH   1   3
BRANCH   2  13
ATOM     13  C   UNL     1      34.895   2.278   3.538  1.00  0.00     0.027 C 
BRANCH  13  14
ATOM     14  C   UNL     1      33.547   3.005   3.656  1.00  0.00     0.004 C 
BRANCH  14  15
ATOM     15  C   UNL     1      33.394   3.761   4.986  1.00  0.00     0.000 C 
BRANCH  15  16
ATOM     16  C   UNL     1      34.741   3.997   5.691  1.00  0.00     0.000 C 
BRANCH  16  17
ATOM     17  C   UNL     1      34.597   4.774   7.011  1.00  0.00    -0.000 C 
BRANCH  17  18
ATOM     18  C   UNL     1      34.759   3.929   8.293  1.00  0.00    -0.000 C 
BRANCH  18  19
ATOM     19  C   UNL     1      34.954   2.422   8.057  1.00  0.00    -0.003 C 
ATOM     20  C   UNL     1      33.818   1.578   8.634  1.00  0.00     0.004 C 
ENDBRANCH  18  19
ENDBRANCH  17  18
ENDBRANCH  16  17
ENDBRANCH  15  16
ENDBRANCH  14  15
ENDBRANCH  13  14
ENDBRANCH   2  13
TORSDOF 15
ENDMDL
