MODEL 1
REMARK VINA RESULT:    -4.361      0.000      0.000
REMARK INTER + INTRA:          -5.144
REMARK INTER:                  -4.998
REMARK INTRA:                  -0.146
REMARK UNBOUND:                -0.146
REMARK SMILES O=C([O-])C=Cc1ccc(O)cc1
REMARK SMILES IDX 6 1 7 2 12 3 8 4 11 5 9 6 5 7 4 8 2 9 1 10 3 11 10 12
REMARK H PARENT 10 13
REMARK Flexibility Score: inf
ROOT
ATOM      1  C   UNL     1      28.591  32.181  23.501  1.00  0.00    -0.025 A 
ATOM      2  C   UNL     1      28.027  33.402  23.908  1.00  0.00     0.012 A 
ATOM      3  C   UNL     1      29.124  32.079  22.200  1.00  0.00     0.012 A 
ATOM      4  C   UNL     1      27.972  34.489  23.030  1.00  0.00     0.047 A 
ATOM      5  C   UNL     1      29.068  33.169  21.325  1.00  0.00     0.047 A 
ATOM      6  C   UNL     1      28.490  34.373  21.734  1.00  0.00     0.115 A 
ENDROOT
BRANCH   1   7
ATOM      7  C   UNL     1      28.635  31.061  24.473  1.00  0.00     0.010 C 
ATOM      8  C   UNL     1      28.926  31.212  25.772  1.00  0.00     0.025 C 
BRANCH   8   9
ATOM      9  C   UNL     1      28.970  30.070  26.697  1.00  0.00     0.064 C 
ATOM     10  O   UNL     1      28.982  30.276  27.939  1.00  0.00    -0.545 OA
ATOM     11  O   UNL     1      28.994  28.762  26.224  1.00  0.00    -0.545 OA
ENDBRANCH   8   9
ENDBRANCH   1   7
BRANCH   6  12
ATOM     12  O   UNL     1      28.441  35.449  20.850  1.00  0.00    -0.508 OA
ATOM     13  H   UNL     1      28.907  36.325  21.056  1.00  0.00     0.293 HD
ENDBRANCH   6  12
TORSDOF 3
ENDMDL
MODEL 2
REMARK VINA RESULT:    -4.092      2.303      6.690
REMARK INTER + INTRA:          -4.836
REMARK INTER:                  -4.685
REMARK INTRA:                  -0.152
REMARK UNBOUND:                -0.146
REMARK SMILES O=C([O-])C=Cc1ccc(O)cc1
REMARK SMILES IDX 6 1 7 2 12 3 8 4 11 5 9 6 5 7 4 8 2 9 1 10 3 11 10 12
REMARK H PARENT 10 13
REMARK Flexibility Score: inf
ROOT
ATOM      1  C   UNL     1      28.379  34.535  21.601  1.00  0.00    -0.025 A 
ATOM      2  C   UNL     1      27.892  34.737  22.903  1.00  0.00     0.012 A 
ATOM      3  C   UNL     1      28.988  33.302  21.286  1.00  0.00     0.012 A 
ATOM      4  C   UNL     1      28.031  33.743  23.877  1.00  0.00     0.047 A 
ATOM      5  C   UNL     1      29.125  32.311  22.263  1.00  0.00     0.047 A 
ATOM      6  C   UNL     1      28.651  32.528  23.559  1.00  0.00     0.115 A 
ENDROOT
BRANCH   1   7
ATOM      7  C   UNL     1      28.199  35.615  20.600  1.00  0.00     0.010 C 
ATOM      8  C   UNL     1      27.352  36.642  20.756  1.00  0.00     0.025 C 
BRANCH   8   9
ATOM      9  C   UNL     1      27.197  37.685  19.731  1.00  0.00     0.064 C 
ATOM     10  O   UNL     1      26.140  38.368  19.694  1.00  0.00    -0.545 OA
ATOM     11  O   UNL     1      28.201  37.933  18.801  1.00  0.00    -0.545 OA
ENDBRANCH   8   9
ENDBRANCH   1   7
BRANCH   6  12
ATOM     12  O   UNL     1      28.796  31.531  24.521  1.00  0.00    -0.508 OA
ATOM     13  H   UNL     1      27.994  31.137  25.000  1.00  0.00     0.293 HD
ENDBRANCH   6  12
TORSDOF 3
ENDMDL
MODEL 3
REMARK VINA RESULT:    -4.080      2.008      5.968
REMARK INTER + INTRA:          -4.822
REMARK INTER:                  -4.681
REMARK INTRA:                  -0.141
REMARK UNBOUND:                -0.146
REMARK SMILES O=C([O-])C=Cc1ccc(O)cc1
REMARK SMILES IDX 6 1 7 2 12 3 8 4 11 5 9 6 5 7 4 8 2 9 1 10 3 11 10 12
REMARK H PARENT 10 13
REMARK Flexibility Score: inf
ROOT
ATOM      1  C   UNL     1      28.109  30.218  24.608  1.00  0.00    -0.025 A 
ATOM      2  C   UNL     1      27.582  29.035  24.064  1.00  0.00     0.012 A 
ATOM      3  C   UNL     1      28.886  30.138  25.783  1.00  0.00     0.012 A 
ATOM      4  C   UNL     1      27.800  27.803  24.690  1.00  0.00     0.047 A 
ATOM      5  C   UNL     1      29.103  28.905  26.405  1.00  0.00     0.047 A 
ATOM      6  C   UNL     1      28.560  27.737  25.864  1.00  0.00     0.115 A 
ENDROOT
BRANCH   1   7
ATOM      7  C   UNL     1      27.858  31.498  23.902  1.00  0.00     0.010 C 
ATOM      8  C   UNL     1      28.514  32.636  24.165  1.00  0.00     0.025 C 
BRANCH   8   9
ATOM      9  C   UNL     1      28.223  33.886  23.446  1.00  0.00     0.064 C 
ATOM     10  O   UNL     1      28.893  34.184  22.423  1.00  0.00    -0.545 OA
ATOM     11  O   UNL     1      27.217  34.744  23.877  1.00  0.00    -0.545 OA
ENDBRANCH   8   9
ENDBRANCH   1   7
BRANCH   6  12
ATOM     12  O   UNL     1      28.785  26.516  26.497  1.00  0.00    -0.508 OA
ATOM     13  H   UNL     1      29.715  26.230  26.780  1.00  0.00     0.293 HD
ENDBRANCH   6  12
TORSDOF 3
ENDMDL
MODEL 4
REMARK VINA RESULT:    -3.945      3.667      5.343
REMARK INTER + INTRA:          -4.668
REMARK INTER:                  -4.519
REMARK INTRA:                  -0.150
REMARK UNBOUND:                -0.146
REMARK SMILES O=C([O-])C=Cc1ccc(O)cc1
REMARK SMILES IDX 6 1 7 2 12 3 8 4 11 5 9 6 5 7 4 8 2 9 1 10 3 11 10 12
REMARK H PARENT 10 13
REMARK Flexibility Score: inf
ROOT
ATOM      1  C   UNL     1      28.118  36.343  20.167  1.00  0.00    -0.025 A 
ATOM      2  C   UNL     1      26.933  37.010  20.522  1.00  0.00     0.012 A 
ATOM      3  C   UNL     1      28.941  36.904  19.169  1.00  0.00     0.012 A 
ATOM      4  C   UNL     1      26.563  38.196  19.878  1.00  0.00     0.047 A 
ATOM      5  C   UNL     1      28.568  38.090  18.529  1.00  0.00     0.047 A 
ATOM      6  C   UNL     1      27.380  38.737  18.878  1.00  0.00     0.115 A 
ENDROOT
BRANCH   1   7
ATOM      7  C   UNL     1      28.471  35.094  20.886  1.00  0.00     0.010 C 
ATOM      8  C   UNL     1      28.083  34.820  22.139  1.00  0.00     0.025 C 
BRANCH   8   9
ATOM      9  C   UNL     1      28.468  33.573  22.817  1.00  0.00     0.064 C 
ATOM     10  O   UNL     1      28.244  33.441  24.049  1.00  0.00    -0.545 OA
ATOM     11  O   UNL     1      29.072  32.533  22.119  1.00  0.00    -0.545 OA
ENDBRANCH   8   9
ENDBRANCH   1   7
BRANCH   6  12
ATOM     12  O   UNL     1      27.022  39.917  18.229  1.00  0.00    -0.508 OA
ATOM     13  H   UNL     1      27.706  40.476  17.731  1.00  0.00     0.293 HD
ENDBRANCH   6  12
TORSDOF 3
ENDMDL
MODEL 5
REMARK VINA RESULT:    -3.879      2.706      3.885
REMARK INTER + INTRA:          -4.593
REMARK INTER:                  -4.452
REMARK INTRA:                  -0.141
REMARK UNBOUND:                -0.146
REMARK SMILES O=C([O-])C=Cc1ccc(O)cc1
REMARK SMILES IDX 6 1 7 2 12 3 8 4 11 5 9 6 5 7 4 8 2 9 1 10 3 11 10 12
REMARK H PARENT 10 13
REMARK Flexibility Score: inf
ROOT
ATOM      1  C   UNL     1      28.896  29.280  24.476  1.00  0.00    -0.025 A 
ATOM      2  C   UNL     1      29.062  29.601  23.118  1.00  0.00     0.012 A 
ATOM      3  C   UNL     1      28.690  30.324  25.401  1.00  0.00     0.012 A 
ATOM      4  C   UNL     1      29.050  30.934  22.695  1.00  0.00     0.047 A 
ATOM      5  C   UNL     1      28.678  31.655  24.974  1.00  0.00     0.047 A 
ATOM      6  C   UNL     1      28.860  31.965  23.624  1.00  0.00     0.115 A 
ENDROOT
BRANCH   1   7
ATOM      7  C   UNL     1      28.907  27.850  24.873  1.00  0.00     0.010 C 
ATOM      8  C   UNL     1      27.970  27.284  25.645  1.00  0.00     0.025 C 
BRANCH   8   9
ATOM      9  C   UNL     1      28.027  25.864  26.024  1.00  0.00     0.064 C 
ATOM     10  O   UNL     1      29.123  25.248  25.957  1.00  0.00    -0.545 OA
ATOM     11  O   UNL     1      26.892  25.190  26.458  1.00  0.00    -0.545 OA
ENDBRANCH   8   9
ENDBRANCH   1   7
BRANCH   6  12
ATOM     12  O   UNL     1      28.846  33.296  23.215  1.00  0.00    -0.508 OA
ATOM     13  H   UNL     1      28.201  33.967  23.618  1.00  0.00     0.293 HD
ENDBRANCH   6  12
TORSDOF 3
ENDMDL
MODEL 6
REMARK VINA RESULT:    -3.841      4.785      7.151
REMARK INTER + INTRA:          -4.549
REMARK INTER:                  -4.410
REMARK INTRA:                  -0.139
REMARK UNBOUND:                -0.146
REMARK SMILES O=C([O-])C=Cc1ccc(O)cc1
REMARK SMILES IDX 6 1 7 2 12 3 8 4 11 5 9 6 5 7 4 8 2 9 1 10 3 11 10 12
REMARK H PARENT 10 13
REMARK Flexibility Score: inf
ROOT
ATOM      1  C   UNL     1      27.205  38.107  20.084  1.00  0.00    -0.025 A 
ATOM      2  C   UNL     1      26.627  39.119  20.868  1.00  0.00     0.012 A 
ATOM      3  C   UNL     1      27.725  38.442  18.816  1.00  0.00     0.012 A 
ATOM      4  C   UNL     1      26.544  40.431  20.390  1.00  0.00     0.047 A 
ATOM      5  C   UNL     1      27.641  39.755  18.342  1.00  0.00     0.047 A 
ATOM      6  C   UNL     1      27.049  40.751  19.124  1.00  0.00     0.115 A 
ENDROOT
BRANCH   1   7
ATOM      7  C   UNL     1      27.278  36.733  20.639  1.00  0.00     0.010 C 
ATOM      8  C   UNL     1      28.326  35.915  20.468  1.00  0.00     0.025 C 
BRANCH   8   9
ATOM      9  C   UNL     1      28.350  34.555  21.028  1.00  0.00     0.064 C 
ATOM     10  O   UNL     1      28.618  33.579  20.278  1.00  0.00    -0.545 OA
ATOM     11  O   UNL     1      28.083  34.328  22.374  1.00  0.00    -0.545 OA
ENDBRANCH   8   9
ENDBRANCH   1   7
BRANCH   6  12
ATOM     12  O   UNL     1      26.973  42.054  18.637  1.00  0.00    -0.508 OA
ATOM     13  H   UNL     1      26.371  42.746  19.069  1.00  0.00     0.293 HD
ENDBRANCH   6  12
TORSDOF 3
ENDMDL
MODEL 7
REMARK VINA RESULT:    -3.746      1.128      5.785
REMARK INTER + INTRA:          -4.440
REMARK INTER:                  -4.301
REMARK INTRA:                  -0.139
REMARK UNBOUND:                -0.146
REMARK SMILES O=C([O-])C=Cc1ccc(O)cc1
REMARK SMILES IDX 6 1 7 2 12 3 8 4 11 5 9 6 5 7 4 8 2 9 1 10 3 11 10 12
REMARK H PARENT 10 13
REMARK Flexibility Score: inf
ROOT
ATOM      1  C   UNL     1      28.698  32.239  23.780  1.00  0.00    -0.025 A 
ATOM      2  C   UNL     1      28.979  32.379  25.150  1.00  0.00     0.012 A 
ATOM      3  C   UNL     1      28.539  30.943  23.248  1.00  0.00     0.012 A 
ATOM      4  C   UNL     1      29.125  31.253  25.965  1.00  0.00     0.047 A 
ATOM      5  C   UNL     1      28.686  29.819  24.066  1.00  0.00     0.047 A 
ATOM      6  C   UNL     1      28.981  29.969  25.424  1.00  0.00     0.115 A 
ENDROOT
BRANCH   1   7
ATOM      7  C   UNL     1      28.542  33.465  22.958  1.00  0.00     0.010 C 
ATOM      8  C   UNL     1      28.772  33.512  21.639  1.00  0.00     0.025 C 
BRANCH   8   9
ATOM      9  C   UNL     1      28.616  34.754  20.867  1.00  0.00     0.064 C 
ATOM     10  O   UNL     1      29.109  34.832  19.711  1.00  0.00    -0.545 OA
ATOM     11  O   UNL     1      27.929  35.844  21.390  1.00  0.00    -0.545 OA
ENDBRANCH   8   9
ENDBRANCH   1   7
BRANCH   6  12
ATOM     12  O   UNL     1      29.124  28.839  26.226  1.00  0.00    -0.508 OA
ATOM     13  H   UNL     1      28.671  27.963  25.993  1.00  0.00     0.293 HD
ENDBRANCH   6  12
TORSDOF 3
ENDMDL
MODEL 8
REMARK VINA RESULT:    -3.732      4.222      6.586
REMARK INTER + INTRA:          -4.424
REMARK INTER:                  -4.289
REMARK INTRA:                  -0.135
REMARK UNBOUND:                -0.146
REMARK SMILES O=C([O-])C=Cc1ccc(O)cc1
REMARK SMILES IDX 6 1 7 2 12 3 8 4 11 5 9 6 5 7 4 8 2 9 1 10 3 11 10 12
REMARK H PARENT 10 13
REMARK Flexibility Score: inf
ROOT
ATOM      1  C   UNL     1      27.252  37.427  20.427  1.00  0.00    -0.025 A 
ATOM      2  C   UNL     1      28.113  38.534  20.348  1.00  0.00     0.012 A 
ATOM      3  C   UNL     1      25.877  37.649  20.647  1.00  0.00     0.012 A 
ATOM      4  C   UNL     1      27.620  39.833  20.510  1.00  0.00     0.047 A 
ATOM      5  C   UNL     1      25.387  38.948  20.808  1.00  0.00     0.047 A 
ATOM      6  C   UNL     1      26.255  40.042  20.743  1.00  0.00     0.115 A 
ENDROOT
BRANCH   1   7
ATOM      7  C   UNL     1      27.822  36.070  20.238  1.00  0.00     0.010 C 
ATOM      8  C   UNL     1      28.149  35.251  21.248  1.00  0.00     0.025 C 
BRANCH   8   9
ATOM      9  C   UNL     1      28.723  33.918  21.013  1.00  0.00     0.064 C 
ATOM     10  O   UNL     1      28.851  33.118  21.977  1.00  0.00    -0.545 OA
ATOM     11  O   UNL     1      29.125  33.522  19.742  1.00  0.00    -0.545 OA
ENDBRANCH   8   9
ENDBRANCH   1   7
BRANCH   6  12
ATOM     12  O   UNL     1      25.751  41.331  20.907  1.00  0.00    -0.508 OA
ATOM     13  H   UNL     1      24.900  41.630  20.443  1.00  0.00     0.293 HD
ENDBRANCH   6  12
TORSDOF 3
ENDMDL
MODEL 9
REMARK VINA RESULT:    -3.617      6.444     10.366
REMARK INTER + INTRA:          -4.292
REMARK INTER:                  -4.152
REMARK INTRA:                  -0.140
REMARK UNBOUND:                -0.146
REMARK SMILES O=C([O-])C=Cc1ccc(O)cc1
REMARK SMILES IDX 6 1 7 2 12 3 8 4 11 5 9 6 5 7 4 8 2 9 1 10 3 11 10 12
REMARK H PARENT 10 13
REMARK Flexibility Score: inf
ROOT
ATOM      1  C   UNL     1      27.451  39.492  19.365  1.00  0.00    -0.025 A 
ATOM      2  C   UNL     1      26.581  38.818  20.239  1.00  0.00     0.012 A 
ATOM      3  C   UNL     1      28.561  38.799  18.841  1.00  0.00     0.012 A 
ATOM      4  C   UNL     1      26.827  37.491  20.604  1.00  0.00     0.047 A 
ATOM      5  C   UNL     1      28.803  37.472  19.209  1.00  0.00     0.047 A 
ATOM      6  C   UNL     1      27.942  36.815  20.091  1.00  0.00     0.115 A 
ENDROOT
BRANCH   1   7
ATOM      7  C   UNL     1      27.141  40.897  18.999  1.00  0.00     0.010 C 
ATOM      8  C   UNL     1      27.071  41.900  19.886  1.00  0.00     0.025 C 
BRANCH   8   9
ATOM      9  C   UNL     1      26.749  43.276  19.479  1.00  0.00     0.064 C 
ATOM     10  O   UNL     1      27.203  43.725  18.394  1.00  0.00    -0.545 OA
ATOM     11  O   UNL     1      25.948  44.090  20.272  1.00  0.00    -0.545 OA
ENDBRANCH   8   9
ENDBRANCH   1   7
BRANCH   6  12
ATOM     12  O   UNL     1      28.197  35.493  20.448  1.00  0.00    -0.508 OA
ATOM     13  H   UNL     1      29.129  35.097  20.381  1.00  0.00     0.293 HD
ENDBRANCH   6  12
TORSDOF 3
ENDMDL
