MODEL 1
REMARK VINA RESULT:     0.000      0.000      0.000
REMARK INTER + INTRA:          -7.683
REMARK INTER:                   0.000
REMARK INTRA:                  -7.683
REMARK UNBOUND:                -7.683
REMARK SMILES CCCCCCCCCCCCCCCCCCCCCCCCCCCCCC(=O)[O-]
REMARK SMILES IDX 16 1 17 2 18 3 19 4 20 5 21 6 22 7 23 8 24 9 25 10 26 11
REMARK SMILES IDX 27 12 28 13 29 14 30 15 31 16 32 17 15 18 14 19 13 20 12 21
REMARK SMILES IDX 11 22 10 23 9 24 8 25 7 26 6 27 5 28 4 29 3 30 2 31 1 32
REMARK H PARENT
REMARK Flexibility Score: inf
ROOT
ATOM      1  C   UNL     1     169.510 196.389 197.381  1.00  0.00     0.000 C 
ENDROOT
BRANCH   1   2
ATOM      2  C   UNL     1     170.057 197.818 197.554  1.00  0.00     0.000 C 
BRANCH   2   3
ATOM      3  C   UNL     1     171.193 197.973 198.587  1.00  0.00     0.000 C 
BRANCH   3   4
ATOM      4  C   UNL     1     170.765 198.543 199.951  1.00  0.00     0.000 C 
BRANCH   4   5
ATOM      5  C   UNL     1     170.727 197.476 201.059  1.00  0.00     0.000 C 
BRANCH   5   6
ATOM      6  C   UNL     1     169.294 197.092 201.459  1.00  0.00     0.000 C 
BRANCH   6   7
ATOM      7  C   UNL     1     169.095 195.571 201.550  1.00  0.00     0.000 C 
BRANCH   7   8
ATOM      8  C   UNL     1     170.266 194.819 200.907  1.00  0.00     0.000 C 
BRANCH   8   9
ATOM      9  C   UNL     1     170.307 193.358 201.384  1.00  0.00     0.000 C 
BRANCH   9  10
ATOM     10  C   UNL     1     171.486 193.065 202.329  1.00  0.00     0.000 C 
BRANCH  10  11
ATOM     11  C   UNL     1     172.570 192.139 201.746  1.00  0.00     0.000 C 
BRANCH  11  12
ATOM     12  C   UNL     1     172.065 191.118 200.710  1.00  0.00     0.000 C 
BRANCH  12  13
ATOM     13  C   UNL     1     173.164 190.612 199.750  1.00  0.00     0.006 C 
BRANCH  13  14
ATOM     14  C   UNL     1     174.454 191.435 199.852  1.00  0.00     0.053 C 
BRANCH  14  15
ATOM     15  C   UNL     1     174.981 191.756 198.489  1.00  0.00     0.041 C 
ATOM     16  O   UNL     1     174.443 191.255 197.467  1.00  0.00    -0.550 OA
ATOM     17  O   UNL     1     176.038 192.647 198.344  1.00  0.00    -0.550 OA
ENDBRANCH  14  15
ENDBRANCH  13  14
ENDBRANCH  12  13
ENDBRANCH  11  12
ENDBRANCH  10  11
ENDBRANCH   9  10
ENDBRANCH   8   9
ENDBRANCH   7   8
ENDBRANCH   6   7
ENDBRANCH   5   6
ENDBRANCH   4   5
ENDBRANCH   3   4
ENDBRANCH   2   3
ENDBRANCH   1   2
BRANCH   1  18
ATOM     18  C   UNL     1     168.108 196.204 197.989  1.00  0.00     0.000 C 
BRANCH  18  19
ATOM     19  C   UNL     1     167.736 194.720 198.168  1.00  0.00     0.000 C 
BRANCH  19  20
ATOM     20  C   UNL     1     168.539 193.755 197.278  1.00  0.00     0.000 C 
BRANCH  20  21
ATOM     21  C   UNL     1     168.966 192.481 198.028  1.00  0.00     0.000 C 
BRANCH  21  22
ATOM     22  C   UNL     1     170.411 192.064 197.710  1.00  0.00     0.000 C 
BRANCH  22  23
ATOM     23  C   UNL     1     171.244 193.210 197.109  1.00  0.00     0.000 C 
BRANCH  23  24
ATOM     24  C   UNL     1     172.157 193.889 198.154  1.00  0.00    -0.000 C 
BRANCH  24  25
ATOM     25  C   UNL     1     173.127 194.924 197.553  1.00  0.00    -0.000 C 
BRANCH  25  26
ATOM     26  C   UNL     1     174.041 195.627 198.574  1.00  0.00    -0.000 C 
BRANCH  26  27
ATOM     27  C   UNL     1     173.710 195.339 200.053  1.00  0.00    -0.000 C 
BRANCH  27  28
ATOM     28  C   UNL     1     174.905 194.889 200.917  1.00  0.00    -0.000 C 
BRANCH  28  29
ATOM     29  C   UNL     1     174.754 195.148 202.426  1.00  0.00    -0.000 C 
BRANCH  29  30
ATOM     30  C   UNL     1     173.554 196.052 202.759  1.00  0.00    -0.000 C 
BRANCH  30  31
ATOM     31  C   UNL     1     173.075 195.885 204.210  1.00  0.00    -0.003 C 
ATOM     32  C   UNL     1     171.577 196.148 204.372  1.00  0.00     0.004 C 
ENDBRANCH  30  31
ENDBRANCH  29  30
ENDBRANCH  28  29
ENDBRANCH  27  28
ENDBRANCH  26  27
ENDBRANCH  25  26
ENDBRANCH  24  25
ENDBRANCH  23  24
ENDBRANCH  22  23
ENDBRANCH  21  22
ENDBRANCH  20  21
ENDBRANCH  19  20
ENDBRANCH  18  19
ENDBRANCH   1  18
TORSDOF 28
ENDMDL
MODEL 2
REMARK VINA RESULT:     0.032      6.291      9.915
REMARK INTER + INTRA:          -7.600
REMARK INTER:                   0.000
REMARK INTRA:                  -7.600
REMARK UNBOUND:                -7.683
REMARK SMILES CCCCCCCCCCCCCCCCCCCCCCCCCCCCCC(=O)[O-]
REMARK SMILES IDX 16 1 17 2 18 3 19 4 20 5 21 6 22 7 23 8 24 9 25 10 26 11
REMARK SMILES IDX 27 12 28 13 29 14 30 15 31 16 32 17 15 18 14 19 13 20 12 21
REMARK SMILES IDX 11 22 10 23 9 24 8 25 7 26 6 27 5 28 4 29 3 30 2 31 1 32
REMARK H PARENT
REMARK Flexibility Score: inf
ROOT
ATOM      1  C   UNL     1     180.146 197.077 193.590  1.00  0.00     0.000 C 
ENDROOT
BRANCH   1   2
ATOM      2  C   UNL     1     181.400 197.859 194.023  1.00  0.00     0.000 C 
BRANCH   2   3
ATOM      3  C   UNL     1     181.171 198.926 195.115  1.00  0.00     0.000 C 
BRANCH   3   4
ATOM      4  C   UNL     1     181.864 198.645 196.460  1.00  0.00     0.000 C 
BRANCH   4   5
ATOM      5  C   UNL     1     180.901 198.724 197.657  1.00  0.00     0.000 C 
BRANCH   5   6
ATOM      6  C   UNL     1     179.495 199.195 197.252  1.00  0.00     0.000 C 
BRANCH   6   7
ATOM      7  C   UNL     1     178.389 198.262 197.771  1.00  0.00     0.000 C 
BRANCH   7   8
ATOM      8  C   UNL     1     177.245 198.140 196.758  1.00  0.00     0.000 C 
BRANCH   8   9
ATOM      9  C   UNL     1     177.411 199.157 195.618  1.00  0.00     0.000 C 
BRANCH   9  10
ATOM     10  C   UNL     1     176.970 198.606 194.250  1.00  0.00     0.000 C 
BRANCH  10  11
ATOM     11  C   UNL     1     176.521 197.133 194.257  1.00  0.00     0.000 C 
BRANCH  11  12
ATOM     12  C   UNL     1     175.371 196.798 193.289  1.00  0.00     0.000 C 
BRANCH  12  13
ATOM     13  C   UNL     1     175.517 195.423 192.603  1.00  0.00     0.006 C 
BRANCH  13  14
ATOM     14  C   UNL     1     176.983 195.043 192.360  1.00  0.00     0.053 C 
BRANCH  14  15
ATOM     15  C   UNL     1     177.426 195.496 191.005  1.00  0.00     0.041 C 
ATOM     16  O   UNL     1     178.652 195.560 190.727  1.00  0.00    -0.550 OA
ATOM     17  O   UNL     1     176.482 195.804 190.032  1.00  0.00    -0.550 OA
ENDBRANCH  14  15
ENDBRANCH  13  14
ENDBRANCH  12  13
ENDBRANCH  11  12
ENDBRANCH  10  11
ENDBRANCH   9  10
ENDBRANCH   8   9
ENDBRANCH   7   8
ENDBRANCH   6   7
ENDBRANCH   5   6
ENDBRANCH   4   5
ENDBRANCH   3   4
ENDBRANCH   2   3
ENDBRANCH   1   2
BRANCH   1  18
ATOM     18  C   UNL     1     180.113 195.640 194.141  1.00  0.00     0.000 C 
BRANCH  18  19
ATOM     19  C   UNL     1     179.682 195.587 195.619  1.00  0.00     0.000 C 
BRANCH  19  20
ATOM     20  C   UNL     1     180.773 195.079 196.579  1.00  0.00     0.000 C 
BRANCH  20  21
ATOM     21  C   UNL     1     180.317 195.094 198.048  1.00  0.00     0.000 C 
BRANCH  21  22
ATOM     22  C   UNL     1     180.081 193.682 198.608  1.00  0.00     0.000 C 
BRANCH  22  23
ATOM     23  C   UNL     1     178.836 193.597 199.509  1.00  0.00     0.000 C 
BRANCH  23  24
ATOM     24  C   UNL     1     178.231 194.985 199.815  1.00  0.00    -0.000 C 
BRANCH  24  25
ATOM     25  C   UNL     1     176.807 195.178 199.259  1.00  0.00    -0.000 C 
BRANCH  25  26
ATOM     26  C   UNL     1     176.354 194.107 198.249  1.00  0.00    -0.000 C 
BRANCH  26  27
ATOM     27  C   UNL     1     176.224 194.599 196.792  1.00  0.00    -0.000 C 
BRANCH  27  28
ATOM     28  C   UNL     1     176.546 193.545 195.713  1.00  0.00    -0.000 C 
BRANCH  28  29
ATOM     29  C   UNL     1     177.575 192.479 196.128  1.00  0.00    -0.000 C 
BRANCH  29  30
ATOM     30  C   UNL     1     178.546 192.115 194.990  1.00  0.00    -0.000 C 
BRANCH  30  31
ATOM     31  C   UNL     1     179.899 191.602 195.512  1.00  0.00    -0.003 C 
ATOM     32  C   UNL     1     181.064 191.972 194.595  1.00  0.00     0.004 C 
ENDBRANCH  30  31
ENDBRANCH  29  30
ENDBRANCH  28  29
ENDBRANCH  27  28
ENDBRANCH  26  27
ENDBRANCH  25  26
ENDBRANCH  24  25
ENDBRANCH  23  24
ENDBRANCH  22  23
ENDBRANCH  21  22
ENDBRANCH  20  21
ENDBRANCH  19  20
ENDBRANCH  18  19
ENDBRANCH   1  18
TORSDOF 28
ENDMDL
MODEL 3
REMARK VINA RESULT:     0.034      3.248      7.530
REMARK INTER + INTRA:          -7.593
REMARK INTER:                   0.000
REMARK INTRA:                  -7.593
REMARK UNBOUND:                -7.683
REMARK SMILES CCCCCCCCCCCCCCCCCCCCCCCCCCCCCC(=O)[O-]
REMARK SMILES IDX 16 1 17 2 18 3 19 4 20 5 21 6 22 7 23 8 24 9 25 10 26 11
REMARK SMILES IDX 27 12 28 13 29 14 30 15 31 16 32 17 15 18 14 19 13 20 12 21
REMARK SMILES IDX 11 22 10 23 9 24 8 25 7 26 6 27 5 28 4 29 3 30 2 31 1 32
REMARK H PARENT
REMARK Flexibility Score: inf
ROOT
ATOM      1  C   UNL     1     175.314 193.374 197.694  1.00  0.00     0.000 C 
ENDROOT
BRANCH   1   2
ATOM      2  C   UNL     1     174.115 192.943 196.829  1.00  0.00     0.000 C 
BRANCH   2   3
ATOM      3  C   UNL     1     172.778 192.783 197.583  1.00  0.00     0.000 C 
BRANCH   3   4
ATOM      4  C   UNL     1     172.871 192.903 199.114  1.00  0.00     0.000 C 
BRANCH   4   5
ATOM      5  C   UNL     1     172.158 194.151 199.661  1.00  0.00     0.000 C 
BRANCH   5   6
ATOM      6  C   UNL     1     173.076 195.021 200.535  1.00  0.00     0.000 C 
BRANCH   6   7
ATOM      7  C   UNL     1     174.212 194.212 201.180  1.00  0.00     0.000 C 
BRANCH   7   8
ATOM      8  C   UNL     1     175.548 194.957 201.082  1.00  0.00     0.000 C 
BRANCH   8   9
ATOM      9  C   UNL     1     175.376 196.300 200.354  1.00  0.00     0.000 C 
BRANCH   9  10
ATOM     10  C   UNL     1     176.655 196.764 199.634  1.00  0.00     0.000 C 
BRANCH  10  11
ATOM     11  C   UNL     1     176.427 197.397 198.249  1.00  0.00     0.000 C 
BRANCH  11  12
ATOM     12  C   UNL     1     174.961 197.737 197.921  1.00  0.00     0.000 C 
BRANCH  12  13
ATOM     13  C   UNL     1     174.382 196.923 196.743  1.00  0.00     0.006 C 
BRANCH  13  14
ATOM     14  C   UNL     1     172.930 196.495 196.986  1.00  0.00     0.053 C 
BRANCH  14  15
ATOM     15  C   UNL     1     172.181 196.420 195.693  1.00  0.00     0.041 C 
ATOM     16  O   UNL     1     172.078 197.438 194.960  1.00  0.00    -0.550 OA
ATOM     17  O   UNL     1     171.635 195.212 195.274  1.00  0.00    -0.550 OA
ENDBRANCH  14  15
ENDBRANCH  13  14
ENDBRANCH  12  13
ENDBRANCH  11  12
ENDBRANCH  10  11
ENDBRANCH   9  10
ENDBRANCH   8   9
ENDBRANCH   7   8
ENDBRANCH   6   7
ENDBRANCH   5   6
ENDBRANCH   4   5
ENDBRANCH   3   4
ENDBRANCH   2   3
ENDBRANCH   1   2
BRANCH   1  18
ATOM     18  C   UNL     1     176.466 193.974 196.868  1.00  0.00     0.000 C 
BRANCH  18  19
ATOM     19  C   UNL     1     177.816 193.909 197.608  1.00  0.00     0.000 C 
BRANCH  19  20
ATOM     20  C   UNL     1     177.769 193.143 198.943  1.00  0.00     0.000 C 
BRANCH  20  21
ATOM     21  C   UNL     1     179.043 192.316 199.191  1.00  0.00     0.000 C 
BRANCH  21  22
ATOM     22  C   UNL     1     178.968 191.491 200.485  1.00  0.00     0.000 C 
BRANCH  22  23
ATOM     23  C   UNL     1     177.684 191.759 201.291  1.00  0.00     0.000 C 
BRANCH  23  24
ATOM     24  C   UNL     1     176.760 190.523 201.359  1.00  0.00    -0.000 C 
BRANCH  24  25
ATOM     25  C   UNL     1     175.375 190.745 200.721  1.00  0.00    -0.000 C 
BRANCH  25  26
ATOM     26  C   UNL     1     175.176 190.072 199.350  1.00  0.00    -0.000 C 
BRANCH  26  27
ATOM     27  C   UNL     1     176.363 189.213 198.866  1.00  0.00    -0.000 C 
BRANCH  27  28
ATOM     28  C   UNL     1     177.070 189.727 197.596  1.00  0.00    -0.000 C 
BRANCH  28  29
ATOM     29  C   UNL     1     176.160 189.904 196.368  1.00  0.00    -0.000 C 
BRANCH  29  30
ATOM     30  C   UNL     1     176.831 190.708 195.240  1.00  0.00    -0.000 C 
BRANCH  30  31
ATOM     31  C   UNL     1     178.336 190.914 195.478  1.00  0.00    -0.003 C 
ATOM     32  C   UNL     1     178.926 192.022 194.606  1.00  0.00     0.004 C 
ENDBRANCH  30  31
ENDBRANCH  29  30
ENDBRANCH  28  29
ENDBRANCH  27  28
ENDBRANCH  26  27
ENDBRANCH  25  26
ENDBRANCH  24  25
ENDBRANCH  23  24
ENDBRANCH  22  23
ENDBRANCH  21  22
ENDBRANCH  20  21
ENDBRANCH  19  20
ENDBRANCH  18  19
ENDBRANCH   1  18
TORSDOF 28
ENDMDL
MODEL 4
REMARK VINA RESULT:     0.067      6.004      9.939
REMARK INTER + INTRA:          -7.507
REMARK INTER:                   0.000
REMARK INTRA:                  -7.507
REMARK UNBOUND:                -7.683
REMARK SMILES CCCCCCCCCCCCCCCCCCCCCCCCCCCCCC(=O)[O-]
REMARK SMILES IDX 16 1 17 2 18 3 19 4 20 5 21 6 22 7 23 8 24 9 25 10 26 11
REMARK SMILES IDX 27 12 28 13 29 14 30 15 31 16 32 17 15 18 14 19 13 20 12 21
REMARK SMILES IDX 11 22 10 23 9 24 8 25 7 26 6 27 5 28 4 29 3 30 2 31 1 32
REMARK H PARENT
REMARK Flexibility Score: inf
ROOT
ATOM      1  C   UNL     1     175.638 187.124 193.002  1.00  0.00     0.000 C 
ENDROOT
BRANCH   1   2
ATOM      2  C   UNL     1     175.804 186.142 191.828  1.00  0.00     0.000 C 
BRANCH   2   3
ATOM      3  C   UNL     1     175.273 184.715 192.077  1.00  0.00     0.000 C 
BRANCH   3   4
ATOM      4  C   UNL     1     174.005 184.341 191.289  1.00  0.00     0.000 C 
BRANCH   4   5
ATOM      5  C   UNL     1     172.786 184.102 192.197  1.00  0.00     0.000 C 
BRANCH   5   6
ATOM      6  C   UNL     1     173.076 184.424 193.671  1.00  0.00     0.000 C 
BRANCH   6   7
ATOM      7  C   UNL     1     171.809 184.396 194.540  1.00  0.00     0.000 C 
BRANCH   7   8
ATOM      8  C   UNL     1     171.942 185.331 195.748  1.00  0.00     0.000 C 
BRANCH   8   9
ATOM      9  C   UNL     1     173.279 186.089 195.709  1.00  0.00     0.000 C 
BRANCH   9  10
ATOM     10  C   UNL     1     173.126 187.595 195.991  1.00  0.00     0.000 C 
BRANCH  10  11
ATOM     11  C   UNL     1     174.442 188.336 196.293  1.00  0.00     0.000 C 
BRANCH  11  12
ATOM     12  C   UNL     1     174.282 189.821 196.667  1.00  0.00     0.000 C 
BRANCH  12  13
ATOM     13  C   UNL     1     172.905 190.411 196.294  1.00  0.00     0.006 C 
BRANCH  13  14
ATOM     14  C   UNL     1     172.123 190.892 197.523  1.00  0.00     0.053 C 
BRANCH  14  15
ATOM     15  C   UNL     1     172.949 191.842 198.332  1.00  0.00     0.041 C 
ATOM     16  O   UNL     1     173.260 192.968 197.863  1.00  0.00    -0.550 OA
ATOM     17  O   UNL     1     173.336 191.502 199.622  1.00  0.00    -0.550 OA
ENDBRANCH  14  15
ENDBRANCH  13  14
ENDBRANCH  12  13
ENDBRANCH  11  12
ENDBRANCH  10  11
ENDBRANCH   9  10
ENDBRANCH   8   9
ENDBRANCH   7   8
ENDBRANCH   6   7
ENDBRANCH   5   6
ENDBRANCH   4   5
ENDBRANCH   3   4
ENDBRANCH   2   3
ENDBRANCH   1   2
BRANCH   1  18
ATOM     18  C   UNL     1     174.757 188.337 192.652  1.00  0.00     0.000 C 
BRANCH  18  19
ATOM     19  C   UNL     1     173.449 187.930 191.948  1.00  0.00     0.000 C 
BRANCH  19  20
ATOM     20  C   UNL     1     172.171 188.377 192.681  1.00  0.00     0.000 C 
BRANCH  20  21
ATOM     21  C   UNL     1     171.021 187.365 192.528  1.00  0.00     0.000 C 
BRANCH  21  22
ATOM     22  C   UNL     1     169.905 187.579 193.561  1.00  0.00     0.000 C 
BRANCH  22  23
ATOM     23  C   UNL     1     170.040 188.912 194.319  1.00  0.00     0.000 C 
BRANCH  23  24
ATOM     24  C   UNL     1     169.576 188.808 195.788  1.00  0.00    -0.000 C 
BRANCH  24  25
ATOM     25  C   UNL     1     168.911 187.462 196.136  1.00  0.00    -0.000 C 
BRANCH  25  26
ATOM     26  C   UNL     1     169.214 186.935 197.551  1.00  0.00    -0.000 C 
BRANCH  26  27
ATOM     27  C   UNL     1     170.121 187.844 198.405  1.00  0.00    -0.000 C 
BRANCH  27  28
ATOM     28  C   UNL     1     171.308 187.132 199.085  1.00  0.00    -0.000 C 
BRANCH  28  29
ATOM     29  C   UNL     1     172.269 188.056 199.855  1.00  0.00    -0.000 C 
BRANCH  29  30
ATOM     30  C   UNL     1     173.737 187.604 199.755  1.00  0.00    -0.000 C 
BRANCH  30  31
ATOM     31  C   UNL     1     173.872 186.107 199.432  1.00  0.00    -0.003 C 
ATOM     32  C   UNL     1     175.260 185.738 198.908  1.00  0.00     0.004 C 
ENDBRANCH  30  31
ENDBRANCH  29  30
ENDBRANCH  28  29
ENDBRANCH  27  28
ENDBRANCH  26  27
ENDBRANCH  25  26
ENDBRANCH  24  25
ENDBRANCH  23  24
ENDBRANCH  22  23
ENDBRANCH  21  22
ENDBRANCH  20  21
ENDBRANCH  19  20
ENDBRANCH  18  19
ENDBRANCH   1  18
TORSDOF 28
ENDMDL
MODEL 5
REMARK VINA RESULT:     0.067      8.908     12.742
REMARK INTER + INTRA:          -7.506
REMARK INTER:                   0.000
REMARK INTRA:                  -7.506
REMARK UNBOUND:                -7.683
REMARK SMILES CCCCCCCCCCCCCCCCCCCCCCCCCCCCCC(=O)[O-]
REMARK SMILES IDX 16 1 17 2 18 3 19 4 20 5 21 6 22 7 23 8 24 9 25 10 26 11
REMARK SMILES IDX 27 12 28 13 29 14 30 15 31 16 32 17 15 18 14 19 13 20 12 21
REMARK SMILES IDX 11 22 10 23 9 24 8 25 7 26 6 27 5 28 4 29 3 30 2 31 1 32
REMARK H PARENT
REMARK Flexibility Score: inf
ROOT
ATOM      1  C   UNL     1     177.025 186.526 190.346  1.00  0.00     0.000 C 
ENDROOT
BRANCH   1   2
ATOM      2  C   UNL     1     178.296 186.121 189.577  1.00  0.00     0.000 C 
BRANCH   2   3
ATOM      3  C   UNL     1     178.484 186.800 188.204  1.00  0.00     0.000 C 
BRANCH   3   4
ATOM      4  C   UNL     1     179.699 187.738 188.099  1.00  0.00     0.000 C 
BRANCH   4   5
ATOM      5  C   UNL     1     179.341 189.116 187.514  1.00  0.00     0.000 C 
BRANCH   5   6
ATOM      6  C   UNL     1     178.030 189.094 186.712  1.00  0.00     0.000 C 
BRANCH   6   7
ATOM      7  C   UNL     1     177.114 190.281 187.049  1.00  0.00     0.000 C 
BRANCH   7   8
ATOM      8  C   UNL     1     177.610 191.030 188.291  1.00  0.00     0.000 C 
BRANCH   8   9
ATOM      9  C   UNL     1     176.435 191.665 189.053  1.00  0.00     0.000 C 
BRANCH   9  10
ATOM     10  C   UNL     1     176.488 191.404 190.569  1.00  0.00     0.000 C 
BRANCH  10  11
ATOM     11  C   UNL     1     176.180 192.629 191.450  1.00  0.00     0.000 C 
BRANCH  11  12
ATOM     12  C   UNL     1     176.876 192.635 192.824  1.00  0.00     0.000 C 
BRANCH  12  13
ATOM     13  C   UNL     1     178.390 192.931 192.751  1.00  0.00     0.006 C 
BRANCH  13  14
ATOM     14  C   UNL     1     179.174 192.247 193.879  1.00  0.00     0.053 C 
BRANCH  14  15
ATOM     15  C   UNL     1     179.723 193.264 194.828  1.00  0.00     0.041 C 
ATOM     16  O   UNL     1     180.423 192.902 195.810  1.00  0.00    -0.550 OA
ATOM     17  O   UNL     1     179.500 194.618 194.604  1.00  0.00    -0.550 OA
ENDBRANCH  14  15
ENDBRANCH  13  14
ENDBRANCH  12  13
ENDBRANCH  11  12
ENDBRANCH  10  11
ENDBRANCH   9  10
ENDBRANCH   8   9
ENDBRANCH   7   8
ENDBRANCH   6   7
ENDBRANCH   5   6
ENDBRANCH   4   5
ENDBRANCH   3   4
ENDBRANCH   2   3
ENDBRANCH   1   2
BRANCH   1  18
ATOM     18  C   UNL     1     176.366 187.801 189.789  1.00  0.00     0.000 C 
BRANCH  18  19
ATOM     19  C   UNL     1     174.850 187.634 189.573  1.00  0.00     0.000 C 
BRANCH  19  20
ATOM     20  C   UNL     1     174.205 188.747 188.727  1.00  0.00     0.000 C 
BRANCH  20  21
ATOM     21  C   UNL     1     173.295 189.666 189.561  1.00  0.00     0.000 C 
BRANCH  21  22
ATOM     22  C   UNL     1     173.167 189.203 191.020  1.00  0.00     0.000 C 
BRANCH  22  23
ATOM     23  C   UNL     1     173.272 190.363 192.026  1.00  0.00     0.000 C 
BRANCH  23  24
ATOM     24  C   UNL     1     174.140 190.004 193.253  1.00  0.00    -0.000 C 
BRANCH  24  25
ATOM     25  C   UNL     1     174.939 188.697 193.089  1.00  0.00    -0.000 C 
BRANCH  25  26
ATOM     26  C   UNL     1     176.246 188.628 193.901  1.00  0.00    -0.000 C 
BRANCH  26  27
ATOM     27  C   UNL     1     177.511 189.076 193.140  1.00  0.00    -0.000 C 
BRANCH  27  28
ATOM     28  C   UNL     1     178.709 188.109 193.234  1.00  0.00    -0.000 C 
BRANCH  28  29
ATOM     29  C   UNL     1     179.791 188.303 192.158  1.00  0.00    -0.000 C 
BRANCH  29  30
ATOM     30  C   UNL     1     179.544 189.545 191.282  1.00  0.00    -0.000 C 
BRANCH  30  31
ATOM     31  C   UNL     1     180.845 190.283 190.928  1.00  0.00    -0.003 C 
ATOM     32  C   UNL     1     180.599 191.566 190.133  1.00  0.00     0.004 C 
ENDBRANCH  30  31
ENDBRANCH  29  30
ENDBRANCH  28  29
ENDBRANCH  27  28
ENDBRANCH  26  27
ENDBRANCH  25  26
ENDBRANCH  24  25
ENDBRANCH  23  24
ENDBRANCH  22  23
ENDBRANCH  21  22
ENDBRANCH  20  21
ENDBRANCH  19  20
ENDBRANCH  18  19
ENDBRANCH   1  18
TORSDOF 28
ENDMDL
MODEL 6
REMARK VINA RESULT:     0.070      9.279     12.952
REMARK INTER + INTRA:          -7.498
REMARK INTER:                   0.000
REMARK INTRA:                  -7.498
REMARK UNBOUND:                -7.683
REMARK SMILES CCCCCCCCCCCCCCCCCCCCCCCCCCCCCC(=O)[O-]
REMARK SMILES IDX 16 1 17 2 18 3 19 4 20 5 21 6 22 7 23 8 24 9 25 10 26 11
REMARK SMILES IDX 27 12 28 13 29 14 30 15 31 16 32 17 15 18 14 19 13 20 12 21
REMARK SMILES IDX 11 22 10 23 9 24 8 25 7 26 6 27 5 28 4 29 3 30 2 31 1 32
REMARK H PARENT
REMARK Flexibility Score: inf
ROOT
ATOM      1  C   UNL     1     176.698 182.512 195.006  1.00  0.00     0.000 C 
ENDROOT
BRANCH   1   2
ATOM      2  C   UNL     1     176.644 184.046 194.881  1.00  0.00     0.000 C 
BRANCH   2   3
ATOM      3  C   UNL     1     176.753 184.598 193.443  1.00  0.00     0.000 C 
BRANCH   3   4
ATOM      4  C   UNL     1     175.412 184.942 192.771  1.00  0.00     0.000 C 
BRANCH   4   5
ATOM      5  C   UNL     1     175.219 184.229 191.422  1.00  0.00     0.000 C 
BRANCH   5   6
ATOM      6  C   UNL     1     175.743 182.785 191.437  1.00  0.00     0.000 C 
BRANCH   6   7
ATOM      7  C   UNL     1     174.611 181.748 191.508  1.00  0.00     0.000 C 
BRANCH   7   8
ATOM      8  C   UNL     1     173.375 182.223 190.735  1.00  0.00     0.000 C 
BRANCH   8   9
ATOM      9  C   UNL     1     172.086 181.879 191.498  1.00  0.00     0.000 C 
BRANCH   9  10
ATOM     10  C   UNL     1     172.192 182.142 193.011  1.00  0.00     0.000 C 
BRANCH  10  11
ATOM     11  C   UNL     1     172.015 183.615 193.428  1.00  0.00     0.000 C 
BRANCH  11  12
ATOM     12  C   UNL     1     170.576 184.153 193.321  1.00  0.00     0.000 C 
BRANCH  12  13
ATOM     13  C   UNL     1     170.432 185.356 192.364  1.00  0.00     0.006 C 
BRANCH  13  14
ATOM     14  C   UNL     1     171.741 185.682 191.634  1.00  0.00     0.053 C 
BRANCH  14  15
ATOM     15  C   UNL     1     171.574 185.515 190.156  1.00  0.00     0.041 C 
ATOM     16  O   UNL     1     170.422 185.448 189.652  1.00  0.00    -0.550 OA
ATOM     17  O   UNL     1     172.690 185.480 189.330  1.00  0.00    -0.550 OA
ENDBRANCH  14  15
ENDBRANCH  13  14
ENDBRANCH  12  13
ENDBRANCH  11  12
ENDBRANCH  10  11
ENDBRANCH   9  10
ENDBRANCH   8   9
ENDBRANCH   7   8
ENDBRANCH   6   7
ENDBRANCH   5   6
ENDBRANCH   4   5
ENDBRANCH   3   4
ENDBRANCH   2   3
ENDBRANCH   1   2
BRANCH   1  18
ATOM     18  C   UNL     1     175.318 181.882 195.267  1.00  0.00     0.000 C 
BRANCH  18  19
ATOM     19  C   UNL     1     174.348 182.856 195.961  1.00  0.00     0.000 C 
BRANCH  19  20
ATOM     20  C   UNL     1     173.481 182.211 197.057  1.00  0.00     0.000 C 
BRANCH  20  21
ATOM     21  C   UNL     1     171.998 182.608 196.943  1.00  0.00     0.000 C 
BRANCH  21  22
ATOM     22  C   UNL     1     171.672 183.900 197.708  1.00  0.00     0.000 C 
BRANCH  22  23
ATOM     23  C   UNL     1     170.559 184.726 197.038  1.00  0.00     0.000 C 
BRANCH  23  24
ATOM     24  C   UNL     1     170.833 186.245 197.097  1.00  0.00    -0.000 C 
BRANCH  24  25
ATOM     25  C   UNL     1     170.854 186.927 195.716  1.00  0.00    -0.000 C 
BRANCH  25  26
ATOM     26  C   UNL     1     172.241 187.408 195.249  1.00  0.00    -0.000 C 
BRANCH  26  27
ATOM     27  C   UNL     1     173.370 186.364 195.378  1.00  0.00    -0.000 C 
BRANCH  27  28
ATOM     28  C   UNL     1     174.546 186.780 196.285  1.00  0.00    -0.000 C 
BRANCH  28  29
ATOM     29  C   UNL     1     174.530 186.168 197.697  1.00  0.00    -0.000 C 
BRANCH  29  30
ATOM     30  C   UNL     1     175.897 185.595 198.113  1.00  0.00    -0.000 C 
BRANCH  30  31
ATOM     31  C   UNL     1     175.767 184.389 199.057  1.00  0.00    -0.003 C 
ATOM     32  C   UNL     1     176.773 183.281 198.743  1.00  0.00     0.004 C 
ENDBRANCH  30  31
ENDBRANCH  29  30
ENDBRANCH  28  29
ENDBRANCH  27  28
ENDBRANCH  26  27
ENDBRANCH  25  26
ENDBRANCH  24  25
ENDBRANCH  23  24
ENDBRANCH  22  23
ENDBRANCH  21  22
ENDBRANCH  20  21
ENDBRANCH  19  20
ENDBRANCH  18  19
ENDBRANCH   1  18
TORSDOF 28
ENDMDL
MODEL 7
REMARK VINA RESULT:     0.070      5.342      8.790
REMARK INTER + INTRA:          -7.497
REMARK INTER:                   0.000
REMARK INTRA:                  -7.497
REMARK UNBOUND:                -7.683
REMARK SMILES CCCCCCCCCCCCCCCCCCCCCCCCCCCCCC(=O)[O-]
REMARK SMILES IDX 16 1 17 2 18 3 19 4 20 5 21 6 22 7 23 8 24 9 25 10 26 11
REMARK SMILES IDX 27 12 28 13 29 14 30 15 31 16 32 17 15 18 14 19 13 20 12 21
REMARK SMILES IDX 11 22 10 23 9 24 8 25 7 26 6 27 5 28 4 29 3 30 2 31 1 32
REMARK H PARENT
REMARK Flexibility Score: inf
ROOT
ATOM      1  C   UNL     1     174.725 192.443 190.901  1.00  0.00     0.000 C 
ENDROOT
BRANCH   1   2
ATOM      2  C   UNL     1     175.779 193.208 191.723  1.00  0.00     0.000 C 
BRANCH   2   3
ATOM      3  C   UNL     1     175.983 192.706 193.169  1.00  0.00     0.000 C 
BRANCH   3   4
ATOM      4  C   UNL     1     176.869 193.602 194.053  1.00  0.00     0.000 C 
BRANCH   4   5
ATOM      5  C   UNL     1     177.837 192.798 194.938  1.00  0.00     0.000 C 
BRANCH   5   6
ATOM      6  C   UNL     1     177.473 191.306 195.007  1.00  0.00     0.000 C 
BRANCH   6   7
ATOM      7  C   UNL     1     178.700 190.393 194.859  1.00  0.00     0.000 C 
BRANCH   7   8
ATOM      8  C   UNL     1     179.703 190.970 193.854  1.00  0.00     0.000 C 
BRANCH   8   9
ATOM      9  C   UNL     1     179.641 190.210 192.519  1.00  0.00     0.000 C 
BRANCH   9  10
ATOM     10  C   UNL     1     178.781 190.922 191.459  1.00  0.00     0.000 C 
BRANCH  10  11
ATOM     11  C   UNL     1     177.611 190.088 190.904  1.00  0.00     0.000 C 
BRANCH  11  12
ATOM     12  C   UNL     1     177.146 188.934 191.811  1.00  0.00     0.000 C 
BRANCH  12  13
ATOM     13  C   UNL     1     175.728 189.130 192.389  1.00  0.00     0.006 C 
BRANCH  13  14
ATOM     14  C   UNL     1     175.542 188.421 193.736  1.00  0.00     0.053 C 
BRANCH  14  15
ATOM     15  C   UNL     1     175.354 186.950 193.533  1.00  0.00     0.041 C 
ATOM     16  O   UNL     1     174.540 186.528 192.671  1.00  0.00    -0.550 OA
ATOM     17  O   UNL     1     176.113 186.045 194.265  1.00  0.00    -0.550 OA
ENDBRANCH  14  15
ENDBRANCH  13  14
ENDBRANCH  12  13
ENDBRANCH  11  12
ENDBRANCH  10  11
ENDBRANCH   9  10
ENDBRANCH   8   9
ENDBRANCH   7   8
ENDBRANCH   6   7
ENDBRANCH   5   6
ENDBRANCH   4   5
ENDBRANCH   3   4
ENDBRANCH   2   3
ENDBRANCH   1   2
BRANCH   1  18
ATOM     18  C   UNL     1     173.507 192.012 191.737  1.00  0.00     0.000 C 
BRANCH  18  19
ATOM     19  C   UNL     1     172.237 192.807 191.380  1.00  0.00     0.000 C 
BRANCH  19  20
ATOM     20  C   UNL     1     171.843 193.871 192.421  1.00  0.00     0.000 C 
BRANCH  20  21
ATOM     21  C   UNL     1     172.592 195.199 192.216  1.00  0.00     0.000 C 
BRANCH  21  22
ATOM     22  C   UNL     1     173.380 195.631 193.463  1.00  0.00     0.000 C 
BRANCH  22  23
ATOM     23  C   UNL     1     173.300 194.602 194.605  1.00  0.00     0.000 C 
BRANCH  23  24
ATOM     24  C   UNL     1     172.740 195.210 195.911  1.00  0.00    -0.000 C 
BRANCH  24  25
ATOM     25  C   UNL     1     173.316 194.573 197.190  1.00  0.00    -0.000 C 
BRANCH  25  26
ATOM     26  C   UNL     1     174.783 194.115 197.083  1.00  0.00    -0.000 C 
BRANCH  26  27
ATOM     27  C   UNL     1     175.034 192.637 197.446  1.00  0.00    -0.000 C 
BRANCH  27  28
ATOM     28  C   UNL     1     173.863 191.680 197.142  1.00  0.00    -0.000 C 
BRANCH  28  29
ATOM     29  C   UNL     1     173.849 191.098 195.718  1.00  0.00    -0.000 C 
BRANCH  29  30
ATOM     30  C   UNL     1     172.440 191.073 195.099  1.00  0.00    -0.000 C 
BRANCH  30  31
ATOM     31  C   UNL     1     171.357 191.553 196.079  1.00  0.00    -0.003 C 
ATOM     32  C   UNL     1     170.285 192.409 195.403  1.00  0.00     0.004 C 
ENDBRANCH  30  31
ENDBRANCH  29  30
ENDBRANCH  28  29
ENDBRANCH  27  28
ENDBRANCH  26  27
ENDBRANCH  25  26
ENDBRANCH  24  25
ENDBRANCH  23  24
ENDBRANCH  22  23
ENDBRANCH  21  22
ENDBRANCH  20  21
ENDBRANCH  19  20
ENDBRANCH  18  19
ENDBRANCH   1  18
TORSDOF 28
ENDMDL
MODEL 8
REMARK VINA RESULT:     0.072      2.658      6.905
REMARK INTER + INTRA:          -7.493
REMARK INTER:                   0.000
REMARK INTRA:                  -7.493
REMARK UNBOUND:                -7.683
REMARK SMILES CCCCCCCCCCCCCCCCCCCCCCCCCCCCCC(=O)[O-]
REMARK SMILES IDX 16 1 17 2 18 3 19 4 20 5 21 6 22 7 23 8 24 9 25 10 26 11
REMARK SMILES IDX 27 12 28 13 29 14 30 15 31 16 32 17 15 18 14 19 13 20 12 21
REMARK SMILES IDX 11 22 10 23 9 24 8 25 7 26 6 27 5 28 4 29 3 30 2 31 1 32
REMARK H PARENT
REMARK Flexibility Score: inf
ROOT
ATOM      1  C   UNL     1     172.728 193.523 199.336  1.00  0.00     0.000 C 
ENDROOT
BRANCH   1   2
ATOM      2  C   UNL     1     174.041 193.425 198.538  1.00  0.00     0.000 C 
BRANCH   2   3
ATOM      3  C   UNL     1     175.280 194.039 199.223  1.00  0.00     0.000 C 
BRANCH   3   4
ATOM      4  C   UNL     1     176.626 193.725 198.546  1.00  0.00     0.000 C 
BRANCH   4   5
ATOM      5  C   UNL     1     176.553 193.795 197.011  1.00  0.00     0.000 C 
BRANCH   5   6
ATOM      6  C   UNL     1     177.128 192.540 196.335  1.00  0.00     0.000 C 
BRANCH   6   7
ATOM      7  C   UNL     1     176.199 191.980 195.246  1.00  0.00     0.000 C 
BRANCH   7   8
ATOM      8  C   UNL     1     175.031 192.933 194.968  1.00  0.00     0.000 C 
BRANCH   8   9
ATOM      9  C   UNL     1     173.687 192.193 195.058  1.00  0.00     0.000 C 
BRANCH   9  10
ATOM     10  C   UNL     1     172.473 193.133 194.951  1.00  0.00     0.000 C 
BRANCH  10  11
ATOM     11  C   UNL     1     172.740 194.590 195.377  1.00  0.00     0.000 C 
BRANCH  11  12
ATOM     12  C   UNL     1     171.612 195.247 196.193  1.00  0.00     0.000 C 
BRANCH  12  13
ATOM     13  C   UNL     1     171.894 196.717 196.572  1.00  0.00     0.006 C 
BRANCH  13  14
ATOM     14  C   UNL     1     171.900 196.937 198.090  1.00  0.00     0.053 C 
BRANCH  14  15
ATOM     15  C   UNL     1     173.302 197.086 198.593  1.00  0.00     0.041 C 
ATOM     16  O   UNL     1     173.527 197.154 199.830  1.00  0.00    -0.550 OA
ATOM     17  O   UNL     1     174.364 197.102 197.697  1.00  0.00    -0.550 OA
ENDBRANCH  14  15
ENDBRANCH  13  14
ENDBRANCH  12  13
ENDBRANCH  11  12
ENDBRANCH  10  11
ENDBRANCH   9  10
ENDBRANCH   8   9
ENDBRANCH   7   8
ENDBRANCH   6   7
ENDBRANCH   5   6
ENDBRANCH   4   5
ENDBRANCH   3   4
ENDBRANCH   2   3
ENDBRANCH   1   2
BRANCH   1  18
ATOM     18  C   UNL     1     172.949 193.532 200.859  1.00  0.00     0.000 C 
BRANCH  18  19
ATOM     19  C   UNL     1     172.379 192.276 201.544  1.00  0.00     0.000 C 
BRANCH  19  20
ATOM     20  C   UNL     1     173.402 191.142 201.738  1.00  0.00     0.000 C 
BRANCH  20  21
ATOM     21  C   UNL     1     174.810 191.670 202.063  1.00  0.00     0.000 C 
BRANCH  21  22
ATOM     22  C   UNL     1     175.893 191.056 201.162  1.00  0.00     0.000 C 
BRANCH  22  23
ATOM     23  C   UNL     1     175.360 189.909 200.285  1.00  0.00     0.000 C 
BRANCH  23  24
ATOM     24  C   UNL     1     175.708 190.096 198.791  1.00  0.00    -0.000 C 
BRANCH  24  25
ATOM     25  C   UNL     1     174.501 189.934 197.847  1.00  0.00    -0.000 C 
BRANCH  25  26
ATOM     26  C   UNL     1     173.262 189.278 198.484  1.00  0.00    -0.000 C 
BRANCH  26  27
ATOM     27  C   UNL     1     171.981 190.137 198.456  1.00  0.00    -0.000 C 
BRANCH  27  28
ATOM     28  C   UNL     1     171.261 190.196 197.094  1.00  0.00    -0.000 C 
BRANCH  28  29
ATOM     29  C   UNL     1     169.840 190.786 197.130  1.00  0.00    -0.000 C 
BRANCH  29  30
ATOM     30  C   UNL     1     169.833 192.310 197.345  1.00  0.00    -0.000 C 
BRANCH  30  31
ATOM     31  C   UNL     1     169.207 192.712 198.690  1.00  0.00    -0.003 C 
ATOM     32  C   UNL     1     169.149 194.227 198.885  1.00  0.00     0.004 C 
ENDBRANCH  30  31
ENDBRANCH  29  30
ENDBRANCH  28  29
ENDBRANCH  27  28
ENDBRANCH  26  27
ENDBRANCH  25  26
ENDBRANCH  24  25
ENDBRANCH  23  24
ENDBRANCH  22  23
ENDBRANCH  21  22
ENDBRANCH  20  21
ENDBRANCH  19  20
ENDBRANCH  18  19
ENDBRANCH   1  18
TORSDOF 28
ENDMDL
MODEL 9
REMARK VINA RESULT:     0.076      4.022      7.406
REMARK INTER + INTRA:          -7.482
REMARK INTER:                   0.000
REMARK INTRA:                  -7.482
REMARK UNBOUND:                -7.683
REMARK SMILES CCCCCCCCCCCCCCCCCCCCCCCCCCCCCC(=O)[O-]
REMARK SMILES IDX 16 1 17 2 18 3 19 4 20 5 21 6 22 7 23 8 24 9 25 10 26 11
REMARK SMILES IDX 27 12 28 13 29 14 30 15 31 16 32 17 15 18 14 19 13 20 12 21
REMARK SMILES IDX 11 22 10 23 9 24 8 25 7 26 6 27 5 28 4 29 3 30 2 31 1 32
REMARK H PARENT
REMARK Flexibility Score: inf
ROOT
ATOM      1  C   UNL     1     173.519 192.252 198.725  1.00  0.00     0.000 C 
ENDROOT
BRANCH   1   2
ATOM      2  C   UNL     1     172.139 192.663 198.179  1.00  0.00     0.000 C 
BRANCH   2   3
ATOM      3  C   UNL     1     172.076 192.913 196.658  1.00  0.00     0.000 C 
BRANCH   3   4
ATOM      4  C   UNL     1     171.218 194.116 196.227  1.00  0.00     0.000 C 
BRANCH   4   5
ATOM      5  C   UNL     1     172.061 195.303 195.728  1.00  0.00     0.000 C 
BRANCH   5   6
ATOM      6  C   UNL     1     173.467 194.879 195.276  1.00  0.00     0.000 C 
BRANCH   6   7
ATOM      7  C   UNL     1     174.576 195.692 195.962  1.00  0.00     0.000 C 
BRANCH   7   8
ATOM      8  C   UNL     1     175.881 195.637 195.161  1.00  0.00     0.000 C 
BRANCH   8   9
ATOM      9  C   UNL     1     176.636 196.974 195.251  1.00  0.00     0.000 C 
BRANCH   9  10
ATOM     10  C   UNL     1     175.752 198.133 195.745  1.00  0.00     0.000 C 
BRANCH  10  11
ATOM     11  C   UNL     1     175.163 199.021 194.633  1.00  0.00     0.000 C 
BRANCH  11  12
ATOM     12  C   UNL     1     173.625 199.096 194.605  1.00  0.00     0.000 C 
BRANCH  12  13
ATOM     13  C   UNL     1     172.976 198.164 193.560  1.00  0.00     0.006 C 
BRANCH  13  14
ATOM     14  C   UNL     1     173.993 197.624 192.546  1.00  0.00     0.053 C 
BRANCH  14  15
ATOM     15  C   UNL     1     173.770 198.239 191.201  1.00  0.00     0.041 C 
ATOM     16  O   UNL     1     173.702 197.512 190.175  1.00  0.00    -0.550 OA
ATOM     17  O   UNL     1     173.592 199.613 191.084  1.00  0.00    -0.550 OA
ENDBRANCH  14  15
ENDBRANCH  13  14
ENDBRANCH  12  13
ENDBRANCH  11  12
ENDBRANCH  10  11
ENDBRANCH   9  10
ENDBRANCH   8   9
ENDBRANCH   7   8
ENDBRANCH   6   7
ENDBRANCH   5   6
ENDBRANCH   4   5
ENDBRANCH   3   4
ENDBRANCH   2   3
ENDBRANCH   1   2
BRANCH   1  18
ATOM     18  C   UNL     1     174.630 192.316 197.660  1.00  0.00     0.000 C 
BRANCH  18  19
ATOM     19  C   UNL     1     175.901 193.014 198.179  1.00  0.00     0.000 C 
BRANCH  19  20
ATOM     20  C   UNL     1     175.892 193.304 199.691  1.00  0.00     0.000 C 
BRANCH  20  21
ATOM     21  C   UNL     1     176.559 194.647 200.036  1.00  0.00     0.000 C 
BRANCH  21  22
ATOM     22  C   UNL     1     176.909 195.471 198.786  1.00  0.00     0.000 C 
BRANCH  22  23
ATOM     23  C   UNL     1     176.894 196.987 199.047  1.00  0.00     0.000 C 
BRANCH  23  24
ATOM     24  C   UNL     1     176.443 197.337 200.483  1.00  0.00    -0.000 C 
BRANCH  24  25
ATOM     25  C   UNL     1     175.626 198.639 200.578  1.00  0.00    -0.000 C 
BRANCH  25  26
ATOM     26  C   UNL     1     175.105 199.178 199.233  1.00  0.00    -0.000 C 
BRANCH  26  27
ATOM     27  C   UNL     1     173.570 199.277 199.120  1.00  0.00    -0.000 C 
BRANCH  27  28
ATOM     28  C   UNL     1     172.913 198.244 198.181  1.00  0.00    -0.000 C 
BRANCH  28  29
ATOM     29  C   UNL     1     172.219 197.067 198.888  1.00  0.00    -0.000 C 
BRANCH  29  30
ATOM     30  C   UNL     1     173.196 195.942 199.273  1.00  0.00    -0.000 C 
BRANCH  30  31
ATOM     31  C   UNL     1     172.941 195.400 200.688  1.00  0.00    -0.003 C 
ATOM     32  C   UNL     1     172.854 196.507 201.739  1.00  0.00     0.004 C 
ENDBRANCH  30  31
ENDBRANCH  29  30
ENDBRANCH  28  29
ENDBRANCH  27  28
ENDBRANCH  26  27
ENDBRANCH  25  26
ENDBRANCH  24  25
ENDBRANCH  23  24
ENDBRANCH  22  23
ENDBRANCH  21  22
ENDBRANCH  20  21
ENDBRANCH  19  20
ENDBRANCH  18  19
ENDBRANCH   1  18
TORSDOF 28
ENDMDL
