MODEL 1
REMARK VINA RESULT:    -7.348      0.000      0.000
REMARK INTER + INTRA:          -7.797
REMARK INTER:                  -7.992
REMARK INTRA:                   0.196
REMARK UNBOUND:                 0.196
REMARK SMILES C[C@H]1[C@H]2C3=CC[C@H]4[C@]5(C)CC[C@@H](O)C(C)(C)[C@@H]5CC[C@@]4(C)[C@@]3(C)CC[C@]2(C(=O)[O-])CC[C@@H]1C
REMARK SMILES IDX 26 1 30 2 25 3 3 4 31 5 24 6 4 7 2 8 32 9 22 10 5 11 1 12
REMARK SMILES IDX 33 13 23 14 20 15 6 16 7 17 19 18 21 19 8 20 18 21 17 22
REMARK SMILES IDX 10 23 9 24 14 25 11 26 12 27 15 28 16 29 27 30 28 31 29 32
REMARK SMILES IDX 13 33
REMARK H PARENT 13 34
REMARK Flexibility Score: inf
ROOT
ATOM      1  C   UNL     1       8.048  -5.590   5.363  1.00  0.00     0.017 C 
ATOM      2  C   UNL     1       9.110  -4.887   4.436  1.00  0.00     0.014 C 
ATOM      3  C   UNL     1       8.817  -6.415   6.415  1.00  0.00     0.014 C 
ATOM      4  C   UNL     1       7.205  -4.481   6.070  1.00  0.00     0.030 C 
ATOM      5  C   UNL     1       8.660  -3.533   3.849  1.00  0.00     0.004 C 
ATOM      6  C   UNL     1       7.902  -7.037   7.472  1.00  0.00     0.013 C 
ATOM      7  C   UNL     1       6.473  -4.914   7.366  1.00  0.00    -0.063 C 
ATOM      8  C   UNL     1       6.382  -3.621   5.023  1.00  0.00    -0.003 C 
ATOM      9  C   UNL     1       7.138  -3.454   3.662  1.00  0.00    -0.011 C 
ATOM     10  C   UNL     1       7.050  -5.992   8.287  1.00  0.00    -0.006 C 
ATOM     11  C   UNL     1       5.615  -4.045   7.927  1.00  0.00    -0.027 C 
ATOM     12  C   UNL     1       4.941  -4.116   4.750  1.00  0.00     0.008 C 
ATOM     13  C   UNL     1       6.763  -2.135   2.968  1.00  0.00     0.008 C 
ATOM     14  C   UNL     1       8.060  -5.264   9.239  1.00  0.00     0.017 C 
ATOM     15  C   UNL     1       5.860  -6.685   9.140  1.00  0.00    -0.020 C 
ATOM     16  C   UNL     1       4.998  -4.198   9.287  1.00  0.00     0.032 C 
ATOM     17  C   UNL     1       5.053  -5.608   9.994  1.00  0.00     0.006 C 
ATOM     18  C   UNL     1       4.825  -7.460   8.244  1.00  0.00     0.008 C 
ATOM     19  C   UNL     1       6.540  -7.722  10.095  1.00  0.00     0.012 C 
ATOM     20  C   UNL     1       3.587  -6.047  10.493  1.00  0.00    -0.025 C 
ATOM     21  C   UNL     1       3.497  -6.732   7.977  1.00  0.00     0.005 C 
ATOM     22  C   UNL     1       2.660  -6.354   9.248  1.00  0.00     0.003 C 
ATOM     23  C   UNL     1       3.625  -7.255  11.514  1.00  0.00     0.010 C 
ATOM     24  C   UNL     1       3.001  -4.836  11.319  1.00  0.00     0.012 C 
ATOM     25  C   UNL     1       1.453  -7.332   9.547  1.00  0.00    -0.006 C 
ATOM     26  C   UNL     1       3.108  -8.653  11.065  1.00  0.00     0.033 C 
ATOM     27  C   UNL     1       2.005  -8.714   9.980  1.00  0.00     0.120 C 
ATOM     28  C   UNL     1       0.514  -6.760  10.649  1.00  0.00     0.014 C 
ATOM     29  C   UNL     1       0.558  -7.506   8.282  1.00  0.00     0.014 C 
ENDROOT
BRANCH   1  30
ATOM     30  C   UNL     1       7.170  -6.544   4.551  1.00  0.00     0.048 C 
ATOM     31  O   UNL     1       7.432  -6.803   3.346  1.00  0.00    -0.550 OA
ATOM     32  O   UNL     1       6.121  -7.225   5.155  1.00  0.00    -0.550 OA
ENDBRANCH   1  30
BRANCH  27  33
ATOM     33  O   UNL     1       0.960  -9.545  10.433  1.00  0.00    -0.393 OA
ATOM     34  H   UNL     1       0.223  -8.957  10.743  1.00  0.00     0.210 HD
ENDBRANCH  27  33
TORSDOF 2
ENDMDL
MODEL 2
REMARK VINA RESULT:    -6.944      1.993      7.305
REMARK INTER + INTRA:          -7.357
REMARK INTER:                  -7.557
REMARK INTRA:                   0.199
REMARK UNBOUND:                 0.196
REMARK SMILES C[C@H]1[C@H]2C3=CC[C@H]4[C@]5(C)CC[C@@H](O)C(C)(C)[C@@H]5CC[C@@]4(C)[C@@]3(C)CC[C@]2(C(=O)[O-])CC[C@@H]1C
REMARK SMILES IDX 26 1 30 2 25 3 3 4 31 5 24 6 4 7 2 8 32 9 22 10 5 11 1 12
REMARK SMILES IDX 33 13 23 14 20 15 6 16 7 17 19 18 21 19 8 20 18 21 17 22
REMARK SMILES IDX 10 23 9 24 14 25 11 26 12 27 15 28 16 29 27 30 28 31 29 32
REMARK SMILES IDX 13 33
REMARK H PARENT 13 34
REMARK Flexibility Score: inf
ROOT
ATOM      1  C   UNL     1       4.538  -6.540  11.070  1.00  0.00     0.017 C 
ATOM      2  C   UNL     1       3.877  -7.194  12.342  1.00  0.00     0.014 C 
ATOM      3  C   UNL     1       6.031  -6.311  11.383  1.00  0.00     0.014 C 
ATOM      4  C   UNL     1       4.391  -7.534   9.875  1.00  0.00     0.030 C 
ATOM      5  C   UNL     1       2.690  -8.132  12.042  1.00  0.00     0.004 C 
ATOM      6  C   UNL     1       6.824  -5.810  10.174  1.00  0.00     0.013 C 
ATOM      7  C   UNL     1       5.380  -7.328   8.701  1.00  0.00    -0.063 C 
ATOM      8  C   UNL     1       2.869  -7.782   9.508  1.00  0.00    -0.003 C 
ATOM      9  C   UNL     1       1.936  -7.733  10.766  1.00  0.00    -0.011 C 
ATOM     10  C   UNL     1       6.790  -6.777   8.931  1.00  0.00    -0.006 C 
ATOM     11  C   UNL     1       5.198  -8.056   7.585  1.00  0.00    -0.027 C 
ATOM     12  C   UNL     1       2.296  -6.854   8.411  1.00  0.00     0.008 C 
ATOM     13  C   UNL     1       0.700  -8.628  10.585  1.00  0.00     0.008 C 
ATOM     14  C   UNL     1       7.686  -8.004   9.316  1.00  0.00     0.017 C 
ATOM     15  C   UNL     1       7.337  -6.073   7.578  1.00  0.00    -0.020 C 
ATOM     16  C   UNL     1       6.176  -8.155   6.450  1.00  0.00     0.032 C 
ATOM     17  C   UNL     1       7.340  -7.094   6.353  1.00  0.00     0.006 C 
ATOM     18  C   UNL     1       6.497  -4.813   7.151  1.00  0.00     0.008 C 
ATOM     19  C   UNL     1       8.797  -5.598   7.879  1.00  0.00     0.012 C 
ATOM     20  C   UNL     1       7.387  -6.441   4.881  1.00  0.00    -0.025 C 
ATOM     21  C   UNL     1       5.496  -5.036   6.004  1.00  0.00     0.005 C 
ATOM     22  C   UNL     1       6.112  -5.533   4.650  1.00  0.00     0.003 C 
ATOM     23  C   UNL     1       8.731  -5.653   4.605  1.00  0.00     0.010 C 
ATOM     24  C   UNL     1       7.396  -7.636   3.849  1.00  0.00     0.012 C 
ATOM     25  C   UNL     1       6.295  -4.399   3.562  1.00  0.00    -0.006 C 
ATOM     26  C   UNL     1       8.703  -4.100   4.513  1.00  0.00     0.033 C 
ATOM     27  C   UNL     1       7.402  -3.417   4.025  1.00  0.00     0.120 C 
ATOM     28  C   UNL     1       6.654  -4.995   2.170  1.00  0.00     0.014 C 
ATOM     29  C   UNL     1       4.963  -3.616   3.352  1.00  0.00     0.014 C 
ENDROOT
BRANCH   1  30
ATOM     30  C   UNL     1       3.897  -5.184  10.766  1.00  0.00     0.048 C 
ATOM     31  O   UNL     1       3.070  -4.663  11.561  1.00  0.00    -0.550 OA
ATOM     32  O   UNL     1       4.290  -4.451   9.655  1.00  0.00    -0.550 OA
ENDBRANCH   1  30
BRANCH  27  33
ATOM     33  O   UNL     1       7.718  -2.507   2.995  1.00  0.00    -0.393 OA
ATOM     34  H   UNL     1       6.899  -1.981   2.799  1.00  0.00     0.210 HD
ENDBRANCH  27  33
TORSDOF 2
ENDMDL
MODEL 3
REMARK VINA RESULT:    -6.800      2.258      7.215
REMARK INTER + INTRA:          -7.200
REMARK INTER:                  -7.396
REMARK INTRA:                   0.195
REMARK UNBOUND:                 0.196
REMARK SMILES C[C@H]1[C@H]2C3=CC[C@H]4[C@]5(C)CC[C@@H](O)C(C)(C)[C@@H]5CC[C@@]4(C)[C@@]3(C)CC[C@]2(C(=O)[O-])CC[C@@H]1C
REMARK SMILES IDX 26 1 30 2 25 3 3 4 31 5 24 6 4 7 2 8 32 9 22 10 5 11 1 12
REMARK SMILES IDX 33 13 23 14 20 15 6 16 7 17 19 18 21 19 8 20 18 21 17 22
REMARK SMILES IDX 10 23 9 24 14 25 11 26 12 27 15 28 16 29 27 30 28 31 29 32
REMARK SMILES IDX 13 33
REMARK H PARENT 13 34
REMARK Flexibility Score: inf
ROOT
ATOM      1  C   UNL     1       5.793  -6.490  10.428  1.00  0.00     0.017 C 
ATOM      2  C   UNL     1       5.931  -6.747  11.976  1.00  0.00     0.014 C 
ATOM      3  C   UNL     1       4.898  -5.247  10.237  1.00  0.00     0.014 C 
ATOM      4  C   UNL     1       7.216  -6.214   9.848  1.00  0.00     0.030 C 
ATOM      5  C   UNL     1       7.262  -7.398  12.406  1.00  0.00     0.004 C 
ATOM      6  C   UNL     1       4.800  -4.801   8.776  1.00  0.00     0.013 C 
ATOM      7  C   UNL     1       7.259  -5.460   8.495  1.00  0.00    -0.063 C 
ATOM      8  C   UNL     1       8.163  -7.476  10.006  1.00  0.00    -0.003 C 
ATOM      9  C   UNL     1       7.858  -8.291  11.309  1.00  0.00    -0.011 C 
ATOM     10  C   UNL     1       6.183  -4.439   8.115  1.00  0.00    -0.006 C 
ATOM     11  C   UNL     1       8.447  -5.333   7.879  1.00  0.00    -0.027 C 
ATOM     12  C   UNL     1       8.188  -8.438   8.795  1.00  0.00     0.008 C 
ATOM     13  C   UNL     1       9.114  -9.001  11.835  1.00  0.00     0.008 C 
ATOM     14  C   UNL     1       6.622  -3.077   8.755  1.00  0.00     0.017 C 
ATOM     15  C   UNL     1       6.089  -4.308   6.503  1.00  0.00    -0.020 C 
ATOM     16  C   UNL     1       8.715  -4.451   6.694  1.00  0.00     0.032 C 
ATOM     17  C   UNL     1       7.491  -3.888   5.872  1.00  0.00     0.006 C 
ATOM     18  C   UNL     1       5.624  -5.636   5.799  1.00  0.00     0.008 C 
ATOM     19  C   UNL     1       5.018  -3.206   6.205  1.00  0.00     0.012 C 
ATOM     20  C   UNL     1       7.683  -4.185   4.300  1.00  0.00    -0.025 C 
ATOM     21  C   UNL     1       6.738  -6.468   5.141  1.00  0.00     0.005 C 
ATOM     22  C   UNL     1       7.563  -5.738   4.024  1.00  0.00     0.003 C 
ATOM     23  C   UNL     1       6.695  -3.345   3.395  1.00  0.00     0.010 C 
ATOM     24  C   UNL     1       9.125  -3.675   3.910  1.00  0.00     0.012 C 
ATOM     25  C   UNL     1       7.136  -6.116   2.548  1.00  0.00    -0.006 C 
ATOM     26  C   UNL     1       5.530  -4.068   2.659  1.00  0.00     0.033 C 
ATOM     27  C   UNL     1       5.721  -5.552   2.260  1.00  0.00     0.120 C 
ATOM     28  C   UNL     1       8.153  -5.573   1.503  1.00  0.00     0.014 C 
ATOM     29  C   UNL     1       7.124  -7.663   2.357  1.00  0.00     0.014 C 
ENDROOT
BRANCH   1  30
ATOM     30  C   UNL     1       5.117  -7.678   9.741  1.00  0.00     0.048 C 
ATOM     31  O   UNL     1       4.609  -8.615  10.414  1.00  0.00    -0.550 OA
ATOM     32  O   UNL     1       4.961  -7.702   8.362  1.00  0.00    -0.550 OA
ENDBRANCH   1  30
BRANCH  27  33
ATOM     33  O   UNL     1       5.393  -5.709   0.898  1.00  0.00    -0.393 OA
ATOM     34  H   UNL     1       4.430  -5.945   0.848  1.00  0.00     0.210 HD
ENDBRANCH  27  33
TORSDOF 2
ENDMDL
MODEL 4
REMARK VINA RESULT:    -6.613      1.120      1.234
REMARK INTER + INTRA:          -6.997
REMARK INTER:                  -7.243
REMARK INTRA:                   0.246
REMARK UNBOUND:                 0.196
REMARK SMILES C[C@H]1[C@H]2C3=CC[C@H]4[C@]5(C)CC[C@@H](O)C(C)(C)[C@@H]5CC[C@@]4(C)[C@@]3(C)CC[C@]2(C(=O)[O-])CC[C@@H]1C
REMARK SMILES IDX 26 1 30 2 25 3 3 4 31 5 24 6 4 7 2 8 32 9 22 10 5 11 1 12
REMARK SMILES IDX 33 13 23 14 20 15 6 16 7 17 19 18 21 19 8 20 18 21 17 22
REMARK SMILES IDX 10 23 9 24 14 25 11 26 12 27 15 28 16 29 27 30 28 31 29 32
REMARK SMILES IDX 13 33
REMARK H PARENT 13 34
REMARK Flexibility Score: inf
ROOT
ATOM      1  C   UNL     1       8.179  -5.831   4.217  1.00  0.00     0.017 C 
ATOM      2  C   UNL     1       9.123  -5.078   3.206  1.00  0.00     0.014 C 
ATOM      3  C   UNL     1       9.023  -6.906   4.935  1.00  0.00     0.014 C 
ATOM      4  C   UNL     1       7.646  -4.793   5.256  1.00  0.00     0.030 C 
ATOM      5  C   UNL     1       8.751  -3.603   2.951  1.00  0.00     0.004 C 
ATOM      6  C   UNL     1       8.257  -7.617   6.053  1.00  0.00     0.013 C 
ATOM      7  C   UNL     1       7.131  -5.381   6.593  1.00  0.00    -0.063 C 
ATOM      8  C   UNL     1       6.756  -3.681   4.560  1.00  0.00    -0.003 C 
ATOM      9  C   UNL     1       7.247  -3.343   3.112  1.00  0.00    -0.011 C 
ATOM     10  C   UNL     1       7.729  -6.660   7.187  1.00  0.00    -0.006 C 
ATOM     11  C   UNL     1       6.523  -4.549   7.457  1.00  0.00    -0.027 C 
ATOM     12  C   UNL     1       5.237  -3.975   4.530  1.00  0.00     0.008 C 
ATOM     13  C   UNL     1       6.922  -1.890   2.732  1.00  0.00     0.008 C 
ATOM     14  C   UNL     1       8.993  -6.219   8.001  1.00  0.00     0.017 C 
ATOM     15  C   UNL     1       6.647  -7.378   8.156  1.00  0.00    -0.020 C 
ATOM     16  C   UNL     1       6.169  -4.887   8.876  1.00  0.00     0.032 C 
ATOM     17  C   UNL     1       6.174  -6.401   9.323  1.00  0.00     0.006 C 
ATOM     18  C   UNL     1       5.363  -7.872   7.393  1.00  0.00     0.008 C 
ATOM     19  C   UNL     1       7.356  -8.633   8.766  1.00  0.00     0.012 C 
ATOM     20  C   UNL     1       4.788  -6.779  10.051  1.00  0.00    -0.025 C 
ATOM     21  C   UNL     1       4.117  -6.981   7.537  1.00  0.00     0.005 C 
ATOM     22  C   UNL     1       3.602  -6.762   9.003  1.00  0.00     0.003 C 
ATOM     23  C   UNL     1       4.864  -8.150  10.836  1.00  0.00     0.010 C 
ATOM     24  C   UNL     1       4.542  -5.686  11.165  1.00  0.00     0.012 C 
ATOM     25  C   UNL     1       2.358  -7.656   9.397  1.00  0.00    -0.006 C 
ATOM     26  C   UNL     1       4.088  -9.385  10.294  1.00  0.00     0.033 C 
ATOM     27  C   UNL     1       2.796  -9.141   9.477  1.00  0.00     0.120 C 
ATOM     28  C   UNL     1       1.738  -7.206  10.751  1.00  0.00     0.014 C 
ATOM     29  C   UNL     1       1.218  -7.508   8.344  1.00  0.00     0.014 C 
ENDROOT
BRANCH   1  30
ATOM     30  C   UNL     1       7.040  -6.532   3.474  1.00  0.00     0.048 C 
ATOM     31  O   UNL     1       6.969  -6.502   2.216  1.00  0.00    -0.550 OA
ATOM     32  O   UNL     1       6.114  -7.302   4.165  1.00  0.00    -0.550 OA
ENDBRANCH   1  30
BRANCH  27  33
ATOM     33  O   UNL     1       1.758  -9.935  10.007  1.00  0.00    -0.393 OA
ATOM     34  H   UNL     1       2.175 -10.737  10.417  1.00  0.00     0.210 HD
ENDBRANCH  27  33
TORSDOF 2
ENDMDL
MODEL 5
REMARK VINA RESULT:    -5.578      1.974      7.566
REMARK INTER + INTRA:          -5.871
REMARK INTER:                  -6.052
REMARK INTRA:                   0.181
REMARK UNBOUND:                 0.196
REMARK SMILES C[C@H]1[C@H]2C3=CC[C@H]4[C@]5(C)CC[C@@H](O)C(C)(C)[C@@H]5CC[C@@]4(C)[C@@]3(C)CC[C@]2(C(=O)[O-])CC[C@@H]1C
REMARK SMILES IDX 26 1 30 2 25 3 3 4 31 5 24 6 4 7 2 8 32 9 22 10 5 11 1 12
REMARK SMILES IDX 33 13 23 14 20 15 6 16 7 17 19 18 21 19 8 20 18 21 17 22
REMARK SMILES IDX 10 23 9 24 14 25 11 26 12 27 15 28 16 29 27 30 28 31 29 32
REMARK SMILES IDX 13 33
REMARK H PARENT 13 34
REMARK Flexibility Score: inf
ROOT
ATOM      1  C   UNL     1       2.344  -7.214  11.978  1.00  0.00     0.017 C 
ATOM      2  C   UNL     1       1.348  -7.937  12.962  1.00  0.00     0.014 C 
ATOM      3  C   UNL     1       3.503  -6.644  12.821  1.00  0.00     0.014 C 
ATOM      4  C   UNL     1       2.890  -8.273  10.968  1.00  0.00     0.030 C 
ATOM      5  C   UNL     1       0.586  -9.129  12.348  1.00  0.00     0.004 C 
ATOM      6  C   UNL     1       4.620  -6.038  11.966  1.00  0.00     0.013 C 
ATOM      7  C   UNL     1       4.221  -7.908  10.263  1.00  0.00    -0.063 C 
ATOM      8  C   UNL     1       1.730  -8.870  10.068  1.00  0.00    -0.003 C 
ATOM      9  C   UNL     1       0.369  -8.970  10.837  1.00  0.00    -0.011 C 
ATOM     10  C   UNL     1       5.281  -7.047  10.954  1.00  0.00    -0.006 C 
ATOM     11  C   UNL     1       4.654  -8.711   9.275  1.00  0.00    -0.027 C 
ATOM     12  C   UNL     1       1.504  -8.147   8.719  1.00  0.00     0.008 C 
ATOM     13  C   UNL     1      -0.494 -10.125  10.306  1.00  0.00     0.008 C 
ATOM     14  C   UNL     1       6.145  -8.024  11.823  1.00  0.00     0.017 C 
ATOM     15  C   UNL     1       6.200  -6.305   9.844  1.00  0.00    -0.020 C 
ATOM     16  C   UNL     1       6.013  -8.645   8.643  1.00  0.00     0.032 C 
ATOM     17  C   UNL     1       6.897  -7.357   8.870  1.00  0.00     0.006 C 
ATOM     18  C   UNL     1       5.397  -5.286   8.955  1.00  0.00     0.008 C 
ATOM     19  C   UNL     1       7.290  -5.503  10.630  1.00  0.00     0.012 C 
ATOM     20  C   UNL     1       7.429  -6.782   7.463  1.00  0.00    -0.025 C 
ATOM     21  C   UNL     1       5.020  -5.781   7.548  1.00  0.00     0.005 C 
ATOM     22  C   UNL     1       6.221  -6.194   6.627  1.00  0.00     0.003 C 
ATOM     23  C   UNL     1       8.597  -5.729   7.635  1.00  0.00     0.010 C 
ATOM     24  C   UNL     1       8.083  -7.993   6.690  1.00  0.00     0.012 C 
ATOM     25  C   UNL     1       6.627  -5.101   5.558  1.00  0.00    -0.006 C 
ATOM     26  C   UNL     1       8.325  -4.228   7.330  1.00  0.00     0.033 C 
ATOM     27  C   UNL     1       7.242  -3.876   6.281  1.00  0.00     0.120 C 
ATOM     28  C   UNL     1       7.633  -5.668   4.514  1.00  0.00     0.014 C 
ATOM     29  C   UNL     1       5.383  -4.645   4.735  1.00  0.00     0.014 C 
ENDROOT
BRANCH   1  30
ATOM     30  C   UNL     1       1.650  -6.051  11.266  1.00  0.00     0.048 C 
ATOM     31  O   UNL     1       0.525  -5.633  11.649  1.00  0.00    -0.550 OA
ATOM     32  O   UNL     1       2.291  -5.365  10.244  1.00  0.00    -0.550 OA
ENDBRANCH   1  30
BRANCH  27  33
ATOM     33  O   UNL     1       7.784  -2.969   5.347  1.00  0.00    -0.393 OA
ATOM     34  H   UNL     1       7.261  -2.127   5.409  1.00  0.00     0.210 HD
ENDBRANCH  27  33
TORSDOF 2
ENDMDL
MODEL 6
REMARK VINA RESULT:    -5.534      1.765      2.831
REMARK INTER + INTRA:          -5.824
REMARK INTER:                  -6.053
REMARK INTRA:                   0.230
REMARK UNBOUND:                 0.196
REMARK SMILES C[C@H]1[C@H]2C3=CC[C@H]4[C@]5(C)CC[C@@H](O)C(C)(C)[C@@H]5CC[C@@]4(C)[C@@]3(C)CC[C@]2(C(=O)[O-])CC[C@@H]1C
REMARK SMILES IDX 26 1 30 2 25 3 3 4 31 5 24 6 4 7 2 8 32 9 22 10 5 11 1 12
REMARK SMILES IDX 33 13 23 14 20 15 6 16 7 17 19 18 21 19 8 20 18 21 17 22
REMARK SMILES IDX 10 23 9 24 14 25 11 26 12 27 15 28 16 29 27 30 28 31 29 32
REMARK SMILES IDX 13 33
REMARK H PARENT 13 34
REMARK Flexibility Score: inf
ROOT
ATOM      1  C   UNL     1       7.034  -5.862   6.009  1.00  0.00     0.017 C 
ATOM      2  C   UNL     1       8.294  -5.389   5.190  1.00  0.00     0.014 C 
ATOM      3  C   UNL     1       6.788  -7.348   5.673  1.00  0.00     0.014 C 
ATOM      4  C   UNL     1       7.352  -5.707   7.531  1.00  0.00     0.030 C 
ATOM      5  C   UNL     1       9.124  -4.278   5.867  1.00  0.00     0.004 C 
ATOM      6  C   UNL     1       5.674  -7.973   6.516  1.00  0.00     0.013 C 
ATOM      7  C   UNL     1       6.485  -6.560   8.491  1.00  0.00    -0.063 C 
ATOM      8  C   UNL     1       7.593  -4.190   7.922  1.00  0.00    -0.003 C 
ATOM      9  C   UNL     1       8.269  -3.375   6.767  1.00  0.00    -0.011 C 
ATOM     10  C   UNL     1       5.930  -7.923   8.069  1.00  0.00    -0.006 C 
ATOM     11  C   UNL     1       6.614  -6.350   9.813  1.00  0.00    -0.027 C 
ATOM     12  C   UNL     1       6.339  -3.430   8.417  1.00  0.00     0.008 C 
ATOM     13  C   UNL     1       9.124  -2.223   7.318  1.00  0.00     0.008 C 
ATOM     14  C   UNL     1       7.064  -8.967   8.352  1.00  0.00     0.017 C 
ATOM     15  C   UNL     1       4.604  -8.271   8.932  1.00  0.00    -0.020 C 
ATOM     16  C   UNL     1       6.033  -7.225  10.886  1.00  0.00     0.032 C 
ATOM     17  C   UNL     1       4.911  -8.264  10.497  1.00  0.00     0.006 C 
ATOM     18  C   UNL     1       3.415  -7.275   8.671  1.00  0.00     0.008 C 
ATOM     19  C   UNL     1       4.142  -9.698   8.486  1.00  0.00     0.012 C 
ATOM     20  C   UNL     1       3.638  -8.111  11.472  1.00  0.00    -0.025 C 
ATOM     21  C   UNL     1       3.196  -6.200   9.751  1.00  0.00     0.005 C 
ATOM     22  C   UNL     1       2.906  -6.736  11.196  1.00  0.00     0.003 C 
ATOM     23  C   UNL     1       2.645  -9.339  11.377  1.00  0.00     0.010 C 
ATOM     24  C   UNL     1       4.187  -8.145  12.952  1.00  0.00     0.012 C 
ATOM     25  C   UNL     1       1.378  -6.707  11.607  1.00  0.00    -0.006 C 
ATOM     26  C   UNL     1       1.254  -9.149  10.708  1.00  0.00     0.033 C 
ATOM     27  C   UNL     1       0.598  -7.747  10.765  1.00  0.00     0.120 C 
ATOM     28  C   UNL     1       1.190  -6.995  13.125  1.00  0.00     0.014 C 
ATOM     29  C   UNL     1       0.771  -5.290  11.371  1.00  0.00     0.014 C 
ENDROOT
BRANCH   1  30
ATOM     30  C   UNL     1       5.794  -5.065   5.601  1.00  0.00     0.048 C 
ATOM     31  O   UNL     1       4.719  -5.156   6.253  1.00  0.00    -0.550 OA
ATOM     32  O   UNL     1       5.854  -4.147   4.562  1.00  0.00    -0.550 OA
ENDBRANCH   1  30
BRANCH  27  33
ATOM     33  O   UNL     1      -0.724  -7.876  11.238  1.00  0.00    -0.393 OA
ATOM     34  H   UNL     1      -0.832  -8.804  11.574  1.00  0.00     0.210 HD
ENDBRANCH  27  33
TORSDOF 2
ENDMDL
MODEL 7
REMARK VINA RESULT:    -5.166      1.928      7.441
REMARK INTER + INTRA:          -5.423
REMARK INTER:                  -5.631
REMARK INTRA:                   0.208
REMARK UNBOUND:                 0.196
REMARK SMILES C[C@H]1[C@H]2C3=CC[C@H]4[C@]5(C)CC[C@@H](O)C(C)(C)[C@@H]5CC[C@@]4(C)[C@@]3(C)CC[C@]2(C(=O)[O-])CC[C@@H]1C
REMARK SMILES IDX 26 1 30 2 25 3 3 4 31 5 24 6 4 7 2 8 32 9 22 10 5 11 1 12
REMARK SMILES IDX 33 13 23 14 20 15 6 16 7 17 19 18 21 19 8 20 18 21 17 22
REMARK SMILES IDX 10 23 9 24 14 25 11 26 12 27 15 28 16 29 27 30 28 31 29 32
REMARK SMILES IDX 13 33
REMARK H PARENT 13 34
REMARK Flexibility Score: inf
ROOT
ATOM      1  C   UNL     1       2.594  -6.294  10.996  1.00  0.00     0.017 C 
ATOM      2  C   UNL     1       1.775  -6.194  12.337  1.00  0.00     0.014 C 
ATOM      3  C   UNL     1       3.259  -4.924  10.749  1.00  0.00     0.014 C 
ATOM      4  C   UNL     1       3.691  -7.393  11.173  1.00  0.00     0.030 C 
ATOM      5  C   UNL     1       1.660  -7.515  13.125  1.00  0.00     0.004 C 
ATOM      6  C   UNL     1       4.207  -4.929   9.547  1.00  0.00     0.013 C 
ATOM      7  C   UNL     1       4.894  -7.308  10.201  1.00  0.00    -0.063 C 
ATOM      8  C   UNL     1       3.048  -8.822  11.410  1.00  0.00    -0.003 C 
ATOM      9  C   UNL     1       1.703  -8.747  12.210  1.00  0.00    -0.011 C 
ATOM     10  C   UNL     1       5.389  -5.965   9.658  1.00  0.00    -0.006 C 
ATOM     11  C   UNL     1       5.786  -8.314  10.210  1.00  0.00    -0.027 C 
ATOM     12  C   UNL     1       2.836  -9.670  10.134  1.00  0.00     0.008 C 
ATOM     13  C   UNL     1       1.467 -10.021  13.036  1.00  0.00     0.008 C 
ATOM     14  C   UNL     1       6.368  -5.386  10.736  1.00  0.00     0.017 C 
ATOM     15  C   UNL     1       6.157  -6.187   8.249  1.00  0.00    -0.020 C 
ATOM     16  C   UNL     1       7.115  -8.295   9.512  1.00  0.00     0.032 C 
ATOM     17  C   UNL     1       7.379  -7.198   8.408  1.00  0.00     0.006 C 
ATOM     18  C   UNL     1       5.221  -6.740   7.112  1.00  0.00     0.008 C 
ATOM     19  C   UNL     1       6.681  -4.783   7.799  1.00  0.00     0.012 C 
ATOM     20  C   UNL     1       7.920  -7.881   7.053  1.00  0.00    -0.025 C 
ATOM     21  C   UNL     1       5.347  -8.245   6.817  1.00  0.00     0.005 C 
ATOM     22  C   UNL     1       6.772  -8.736   6.381  1.00  0.00     0.003 C 
ATOM     23  C   UNL     1       8.542  -6.831   6.046  1.00  0.00     0.010 C 
ATOM     24  C   UNL     1       9.125  -8.817   7.460  1.00  0.00     0.012 C 
ATOM     25  C   UNL     1       6.935  -8.956   4.822  1.00  0.00    -0.006 C 
ATOM     26  C   UNL     1       7.787  -6.495   4.727  1.00  0.00     0.033 C 
ATOM     27  C   UNL     1       6.883  -7.585   4.101  1.00  0.00     0.120 C 
ATOM     28  C   UNL     1       8.267  -9.688   4.486  1.00  0.00     0.014 C 
ATOM     29  C   UNL     1       5.801  -9.874   4.273  1.00  0.00     0.014 C 
ENDROOT
BRANCH   1  30
ATOM     30  C   UNL     1       1.667  -6.598   9.818  1.00  0.00     0.048 C 
ATOM     31  O   UNL     1       0.416  -6.618   9.964  1.00  0.00    -0.550 OA
ATOM     32  O   UNL     1       2.181  -6.760   8.538  1.00  0.00    -0.550 OA
ENDBRANCH   1  30
BRANCH  27  33
ATOM     33  O   UNL     1       7.213  -7.730   2.738  1.00  0.00    -0.393 OA
ATOM     34  H   UNL     1       6.478  -7.325   2.207  1.00  0.00     0.210 HD
ENDBRANCH  27  33
TORSDOF 2
ENDMDL
MODEL 8
REMARK VINA RESULT:    -4.933      3.019      4.785
REMARK INTER + INTRA:          -5.169
REMARK INTER:                  -5.358
REMARK INTRA:                   0.189
REMARK UNBOUND:                 0.196
REMARK SMILES C[C@H]1[C@H]2C3=CC[C@H]4[C@]5(C)CC[C@@H](O)C(C)(C)[C@@H]5CC[C@@]4(C)[C@@]3(C)CC[C@]2(C(=O)[O-])CC[C@@H]1C
REMARK SMILES IDX 26 1 30 2 25 3 3 4 31 5 24 6 4 7 2 8 32 9 22 10 5 11 1 12
REMARK SMILES IDX 33 13 23 14 20 15 6 16 7 17 19 18 21 19 8 20 18 21 17 22
REMARK SMILES IDX 10 23 9 24 14 25 11 26 12 27 15 28 16 29 27 30 28 31 29 32
REMARK SMILES IDX 13 33
REMARK H PARENT 13 34
REMARK Flexibility Score: inf
ROOT
ATOM      1  C   UNL     1       7.754  -6.971   0.951  1.00  0.00     0.017 C 
ATOM      2  C   UNL     1       7.980  -7.006  -0.608  1.00  0.00     0.014 C 
ATOM      3  C   UNL     1       9.125  -6.736   1.618  1.00  0.00     0.014 C 
ATOM      4  C   UNL     1       6.792  -5.785   1.281  1.00  0.00     0.030 C 
ATOM      5  C   UNL     1       6.784  -6.507  -1.445  1.00  0.00     0.004 C 
ATOM      6  C   UNL     1       9.025  -6.537   3.132  1.00  0.00     0.013 C 
ATOM      7  C   UNL     1       6.837  -5.266   2.739  1.00  0.00    -0.063 C 
ATOM      8  C   UNL     1       5.363  -5.998   0.628  1.00  0.00    -0.003 C 
ATOM      9  C   UNL     1       5.439  -6.748  -0.745  1.00  0.00    -0.011 C 
ATOM     10  C   UNL     1       8.123  -5.322   3.568  1.00  0.00    -0.006 C 
ATOM     11  C   UNL     1       5.924  -4.353   3.114  1.00  0.00    -0.027 C 
ATOM     12  C   UNL     1       4.321  -6.696   1.535  1.00  0.00     0.008 C 
ATOM     13  C   UNL     1       4.284  -6.341  -1.673  1.00  0.00     0.008 C 
ATOM     14  C   UNL     1       8.936  -4.032   3.207  1.00  0.00     0.017 C 
ATOM     15  C   UNL     1       7.762  -5.347   5.148  1.00  0.00    -0.020 C 
ATOM     16  C   UNL     1       5.954  -3.579   4.400  1.00  0.00     0.032 C 
ATOM     17  C   UNL     1       6.895  -4.076   5.566  1.00  0.00     0.006 C 
ATOM     18  C   UNL     1       6.970  -6.634   5.583  1.00  0.00     0.008 C 
ATOM     19  C   UNL     1       9.125  -5.339   5.917  1.00  0.00     0.012 C 
ATOM     20  C   UNL     1       6.070  -4.199   6.943  1.00  0.00    -0.025 C 
ATOM     21  C   UNL     1       5.454  -6.450   5.777  1.00  0.00     0.005 C 
ATOM     22  C   UNL     1       5.029  -5.387   6.848  1.00  0.00     0.003 C 
ATOM     23  C   UNL     1       7.010  -4.336   8.208  1.00  0.00     0.010 C 
ATOM     24  C   UNL     1       5.311  -2.829   7.147  1.00  0.00     0.012 C 
ATOM     25  C   UNL     1       4.598  -6.001   8.241  1.00  0.00    -0.006 C 
ATOM     26  C   UNL     1       7.082  -5.694   8.964  1.00  0.00     0.033 C 
ATOM     27  C   UNL     1       5.838  -6.616   8.938  1.00  0.00     0.120 C 
ATOM     28  C   UNL     1       3.941  -4.930   9.159  1.00  0.00     0.014 C 
ATOM     29  C   UNL     1       3.515  -7.106   8.044  1.00  0.00     0.014 C 
ENDROOT
BRANCH   1  30
ATOM     30  C   UNL     1       7.201  -8.309   1.446  1.00  0.00     0.048 C 
ATOM     31  O   UNL     1       7.271  -9.345   0.733  1.00  0.00    -0.550 OA
ATOM     32  O   UNL     1       6.700  -8.433   2.735  1.00  0.00    -0.550 OA
ENDBRANCH   1  30
BRANCH  27  33
ATOM     33  O   UNL     1       5.523  -7.002  10.258  1.00  0.00    -0.393 OA
ATOM     34  H   UNL     1       5.373  -6.174  10.784  1.00  0.00     0.210 HD
ENDBRANCH  27  33
TORSDOF 2
ENDMDL
