MODEL 1
REMARK VINA RESULT:    -2.381      0.000      0.000
REMARK INTER + INTRA:          -7.605
REMARK INTER:                  -4.608
REMARK INTRA:                  -2.997
REMARK UNBOUND:                -2.997
REMARK SMILES CCCCCCCCCCCCCCCCCC(=O)[O-]
REMARK SMILES IDX 10 1 11 2 12 3 13 4 14 5 15 6 16 7 17 8 18 9 19 10 20 11
REMARK SMILES IDX 9 12 8 13 7 14 6 15 5 16 4 17 3 18 2 19 1 20
REMARK H PARENT
REMARK Flexibility Score: inf
ROOT
ATOM      1  C   UNL     1     122.634 106.250 118.497  1.00  0.00     0.000 C 
ENDROOT
BRANCH   1   2
ATOM      2  C   UNL     1     123.097 107.476 119.300  1.00  0.00     0.000 C 
BRANCH   2   3
ATOM      3  C   UNL     1     124.130 107.114 120.380  1.00  0.00     0.000 C 
BRANCH   3   4
ATOM      4  C   UNL     1     123.478 106.743 121.724  1.00  0.00     0.000 C 
BRANCH   4   5
ATOM      5  C   UNL     1     123.287 107.963 122.641  1.00  0.00     0.000 C 
BRANCH   5   6
ATOM      6  C   UNL     1     121.863 108.049 123.215  1.00  0.00     0.000 C 
BRANCH   6   7
ATOM      7  C   UNL     1     120.931 106.965 122.651  1.00  0.00     0.006 C 
BRANCH   7   8
ATOM      8  C   UNL     1     119.773 107.553 121.835  1.00  0.00     0.053 C 
BRANCH   8   9
ATOM      9  C   UNL     1     118.574 106.662 121.911  1.00  0.00     0.041 C 
ATOM     10  O   UNL     1     118.218 106.171 123.014  1.00  0.00    -0.550 OA
ATOM     11  O   UNL     1     117.827 106.404 120.769  1.00  0.00    -0.550 OA
ENDBRANCH   8   9
ENDBRANCH   7   8
ENDBRANCH   6   7
ENDBRANCH   5   6
ENDBRANCH   4   5
ENDBRANCH   3   4
ENDBRANCH   2   3
ENDBRANCH   1   2
BRANCH   1  12
ATOM     12  C   UNL     1     121.179 105.855 118.799  1.00  0.00     0.000 C 
BRANCH  12  13
ATOM     13  C   UNL     1     121.054 104.634 119.736  1.00  0.00    -0.000 C 
BRANCH  13  14
ATOM     14  C   UNL     1     122.182 103.611 119.509  1.00  0.00    -0.000 C 
BRANCH  14  15
ATOM     15  C   UNL     1     122.914 103.232 120.807  1.00  0.00    -0.000 C 
BRANCH  15  16
ATOM     16  C   UNL     1     124.352 102.745 120.555  1.00  0.00    -0.000 C 
BRANCH  16  17
ATOM     17  C   UNL     1     125.412 103.696 121.136  1.00  0.00    -0.000 C 
BRANCH  17  18
ATOM     18  C   UNL     1     126.539 104.088 120.162  1.00  0.00    -0.000 C 
BRANCH  18  19
ATOM     19  C   UNL     1     126.048 104.382 118.730  1.00  0.00    -0.003 C 
ATOM     20  C   UNL     1     126.641 105.674 118.164  1.00  0.00     0.004 C 
ENDBRANCH  18  19
ENDBRANCH  17  18
ENDBRANCH  16  17
ENDBRANCH  15  16
ENDBRANCH  14  15
ENDBRANCH  13  14
ENDBRANCH  12  13
ENDBRANCH   1  12
TORSDOF 16
ENDMDL
MODEL 2
REMARK VINA RESULT:    -2.380      1.574      2.308
REMARK INTER + INTRA:          -7.602
REMARK INTER:                  -4.988
REMARK INTRA:                  -2.614
REMARK UNBOUND:                -2.997
REMARK SMILES CCCCCCCCCCCCCCCCCC(=O)[O-]
REMARK SMILES IDX 10 1 11 2 12 3 13 4 14 5 15 6 16 7 17 8 18 9 19 10 20 11
REMARK SMILES IDX 9 12 8 13 7 14 6 15 5 16 4 17 3 18 2 19 1 20
REMARK H PARENT
REMARK Flexibility Score: inf
ROOT
ATOM      1  C   UNL     1     123.892 108.776 119.797  1.00  0.00     0.000 C 
ENDROOT
BRANCH   1   2
ATOM      2  C   UNL     1     124.329 109.567 121.041  1.00  0.00     0.000 C 
BRANCH   2   3
ATOM      3  C   UNL     1     123.184 109.753 122.049  1.00  0.00     0.000 C 
BRANCH   3   4
ATOM      4  C   UNL     1     123.171 108.669 123.140  1.00  0.00     0.000 C 
BRANCH   4   5
ATOM      5  C   UNL     1     121.806 107.969 123.258  1.00  0.00     0.000 C 
BRANCH   5   6
ATOM      6  C   UNL     1     120.885 108.273 122.064  1.00  0.00     0.000 C 
BRANCH   6   7
ATOM      7  C   UNL     1     120.360 106.999 121.385  1.00  0.00     0.006 C 
BRANCH   7   8
ATOM      8  C   UNL     1     120.440 105.770 122.300  1.00  0.00     0.053 C 
BRANCH   8   9
ATOM      9  C   UNL     1     119.068 105.283 122.643  1.00  0.00     0.041 C 
ATOM     10  O   UNL     1     118.215 106.074 123.124  1.00  0.00    -0.550 OA
ATOM     11  O   UNL     1     118.719 103.961 122.395  1.00  0.00    -0.550 OA
ENDBRANCH   8   9
ENDBRANCH   7   8
ENDBRANCH   6   7
ENDBRANCH   5   6
ENDBRANCH   4   5
ENDBRANCH   3   4
ENDBRANCH   2   3
ENDBRANCH   1   2
BRANCH   1  12
ATOM     12  C   UNL     1     124.759 107.529 119.550  1.00  0.00     0.000 C 
BRANCH  12  13
ATOM     13  C   UNL     1     123.963 106.207 119.600  1.00  0.00    -0.000 C 
BRANCH  13  14
ATOM     14  C   UNL     1     123.874 105.637 121.027  1.00  0.00    -0.000 C 
BRANCH  14  15
ATOM     15  C   UNL     1     123.614 104.122 121.050  1.00  0.00    -0.000 C 
BRANCH  15  16
ATOM     16  C   UNL     1     124.896 103.303 121.278  1.00  0.00    -0.000 C 
BRANCH  16  17
ATOM     17  C   UNL     1     125.350 102.547 120.018  1.00  0.00    -0.000 C 
BRANCH  17  18
ATOM     18  C   UNL     1     126.408 103.274 119.167  1.00  0.00    -0.000 C 
BRANCH  18  19
ATOM     19  C   UNL     1     127.273 104.268 119.970  1.00  0.00    -0.003 C 
ATOM     20  C   UNL     1     127.906 105.341 119.081  1.00  0.00     0.004 C 
ENDBRANCH  18  19
ENDBRANCH  17  18
ENDBRANCH  16  17
ENDBRANCH  15  16
ENDBRANCH  14  15
ENDBRANCH  13  14
ENDBRANCH  12  13
ENDBRANCH   1  12
TORSDOF 16
ENDMDL
MODEL 3
REMARK VINA RESULT:    -2.351     11.323     13.802
REMARK INTER + INTRA:          -7.547
REMARK INTER:                  -4.609
REMARK INTRA:                  -2.938
REMARK UNBOUND:                -2.997
REMARK SMILES CCCCCCCCCCCCCCCCCC(=O)[O-]
REMARK SMILES IDX 10 1 11 2 12 3 13 4 14 5 15 6 16 7 17 8 18 9 19 10 20 11
REMARK SMILES IDX 9 12 8 13 7 14 6 15 5 16 4 17 3 18 2 19 1 20
REMARK H PARENT
REMARK Flexibility Score: inf
ROOT
ATOM      1  C   UNL     1     123.744 111.965 111.185  1.00  0.00     0.000 C 
ENDROOT
BRANCH   1   2
ATOM      2  C   UNL     1     123.656 110.527 111.722  1.00  0.00     0.000 C 
BRANCH   2   3
ATOM      3  C   UNL     1     124.847 109.662 111.281  1.00  0.00     0.000 C 
BRANCH   3   4
ATOM      4  C   UNL     1     125.935 110.475 110.557  1.00  0.00     0.000 C 
BRANCH   4   5
ATOM      5  C   UNL     1     126.210 109.956 109.136  1.00  0.00     0.000 C 
BRANCH   5   6
ATOM      6  C   UNL     1     125.548 108.593 108.870  1.00  0.00     0.000 C 
BRANCH   6   7
ATOM      7  C   UNL     1     124.645 108.606 107.627  1.00  0.00     0.006 C 
BRANCH   7   8
ATOM      8  C   UNL     1     123.224 108.114 107.929  1.00  0.00     0.053 C 
BRANCH   8   9
ATOM      9  C   UNL     1     122.944 106.842 107.195  1.00  0.00     0.041 C 
ATOM     10  O   UNL     1     122.145 106.833 106.221  1.00  0.00    -0.550 OA
ATOM     11  O   UNL     1     123.594 105.670 107.561  1.00  0.00    -0.550 OA
ENDBRANCH   8   9
ENDBRANCH   7   8
ENDBRANCH   6   7
ENDBRANCH   5   6
ENDBRANCH   4   5
ENDBRANCH   3   4
ENDBRANCH   2   3
ENDBRANCH   1   2
BRANCH   1  12
ATOM     12  C   UNL     1     122.605 112.306 110.208  1.00  0.00     0.000 C 
BRANCH  12  13
ATOM     13  C   UNL     1     122.766 111.647 108.821  1.00  0.00    -0.000 C 
BRANCH  13  14
ATOM     14  C   UNL     1     123.752 112.416 107.925  1.00  0.00    -0.000 C 
BRANCH  14  15
ATOM     15  C   UNL     1     123.412 113.911 107.806  1.00  0.00    -0.000 C 
BRANCH  15  16
ATOM     16  C   UNL     1     124.631 114.818 108.048  1.00  0.00    -0.000 C 
BRANCH  16  17
ATOM     17  C   UNL     1     125.827 114.058 108.648  1.00  0.00    -0.000 C 
BRANCH  17  18
ATOM     18  C   UNL     1     126.203 114.467 110.085  1.00  0.00    -0.000 C 
BRANCH  18  19
ATOM     19  C   UNL     1     127.476 113.775 110.614  1.00  0.00    -0.003 C 
ATOM     20  C   UNL     1     127.442 113.570 112.129  1.00  0.00     0.004 C 
ENDBRANCH  18  19
ENDBRANCH  17  18
ENDBRANCH  16  17
ENDBRANCH  15  16
ENDBRANCH  14  15
ENDBRANCH  13  14
ENDBRANCH  12  13
ENDBRANCH   1  12
TORSDOF 16
ENDMDL
MODEL 4
REMARK VINA RESULT:    -2.349      1.716      2.862
REMARK INTER + INTRA:          -7.543
REMARK INTER:                  -4.886
REMARK INTRA:                  -2.657
REMARK UNBOUND:                -2.997
REMARK SMILES CCCCCCCCCCCCCCCCCC(=O)[O-]
REMARK SMILES IDX 10 1 11 2 12 3 13 4 14 5 15 6 16 7 17 8 18 9 19 10 20 11
REMARK SMILES IDX 9 12 8 13 7 14 6 15 5 16 4 17 3 18 2 19 1 20
REMARK H PARENT
REMARK Flexibility Score: inf
ROOT
ATOM      1  C   UNL     1     122.795 109.598 120.005  1.00  0.00     0.000 C 
ENDROOT
BRANCH   1   2
ATOM      2  C   UNL     1     122.582 110.186 121.410  1.00  0.00     0.000 C 
BRANCH   2   3
ATOM      3  C   UNL     1     123.660 109.730 122.406  1.00  0.00     0.000 C 
BRANCH   3   4
ATOM      4  C   UNL     1     123.320 108.386 123.075  1.00  0.00     0.000 C 
BRANCH   4   5
ATOM      5  C   UNL     1     121.816 108.234 123.357  1.00  0.00     0.000 C 
BRANCH   5   6
ATOM      6  C   UNL     1     121.229 106.953 122.740  1.00  0.00     0.000 C 
BRANCH   6   7
ATOM      7  C   UNL     1     119.781 107.138 122.260  1.00  0.00     0.006 C 
BRANCH   7   8
ATOM      8  C   UNL     1     119.702 107.568 120.789  1.00  0.00     0.053 C 
BRANCH   8   9
ATOM      9  C   UNL     1     118.786 108.740 120.636  1.00  0.00     0.041 C 
ATOM     10  O   UNL     1     117.802 108.679 119.853  1.00  0.00    -0.550 OA
ATOM     11  O   UNL     1     118.998 109.890 121.387  1.00  0.00    -0.550 OA
ENDBRANCH   8   9
ENDBRANCH   7   8
ENDBRANCH   6   7
ENDBRANCH   5   6
ENDBRANCH   4   5
ENDBRANCH   3   4
ENDBRANCH   2   3
ENDBRANCH   1   2
BRANCH   1  12
ATOM     12  C   UNL     1     124.244 109.143 119.764  1.00  0.00     0.000 C 
BRANCH  12  13
ATOM     13  C   UNL     1     124.366 107.653 119.381  1.00  0.00    -0.000 C 
BRANCH  13  14
ATOM     14  C   UNL     1     123.032 106.902 119.542  1.00  0.00    -0.000 C 
BRANCH  14  15
ATOM     15  C   UNL     1     123.217 105.450 120.015  1.00  0.00    -0.000 C 
BRANCH  15  16
ATOM     16  C   UNL     1     124.192 105.333 121.200  1.00  0.00    -0.000 C 
BRANCH  16  17
ATOM     17  C   UNL     1     124.746 103.909 121.375  1.00  0.00    -0.000 C 
BRANCH  17  18
ATOM     18  C   UNL     1     125.469 103.337 120.141  1.00  0.00    -0.000 C 
BRANCH  18  19
ATOM     19  C   UNL     1     126.645 104.207 119.652  1.00  0.00    -0.003 C 
ATOM     20  C   UNL     1     127.933 103.941 120.435  1.00  0.00     0.004 C 
ENDBRANCH  18  19
ENDBRANCH  17  18
ENDBRANCH  16  17
ENDBRANCH  15  16
ENDBRANCH  14  15
ENDBRANCH  13  14
ENDBRANCH  12  13
ENDBRANCH   1  12
TORSDOF 16
ENDMDL
MODEL 5
REMARK VINA RESULT:    -2.314     13.665     15.918
REMARK INTER + INTRA:          -7.476
REMARK INTER:                  -4.971
REMARK INTRA:                  -2.505
REMARK UNBOUND:                -2.997
REMARK SMILES CCCCCCCCCCCCCCCCCC(=O)[O-]
REMARK SMILES IDX 10 1 11 2 12 3 13 4 14 5 15 6 16 7 17 8 18 9 19 10 20 11
REMARK SMILES IDX 9 12 8 13 7 14 6 15 5 16 4 17 3 18 2 19 1 20
REMARK H PARENT
REMARK Flexibility Score: inf
ROOT
ATOM      1  C   UNL     1     124.716 116.645 111.303  1.00  0.00     0.000 C 
ENDROOT
BRANCH   1   2
ATOM      2  C   UNL     1     124.155 117.679 110.313  1.00  0.00     0.000 C 
BRANCH   2   3
ATOM      3  C   UNL     1     125.234 118.650 109.806  1.00  0.00     0.000 C 
BRANCH   3   4
ATOM      4  C   UNL     1     126.102 118.042 108.690  1.00  0.00     0.000 C 
BRANCH   4   5
ATOM      5  C   UNL     1     127.423 118.805 108.492  1.00  0.00     0.000 C 
BRANCH   5   6
ATOM      6  C   UNL     1     128.593 118.162 109.254  1.00  0.00     0.000 C 
BRANCH   6   7
ATOM      7  C   UNL     1     128.315 116.701 109.642  1.00  0.00     0.006 C 
BRANCH   7   8
ATOM      8  C   UNL     1     129.482 116.065 110.407  1.00  0.00     0.053 C 
BRANCH   8   9
ATOM      9  C   UNL     1     129.571 114.603 110.105  1.00  0.00     0.041 C 
ATOM     10  O   UNL     1     128.622 113.833 110.409  1.00  0.00    -0.550 OA
ATOM     11  O   UNL     1     130.688 114.094 109.452  1.00  0.00    -0.550 OA
ENDBRANCH   8   9
ENDBRANCH   7   8
ENDBRANCH   6   7
ENDBRANCH   5   6
ENDBRANCH   4   5
ENDBRANCH   3   4
ENDBRANCH   2   3
ENDBRANCH   1   2
BRANCH   1  12
ATOM     12  C   UNL     1     123.743 115.484 111.566  1.00  0.00     0.000 C 
BRANCH  12  13
ATOM     13  C   UNL     1     122.372 115.662 110.879  1.00  0.00    -0.000 C 
BRANCH  13  14
ATOM     14  C   UNL     1     121.578 114.345 110.816  1.00  0.00    -0.000 C 
BRANCH  14  15
ATOM     15  C   UNL     1     122.482 113.109 110.679  1.00  0.00    -0.000 C 
BRANCH  15  16
ATOM     16  C   UNL     1     122.249 112.347 109.362  1.00  0.00    -0.000 C 
BRANCH  16  17
ATOM     17  C   UNL     1     123.381 112.563 108.344  1.00  0.00    -0.000 C 
BRANCH  17  18
ATOM     18  C   UNL     1     123.317 113.896 107.573  1.00  0.00    -0.000 C 
BRANCH  18  19
ATOM     19  C   UNL     1     124.472 114.863 107.908  1.00  0.00    -0.003 C 
ATOM     20  C   UNL     1     125.635 114.161 108.611  1.00  0.00     0.004 C 
ENDBRANCH  18  19
ENDBRANCH  17  18
ENDBRANCH  16  17
ENDBRANCH  15  16
ENDBRANCH  14  15
ENDBRANCH  13  14
ENDBRANCH  12  13
ENDBRANCH   1  12
TORSDOF 16
ENDMDL
MODEL 6
REMARK VINA RESULT:    -2.314      3.005      5.880
REMARK INTER + INTRA:          -7.476
REMARK INTER:                  -4.523
REMARK INTRA:                  -2.954
REMARK UNBOUND:                -2.997
REMARK SMILES CCCCCCCCCCCCCCCCCC(=O)[O-]
REMARK SMILES IDX 10 1 11 2 12 3 13 4 14 5 15 6 16 7 17 8 18 9 19 10 20 11
REMARK SMILES IDX 9 12 8 13 7 14 6 15 5 16 4 17 3 18 2 19 1 20
REMARK H PARENT
REMARK Flexibility Score: inf
ROOT
ATOM      1  C   UNL     1     123.506 109.040 119.691  1.00  0.00     0.000 C 
ENDROOT
BRANCH   1   2
ATOM      2  C   UNL     1     123.761 110.423 120.312  1.00  0.00     0.000 C 
BRANCH   2   3
ATOM      3  C   UNL     1     123.203 110.537 121.739  1.00  0.00     0.000 C 
BRANCH   3   4
ATOM      4  C   UNL     1     123.514 109.299 122.599  1.00  0.00     0.000 C 
BRANCH   4   5
ATOM      5  C   UNL     1     122.244 108.650 123.176  1.00  0.00     0.000 C 
BRANCH   5   6
ATOM      6  C   UNL     1     122.097 107.176 122.761  1.00  0.00     0.000 C 
BRANCH   6   7
ATOM      7  C   UNL     1     123.395 106.593 122.181  1.00  0.00     0.006 C 
BRANCH   7   8
ATOM      8  C   UNL     1     123.132 105.553 121.084  1.00  0.00     0.053 C 
BRANCH   8   9
ATOM      9  C   UNL     1     124.359 104.735 120.833  1.00  0.00     0.041 C 
ATOM     10  O   UNL     1     124.527 103.642 121.435  1.00  0.00    -0.550 OA
ATOM     11  O   UNL     1     125.300 105.162 119.905  1.00  0.00    -0.550 OA
ENDBRANCH   8   9
ENDBRANCH   7   8
ENDBRANCH   6   7
ENDBRANCH   5   6
ENDBRANCH   4   5
ENDBRANCH   3   4
ENDBRANCH   2   3
ENDBRANCH   1   2
BRANCH   1  12
ATOM     12  C   UNL     1     122.238 109.003 118.821  1.00  0.00     0.000 C 
BRANCH  12  13
ATOM     13  C   UNL     1     120.981 108.534 119.586  1.00  0.00    -0.000 C 
BRANCH  13  14
ATOM     14  C   UNL     1     120.058 109.708 119.959  1.00  0.00    -0.000 C 
BRANCH  14  15
ATOM     15  C   UNL     1     119.210 109.427 121.211  1.00  0.00    -0.000 C 
BRANCH  15  16
ATOM     16  C   UNL     1     117.755 109.060 120.872  1.00  0.00    -0.000 C 
BRANCH  16  17
ATOM     17  C   UNL     1     117.433 107.583 121.157  1.00  0.00    -0.000 C 
BRANCH  17  18
ATOM     18  C   UNL     1     118.514 106.822 121.947  1.00  0.00    -0.000 C 
BRANCH  18  19
ATOM     19  C   UNL     1     119.132 105.639 121.172  1.00  0.00    -0.003 C 
ATOM     20  C   UNL     1     119.608 104.520 122.100  1.00  0.00     0.004 C 
ENDBRANCH  18  19
ENDBRANCH  17  18
ENDBRANCH  16  17
ENDBRANCH  15  16
ENDBRANCH  14  15
ENDBRANCH  13  14
ENDBRANCH  12  13
ENDBRANCH   1  12
TORSDOF 16
ENDMDL
MODEL 7
REMARK VINA RESULT:    -2.306      3.381      5.764
REMARK INTER + INTRA:          -7.461
REMARK INTER:                  -4.640
REMARK INTRA:                  -2.821
REMARK UNBOUND:                -2.997
REMARK SMILES CCCCCCCCCCCCCCCCCC(=O)[O-]
REMARK SMILES IDX 10 1 11 2 12 3 13 4 14 5 15 6 16 7 17 8 18 9 19 10 20 11
REMARK SMILES IDX 9 12 8 13 7 14 6 15 5 16 4 17 3 18 2 19 1 20
REMARK H PARENT
REMARK Flexibility Score: inf
ROOT
ATOM      1  C   UNL     1     120.091 108.875 119.532  1.00  0.00     0.000 C 
ENDROOT
BRANCH   1   2
ATOM      2  C   UNL     1     121.158 108.336 118.564  1.00  0.00     0.000 C 
BRANCH   2   3
ATOM      3  C   UNL     1     121.917 107.130 119.141  1.00  0.00     0.000 C 
BRANCH   3   4
ATOM      4  C   UNL     1     123.398 107.107 118.725  1.00  0.00     0.000 C 
BRANCH   4   5
ATOM      5  C   UNL     1     124.299 106.468 119.794  1.00  0.00     0.000 C 
BRANCH   5   6
ATOM      6  C   UNL     1     123.666 105.216 120.425  1.00  0.00     0.000 C 
BRANCH   6   7
ATOM      7  C   UNL     1     124.525 104.623 121.553  1.00  0.00     0.006 C 
BRANCH   7   8
ATOM      8  C   UNL     1     125.010 103.203 121.235  1.00  0.00     0.053 C 
BRANCH   8   9
ATOM      9  C   UNL     1     126.174 103.246 120.297  1.00  0.00     0.041 C 
ATOM     10  O   UNL     1     127.112 104.064 120.485  1.00  0.00    -0.550 OA
ATOM     11  O   UNL     1     126.241 102.355 119.232  1.00  0.00    -0.550 OA
ENDBRANCH   8   9
ENDBRANCH   7   8
ENDBRANCH   6   7
ENDBRANCH   5   6
ENDBRANCH   4   5
ENDBRANCH   3   4
ENDBRANCH   2   3
ENDBRANCH   1   2
BRANCH   1  12
ATOM     12  C   UNL     1     119.206 107.763 120.120  1.00  0.00     0.000 C 
BRANCH  12  13
ATOM     13  C   UNL     1     119.073 107.830 121.657  1.00  0.00    -0.000 C 
BRANCH  13  14
ATOM     14  C   UNL     1     119.553 106.536 122.338  1.00  0.00    -0.000 C 
BRANCH  14  15
ATOM     15  C   UNL     1     121.065 106.535 122.619  1.00  0.00    -0.000 C 
BRANCH  15  16
ATOM     16  C   UNL     1     121.611 107.940 122.930  1.00  0.00    -0.000 C 
BRANCH  16  17
ATOM     17  C   UNL     1     123.145 108.012 122.850  1.00  0.00    -0.000 C 
BRANCH  17  18
ATOM     18  C   UNL     1     123.717 109.414 122.569  1.00  0.00    -0.000 C 
BRANCH  18  19
ATOM     19  C   UNL     1     123.297 109.993 121.202  1.00  0.00    -0.003 C 
ATOM     20  C   UNL     1     122.432 111.248 121.341  1.00  0.00     0.004 C 
ENDBRANCH  18  19
ENDBRANCH  17  18
ENDBRANCH  16  17
ENDBRANCH  15  16
ENDBRANCH  14  15
ENDBRANCH  13  14
ENDBRANCH  12  13
ENDBRANCH   1  12
TORSDOF 16
ENDMDL
MODEL 8
REMARK VINA RESULT:    -2.299      2.557      3.571
REMARK INTER + INTRA:          -7.446
REMARK INTER:                  -4.678
REMARK INTRA:                  -2.768
REMARK UNBOUND:                -2.997
REMARK SMILES CCCCCCCCCCCCCCCCCC(=O)[O-]
REMARK SMILES IDX 10 1 11 2 12 3 13 4 14 5 15 6 16 7 17 8 18 9 19 10 20 11
REMARK SMILES IDX 9 12 8 13 7 14 6 15 5 16 4 17 3 18 2 19 1 20
REMARK H PARENT
REMARK Flexibility Score: inf
ROOT
ATOM      1  C   UNL     1     122.270 105.278 119.142  1.00  0.00     0.000 C 
ENDROOT
BRANCH   1   2
ATOM      2  C   UNL     1     122.312 106.774 119.494  1.00  0.00     0.000 C 
BRANCH   2   3
ATOM      3  C   UNL     1     120.927 107.434 119.412  1.00  0.00     0.000 C 
BRANCH   3   4
ATOM      4  C   UNL     1     120.458 107.999 120.765  1.00  0.00     0.000 C 
BRANCH   4   5
ATOM      5  C   UNL     1     120.277 106.904 121.829  1.00  0.00     0.000 C 
BRANCH   5   6
ATOM      6  C   UNL     1     121.295 107.023 122.975  1.00  0.00     0.000 C 
BRANCH   6   7
ATOM      7  C   UNL     1     121.967 108.404 123.028  1.00  0.00     0.006 C 
BRANCH   7   8
ATOM      8  C   UNL     1     123.482 108.327 122.802  1.00  0.00     0.053 C 
BRANCH   8   9
ATOM      9  C   UNL     1     123.959 109.521 122.038  1.00  0.00     0.041 C 
ATOM     10  O   UNL     1     123.997 109.497 120.780  1.00  0.00    -0.550 OA
ATOM     11  O   UNL     1     124.327 110.677 122.716  1.00  0.00    -0.550 OA
ENDBRANCH   8   9
ENDBRANCH   7   8
ENDBRANCH   6   7
ENDBRANCH   5   6
ENDBRANCH   4   5
ENDBRANCH   3   4
ENDBRANCH   2   3
ENDBRANCH   1   2
BRANCH   1  12
ATOM     12  C   UNL     1     122.736 104.381 120.301  1.00  0.00     0.000 C 
BRANCH  12  13
ATOM     13  C   UNL     1     123.824 105.031 121.183  1.00  0.00    -0.000 C 
BRANCH  13  14
ATOM     14  C   UNL     1     124.886 104.014 121.638  1.00  0.00    -0.000 C 
BRANCH  14  15
ATOM     15  C   UNL     1     124.970 102.785 120.717  1.00  0.00    -0.000 C 
BRANCH  15  16
ATOM     16  C   UNL     1     126.140 102.870 119.721  1.00  0.00    -0.000 C 
BRANCH  16  17
ATOM     17  C   UNL     1     127.310 103.718 120.249  1.00  0.00    -0.000 C 
BRANCH  17  18
ATOM     18  C   UNL     1     127.615 104.987 119.431  1.00  0.00    -0.000 C 
BRANCH  18  19
ATOM     19  C   UNL     1     126.449 105.439 118.528  1.00  0.00    -0.003 C 
ATOM     20  C   UNL     1     125.974 106.856 118.854  1.00  0.00     0.004 C 
ENDBRANCH  18  19
ENDBRANCH  17  18
ENDBRANCH  16  17
ENDBRANCH  15  16
ENDBRANCH  14  15
ENDBRANCH  13  14
ENDBRANCH  12  13
ENDBRANCH   1  12
TORSDOF 16
ENDMDL
MODEL 9
REMARK VINA RESULT:    -2.281     12.651     15.291
REMARK INTER + INTRA:          -7.412
REMARK INTER:                  -4.680
REMARK INTRA:                  -2.732
REMARK UNBOUND:                -2.997
REMARK SMILES CCCCCCCCCCCCCCCCCC(=O)[O-]
REMARK SMILES IDX 10 1 11 2 12 3 13 4 14 5 15 6 16 7 17 8 18 9 19 10 20 11
REMARK SMILES IDX 9 12 8 13 7 14 6 15 5 16 4 17 3 18 2 19 1 20
REMARK H PARENT
REMARK Flexibility Score: inf
ROOT
ATOM      1  C   UNL     1     123.373 115.063 110.425  1.00  0.00     0.000 C 
ENDROOT
BRANCH   1   2
ATOM      2  C   UNL     1     122.371 114.037 109.870  1.00  0.00     0.000 C 
BRANCH   2   3
ATOM      3  C   UNL     1     122.232 114.122 108.341  1.00  0.00     0.000 C 
BRANCH   3   4
ATOM      4  C   UNL     1     123.490 113.631 107.603  1.00  0.00     0.000 C 
BRANCH   4   5
ATOM      5  C   UNL     1     123.880 112.196 107.996  1.00  0.00     0.000 C 
BRANCH   5   6
ATOM      6  C   UNL     1     125.355 112.083 108.418  1.00  0.00     0.000 C 
BRANCH   6   7
ATOM      7  C   UNL     1     125.542 111.253 109.698  1.00  0.00     0.006 C 
BRANCH   7   8
ATOM      8  C   UNL     1     126.349 109.972 109.454  1.00  0.00     0.053 C 
BRANCH   8   9
ATOM      9  C   UNL     1     125.450 108.863 109.009  1.00  0.00     0.041 C 
ATOM     10  O   UNL     1     125.701 108.227 107.952  1.00  0.00    -0.550 OA
ATOM     11  O   UNL     1     124.352 108.506 109.783  1.00  0.00    -0.550 OA
ENDBRANCH   8   9
ENDBRANCH   7   8
ENDBRANCH   6   7
ENDBRANCH   5   6
ENDBRANCH   4   5
ENDBRANCH   3   4
ENDBRANCH   2   3
ENDBRANCH   1   2
BRANCH   1  12
ATOM     12  C   UNL     1     124.263 114.483 111.537  1.00  0.00     0.000 C 
BRANCH  12  13
ATOM     13  C   UNL     1     125.773 114.667 111.275  1.00  0.00    -0.000 C 
BRANCH  13  14
ATOM     14  C   UNL     1     126.049 115.344 109.920  1.00  0.00    -0.000 C 
BRANCH  14  15
ATOM     15  C   UNL     1     127.321 116.208 109.932  1.00  0.00    -0.000 C 
BRANCH  15  16
ATOM     16  C   UNL     1     127.199 117.454 109.038  1.00  0.00    -0.000 C 
BRANCH  16  17
ATOM     17  C   UNL     1     125.741 117.899 108.834  1.00  0.00    -0.000 C 
BRANCH  17  18
ATOM     18  C   UNL     1     125.279 119.054 109.743  1.00  0.00    -0.000 C 
BRANCH  18  19
ATOM     19  C   UNL     1     124.225 118.637 110.790  1.00  0.00    -0.003 C 
ATOM     20  C   UNL     1     124.856 118.218 112.119  1.00  0.00     0.004 C 
ENDBRANCH  18  19
ENDBRANCH  17  18
ENDBRANCH  16  17
ENDBRANCH  15  16
ENDBRANCH  14  15
ENDBRANCH  13  14
ENDBRANCH  12  13
ENDBRANCH   1  12
TORSDOF 16
ENDMDL
