MODEL 1
REMARK VINA RESULT:    -4.428      0.000      0.000
REMARK INTER + INTRA:         -12.810
REMARK INTER:                  -9.605
REMARK INTRA:                  -3.205
REMARK UNBOUND:                -3.205
REMARK SMILES CCCCCCCCCCCCCCCCCCCCCC(=O)[O-]
REMARK SMILES IDX 12 1 11 2 10 3 9 4 8 5 7 6 6 7 5 8 4 9 3 10 2 11 1 12 13 13
REMARK SMILES IDX 14 14 15 15 16 16 17 17 18 18 19 19 20 20 21 21 22 22 23 23
REMARK SMILES IDX 24 24
REMARK H PARENT
REMARK Flexibility Score: inf
ROOT
ATOM      1  C   UNL     1       5.970  78.384  39.916  1.00  0.00     0.000 C 
ENDROOT
BRANCH   1   2
ATOM      2  C   UNL     1       6.426  79.628  39.124  1.00  0.00     0.000 C 
BRANCH   2   3
ATOM      3  C   UNL     1       5.641  79.913  37.830  1.00  0.00     0.000 C 
BRANCH   3   4
ATOM      4  C   UNL     1       6.159  79.107  36.627  1.00  0.00    -0.000 C 
BRANCH   4   5
ATOM      5  C   UNL     1       7.676  79.259  36.413  1.00  0.00    -0.000 C 
BRANCH   5   6
ATOM      6  C   UNL     1       8.491  77.959  36.541  1.00  0.00    -0.000 C 
BRANCH   6   7
ATOM      7  C   UNL     1       9.672  78.087  37.517  1.00  0.00    -0.000 C 
BRANCH   7   8
ATOM      8  C   UNL     1       9.943  79.544  37.926  1.00  0.00    -0.000 C 
BRANCH   8   9
ATOM      9  C   UNL     1      10.105  79.709  39.447  1.00  0.00    -0.000 C 
BRANCH   9  10
ATOM     10  C   UNL     1       9.811  81.142  39.920  1.00  0.00    -0.000 C 
BRANCH  10  11
ATOM     11  C   UNL     1       9.773  81.265  41.450  1.00  0.00    -0.003 C 
ATOM     12  C   UNL     1       8.343  81.167  41.975  1.00  0.00     0.004 C 
ENDBRANCH  10  11
ENDBRANCH   9  10
ENDBRANCH   8   9
ENDBRANCH   7   8
ENDBRANCH   6   7
ENDBRANCH   5   6
ENDBRANCH   4   5
ENDBRANCH   3   4
ENDBRANCH   2   3
ENDBRANCH   1   2
BRANCH   1  13
ATOM     13  C   UNL     1       6.769  77.097  39.639  1.00  0.00     0.000 C 
BRANCH  13  14
ATOM     14  C   UNL     1       5.953  76.038  38.880  1.00  0.00     0.000 C 
BRANCH  14  15
ATOM     15  C   UNL     1       4.447  76.135  39.173  1.00  0.00     0.000 C 
BRANCH  15  16
ATOM     16  C   UNL     1       3.659  74.924  38.640  1.00  0.00     0.000 C 
BRANCH  16  17
ATOM     17  C   UNL     1       4.489  74.048  37.689  1.00  0.00     0.000 C 
BRANCH  17  18
ATOM     18  C   UNL     1       4.591  72.589  38.168  1.00  0.00     0.000 C 
BRANCH  18  19
ATOM     19  C   UNL     1       5.064  72.468  39.628  1.00  0.00     0.000 C 
BRANCH  19  20
ATOM     20  C   UNL     1       6.589  72.518  39.828  1.00  0.00     0.006 C 
BRANCH  20  21
ATOM     21  C   UNL     1       7.340  71.512  38.947  1.00  0.00     0.053 C 
BRANCH  21  22
ATOM     22  C   UNL     1       8.324  72.218  38.069  1.00  0.00     0.041 C 
ATOM     23  O   UNL     1       7.961  73.201  37.372  1.00  0.00    -0.550 OA
ATOM     24  O   UNL     1       9.656  71.822  38.062  1.00  0.00    -0.550 OA
ENDBRANCH  21  22
ENDBRANCH  20  21
ENDBRANCH  19  20
ENDBRANCH  18  19
ENDBRANCH  17  18
ENDBRANCH  16  17
ENDBRANCH  15  16
ENDBRANCH  14  15
ENDBRANCH  13  14
ENDBRANCH   1  13
TORSDOF 20
ENDMDL
MODEL 2
REMARK VINA RESULT:    -4.393      1.985      3.723
REMARK INTER + INTRA:         -12.733
REMARK INTER:                  -9.682
REMARK INTRA:                  -3.051
REMARK UNBOUND:                -3.205
REMARK SMILES CCCCCCCCCCCCCCCCCCCCCC(=O)[O-]
REMARK SMILES IDX 12 1 11 2 10 3 9 4 8 5 7 6 6 7 5 8 4 9 3 10 2 11 1 12 13 13
REMARK SMILES IDX 14 14 15 15 16 16 17 17 18 18 19 19 20 20 21 21 22 22 23 23
REMARK SMILES IDX 24 24
REMARK H PARENT
REMARK Flexibility Score: inf
ROOT
ATOM      1  C   UNL     1       7.151  75.854  38.140  1.00  0.00     0.000 C 
ENDROOT
BRANCH   1   2
ATOM      2  C   UNL     1       7.911  75.960  36.801  1.00  0.00     0.000 C 
BRANCH   2   3
ATOM      3  C   UNL     1       9.397  76.351  36.913  1.00  0.00     0.000 C 
BRANCH   3   4
ATOM      4  C   UNL     1       9.665  77.808  36.503  1.00  0.00    -0.000 C 
BRANCH   4   5
ATOM      5  C   UNL     1       9.615  78.784  37.693  1.00  0.00    -0.000 C 
BRANCH   5   6
ATOM      6  C   UNL     1       8.427  79.763  37.691  1.00  0.00    -0.000 C 
BRANCH   6   7
ATOM      7  C   UNL     1       7.441  79.503  36.539  1.00  0.00    -0.000 C 
BRANCH   7   8
ATOM      8  C   UNL     1       6.023  79.183  37.040  1.00  0.00    -0.000 C 
BRANCH   8   9
ATOM      9  C   UNL     1       5.593  80.087  38.208  1.00  0.00    -0.000 C 
BRANCH   9  10
ATOM     10  C   UNL     1       5.015  79.291  39.389  1.00  0.00    -0.000 C 
BRANCH  10  11
ATOM     11  C   UNL     1       5.900  79.361  40.642  1.00  0.00    -0.003 C 
ATOM     12  C   UNL     1       5.053  79.456  41.908  1.00  0.00     0.004 C 
ENDBRANCH  10  11
ENDBRANCH   9  10
ENDBRANCH   8   9
ENDBRANCH   7   8
ENDBRANCH   6   7
ENDBRANCH   5   6
ENDBRANCH   4   5
ENDBRANCH   3   4
ENDBRANCH   2   3
ENDBRANCH   1   2
BRANCH   1  13
ATOM     13  C   UNL     1       5.645  75.556  38.022  1.00  0.00     0.000 C 
BRANCH  13  14
ATOM     14  C   UNL     1       5.118  74.674  39.165  1.00  0.00     0.000 C 
BRANCH  14  15
ATOM     15  C   UNL     1       6.250  74.045  39.992  1.00  0.00     0.000 C 
BRANCH  15  16
ATOM     16  C   UNL     1       6.207  72.506  39.985  1.00  0.00     0.000 C 
BRANCH  16  17
ATOM     17  C   UNL     1       7.395  71.883  39.234  1.00  0.00     0.000 C 
BRANCH  17  18
ATOM     18  C   UNL     1       7.068  71.582  37.760  1.00  0.00     0.000 C 
BRANCH  18  19
ATOM     19  C   UNL     1       8.070  72.222  36.781  1.00  0.00     0.000 C 
BRANCH  19  20
ATOM     20  C   UNL     1       9.416  72.636  37.401  1.00  0.00     0.006 C 
BRANCH  20  21
ATOM     21  C   UNL     1      10.596  71.813  36.872  1.00  0.00     0.053 C 
BRANCH  21  22
ATOM     22  C   UNL     1      11.794  71.992  37.750  1.00  0.00     0.041 C 
ATOM     23  O   UNL     1      12.906  72.308  37.250  1.00  0.00    -0.550 OA
ATOM     24  O   UNL     1      11.670  71.861  39.128  1.00  0.00    -0.550 OA
ENDBRANCH  21  22
ENDBRANCH  20  21
ENDBRANCH  19  20
ENDBRANCH  18  19
ENDBRANCH  17  18
ENDBRANCH  16  17
ENDBRANCH  15  16
ENDBRANCH  14  15
ENDBRANCH  13  14
ENDBRANCH   1  13
TORSDOF 20
ENDMDL
MODEL 3
REMARK VINA RESULT:    -4.366      2.192      5.550
REMARK INTER + INTRA:         -12.676
REMARK INTER:                  -9.900
REMARK INTRA:                  -2.775
REMARK UNBOUND:                -3.205
REMARK SMILES CCCCCCCCCCCCCCCCCCCCCC(=O)[O-]
REMARK SMILES IDX 12 1 11 2 10 3 9 4 8 5 7 6 6 7 5 8 4 9 3 10 2 11 1 12 13 13
REMARK SMILES IDX 14 14 15 15 16 16 17 17 18 18 19 19 20 20 21 21 22 22 23 23
REMARK SMILES IDX 24 24
REMARK H PARENT
REMARK Flexibility Score: inf
ROOT
ATOM      1  C   UNL     1       9.443  78.824  39.589  1.00  0.00     0.000 C 
ENDROOT
BRANCH   1   2
ATOM      2  C   UNL     1       9.301  79.997  40.583  1.00  0.00     0.000 C 
BRANCH   2   3
ATOM      3  C   UNL     1      10.149  81.242  40.262  1.00  0.00     0.000 C 
BRANCH   3   4
ATOM      4  C   UNL     1      11.642  81.046  40.574  1.00  0.00    -0.000 C 
BRANCH   4   5
ATOM      5  C   UNL     1      11.893  80.554  42.011  1.00  0.00    -0.000 C 
BRANCH   5   6
ATOM      6  C   UNL     1      12.384  81.630  42.997  1.00  0.00    -0.000 C 
BRANCH   6   7
ATOM      7  C   UNL     1      11.585  81.646  44.311  1.00  0.00    -0.000 C 
BRANCH   7   8
ATOM      8  C   UNL     1      10.134  81.173  44.123  1.00  0.00    -0.000 C 
BRANCH   8   9
ATOM      9  C   UNL     1       9.167  82.336  43.844  1.00  0.00    -0.000 C 
BRANCH   9  10
ATOM     10  C   UNL     1       7.779  82.112  44.465  1.00  0.00    -0.000 C 
BRANCH  10  11
ATOM     11  C   UNL     1       7.664  80.763  45.190  1.00  0.00    -0.003 C 
ATOM     12  C   UNL     1       7.185  80.950  46.627  1.00  0.00     0.004 C 
ENDBRANCH  10  11
ENDBRANCH   9  10
ENDBRANCH   8   9
ENDBRANCH   7   8
ENDBRANCH   6   7
ENDBRANCH   5   6
ENDBRANCH   4   5
ENDBRANCH   3   4
ENDBRANCH   2   3
ENDBRANCH   1   2
BRANCH   1  13
ATOM     13  C   UNL     1       9.813  79.221  38.149  1.00  0.00     0.000 C 
BRANCH  13  14
ATOM     14  C   UNL     1       9.420  78.154  37.115  1.00  0.00     0.000 C 
BRANCH  14  15
ATOM     15  C   UNL     1       8.233  78.590  36.241  1.00  0.00     0.000 C 
BRANCH  15  16
ATOM     16  C   UNL     1       7.416  79.732  36.874  1.00  0.00     0.000 C 
BRANCH  16  17
ATOM     17  C   UNL     1       5.973  79.317  37.201  1.00  0.00     0.000 C 
BRANCH  17  18
ATOM     18  C   UNL     1       5.505  79.838  38.571  1.00  0.00     0.000 C 
BRANCH  18  19
ATOM     19  C   UNL     1       5.702  78.812  39.702  1.00  0.00     0.000 C 
BRANCH  19  20
ATOM     20  C   UNL     1       5.376  77.355  39.327  1.00  0.00     0.006 C 
BRANCH  20  21
ATOM     21  C   UNL     1       6.616  76.454  39.297  1.00  0.00     0.053 C 
BRANCH  21  22
ATOM     22  C   UNL     1       6.457  75.380  38.269  1.00  0.00     0.041 C 
ATOM     23  O   UNL     1       5.463  74.608  38.307  1.00  0.00    -0.550 OA
ATOM     24  O   UNL     1       7.380  75.265  37.237  1.00  0.00    -0.550 OA
ENDBRANCH  21  22
ENDBRANCH  20  21
ENDBRANCH  19  20
ENDBRANCH  18  19
ENDBRANCH  17  18
ENDBRANCH  16  17
ENDBRANCH  15  16
ENDBRANCH  14  15
ENDBRANCH  13  14
ENDBRANCH   1  13
TORSDOF 20
ENDMDL
MODEL 4
REMARK VINA RESULT:    -4.326      3.085      7.383
REMARK INTER + INTRA:         -12.589
REMARK INTER:                  -9.547
REMARK INTRA:                  -3.043
REMARK UNBOUND:                -3.205
REMARK SMILES CCCCCCCCCCCCCCCCCCCCCC(=O)[O-]
REMARK SMILES IDX 12 1 11 2 10 3 9 4 8 5 7 6 6 7 5 8 4 9 3 10 2 11 1 12 13 13
REMARK SMILES IDX 14 14 15 15 16 16 17 17 18 18 19 19 20 20 21 21 22 22 23 23
REMARK SMILES IDX 24 24
REMARK H PARENT
REMARK Flexibility Score: inf
ROOT
ATOM      1  C   UNL     1       5.257  78.432  39.897  1.00  0.00     0.000 C 
ENDROOT
BRANCH   1   2
ATOM      2  C   UNL     1       5.703  76.983  39.609  1.00  0.00     0.000 C 
BRANCH   2   3
ATOM      3  C   UNL     1       4.703  76.131  38.805  1.00  0.00     0.000 C 
BRANCH   3   4
ATOM      4  C   UNL     1       5.337  75.473  37.568  1.00  0.00    -0.000 C 
BRANCH   4   5
ATOM      5  C   UNL     1       6.865  75.655  37.511  1.00  0.00    -0.000 C 
BRANCH   5   6
ATOM      6  C   UNL     1       7.648  74.461  36.935  1.00  0.00    -0.000 C 
BRANCH   6   7
ATOM      7  C   UNL     1       6.732  73.376  36.342  1.00  0.00    -0.000 C 
BRANCH   7   8
ATOM      8  C   UNL     1       7.129  71.961  36.793  1.00  0.00    -0.000 C 
BRANCH   8   9
ATOM      9  C   UNL     1       7.364  71.870  38.310  1.00  0.00    -0.000 C 
BRANCH   9  10
ATOM     10  C   UNL     1       6.087  71.506  39.085  1.00  0.00    -0.000 C 
BRANCH  10  11
ATOM     11  C   UNL     1       5.553  72.671  39.931  1.00  0.00    -0.003 C 
ATOM     12  C   UNL     1       6.695  73.436  40.595  1.00  0.00     0.004 C 
ENDBRANCH  10  11
ENDBRANCH   9  10
ENDBRANCH   8   9
ENDBRANCH   7   8
ENDBRANCH   6   7
ENDBRANCH   5   6
ENDBRANCH   4   5
ENDBRANCH   3   4
ENDBRANCH   2   3
ENDBRANCH   1   2
BRANCH   1  13
ATOM     13  C   UNL     1       5.430  79.421  38.729  1.00  0.00     0.000 C 
BRANCH  13  14
ATOM     14  C   UNL     1       6.879  79.906  38.566  1.00  0.00     0.000 C 
BRANCH  14  15
ATOM     15  C   UNL     1       7.448  79.604  37.171  1.00  0.00     0.000 C 
BRANCH  15  16
ATOM     16  C   UNL     1       8.707  78.720  37.220  1.00  0.00     0.000 C 
BRANCH  16  17
ATOM     17  C   UNL     1       9.508  78.902  38.519  1.00  0.00     0.000 C 
BRANCH  17  18
ATOM     18  C   UNL     1      10.458  80.112  38.461  1.00  0.00     0.000 C 
BRANCH  18  19
ATOM     19  C   UNL     1      10.291  81.064  39.659  1.00  0.00     0.000 C 
BRANCH  19  20
ATOM     20  C   UNL     1       9.614  80.446  40.895  1.00  0.00     0.006 C 
BRANCH  20  21
ATOM     21  C   UNL     1      10.010  81.142  42.204  1.00  0.00     0.053 C 
BRANCH  21  22
ATOM     22  C   UNL     1      10.959  80.289  42.983  1.00  0.00     0.041 C 
ATOM     23  O   UNL     1      12.040  79.905  42.464  1.00  0.00    -0.550 OA
ATOM     24  O   UNL     1      10.674  79.962  44.303  1.00  0.00    -0.550 OA
ENDBRANCH  21  22
ENDBRANCH  20  21
ENDBRANCH  19  20
ENDBRANCH  18  19
ENDBRANCH  17  18
ENDBRANCH  16  17
ENDBRANCH  15  16
ENDBRANCH  14  15
ENDBRANCH  13  14
ENDBRANCH   1  13
TORSDOF 20
ENDMDL
MODEL 5
REMARK VINA RESULT:    -4.324      1.948      3.354
REMARK INTER + INTRA:         -12.584
REMARK INTER:                  -9.189
REMARK INTRA:                  -3.395
REMARK UNBOUND:                -3.205
REMARK SMILES CCCCCCCCCCCCCCCCCCCCCC(=O)[O-]
REMARK SMILES IDX 12 1 11 2 10 3 9 4 8 5 7 6 6 7 5 8 4 9 3 10 2 11 1 12 13 13
REMARK SMILES IDX 14 14 15 15 16 16 17 17 18 18 19 19 20 20 21 21 22 22 23 23
REMARK SMILES IDX 24 24
REMARK H PARENT
REMARK Flexibility Score: inf
ROOT
ATOM      1  C   UNL     1       4.565  76.017  38.768  1.00  0.00     0.000 C 
ENDROOT
BRANCH   1   2
ATOM      2  C   UNL     1       5.585  76.347  37.658  1.00  0.00     0.000 C 
BRANCH   2   3
ATOM      3  C   UNL     1       7.060  76.376  38.102  1.00  0.00     0.000 C 
BRANCH   3   4
ATOM      4  C   UNL     1       8.020  75.858  37.018  1.00  0.00    -0.000 C 
BRANCH   4   5
ATOM      5  C   UNL     1       9.135  76.864  36.676  1.00  0.00    -0.000 C 
BRANCH   5   6
ATOM      6  C   UNL     1       8.672  78.322  36.499  1.00  0.00    -0.000 C 
BRANCH   6   7
ATOM      7  C   UNL     1       9.219  79.260  37.588  1.00  0.00    -0.000 C 
BRANCH   7   8
ATOM      8  C   UNL     1       8.121  80.131  38.220  1.00  0.00    -0.000 C 
BRANCH   8   9
ATOM      9  C   UNL     1       6.773  80.000  37.490  1.00  0.00    -0.000 C 
BRANCH   9  10
ATOM     10  C   UNL     1       5.582  79.929  38.459  1.00  0.00    -0.000 C 
BRANCH  10  11
ATOM     11  C   UNL     1       5.981  79.432  39.856  1.00  0.00    -0.003 C 
ATOM     12  C   UNL     1       4.754  79.236  40.742  1.00  0.00     0.004 C 
ENDBRANCH  10  11
ENDBRANCH   9  10
ENDBRANCH   8   9
ENDBRANCH   7   8
ENDBRANCH   6   7
ENDBRANCH   5   6
ENDBRANCH   4   5
ENDBRANCH   3   4
ENDBRANCH   2   3
ENDBRANCH   1   2
BRANCH   1  13
ATOM     13  C   UNL     1       4.270  74.519  38.968  1.00  0.00     0.000 C 
BRANCH  13  14
ATOM     14  C   UNL     1       3.394  73.928  37.852  1.00  0.00     0.000 C 
BRANCH  14  15
ATOM     15  C   UNL     1       4.030  72.691  37.198  1.00  0.00     0.000 C 
BRANCH  15  16
ATOM     16  C   UNL     1       4.924  73.047  35.996  1.00  0.00     0.000 C 
BRANCH  16  17
ATOM     17  C   UNL     1       6.389  72.633  36.204  1.00  0.00     0.000 C 
BRANCH  17  18
ATOM     18  C   UNL     1       6.600  71.847  37.511  1.00  0.00     0.000 C 
BRANCH  18  19
ATOM     19  C   UNL     1       7.690  72.458  38.409  1.00  0.00     0.000 C 
BRANCH  19  20
ATOM     20  C   UNL     1       9.100  71.870  38.218  1.00  0.00     0.006 C 
BRANCH  20  21
ATOM     21  C   UNL     1       9.937  72.647  37.194  1.00  0.00     0.053 C 
BRANCH  21  22
ATOM     22  C   UNL     1      11.354  72.168  37.207  1.00  0.00     0.041 C 
ATOM     23  O   UNL     1      12.264  72.891  37.693  1.00  0.00    -0.550 OA
ATOM     24  O   UNL     1      11.663  70.900  36.731  1.00  0.00    -0.550 OA
ENDBRANCH  21  22
ENDBRANCH  20  21
ENDBRANCH  19  20
ENDBRANCH  18  19
ENDBRANCH  17  18
ENDBRANCH  16  17
ENDBRANCH  15  16
ENDBRANCH  14  15
ENDBRANCH  13  14
ENDBRANCH   1  13
TORSDOF 20
ENDMDL
MODEL 6
REMARK VINA RESULT:    -4.300      2.652      7.206
REMARK INTER + INTRA:         -12.532
REMARK INTER:                  -9.152
REMARK INTRA:                  -3.381
REMARK UNBOUND:                -3.205
REMARK SMILES CCCCCCCCCCCCCCCCCCCCCC(=O)[O-]
REMARK SMILES IDX 12 1 11 2 10 3 9 4 8 5 7 6 6 7 5 8 4 9 3 10 2 11 1 12 13 13
REMARK SMILES IDX 14 14 15 15 16 16 17 17 18 18 19 19 20 20 21 21 22 22 23 23
REMARK SMILES IDX 24 24
REMARK H PARENT
REMARK Flexibility Score: inf
ROOT
ATOM      1  C   UNL     1       6.423  76.943  39.672  1.00  0.00     0.000 C 
ENDROOT
BRANCH   1   2
ATOM      2  C   UNL     1       6.353  75.567  38.976  1.00  0.00     0.000 C 
BRANCH   2   3
ATOM      3  C   UNL     1       5.813  75.582  37.533  1.00  0.00     0.000 C 
BRANCH   3   4
ATOM      4  C   UNL     1       6.545  74.594  36.611  1.00  0.00    -0.000 C 
BRANCH   4   5
ATOM      5  C   UNL     1       8.027  74.409  36.987  1.00  0.00    -0.000 C 
BRANCH   5   6
ATOM      6  C   UNL     1       8.597  73.001  36.736  1.00  0.00    -0.000 C 
BRANCH   6   7
ATOM      7  C   UNL     1       7.568  71.886  36.985  1.00  0.00    -0.000 C 
BRANCH   7   8
ATOM      8  C   UNL     1       7.585  71.384  38.439  1.00  0.00    -0.000 C 
BRANCH   8   9
ATOM      9  C   UNL     1       6.492  72.038  39.301  1.00  0.00    -0.000 C 
BRANCH   9  10
ATOM     10  C   UNL     1       5.218  71.182  39.390  1.00  0.00    -0.000 C 
BRANCH  10  11
ATOM     11  C   UNL     1       4.488  71.063  38.045  1.00  0.00    -0.003 C 
ATOM     12  C   UNL     1       3.795  72.372  37.678  1.00  0.00     0.004 C 
ENDBRANCH  10  11
ENDBRANCH   9  10
ENDBRANCH   8   9
ENDBRANCH   7   8
ENDBRANCH   6   7
ENDBRANCH   5   6
ENDBRANCH   4   5
ENDBRANCH   3   4
ENDBRANCH   2   3
ENDBRANCH   1   2
BRANCH   1  13
ATOM     13  C   UNL     1       5.407  77.987  39.173  1.00  0.00     0.000 C 
BRANCH  13  14
ATOM     14  C   UNL     1       5.989  79.409  39.119  1.00  0.00     0.000 C 
BRANCH  14  15
ATOM     15  C   UNL     1       5.968  79.999  37.700  1.00  0.00     0.000 C 
BRANCH  15  16
ATOM     16  C   UNL     1       6.297  78.957  36.616  1.00  0.00     0.000 C 
BRANCH  16  17
ATOM     17  C   UNL     1       7.756  79.041  36.138  1.00  0.00     0.000 C 
BRANCH  17  18
ATOM     18  C   UNL     1       8.617  77.879  36.664  1.00  0.00     0.000 C 
BRANCH  18  19
ATOM     19  C   UNL     1       9.351  78.222  37.973  1.00  0.00     0.000 C 
BRANCH  19  20
ATOM     20  C   UNL     1       9.993  79.620  38.016  1.00  0.00     0.006 C 
BRANCH  20  21
ATOM     21  C   UNL     1       9.710  80.367  39.326  1.00  0.00     0.053 C 
BRANCH  21  22
ATOM     22  C   UNL     1      10.796  80.106  40.321  1.00  0.00     0.041 C 
ATOM     23  O   UNL     1      10.609  79.296  41.266  1.00  0.00    -0.550 OA
ATOM     24  O   UNL     1      12.035  80.719  40.173  1.00  0.00    -0.550 OA
ENDBRANCH  21  22
ENDBRANCH  20  21
ENDBRANCH  19  20
ENDBRANCH  18  19
ENDBRANCH  17  18
ENDBRANCH  16  17
ENDBRANCH  15  16
ENDBRANCH  14  15
ENDBRANCH  13  14
ENDBRANCH   1  13
TORSDOF 20
ENDMDL
MODEL 7
REMARK VINA RESULT:    -4.296      3.724      7.715
REMARK INTER + INTRA:         -12.524
REMARK INTER:                  -8.865
REMARK INTRA:                  -3.660
REMARK UNBOUND:                -3.205
REMARK SMILES CCCCCCCCCCCCCCCCCCCCCC(=O)[O-]
REMARK SMILES IDX 12 1 11 2 10 3 9 4 8 5 7 6 6 7 5 8 4 9 3 10 2 11 1 12 13 13
REMARK SMILES IDX 14 14 15 15 16 16 17 17 18 18 19 19 20 20 21 21 22 22 23 23
REMARK SMILES IDX 24 24
REMARK H PARENT
REMARK Flexibility Score: inf
ROOT
ATOM      1  C   UNL     1       8.286  78.915  40.116  1.00  0.00     0.000 C 
ENDROOT
BRANCH   1   2
ATOM      2  C   UNL     1       7.404  80.087  39.636  1.00  0.00     0.000 C 
BRANCH   2   3
ATOM      3  C   UNL     1       5.935  79.731  39.339  1.00  0.00     0.000 C 
BRANCH   3   4
ATOM      4  C   UNL     1       5.498  80.130  37.920  1.00  0.00    -0.000 C 
BRANCH   4   5
ATOM      5  C   UNL     1       6.681  80.246  36.941  1.00  0.00    -0.000 C 
BRANCH   5   6
ATOM      6  C   UNL     1       6.899  79.025  36.028  1.00  0.00    -0.000 C 
BRANCH   6   7
ATOM      7  C   UNL     1       8.238  78.315  36.289  1.00  0.00    -0.000 C 
BRANCH   7   8
ATOM      8  C   UNL     1       8.067  77.019  37.100  1.00  0.00    -0.000 C 
BRANCH   8   9
ATOM      9  C   UNL     1       6.590  76.635  37.293  1.00  0.00    -0.000 C 
BRANCH   9  10
ATOM     10  C   UNL     1       6.323  75.981  38.658  1.00  0.00    -0.000 C 
BRANCH  10  11
ATOM     11  C   UNL     1       4.947  76.346  39.232  1.00  0.00    -0.003 C 
ATOM     12  C   UNL     1       3.902  75.297  38.863  1.00  0.00     0.004 C 
ENDBRANCH  10  11
ENDBRANCH   9  10
ENDBRANCH   8   9
ENDBRANCH   7   8
ENDBRANCH   6   7
ENDBRANCH   5   6
ENDBRANCH   4   5
ENDBRANCH   3   4
ENDBRANCH   2   3
ENDBRANCH   1   2
BRANCH   1  13
ATOM     13  C   UNL     1       9.756  78.967  39.663  1.00  0.00     0.000 C 
BRANCH  13  14
ATOM     14  C   UNL     1      10.055  80.157  38.738  1.00  0.00     0.000 C 
BRANCH  14  15
ATOM     15  C   UNL     1      11.282  80.963  39.195  1.00  0.00     0.000 C 
BRANCH  15  16
ATOM     16  C   UNL     1      11.784  80.545  40.589  1.00  0.00     0.000 C 
BRANCH  16  17
ATOM     17  C   UNL     1      11.516  81.615  41.660  1.00  0.00     0.000 C 
BRANCH  17  18
ATOM     18  C   UNL     1      10.628  82.760  41.141  1.00  0.00     0.000 C 
BRANCH  18  19
ATOM     19  C   UNL     1       9.324  82.919  41.943  1.00  0.00     0.000 C 
BRANCH  19  20
ATOM     20  C   UNL     1       8.810  81.634  42.616  1.00  0.00     0.006 C 
BRANCH  20  21
ATOM     21  C   UNL     1       8.473  81.829  44.099  1.00  0.00     0.053 C 
BRANCH  21  22
ATOM     22  C   UNL     1       9.144  80.781  44.929  1.00  0.00     0.041 C 
ATOM     23  O   UNL     1       8.461  80.026  45.670  1.00  0.00    -0.550 OA
ATOM     24  O   UNL     1      10.519  80.604  44.845  1.00  0.00    -0.550 OA
ENDBRANCH  21  22
ENDBRANCH  20  21
ENDBRANCH  19  20
ENDBRANCH  18  19
ENDBRANCH  17  18
ENDBRANCH  16  17
ENDBRANCH  15  16
ENDBRANCH  14  15
ENDBRANCH  13  14
ENDBRANCH   1  13
TORSDOF 20
ENDMDL
MODEL 8
REMARK VINA RESULT:    -4.284      2.738      7.096
REMARK INTER + INTRA:         -12.497
REMARK INTER:                 -10.022
REMARK INTRA:                  -2.475
REMARK UNBOUND:                -3.205
REMARK SMILES CCCCCCCCCCCCCCCCCCCCCC(=O)[O-]
REMARK SMILES IDX 12 1 11 2 10 3 9 4 8 5 7 6 6 7 5 8 4 9 3 10 2 11 1 12 13 13
REMARK SMILES IDX 14 14 15 15 16 16 17 17 18 18 19 19 20 20 21 21 22 22 23 23
REMARK SMILES IDX 24 24
REMARK H PARENT
REMARK Flexibility Score: inf
ROOT
ATOM      1  C   UNL     1       6.338  72.839  40.061  1.00  0.00     0.000 C 
ENDROOT
BRANCH   1   2
ATOM      2  C   UNL     1       5.239  71.824  39.682  1.00  0.00     0.000 C 
BRANCH   2   3
ATOM      3  C   UNL     1       5.691  70.673  38.764  1.00  0.00     0.000 C 
BRANCH   3   4
ATOM      4  C   UNL     1       5.217  70.846  37.311  1.00  0.00    -0.000 C 
BRANCH   4   5
ATOM      5  C   UNL     1       6.351  71.268  36.359  1.00  0.00    -0.000 C 
BRANCH   5   6
ATOM      6  C   UNL     1       6.477  72.783  36.118  1.00  0.00    -0.000 C 
BRANCH   6   7
ATOM      7  C   UNL     1       7.843  73.345  36.546  1.00  0.00    -0.000 C 
BRANCH   7   8
ATOM      8  C   UNL     1       8.739  72.279  37.200  1.00  0.00    -0.000 C 
BRANCH   8   9
ATOM      9  C   UNL     1      10.227  72.669  37.182  1.00  0.00    -0.000 C 
BRANCH   9  10
ATOM     10  C   UNL     1      11.145  71.479  36.862  1.00  0.00    -0.000 C 
BRANCH  10  11
ATOM     11  C   UNL     1      12.494  71.556  37.592  1.00  0.00    -0.003 C 
ATOM     12  C   UNL     1      13.128  72.935  37.430  1.00  0.00     0.004 C 
ENDBRANCH  10  11
ENDBRANCH   9  10
ENDBRANCH   8   9
ENDBRANCH   7   8
ENDBRANCH   6   7
ENDBRANCH   5   6
ENDBRANCH   4   5
ENDBRANCH   3   4
ENDBRANCH   2   3
ENDBRANCH   1   2
BRANCH   1  13
ATOM     13  C   UNL     1       6.094  74.283  39.586  1.00  0.00     0.000 C 
BRANCH  13  14
ATOM     14  C   UNL     1       4.628  74.548  39.205  1.00  0.00     0.000 C 
BRANCH  14  15
ATOM     15  C   UNL     1       4.318  76.046  39.066  1.00  0.00     0.000 C 
BRANCH  15  16
ATOM     16  C   UNL     1       5.575  76.928  39.180  1.00  0.00     0.000 C 
BRANCH  16  17
ATOM     17  C   UNL     1       5.253  78.363  39.625  1.00  0.00     0.000 C 
BRANCH  17  18
ATOM     18  C   UNL     1       5.684  79.414  38.586  1.00  0.00     0.000 C 
BRANCH  18  19
ATOM     19  C   UNL     1       6.250  78.788  37.298  1.00  0.00     0.000 C 
BRANCH  19  20
ATOM     20  C   UNL     1       7.594  79.369  36.825  1.00  0.00     0.006 C 
BRANCH  20  21
ATOM     21  C   UNL     1       8.784  78.453  37.134  1.00  0.00     0.053 C 
BRANCH  21  22
ATOM     22  C   UNL     1       9.543  78.965  38.317  1.00  0.00     0.041 C 
ATOM     23  O   UNL     1      10.421  79.856  38.171  1.00  0.00    -0.550 OA
ATOM     24  O   UNL     1       9.244  78.494  39.590  1.00  0.00    -0.550 OA
ENDBRANCH  21  22
ENDBRANCH  20  21
ENDBRANCH  19  20
ENDBRANCH  18  19
ENDBRANCH  17  18
ENDBRANCH  16  17
ENDBRANCH  15  16
ENDBRANCH  14  15
ENDBRANCH  13  14
ENDBRANCH   1  13
TORSDOF 20
ENDMDL
MODEL 9
REMARK VINA RESULT:    -4.240      2.430      4.616
REMARK INTER + INTRA:         -12.403
REMARK INTER:                  -8.994
REMARK INTRA:                  -3.409
REMARK UNBOUND:                -3.205
REMARK SMILES CCCCCCCCCCCCCCCCCCCCCC(=O)[O-]
REMARK SMILES IDX 12 1 11 2 10 3 9 4 8 5 7 6 6 7 5 8 4 9 3 10 2 11 1 12 13 13
REMARK SMILES IDX 14 14 15 15 16 16 17 17 18 18 19 19 20 20 21 21 22 22 23 23
REMARK SMILES IDX 24 24
REMARK H PARENT
REMARK Flexibility Score: inf
ROOT
ATOM      1  C   UNL     1       6.231  72.626  39.926  1.00  0.00     0.000 C 
ENDROOT
BRANCH   1   2
ATOM      2  C   UNL     1       5.929  74.136  40.038  1.00  0.00     0.000 C 
BRANCH   2   3
ATOM      3  C   UNL     1       4.501  74.556  39.642  1.00  0.00     0.000 C 
BRANCH   3   4
ATOM      4  C   UNL     1       4.477  75.617  38.529  1.00  0.00    -0.000 C 
BRANCH   4   5
ATOM      5  C   UNL     1       5.798  76.400  38.421  1.00  0.00    -0.000 C 
BRANCH   5   6
ATOM      6  C   UNL     1       5.964  77.551  39.430  1.00  0.00    -0.000 C 
BRANCH   6   7
ATOM      7  C   UNL     1       5.558  78.917  38.850  1.00  0.00    -0.000 C 
BRANCH   7   8
ATOM      8  C   UNL     1       6.457  79.350  37.680  1.00  0.00    -0.000 C 
BRANCH   8   9
ATOM      9  C   UNL     1       7.802  79.927  38.154  1.00  0.00    -0.000 C 
BRANCH   9  10
ATOM     10  C   UNL     1       9.006  79.252  37.476  1.00  0.00    -0.000 C 
BRANCH  10  11
ATOM     11  C   UNL     1       8.590  78.218  36.420  1.00  0.00    -0.003 C 
ATOM     12  C   UNL     1       9.156  76.839  36.748  1.00  0.00     0.004 C 
ENDBRANCH  10  11
ENDBRANCH   9  10
ENDBRANCH   8   9
ENDBRANCH   7   8
ENDBRANCH   6   7
ENDBRANCH   5   6
ENDBRANCH   4   5
ENDBRANCH   3   4
ENDBRANCH   2   3
ENDBRANCH   1   2
BRANCH   1  13
ATOM     13  C   UNL     1       7.650  72.271  39.444  1.00  0.00     0.000 C 
BRANCH  13  14
ATOM     14  C   UNL     1       7.715  71.986  37.935  1.00  0.00     0.000 C 
BRANCH  14  15
ATOM     15  C   UNL     1       7.784  73.272  37.096  1.00  0.00     0.000 C 
BRANCH  15  16
ATOM     16  C   UNL     1       6.541  73.471  36.209  1.00  0.00     0.000 C 
BRANCH  16  17
ATOM     17  C   UNL     1       5.659  72.214  36.134  1.00  0.00     0.000 C 
BRANCH  17  18
ATOM     18  C   UNL     1       4.252  72.445  36.713  1.00  0.00     0.000 C 
BRANCH  18  19
ATOM     19  C   UNL     1       3.657  71.183  37.365  1.00  0.00     0.000 C 
BRANCH  19  20
ATOM     20  C   UNL     1       4.608  69.976  37.440  1.00  0.00     0.006 C 
BRANCH  20  21
ATOM     21  C   UNL     1       4.952  69.576  38.880  1.00  0.00     0.053 C 
BRANCH  21  22
ATOM     22  C   UNL     1       5.437  68.161  38.928  1.00  0.00     0.041 C 
ATOM     23  O   UNL     1       6.388  67.791  38.190  1.00  0.00    -0.550 OA
ATOM     24  O   UNL     1       4.873  67.265  39.827  1.00  0.00    -0.550 OA
ENDBRANCH  21  22
ENDBRANCH  20  21
ENDBRANCH  19  20
ENDBRANCH  18  19
ENDBRANCH  17  18
ENDBRANCH  16  17
ENDBRANCH  15  16
ENDBRANCH  14  15
ENDBRANCH  13  14
ENDBRANCH   1  13
TORSDOF 20
ENDMDL
