MODEL 1
REMARK VINA RESULT:    -3.357      0.000      0.000
REMARK INTER + INTRA:          -4.058
REMARK INTER:                  -4.043
REMARK INTRA:                  -0.015
REMARK UNBOUND:                -0.015
REMARK SMILES O=c1c(O)c(-c2ccc(O)c(O)c2)oc2cc(O)cc(O)c12
REMARK SMILES IDX 5 1 3 2 2 3 1 4 22 5 20 6 19 7 17 8 16 9 15 10 14 11 6 12
REMARK SMILES IDX 7 13 8 14 9 15 13 16 11 17 10 18 12 20 4 22 21 24 18 26
REMARK H PARENT 10 19 12 21 4 23 21 25 18 27
REMARK Flexibility Score: inf
ROOT
ATOM      1  C   UNL     1     -19.043   9.298  26.355  1.00  0.00     0.180 A 
ATOM      2  C   UNL     1     -17.659   9.250  26.599  1.00  0.00     0.208 A 
ATOM      3  C   UNL     1     -16.771   9.443  25.529  1.00  0.00     0.238 A 
ATOM      4  O   UNL     1     -15.536   9.345  25.743  1.00  0.00    -0.285 OA
ATOM      5  C   UNL     1     -17.278   9.699  24.232  1.00  0.00     0.111 A 
ATOM      6  C   UNL     1     -16.470   9.951  23.082  1.00  0.00     0.134 A 
ATOM      7  C   UNL     1     -17.075  10.061  21.824  1.00  0.00     0.093 A 
ATOM      8  C   UNL     1     -18.464   9.996  21.684  1.00  0.00     0.123 A 
ATOM      9  C   UNL     1     -19.264   9.811  22.809  1.00  0.00     0.094 A 
ATOM     10  C   UNL     1     -18.687   9.660  24.072  1.00  0.00     0.146 A 
ATOM     11  O   UNL     1     -19.486   9.475  25.116  1.00  0.00    -0.452 OA
ENDROOT
BRANCH   1  12
ATOM     12  C   UNL     1     -20.040   9.129  27.437  1.00  0.00     0.025 A 
ATOM     13  C   UNL     1     -21.010  10.122  27.643  1.00  0.00     0.016 A 
ATOM     14  C   UNL     1     -21.948   9.992  28.670  1.00  0.00     0.051 A 
ATOM     15  C   UNL     1     -21.922   8.879  29.516  1.00  0.00     0.157 A 
ATOM     16  C   UNL     1     -20.002   8.019  28.301  1.00  0.00     0.062 A 
ATOM     17  C   UNL     1     -20.942   7.889  29.334  1.00  0.00     0.158 A 
BRANCH  15  18
ATOM     18  O   UNL     1     -22.872   8.776  30.532  1.00  0.00    -0.504 OA
ATOM     19  H   UNL     1     -23.779   8.352  30.379  1.00  0.00     0.293 HD
ENDBRANCH  15  18
BRANCH  17  20
ATOM     20  O   UNL     1     -20.901   6.784  30.182  1.00  0.00    -0.504 OA
ATOM     21  H   UNL     1     -21.300   5.892  29.913  1.00  0.00     0.293 HD
ENDBRANCH  17  20
ENDBRANCH   1  12
BRANCH   2  22
ATOM     22  O   UNL     1     -17.182   8.974  27.883  1.00  0.00    -0.502 OA
ATOM     23  H   UNL     1     -17.768   9.038  28.707  1.00  0.00     0.293 HD
ENDBRANCH   2  22
BRANCH   6  24
ATOM     24  O   UNL     1     -15.083  10.125  23.125  1.00  0.00    -0.507 OA
ATOM     25  H   UNL     1     -14.586  10.592  23.868  1.00  0.00     0.293 HD
ENDBRANCH   6  24
BRANCH   8  26
ATOM     26  O   UNL     1     -19.058  10.124  20.430  1.00  0.00    -0.508 OA
ATOM     27  H   UNL     1     -18.503  10.207  19.586  1.00  0.00     0.293 HD
ENDBRANCH   8  26
TORSDOF 6
ENDMDL
MODEL 2
REMARK VINA RESULT:    -1.982      1.408      1.657
REMARK INTER + INTRA:          -2.402
REMARK INTER:                  -2.838
REMARK INTRA:                   0.436
REMARK UNBOUND:                -0.015
REMARK SMILES O=c1c(O)c(-c2ccc(O)c(O)c2)oc2cc(O)cc(O)c12
REMARK SMILES IDX 5 1 3 2 2 3 1 4 22 5 20 6 19 7 17 8 16 9 15 10 14 11 6 12
REMARK SMILES IDX 7 13 8 14 9 15 13 16 11 17 10 18 12 20 4 22 21 24 18 26
REMARK H PARENT 10 19 12 21 4 23 21 25 18 27
REMARK Flexibility Score: inf
ROOT
ATOM      1  C   UNL     1     -19.318   9.683  27.138  1.00  0.00     0.180 A 
ATOM      2  C   UNL     1     -17.989   9.331  27.429  1.00  0.00     0.208 A 
ATOM      3  C   UNL     1     -17.061   9.248  26.378  1.00  0.00     0.238 A 
ATOM      4  O   UNL     1     -15.886   8.880  26.636  1.00  0.00    -0.285 OA
ATOM      5  C   UNL     1     -17.470   9.534  25.053  1.00  0.00     0.111 A 
ATOM      6  C   UNL     1     -16.606   9.521  23.917  1.00  0.00     0.134 A 
ATOM      7  C   UNL     1     -17.146   9.691  22.636  1.00  0.00     0.093 A 
ATOM      8  C   UNL     1     -18.509   9.940  22.457  1.00  0.00     0.123 A 
ATOM      9  C   UNL     1     -19.350  10.015  23.564  1.00  0.00     0.094 A 
ATOM     10  C   UNL     1     -18.847   9.812  24.851  1.00  0.00     0.146 A 
ATOM     11  O   UNL     1     -19.686   9.881  25.878  1.00  0.00    -0.452 OA
ENDROOT
BRANCH   1  12
ATOM     12  C   UNL     1     -20.347   9.815  28.196  1.00  0.00     0.025 A 
ATOM     13  C   UNL     1     -19.947   9.979  29.531  1.00  0.00     0.016 A 
ATOM     14  C   UNL     1     -20.900  10.085  30.547  1.00  0.00     0.051 A 
ATOM     15  C   UNL     1     -22.265  10.013  30.248  1.00  0.00     0.157 A 
ATOM     16  C   UNL     1     -21.719   9.722  27.899  1.00  0.00     0.062 A 
ATOM     17  C   UNL     1     -22.677   9.826  28.918  1.00  0.00     0.158 A 
BRANCH  15  18
ATOM     18  O   UNL     1     -23.193  10.124  31.282  1.00  0.00    -0.504 OA
ATOM     19  H   UNL     1     -24.181   9.952  31.139  1.00  0.00     0.293 HD
ENDBRANCH  15  18
BRANCH  17  20
ATOM     20  O   UNL     1     -24.034   9.740  28.614  1.00  0.00    -0.504 OA
ATOM     21  H   UNL     1     -24.417   8.947  28.111  1.00  0.00     0.293 HD
ENDBRANCH  17  20
ENDBRANCH   1  12
BRANCH   2  22
ATOM     22  O   UNL     1     -17.611   9.032  28.741  1.00  0.00    -0.502 OA
ATOM     23  H   UNL     1     -16.645   8.886  29.009  1.00  0.00     0.293 HD
ENDBRANCH   2  22
BRANCH   6  24
ATOM     24  O   UNL     1     -15.218   9.372  23.995  1.00  0.00    -0.507 OA
ATOM     25  H   UNL     1     -14.561  10.135  24.066  1.00  0.00     0.293 HD
ENDBRANCH   6  24
BRANCH   8  26
ATOM     26  O   UNL     1     -19.034  10.125  21.179  1.00  0.00    -0.508 OA
ATOM     27  H   UNL     1     -18.905  10.993  20.673  1.00  0.00     0.293 HD
ENDBRANCH   8  26
TORSDOF 6
ENDMDL
