MODEL 1
REMARK VINA RESULT:    -4.403      0.000      0.000
REMARK INTER + INTRA:         -10.398
REMARK INTER:                  -8.007
REMARK INTRA:                  -2.391
REMARK UNBOUND:                -2.391
REMARK SMILES CCCCCCCCCCCCCCCC(=O)[O-]
REMARK SMILES IDX 9 1 10 2 11 3 12 4 13 5 14 6 15 7 16 8 17 9 18 10 8 11 7 12
REMARK SMILES IDX 6 13 5 14 4 15 3 16 2 17 1 18
REMARK H PARENT
REMARK Flexibility Score: inf
ROOT
ATOM      1  C   UNL     1      16.222 -33.801  23.347  1.00  0.00     0.000 C 
ENDROOT
BRANCH   1   2
ATOM      2  C   UNL     1      16.749 -32.645  24.214  1.00  0.00     0.000 C 
BRANCH   2   3
ATOM      3  C   UNL     1      17.539 -31.608  23.397  1.00  0.00     0.000 C 
BRANCH   3   4
ATOM      4  C   UNL     1      18.379 -32.253  22.283  1.00  0.00     0.000 C 
BRANCH   4   5
ATOM      5  C   UNL     1      17.952 -31.798  20.877  1.00  0.00     0.000 C 
BRANCH   5   6
ATOM      6  C   UNL     1      17.769 -32.970  19.895  1.00  0.00     0.006 C 
BRANCH   6   7
ATOM      7  C   UNL     1      18.346 -34.304  20.401  1.00  0.00     0.053 C 
BRANCH   7   8
ATOM      8  C   UNL     1      17.407 -35.454  20.199  1.00  0.00     0.041 C 
ATOM      9  O   UNL     1      16.712 -35.532  19.152  1.00  0.00    -0.550 OA
ATOM     10  O   UNL     1      17.275 -36.423  21.185  1.00  0.00    -0.550 OA
ENDBRANCH   7   8
ENDBRANCH   6   7
ENDBRANCH   5   6
ENDBRANCH   4   5
ENDBRANCH   3   4
ENDBRANCH   2   3
ENDBRANCH   1   2
BRANCH   1  11
ATOM     11  C   UNL     1      14.743 -33.622  22.961  1.00  0.00     0.000 C 
BRANCH  11  12
ATOM     12  C   UNL     1      14.561 -33.085  21.530  1.00  0.00    -0.000 C 
BRANCH  12  13
ATOM     13  C   UNL     1      13.675 -31.828  21.407  1.00  0.00    -0.000 C 
BRANCH  13  14
ATOM     14  C   UNL     1      14.439 -30.496  21.300  1.00  0.00    -0.000 C 
BRANCH  14  15
ATOM     15  C   UNL     1      14.539 -29.754  22.641  1.00  0.00    -0.000 C 
BRANCH  15  16
ATOM     16  C   UNL     1      13.434 -30.211  23.605  1.00  0.00    -0.000 C 
BRANCH  16  17
ATOM     17  C   UNL     1      12.429 -29.094  23.921  1.00  0.00    -0.003 C 
ATOM     18  C   UNL     1      13.075 -27.708  23.959  1.00  0.00     0.004 C 
ENDBRANCH  16  17
ENDBRANCH  15  16
ENDBRANCH  14  15
ENDBRANCH  13  14
ENDBRANCH  12  13
ENDBRANCH  11  12
ENDBRANCH   1  11
TORSDOF 14
ENDMDL
MODEL 2
REMARK VINA RESULT:    -4.385      3.291      5.807
REMARK INTER + INTRA:         -10.365
REMARK INTER:                  -8.272
REMARK INTRA:                  -2.094
REMARK UNBOUND:                -2.391
REMARK SMILES CCCCCCCCCCCCCCCC(=O)[O-]
REMARK SMILES IDX 9 1 10 2 11 3 12 4 13 5 14 6 15 7 16 8 17 9 18 10 8 11 7 12
REMARK SMILES IDX 6 13 5 14 4 15 3 16 2 17 1 18
REMARK H PARENT
REMARK Flexibility Score: inf
ROOT
ATOM      1  C   UNL     1      16.525 -34.769  19.716  1.00  0.00     0.000 C 
ENDROOT
BRANCH   1   2
ATOM      2  C   UNL     1      15.183 -34.750  20.466  1.00  0.00     0.000 C 
BRANCH   2   3
ATOM      3  C   UNL     1      14.249 -33.629  19.976  1.00  0.00     0.000 C 
BRANCH   3   4
ATOM      4  C   UNL     1      13.867 -32.651  21.098  1.00  0.00     0.000 C 
BRANCH   4   5
ATOM      5  C   UNL     1      12.977 -31.497  20.604  1.00  0.00     0.000 C 
BRANCH   5   6
ATOM      6  C   UNL     1      12.126 -30.870  21.722  1.00  0.00     0.006 C 
BRANCH   6   7
ATOM      7  C   UNL     1      12.903 -30.609  23.025  1.00  0.00     0.053 C 
BRANCH   7   8
ATOM      8  C   UNL     1      12.830 -29.178  23.464  1.00  0.00     0.041 C 
ATOM      9  O   UNL     1      13.810 -28.407  23.289  1.00  0.00    -0.550 OA
ATOM     10  O   UNL     1      11.690 -28.704  24.100  1.00  0.00    -0.550 OA
ENDBRANCH   7   8
ENDBRANCH   6   7
ENDBRANCH   5   6
ENDBRANCH   4   5
ENDBRANCH   3   4
ENDBRANCH   2   3
ENDBRANCH   1   2
BRANCH   1  11
ATOM     11  C   UNL     1      17.699 -34.308  20.597  1.00  0.00     0.000 C 
BRANCH  11  12
ATOM     12  C   UNL     1      18.299 -32.967  20.138  1.00  0.00    -0.000 C 
BRANCH  12  13
ATOM     13  C   UNL     1      18.276 -31.840  21.192  1.00  0.00    -0.000 C 
BRANCH  13  14
ATOM     14  C   UNL     1      16.899 -31.195  21.430  1.00  0.00    -0.000 C 
BRANCH  14  15
ATOM     15  C   UNL     1      16.712 -30.699  22.871  1.00  0.00    -0.000 C 
BRANCH  15  16
ATOM     16  C   UNL     1      16.950 -31.834  23.878  1.00  0.00    -0.000 C 
BRANCH  16  17
ATOM     17  C   UNL     1      15.925 -32.970  23.740  1.00  0.00    -0.003 C 
ATOM     18  C   UNL     1      16.484 -34.326  24.170  1.00  0.00     0.004 C 
ENDBRANCH  16  17
ENDBRANCH  15  16
ENDBRANCH  14  15
ENDBRANCH  13  14
ENDBRANCH  12  13
ENDBRANCH  11  12
ENDBRANCH   1  11
TORSDOF 14
ENDMDL
MODEL 3
REMARK VINA RESULT:    -4.336      1.665      3.320
REMARK INTER + INTRA:         -10.276
REMARK INTER:                  -8.257
REMARK INTRA:                  -2.019
REMARK UNBOUND:                -2.391
REMARK SMILES CCCCCCCCCCCCCCCC(=O)[O-]
REMARK SMILES IDX 9 1 10 2 11 3 12 4 13 5 14 6 15 7 16 8 17 9 18 10 8 11 7 12
REMARK SMILES IDX 6 13 5 14 4 15 3 16 2 17 1 18
REMARK H PARENT
REMARK Flexibility Score: inf
ROOT
ATOM      1  C   UNL     1      17.295 -34.063  19.160  1.00  0.00     0.000 C 
ENDROOT
BRANCH   1   2
ATOM      2  C   UNL     1      18.480 -34.087  20.140  1.00  0.00     0.000 C 
BRANCH   2   3
ATOM      3  C   UNL     1      18.811 -32.692  20.700  1.00  0.00     0.000 C 
BRANCH   3   4
ATOM      4  C   UNL     1      17.560 -31.817  20.875  1.00  0.00     0.000 C 
BRANCH   4   5
ATOM      5  C   UNL     1      17.664 -30.865  22.080  1.00  0.00     0.000 C 
BRANCH   5   6
ATOM      6  C   UNL     1      16.714 -31.243  23.230  1.00  0.00     0.006 C 
BRANCH   6   7
ATOM      7  C   UNL     1      17.263 -32.341  24.158  1.00  0.00     0.053 C 
BRANCH   7   8
ATOM      8  C   UNL     1      16.574 -33.658  23.966  1.00  0.00     0.041 C 
ATOM      9  O   UNL     1      15.403 -33.832  24.395  1.00  0.00    -0.550 OA
ATOM     10  O   UNL     1      17.239 -34.706  23.343  1.00  0.00    -0.550 OA
ENDBRANCH   7   8
ENDBRANCH   6   7
ENDBRANCH   5   6
ENDBRANCH   4   5
ENDBRANCH   3   4
ENDBRANCH   2   3
ENDBRANCH   1   2
BRANCH   1  11
ATOM     11  C   UNL     1      16.289 -35.198  19.424  1.00  0.00     0.000 C 
BRANCH  11  12
ATOM     12  C   UNL     1      15.228 -34.823  20.473  1.00  0.00    -0.000 C 
BRANCH  12  13
ATOM     13  C   UNL     1      14.379 -33.580  20.134  1.00  0.00    -0.000 C 
BRANCH  13  14
ATOM     14  C   UNL     1      14.015 -32.689  21.336  1.00  0.00    -0.000 C 
BRANCH  14  15
ATOM     15  C   UNL     1      13.266 -31.412  20.928  1.00  0.00    -0.000 C 
BRANCH  15  16
ATOM     16  C   UNL     1      12.364 -30.917  22.067  1.00  0.00    -0.000 C 
BRANCH  16  17
ATOM     17  C   UNL     1      13.135 -30.109  23.123  1.00  0.00    -0.003 C 
ATOM     18  C   UNL     1      14.051 -29.052  22.506  1.00  0.00     0.004 C 
ENDBRANCH  16  17
ENDBRANCH  15  16
ENDBRANCH  14  15
ENDBRANCH  13  14
ENDBRANCH  12  13
ENDBRANCH  11  12
ENDBRANCH   1  11
TORSDOF 14
ENDMDL
MODEL 4
REMARK VINA RESULT:    -4.292      2.508      3.635
REMARK INTER + INTRA:         -10.197
REMARK INTER:                  -8.331
REMARK INTRA:                  -1.866
REMARK UNBOUND:                -2.391
REMARK SMILES CCCCCCCCCCCCCCCC(=O)[O-]
REMARK SMILES IDX 9 1 10 2 11 3 12 4 13 5 14 6 15 7 16 8 17 9 18 10 8 11 7 12
REMARK SMILES IDX 6 13 5 14 4 15 3 16 2 17 1 18
REMARK H PARENT
REMARK Flexibility Score: inf
ROOT
ATOM      1  C   UNL     1      15.018 -34.762  20.800  1.00  0.00     0.000 C 
ENDROOT
BRANCH   1   2
ATOM      2  C   UNL     1      16.181 -35.415  20.034  1.00  0.00     0.000 C 
BRANCH   2   3
ATOM      3  C   UNL     1      16.810 -34.468  18.997  1.00  0.00     0.000 C 
BRANCH   3   4
ATOM      4  C   UNL     1      18.146 -33.878  19.473  1.00  0.00     0.000 C 
BRANCH   4   5
ATOM      5  C   UNL     1      18.334 -33.986  20.996  1.00  0.00     0.000 C 
BRANCH   5   6
ATOM      6  C   UNL     1      17.954 -32.695  21.743  1.00  0.00     0.006 C 
BRANCH   6   7
ATOM      7  C   UNL     1      17.681 -31.496  20.817  1.00  0.00     0.053 C 
BRANCH   7   8
ATOM      8  C   UNL     1      18.462 -30.277  21.205  1.00  0.00     0.041 C 
ATOM      9  O   UNL     1      19.684 -30.368  21.493  1.00  0.00    -0.550 OA
ATOM     10  O   UNL     1      17.829 -29.043  21.282  1.00  0.00    -0.550 OA
ENDBRANCH   7   8
ENDBRANCH   6   7
ENDBRANCH   5   6
ENDBRANCH   4   5
ENDBRANCH   3   4
ENDBRANCH   2   3
ENDBRANCH   1   2
BRANCH   1  11
ATOM     11  C   UNL     1      14.505 -33.483  20.114  1.00  0.00     0.000 C 
BRANCH  11  12
ATOM     12  C   UNL     1      13.876 -32.486  21.104  1.00  0.00    -0.000 C 
BRANCH  12  13
ATOM     13  C   UNL     1      14.382 -32.596  22.558  1.00  0.00    -0.000 C 
BRANCH  13  14
ATOM     14  C   UNL     1      14.418 -31.271  23.340  1.00  0.00    -0.000 C 
BRANCH  14  15
ATOM     15  C   UNL     1      14.501 -30.039  22.426  1.00  0.00    -0.000 C 
BRANCH  15  16
ATOM     16  C   UNL     1      13.940 -28.795  23.129  1.00  0.00    -0.000 C 
BRANCH  16  17
ATOM     17  C   UNL     1      12.653 -29.090  23.914  1.00  0.00    -0.003 C 
ATOM     18  C   UNL     1      11.395 -28.608  23.192  1.00  0.00     0.004 C 
ENDBRANCH  16  17
ENDBRANCH  15  16
ENDBRANCH  14  15
ENDBRANCH  13  14
ENDBRANCH  12  13
ENDBRANCH  11  12
ENDBRANCH   1  11
TORSDOF 14
ENDMDL
MODEL 5
REMARK VINA RESULT:    -4.255      2.893      5.895
REMARK INTER + INTRA:         -10.129
REMARK INTER:                  -8.111
REMARK INTRA:                  -2.018
REMARK UNBOUND:                -2.391
REMARK SMILES CCCCCCCCCCCCCCCC(=O)[O-]
REMARK SMILES IDX 9 1 10 2 11 3 12 4 13 5 14 6 15 7 16 8 17 9 18 10 8 11 7 12
REMARK SMILES IDX 6 13 5 14 4 15 3 16 2 17 1 18
REMARK H PARENT
REMARK Flexibility Score: inf
ROOT
ATOM      1  C   UNL     1      17.297 -35.367  19.415  1.00  0.00     0.000 C 
ENDROOT
BRANCH   1   2
ATOM      2  C   UNL     1      16.148 -34.371  19.189  1.00  0.00     0.000 C 
BRANCH   2   3
ATOM      3  C   UNL     1      14.983 -34.582  20.172  1.00  0.00     0.000 C 
BRANCH   3   4
ATOM      4  C   UNL     1      14.611 -33.296  20.927  1.00  0.00     0.000 C 
BRANCH   4   5
ATOM      5  C   UNL     1      13.549 -32.460  20.191  1.00  0.00     0.000 C 
BRANCH   5   6
ATOM      6  C   UNL     1      12.931 -31.360  21.072  1.00  0.00     0.006 C 
BRANCH   6   7
ATOM      7  C   UNL     1      13.925 -30.719  22.058  1.00  0.00     0.053 C 
BRANCH   7   8
ATOM      8  C   UNL     1      13.477 -30.830  23.484  1.00  0.00     0.041 C 
ATOM      9  O   UNL     1      13.550 -31.931  24.091  1.00  0.00    -0.550 OA
ATOM     10  O   UNL     1      12.946 -29.723  24.133  1.00  0.00    -0.550 OA
ENDBRANCH   7   8
ENDBRANCH   6   7
ENDBRANCH   5   6
ENDBRANCH   4   5
ENDBRANCH   3   4
ENDBRANCH   2   3
ENDBRANCH   1   2
BRANCH   1  11
ATOM     11  C   UNL     1      16.848 -36.619  20.189  1.00  0.00     0.000 C 
BRANCH  11  12
ATOM     12  C   UNL     1      17.972 -37.222  21.051  1.00  0.00    -0.000 C 
BRANCH  12  13
ATOM     13  C   UNL     1      18.582 -36.266  22.097  1.00  0.00    -0.000 C 
BRANCH  13  14
ATOM     14  C   UNL     1      17.561 -35.523  22.979  1.00  0.00    -0.000 C 
BRANCH  14  15
ATOM     15  C   UNL     1      18.072 -34.159  23.465  1.00  0.00    -0.000 C 
BRANCH  15  16
ATOM     16  C   UNL     1      17.413 -33.015  22.680  1.00  0.00    -0.000 C 
BRANCH  16  17
ATOM     17  C   UNL     1      18.284 -32.520  21.515  1.00  0.00    -0.003 C 
ATOM     18  C   UNL     1      17.752 -31.233  20.884  1.00  0.00     0.004 C 
ENDBRANCH  16  17
ENDBRANCH  15  16
ENDBRANCH  14  15
ENDBRANCH  13  14
ENDBRANCH  12  13
ENDBRANCH  11  12
ENDBRANCH   1  11
TORSDOF 14
ENDMDL
MODEL 6
REMARK VINA RESULT:    -4.228      2.075      5.126
REMARK INTER + INTRA:         -10.080
REMARK INTER:                  -7.866
REMARK INTRA:                  -2.214
REMARK UNBOUND:                -2.391
REMARK SMILES CCCCCCCCCCCCCCCC(=O)[O-]
REMARK SMILES IDX 9 1 10 2 11 3 12 4 13 5 14 6 15 7 16 8 17 9 18 10 8 11 7 12
REMARK SMILES IDX 6 13 5 14 4 15 3 16 2 17 1 18
REMARK H PARENT
REMARK Flexibility Score: inf
ROOT
ATOM      1  C   UNL     1      15.285 -30.184  21.658  1.00  0.00     0.000 C 
ENDROOT
BRANCH   1   2
ATOM      2  C   UNL     1      14.633 -29.380  22.796  1.00  0.00     0.000 C 
BRANCH   2   3
ATOM      3  C   UNL     1      13.501 -30.156  23.492  1.00  0.00     0.000 C 
BRANCH   3   4
ATOM      4  C   UNL     1      13.417 -31.618  23.026  1.00  0.00     0.000 C 
BRANCH   4   5
ATOM      5  C   UNL     1      13.842 -32.615  24.118  1.00  0.00     0.000 C 
BRANCH   5   6
ATOM      6  C   UNL     1      14.845 -33.668  23.613  1.00  0.00     0.006 C 
BRANCH   6   7
ATOM      7  C   UNL     1      14.841 -33.852  22.085  1.00  0.00     0.053 C 
BRANCH   7   8
ATOM      8  C   UNL     1      16.186 -34.234  21.545  1.00  0.00     0.041 C 
ATOM      9  O   UNL     1      16.649 -33.659  20.525  1.00  0.00    -0.550 OA
ATOM     10  O   UNL     1      16.914 -35.250  22.151  1.00  0.00    -0.550 OA
ENDBRANCH   7   8
ENDBRANCH   6   7
ENDBRANCH   5   6
ENDBRANCH   4   5
ENDBRANCH   3   4
ENDBRANCH   2   3
ENDBRANCH   1   2
BRANCH   1  11
ATOM     11  C   UNL     1      16.810 -30.307  21.823  1.00  0.00     0.000 C 
BRANCH  11  12
ATOM     12  C   UNL     1      17.218 -30.865  23.199  1.00  0.00    -0.000 C 
BRANCH  12  13
ATOM     13  C   UNL     1      18.460 -31.781  23.195  1.00  0.00    -0.000 C 
BRANCH  13  14
ATOM     14  C   UNL     1      19.216 -31.852  21.856  1.00  0.00    -0.000 C 
BRANCH  14  15
ATOM     15  C   UNL     1      20.633 -31.265  21.937  1.00  0.00    -0.000 C 
BRANCH  15  16
ATOM     16  C   UNL     1      20.880 -30.265  20.798  1.00  0.00    -0.000 C 
BRANCH  16  17
ATOM     17  C   UNL     1      20.843 -28.806  21.276  1.00  0.00    -0.003 C 
ATOM     18  C   UNL     1      19.599 -28.058  20.797  1.00  0.00     0.004 C 
ENDBRANCH  16  17
ENDBRANCH  15  16
ENDBRANCH  14  15
ENDBRANCH  13  14
ENDBRANCH  12  13
ENDBRANCH  11  12
ENDBRANCH   1  11
TORSDOF 14
ENDMDL
MODEL 7
REMARK VINA RESULT:    -4.206      3.446      6.458
REMARK INTER + INTRA:         -10.039
REMARK INTER:                  -8.146
REMARK INTRA:                  -1.893
REMARK UNBOUND:                -2.391
REMARK SMILES CCCCCCCCCCCCCCCC(=O)[O-]
REMARK SMILES IDX 9 1 10 2 11 3 12 4 13 5 14 6 15 7 16 8 17 9 18 10 8 11 7 12
REMARK SMILES IDX 6 13 5 14 4 15 3 16 2 17 1 18
REMARK H PARENT
REMARK Flexibility Score: inf
ROOT
ATOM      1  C   UNL     1      16.973 -32.959  24.221  1.00  0.00     0.000 C 
ENDROOT
BRANCH   1   2
ATOM      2  C   UNL     1      15.882 -33.743  23.473  1.00  0.00     0.000 C 
BRANCH   2   3
ATOM      3  C   UNL     1      14.567 -32.953  23.349  1.00  0.00     0.000 C 
BRANCH   3   4
ATOM      4  C   UNL     1      14.178 -32.685  21.887  1.00  0.00     0.000 C 
BRANCH   4   5
ATOM      5  C   UNL     1      13.312 -31.424  21.724  1.00  0.00     0.000 C 
BRANCH   5   6
ATOM      6  C   UNL     1      13.857 -30.213  22.503  1.00  0.00     0.006 C 
BRANCH   6   7
ATOM      7  C   UNL     1      13.047 -29.867  23.765  1.00  0.00     0.053 C 
BRANCH   7   8
ATOM      8  C   UNL     1      12.343 -28.549  23.656  1.00  0.00     0.041 C 
ATOM      9  O   UNL     1      11.145 -28.496  23.270  1.00  0.00    -0.550 OA
ATOM     10  O   UNL     1      13.022 -27.373  23.948  1.00  0.00    -0.550 OA
ENDBRANCH   7   8
ENDBRANCH   6   7
ENDBRANCH   5   6
ENDBRANCH   4   5
ENDBRANCH   3   4
ENDBRANCH   2   3
ENDBRANCH   1   2
BRANCH   1  11
ATOM     11  C   UNL     1      16.965 -31.459  23.873  1.00  0.00     0.000 C 
BRANCH  11  12
ATOM     12  C   UNL     1      18.046 -31.079  22.846  1.00  0.00    -0.000 C 
BRANCH  12  13
ATOM     13  C   UNL     1      17.587 -31.089  21.373  1.00  0.00    -0.000 C 
BRANCH  13  14
ATOM     14  C   UNL     1      18.234 -32.174  20.493  1.00  0.00    -0.000 C 
BRANCH  14  15
ATOM     15  C   UNL     1      17.252 -33.285  20.095  1.00  0.00    -0.000 C 
BRANCH  15  16
ATOM     16  C   UNL     1      17.989 -34.457  19.431  1.00  0.00    -0.000 C 
BRANCH  16  17
ATOM     17  C   UNL     1      17.116 -35.716  19.318  1.00  0.00    -0.003 C 
ATOM     18  C   UNL     1      15.728 -35.531  19.932  1.00  0.00     0.004 C 
ENDBRANCH  16  17
ENDBRANCH  15  16
ENDBRANCH  14  15
ENDBRANCH  13  14
ENDBRANCH  12  13
ENDBRANCH  11  12
ENDBRANCH   1  11
TORSDOF 14
ENDMDL
MODEL 8
REMARK VINA RESULT:    -4.193      2.589      5.802
REMARK INTER + INTRA:         -10.017
REMARK INTER:                  -7.872
REMARK INTRA:                  -2.144
REMARK UNBOUND:                -2.391
REMARK SMILES CCCCCCCCCCCCCCCC(=O)[O-]
REMARK SMILES IDX 9 1 10 2 11 3 12 4 13 5 14 6 15 7 16 8 17 9 18 10 8 11 7 12
REMARK SMILES IDX 6 13 5 14 4 15 3 16 2 17 1 18
REMARK H PARENT
REMARK Flexibility Score: inf
ROOT
ATOM      1  C   UNL     1      18.585 -32.890  20.747  1.00  0.00     0.000 C 
ENDROOT
BRANCH   1   2
ATOM      2  C   UNL     1      18.561 -31.662  21.672  1.00  0.00     0.000 C 
BRANCH   2   3
ATOM      3  C   UNL     1      17.472 -30.648  21.279  1.00  0.00     0.000 C 
BRANCH   3   4
ATOM      4  C   UNL     1      16.589 -30.242  22.470  1.00  0.00     0.000 C 
BRANCH   4   5
ATOM      5  C   UNL     1      16.463 -31.356  23.523  1.00  0.00     0.000 C 
BRANCH   5   6
ATOM      6  C   UNL     1      15.233 -32.255  23.305  1.00  0.00     0.006 C 
BRANCH   6   7
ATOM      7  C   UNL     1      13.889 -31.535  23.515  1.00  0.00     0.053 C 
BRANCH   7   8
ATOM      8  C   UNL     1      13.113 -31.379  22.243  1.00  0.00     0.041 C 
ATOM      9  O   UNL     1      12.066 -30.680  22.218  1.00  0.00    -0.550 OA
ATOM     10  O   UNL     1      13.529 -32.034  21.091  1.00  0.00    -0.550 OA
ENDBRANCH   7   8
ENDBRANCH   6   7
ENDBRANCH   5   6
ENDBRANCH   4   5
ENDBRANCH   3   4
ENDBRANCH   2   3
ENDBRANCH   1   2
BRANCH   1  11
ATOM     11  C   UNL     1      17.183 -33.272  20.238  1.00  0.00     0.000 C 
BRANCH  11  12
ATOM     12  C   UNL     1      17.226 -34.149  18.974  1.00  0.00    -0.000 C 
BRANCH  12  13
ATOM     13  C   UNL     1      17.616 -35.623  19.209  1.00  0.00    -0.000 C 
BRANCH  13  14
ATOM     14  C   UNL     1      16.942 -36.293  20.420  1.00  0.00    -0.000 C 
BRANCH  14  15
ATOM     15  C   UNL     1      17.917 -37.131  21.260  1.00  0.00    -0.000 C 
BRANCH  15  16
ATOM     16  C   UNL     1      18.568 -36.278  22.359  1.00  0.00    -0.000 C 
BRANCH  16  17
ATOM     17  C   UNL     1      17.536 -35.520  23.207  1.00  0.00    -0.003 C 
ATOM     18  C   UNL     1      18.183 -34.564  24.211  1.00  0.00     0.004 C 
ENDBRANCH  16  17
ENDBRANCH  15  16
ENDBRANCH  14  15
ENDBRANCH  13  14
ENDBRANCH  12  13
ENDBRANCH  11  12
ENDBRANCH   1  11
TORSDOF 14
ENDMDL
MODEL 9
REMARK VINA RESULT:    -4.190      3.337      5.658
REMARK INTER + INTRA:         -10.010
REMARK INTER:                  -7.676
REMARK INTRA:                  -2.334
REMARK UNBOUND:                -2.391
REMARK SMILES CCCCCCCCCCCCCCCC(=O)[O-]
REMARK SMILES IDX 9 1 10 2 11 3 12 4 13 5 14 6 15 7 16 8 17 9 18 10 8 11 7 12
REMARK SMILES IDX 6 13 5 14 4 15 3 16 2 17 1 18
REMARK H PARENT
REMARK Flexibility Score: inf
ROOT
ATOM      1  C   UNL     1      17.556 -34.230  21.427  1.00  0.00     0.000 C 
ENDROOT
BRANCH   1   2
ATOM      2  C   UNL     1      16.383 -33.735  20.565  1.00  0.00     0.000 C 
BRANCH   2   3
ATOM      3  C   UNL     1      15.014 -34.073  21.182  1.00  0.00     0.000 C 
BRANCH   3   4
ATOM      4  C   UNL     1      14.364 -32.862  21.871  1.00  0.00     0.000 C 
BRANCH   4   5
ATOM      5  C   UNL     1      13.521 -32.011  20.906  1.00  0.00     0.000 C 
BRANCH   5   6
ATOM      6  C   UNL     1      12.675 -30.945  21.625  1.00  0.00     0.006 C 
BRANCH   6   7
ATOM      7  C   UNL     1      13.113 -30.676  23.076  1.00  0.00     0.053 C 
BRANCH   7   8
ATOM      8  C   UNL     1      12.959 -29.238  23.469  1.00  0.00     0.041 C 
ATOM      9  O   UNL     1      13.892 -28.419  23.266  1.00  0.00    -0.550 OA
ATOM     10  O   UNL     1      11.793 -28.810  24.092  1.00  0.00    -0.550 OA
ENDBRANCH   7   8
ENDBRANCH   6   7
ENDBRANCH   5   6
ENDBRANCH   4   5
ENDBRANCH   3   4
ENDBRANCH   2   3
ENDBRANCH   1   2
BRANCH   1  11
ATOM     11  C   UNL     1      17.208 -35.500  22.223  1.00  0.00     0.000 C 
BRANCH  11  12
ATOM     12  C   UNL     1      17.546 -35.378  23.720  1.00  0.00    -0.000 C 
BRANCH  12  13
ATOM     13  C   UNL     1      16.688 -34.366  24.507  1.00  0.00    -0.000 C 
BRANCH  13  14
ATOM     14  C   UNL     1      17.481 -33.363  25.365  1.00  0.00    -0.000 C 
BRANCH  14  15
ATOM     15  C   UNL     1      18.159 -32.267  24.530  1.00  0.00    -0.000 C 
BRANCH  15  16
ATOM     16  C   UNL     1      17.116 -31.393  23.819  1.00  0.00    -0.000 C 
BRANCH  16  17
ATOM     17  C   UNL     1      17.661 -30.750  22.535  1.00  0.00    -0.003 C 
ATOM     18  C   UNL     1      16.595 -29.966  21.767  1.00  0.00     0.004 C 
ENDBRANCH  16  17
ENDBRANCH  15  16
ENDBRANCH  14  15
ENDBRANCH  13  14
ENDBRANCH  12  13
ENDBRANCH  11  12
ENDBRANCH   1  11
TORSDOF 14
ENDMDL
