MODEL 1
REMARK VINA RESULT:    -1.235      0.000      0.000
REMARK INTER + INTRA:          -1.338
REMARK INTER:                  -2.102
REMARK INTRA:                   0.764
REMARK UNBOUND:                 0.764
REMARK SMILES CCCCCCCCCCCCCC(=O)[O-]
REMARK SMILES IDX 8 1 9 2 10 3 11 4 12 5 13 6 14 7 15 8 16 9 7 10 6 11 5 12
REMARK SMILES IDX 4 13 3 14 2 15 1 16
REMARK H PARENT
REMARK Flexibility Score: inf
ROOT
ATOM      1  C   UNL     1     -13.047  -3.795 -12.042  1.00  0.00     0.000 C 
ENDROOT
BRANCH   1   2
ATOM      2  C   UNL     1     -14.320  -2.997 -12.364  1.00  0.00     0.000 C 
BRANCH   2   3
ATOM      3  C   UNL     1     -15.102  -3.583 -13.550  1.00  0.00     0.000 C 
BRANCH   3   4
ATOM      4  C   UNL     1     -14.161  -4.325 -14.512  1.00  0.00     0.000 C 
BRANCH   4   5
ATOM      5  C   UNL     1     -13.998  -3.601 -15.858  1.00  0.00     0.006 C 
BRANCH   5   6
ATOM      6  C   UNL     1     -14.413  -2.126 -15.790  1.00  0.00     0.053 C 
BRANCH   6   7
ATOM      7  C   UNL     1     -13.330  -1.307 -15.164  1.00  0.00     0.041 C 
ATOM      8  O   UNL     1     -13.520  -0.087 -14.918  1.00  0.00    -0.550 OA
ATOM      9  O   UNL     1     -12.127  -1.903 -14.806  1.00  0.00    -0.550 OA
ENDBRANCH   6   7
ENDBRANCH   5   6
ENDBRANCH   4   5
ENDBRANCH   3   4
ENDBRANCH   2   3
ENDBRANCH   1   2
BRANCH   1  10
ATOM     10  C   UNL     1     -11.875  -2.897 -11.617  1.00  0.00     0.000 C 
BRANCH  10  11
ATOM     11  C   UNL     1     -12.241  -2.063 -10.384  1.00  0.00    -0.000 C 
BRANCH  11  12
ATOM     12  C   UNL     1     -11.984  -2.847  -9.090  1.00  0.00    -0.000 C 
BRANCH  12  13
ATOM     13  C   UNL     1     -12.361  -4.326  -9.259  1.00  0.00    -0.000 C 
BRANCH  13  14
ATOM     14  C   UNL     1     -13.881  -4.542  -9.342  1.00  0.00    -0.000 C 
BRANCH  14  15
ATOM     15  C   UNL     1     -14.304  -5.943  -8.877  1.00  0.00    -0.003 C 
ATOM     16  C   UNL     1     -13.145  -6.931  -8.981  1.00  0.00     0.004 C 
ENDBRANCH  14  15
ENDBRANCH  13  14
ENDBRANCH  12  13
ENDBRANCH  11  12
ENDBRANCH  10  11
ENDBRANCH   1  10
TORSDOF 12
ENDMDL
MODEL 2
REMARK VINA RESULT:    -0.427     21.869     23.670
REMARK INTER + INTRA:           0.038
REMARK INTER:                  -0.319
REMARK INTRA:                   0.357
REMARK UNBOUND:                 0.764
REMARK SMILES CCCCCCCCCCCCCC(=O)[O-]
REMARK SMILES IDX 8 1 9 2 10 3 11 4 12 5 13 6 14 7 15 8 16 9 7 10 6 11 5 12
REMARK SMILES IDX 4 13 3 14 2 15 1 16
REMARK H PARENT
REMARK Flexibility Score: inf
ROOT
ATOM      1  C   UNL     1     -30.874   0.951 -25.002  1.00  0.00     0.000 C 
ENDROOT
BRANCH   1   2
ATOM      2  C   UNL     1     -32.124   1.815 -24.774  1.00  0.00     0.000 C 
BRANCH   2   3
ATOM      3  C   UNL     1     -31.955   2.806 -23.613  1.00  0.00     0.000 C 
BRANCH   3   4
ATOM      4  C   UNL     1     -32.124   4.253 -24.100  1.00  0.00     0.000 C 
BRANCH   4   5
ATOM      5  C   UNL     1     -32.112   4.369 -25.633  1.00  0.00     0.006 C 
BRANCH   5   6
ATOM      6  C   UNL     1     -30.791   3.891 -26.251  1.00  0.00     0.053 C 
BRANCH   6   7
ATOM      7  C   UNL     1     -30.889   3.873 -27.743  1.00  0.00     0.041 C 
ATOM      8  O   UNL     1     -30.112   4.579 -28.438  1.00  0.00    -0.550 OA
ATOM      9  O   UNL     1     -31.807   3.039 -28.369  1.00  0.00    -0.550 OA
ENDBRANCH   6   7
ENDBRANCH   5   6
ENDBRANCH   4   5
ENDBRANCH   3   4
ENDBRANCH   2   3
ENDBRANCH   1   2
BRANCH   1  10
ATOM     10  C   UNL     1     -30.849  -0.304 -24.116  1.00  0.00     0.000 C 
BRANCH  10  11
ATOM     11  C   UNL     1     -31.393  -1.521 -24.872  1.00  0.00    -0.000 C 
BRANCH  11  12
ATOM     12  C   UNL     1     -31.771  -1.154 -26.312  1.00  0.00    -0.000 C 
BRANCH  12  13
ATOM     13  C   UNL     1     -31.790  -2.399 -27.211  1.00  0.00    -0.000 C 
BRANCH  13  14
ATOM     14  C   UNL     1     -30.614  -2.434 -28.199  1.00  0.00    -0.000 C 
BRANCH  14  15
ATOM     15  C   UNL     1     -30.653  -3.660 -29.123  1.00  0.00    -0.003 C 
ATOM     16  C   UNL     1     -31.974  -4.412 -28.981  1.00  0.00     0.004 C 
ENDBRANCH  14  15
ENDBRANCH  13  14
ENDBRANCH  12  13
ENDBRANCH  11  12
ENDBRANCH  10  11
ENDBRANCH   1  10
TORSDOF 12
ENDMDL
MODEL 3
REMARK VINA RESULT:     0.057     22.027     24.074
REMARK INTER + INTRA:           0.861
REMARK INTER:                   1.613
REMARK INTRA:                  -0.752
REMARK UNBOUND:                 0.764
REMARK SMILES CCCCCCCCCCCCCC(=O)[O-]
REMARK SMILES IDX 8 1 9 2 10 3 11 4 12 5 13 6 14 7 15 8 16 9 7 10 6 11 5 12
REMARK SMILES IDX 4 13 3 14 2 15 1 16
REMARK H PARENT
REMARK Flexibility Score: inf
ROOT
ATOM      1  C   UNL     1     -30.749  -0.729 -25.503  1.00  0.00     0.000 C 
ENDROOT
BRANCH   1   2
ATOM      2  C   UNL     1     -30.841   0.356 -24.418  1.00  0.00     0.000 C 
BRANCH   2   3
ATOM      3  C   UNL     1     -31.968   1.365 -24.685  1.00  0.00     0.000 C 
BRANCH   3   4
ATOM      4  C   UNL     1     -31.521   2.791 -24.331  1.00  0.00     0.000 C 
BRANCH   4   5
ATOM      5  C   UNL     1     -31.815   3.801 -25.451  1.00  0.00     0.006 C 
BRANCH   5   6
ATOM      6  C   UNL     1     -31.768   3.166 -26.847  1.00  0.00     0.053 C 
BRANCH   6   7
ATOM      7  C   UNL     1     -31.116   4.093 -27.821  1.00  0.00     0.041 C 
ATOM      8  O   UNL     1     -31.640   4.301 -28.947  1.00  0.00    -0.550 OA
ATOM      9  O   UNL     1     -29.954   4.768 -27.468  1.00  0.00    -0.550 OA
ENDBRANCH   6   7
ENDBRANCH   5   6
ENDBRANCH   4   5
ENDBRANCH   3   4
ENDBRANCH   2   3
ENDBRANCH   1   2
BRANCH   1  10
ATOM     10  C   UNL     1     -32.056  -0.892 -26.293  1.00  0.00     0.000 C 
BRANCH  10  11
ATOM     11  C   UNL     1     -31.867  -0.485 -27.759  1.00  0.00    -0.000 C 
BRANCH  11  12
ATOM     12  C   UNL     1     -32.124  -1.669 -28.699  1.00  0.00    -0.000 C 
BRANCH  12  13
ATOM     13  C   UNL     1     -31.595  -2.978 -28.092  1.00  0.00    -0.000 C 
BRANCH  13  14
ATOM     14  C   UNL     1     -31.500  -4.112 -29.124  1.00  0.00    -0.000 C 
BRANCH  14  15
ATOM     15  C   UNL     1     -32.112  -5.426 -28.617  1.00  0.00    -0.003 C 
ATOM     16  C   UNL     1     -31.226  -6.617 -28.970  1.00  0.00     0.004 C 
ENDBRANCH  14  15
ENDBRANCH  13  14
ENDBRANCH  12  13
ENDBRANCH  11  12
ENDBRANCH  10  11
ENDBRANCH   1  10
TORSDOF 12
ENDMDL
MODEL 4
REMARK VINA RESULT:     0.476     21.103     23.647
REMARK INTER + INTRA:           1.573
REMARK INTER:                   0.914
REMARK INTRA:                   0.659
REMARK UNBOUND:                 0.764
REMARK SMILES CCCCCCCCCCCCCC(=O)[O-]
REMARK SMILES IDX 8 1 9 2 10 3 11 4 12 5 13 6 14 7 15 8 16 9 7 10 6 11 5 12
REMARK SMILES IDX 4 13 3 14 2 15 1 16
REMARK H PARENT
REMARK Flexibility Score: inf
ROOT
ATOM      1  C   UNL     1     -30.693  -0.636 -23.034  1.00  0.00     0.000 C 
ENDROOT
BRANCH   1   2
ATOM      2  C   UNL     1     -30.397  -1.157 -24.449  1.00  0.00     0.000 C 
BRANCH   2   3
ATOM      3  C   UNL     1     -31.376  -0.608 -25.499  1.00  0.00     0.000 C 
BRANCH   3   4
ATOM      4  C   UNL     1     -31.648  -1.651 -26.593  1.00  0.00     0.000 C 
BRANCH   4   5
ATOM      5  C   UNL     1     -32.125  -1.020 -27.910  1.00  0.00     0.006 C 
BRANCH   5   6
ATOM      6  C   UNL     1     -31.864  -1.920 -29.125  1.00  0.00     0.053 C 
BRANCH   6   7
ATOM      7  C   UNL     1     -31.143  -3.162 -28.709  1.00  0.00     0.041 C 
ATOM      8  O   UNL     1     -29.919  -3.116 -28.416  1.00  0.00    -0.550 OA
ATOM      9  O   UNL     1     -31.832  -4.362 -28.596  1.00  0.00    -0.550 OA
ENDBRANCH   6   7
ENDBRANCH   5   6
ENDBRANCH   4   5
ENDBRANCH   3   4
ENDBRANCH   2   3
ENDBRANCH   1   2
BRANCH   1  10
ATOM     10  C   UNL     1     -31.557   0.633 -23.037  1.00  0.00     0.000 C 
BRANCH  10  11
ATOM     11  C   UNL     1     -31.003   1.673 -24.018  1.00  0.00    -0.000 C 
BRANCH  11  12
ATOM     12  C   UNL     1     -32.121   2.569 -24.565  1.00  0.00    -0.000 C 
BRANCH  12  13
ATOM     13  C   UNL     1     -32.011   2.717 -26.089  1.00  0.00    -0.000 C 
BRANCH  13  14
ATOM     14  C   UNL     1     -30.879   3.666 -26.511  1.00  0.00    -0.000 C 
BRANCH  14  15
ATOM     15  C   UNL     1     -31.240   4.506 -27.745  1.00  0.00    -0.003 C 
ATOM     16  C   UNL     1     -30.876   3.774 -29.033  1.00  0.00     0.004 C 
ENDBRANCH  14  15
ENDBRANCH  13  14
ENDBRANCH  12  13
ENDBRANCH  11  12
ENDBRANCH  10  11
ENDBRANCH   1  10
TORSDOF 12
ENDMDL
MODEL 5
REMARK VINA RESULT:     0.497      2.409      3.198
REMARK INTER + INTRA:           1.610
REMARK INTER:                   2.387
REMARK INTRA:                  -0.777
REMARK UNBOUND:                 0.764
REMARK SMILES CCCCCCCCCCCCCC(=O)[O-]
REMARK SMILES IDX 8 1 9 2 10 3 11 4 12 5 13 6 14 7 15 8 16 9 7 10 6 11 5 12
REMARK SMILES IDX 4 13 3 14 2 15 1 16
REMARK H PARENT
REMARK Flexibility Score: inf
ROOT
ATOM      1  C   UNL     1     -12.902  -2.269 -13.037  1.00  0.00     0.000 C 
ENDROOT
BRANCH   1   2
ATOM      2  C   UNL     1     -12.266  -1.989 -14.408  1.00  0.00     0.000 C 
BRANCH   2   3
ATOM      3  C   UNL     1     -13.274  -2.103 -15.562  1.00  0.00     0.000 C 
BRANCH   3   4
ATOM      4  C   UNL     1     -14.469  -2.981 -15.161  1.00  0.00     0.000 C 
BRANCH   4   5
ATOM      5  C   UNL     1     -14.308  -4.442 -15.606  1.00  0.00     0.006 C 
BRANCH   5   6
ATOM      6  C   UNL     1     -14.234  -5.416 -14.423  1.00  0.00     0.053 C 
BRANCH   6   7
ATOM      7  C   UNL     1     -13.937  -6.800 -14.903  1.00  0.00     0.041 C 
ATOM      8  O   UNL     1     -12.977  -7.005 -15.693  1.00  0.00    -0.550 OA
ATOM      9  O   UNL     1     -14.688  -7.873 -14.441  1.00  0.00    -0.550 OA
ENDBRANCH   6   7
ENDBRANCH   5   6
ENDBRANCH   4   5
ENDBRANCH   3   4
ENDBRANCH   2   3
ENDBRANCH   1   2
BRANCH   1  10
ATOM     10  C   UNL     1     -11.875  -2.726 -11.990  1.00  0.00     0.000 C 
BRANCH  10  11
ATOM     11  C   UNL     1     -11.968  -1.873 -10.720  1.00  0.00    -0.000 C 
BRANCH  11  12
ATOM     12  C   UNL     1     -13.022  -2.430  -9.755  1.00  0.00    -0.000 C 
BRANCH  12  13
ATOM     13  C   UNL     1     -13.153  -3.953  -9.904  1.00  0.00    -0.000 C 
BRANCH  13  14
ATOM     14  C   UNL     1     -14.116  -4.568  -8.876  1.00  0.00    -0.000 C 
BRANCH  14  15
ATOM     15  C   UNL     1     -14.265  -6.087  -9.041  1.00  0.00    -0.003 C 
ATOM     16  C   UNL     1     -12.922  -6.793  -8.876  1.00  0.00     0.004 C 
ENDBRANCH  14  15
ENDBRANCH  13  14
ENDBRANCH  12  13
ENDBRANCH  11  12
ENDBRANCH  10  11
ENDBRANCH   1  10
TORSDOF 12
ENDMDL
MODEL 6
REMARK VINA RESULT:     0.764      1.330      1.912
REMARK INTER + INTRA:           2.063
REMARK INTER:                   0.529
REMARK INTRA:                   1.534
REMARK UNBOUND:                 0.764
REMARK SMILES CCCCCCCCCCCCCC(=O)[O-]
REMARK SMILES IDX 8 1 9 2 10 3 11 4 12 5 13 6 14 7 15 8 16 9 7 10 6 11 5 12
REMARK SMILES IDX 4 13 3 14 2 15 1 16
REMARK H PARENT
REMARK Flexibility Score: inf
ROOT
ATOM      1  C   UNL     1     -14.691  -2.708 -11.625  1.00  0.00     0.000 C 
ENDROOT
BRANCH   1   2
ATOM      2  C   UNL     1     -14.716  -3.372 -13.011  1.00  0.00     0.000 C 
BRANCH   2   3
ATOM      3  C   UNL     1     -13.361  -3.982 -13.400  1.00  0.00     0.000 C 
BRANCH   3   4
ATOM      4  C   UNL     1     -12.211  -3.019 -13.067  1.00  0.00     0.000 C 
BRANCH   4   5
ATOM      5  C   UNL     1     -12.305  -1.694 -13.840  1.00  0.00     0.006 C 
BRANCH   5   6
ATOM      6  C   UNL     1     -12.430  -1.901 -15.355  1.00  0.00     0.053 C 
BRANCH   6   7
ATOM      7  C   UNL     1     -13.863  -1.831 -15.775  1.00  0.00     0.041 C 
ATOM      8  O   UNL     1     -14.526  -0.775 -15.595  1.00  0.00    -0.550 OA
ATOM      9  O   UNL     1     -14.456  -2.915 -16.410  1.00  0.00    -0.550 OA
ENDBRANCH   6   7
ENDBRANCH   5   6
ENDBRANCH   4   5
ENDBRANCH   3   4
ENDBRANCH   2   3
ENDBRANCH   1   2
BRANCH   1  10
ATOM     10  C   UNL     1     -13.276  -2.624 -11.032  1.00  0.00     0.000 C 
BRANCH  10  11
ATOM     11  C   UNL     1     -13.324  -2.558  -9.502  1.00  0.00    -0.000 C 
BRANCH  11  12
ATOM     12  C   UNL     1     -12.222  -3.422  -8.876  1.00  0.00    -0.000 C 
BRANCH  12  13
ATOM     13  C   UNL     1     -11.947  -4.667  -9.733  1.00  0.00    -0.000 C 
BRANCH  13  14
ATOM     14  C   UNL     1     -11.906  -5.959  -8.903  1.00  0.00    -0.000 C 
BRANCH  14  15
ATOM     15  C   UNL     1     -13.137  -6.848  -9.131  1.00  0.00    -0.003 C 
ATOM     16  C   UNL     1     -14.428  -6.048  -8.978  1.00  0.00     0.004 C 
ENDBRANCH  14  15
ENDBRANCH  13  14
ENDBRANCH  12  13
ENDBRANCH  11  12
ENDBRANCH  10  11
ENDBRANCH   1  10
TORSDOF 12
ENDMDL
MODEL 7
REMARK VINA RESULT:     0.912      0.955      1.488
REMARK INTER + INTRA:           2.316
REMARK INTER:                   2.278
REMARK INTRA:                   0.037
REMARK UNBOUND:                 0.764
REMARK SMILES CCCCCCCCCCCCCC(=O)[O-]
REMARK SMILES IDX 8 1 9 2 10 3 11 4 12 5 13 6 14 7 15 8 16 9 7 10 6 11 5 12
REMARK SMILES IDX 4 13 3 14 2 15 1 16
REMARK H PARENT
REMARK Flexibility Score: inf
ROOT
ATOM      1  C   UNL     1     -12.861  -4.562 -12.562  1.00  0.00     0.000 C 
ENDROOT
BRANCH   1   2
ATOM      2  C   UNL     1     -13.928  -4.203 -13.609  1.00  0.00     0.000 C 
BRANCH   2   3
ATOM      3  C   UNL     1     -13.917  -5.152 -14.816  1.00  0.00     0.000 C 
BRANCH   3   4
ATOM      4  C   UNL     1     -14.491  -4.460 -16.062  1.00  0.00     0.000 C 
BRANCH   4   5
ATOM      5  C   UNL     1     -13.972  -3.024 -16.236  1.00  0.00     0.006 C 
BRANCH   5   6
ATOM      6  C   UNL     1     -14.413  -2.095 -15.097  1.00  0.00     0.053 C 
BRANCH   6   7
ATOM      7  C   UNL     1     -13.383  -1.038 -14.857  1.00  0.00     0.041 C 
ATOM      8  O   UNL     1     -12.192  -1.360 -14.604  1.00  0.00    -0.550 OA
ATOM      9  O   UNL     1     -13.726   0.304 -14.962  1.00  0.00    -0.550 OA
ENDBRANCH   6   7
ENDBRANCH   5   6
ENDBRANCH   4   5
ENDBRANCH   3   4
ENDBRANCH   2   3
ENDBRANCH   1   2
BRANCH   1  10
ATOM     10  C   UNL     1     -11.878  -3.411 -12.299  1.00  0.00     0.000 C 
BRANCH  10  11
ATOM     11  C   UNL     1     -12.485  -2.377 -11.344  1.00  0.00    -0.000 C 
BRANCH  11  12
ATOM     12  C   UNL     1     -11.934  -2.546  -9.923  1.00  0.00    -0.000 C 
BRANCH  12  13
ATOM     13  C   UNL     1     -13.061  -2.462  -8.883  1.00  0.00    -0.000 C 
BRANCH  13  14
ATOM     14  C   UNL     1     -14.012  -3.667  -8.943  1.00  0.00    -0.000 C 
BRANCH  14  15
ATOM     15  C   UNL     1     -13.271  -5.010  -8.876  1.00  0.00    -0.003 C 
ATOM     16  C   UNL     1     -14.179  -6.161  -9.298  1.00  0.00     0.004 C 
ENDBRANCH  14  15
ENDBRANCH  13  14
ENDBRANCH  12  13
ENDBRANCH  11  12
ENDBRANCH  10  11
ENDBRANCH   1  10
TORSDOF 12
ENDMDL
