MODEL 1
REMARK VINA RESULT:    -4.274      0.000      0.000
REMARK INTER + INTRA:          -9.842
REMARK INTER:                  -7.773
REMARK INTRA:                  -2.069
REMARK UNBOUND:                -2.069
REMARK SMILES CCCCCCCCCCCCCCCC(=O)[O-]
REMARK SMILES IDX 9 1 10 2 11 3 12 4 13 5 14 6 15 7 16 8 17 9 18 10 8 11 7 12
REMARK SMILES IDX 6 13 5 14 4 15 3 16 2 17 1 18
REMARK H PARENT
REMARK Flexibility Score: inf
ROOT
ATOM      1  C   UNL     1     115.308 121.471 124.252  1.00  0.00     0.000 C 
ENDROOT
BRANCH   1   2
ATOM      2  C   UNL     1     114.146 122.478 124.173  1.00  0.00     0.000 C 
BRANCH   2   3
ATOM      3  C   UNL     1     114.592 123.926 124.444  1.00  0.00     0.000 C 
BRANCH   3   4
ATOM      4  C   UNL     1     115.132 124.620 123.183  1.00  0.00     0.000 C 
BRANCH   4   5
ATOM      5  C   UNL     1     114.074 124.723 122.070  1.00  0.00     0.000 C 
BRANCH   5   6
ATOM      6  C   UNL     1     114.607 124.291 120.693  1.00  0.00     0.006 C 
BRANCH   6   7
ATOM      7  C   UNL     1     115.350 122.943 120.702  1.00  0.00     0.053 C 
BRANCH   7   8
ATOM      8  C   UNL     1     116.727 123.036 120.119  1.00  0.00     0.041 C 
ATOM      9  O   UNL     1     117.298 124.154 120.011  1.00  0.00    -0.550 OA
ATOM     10  O   UNL     1     117.394 121.884 119.723  1.00  0.00    -0.550 OA
ENDBRANCH   7   8
ENDBRANCH   6   7
ENDBRANCH   5   6
ENDBRANCH   4   5
ENDBRANCH   3   4
ENDBRANCH   2   3
ENDBRANCH   1   2
BRANCH   1  11
ATOM     11  C   UNL     1     114.948 120.107 124.873  1.00  0.00     0.000 C 
BRANCH  11  12
ATOM     12  C   UNL     1     113.590 120.059 125.600  1.00  0.00    -0.000 C 
BRANCH  12  13
ATOM     13  C   UNL     1     112.908 118.675 125.620  1.00  0.00    -0.000 C 
BRANCH  13  14
ATOM     14  C   UNL     1     111.764 118.496 124.604  1.00  0.00    -0.000 C 
BRANCH  14  15
ATOM     15  C   UNL     1     111.492 119.766 123.782  1.00  0.00    -0.000 C 
BRANCH  15  16
ATOM     16  C   UNL     1     111.604 119.525 122.268  1.00  0.00    -0.000 C 
BRANCH  16  17
ATOM     17  C   UNL     1     112.636 120.444 121.597  1.00  0.00    -0.003 C 
ATOM     18  C   UNL     1     113.947 119.705 121.344  1.00  0.00     0.004 C 
ENDBRANCH  16  17
ENDBRANCH  15  16
ENDBRANCH  14  15
ENDBRANCH  13  14
ENDBRANCH  12  13
ENDBRANCH  11  12
ENDBRANCH   1  11
TORSDOF 14
ENDMDL
MODEL 2
REMARK VINA RESULT:    -4.196      3.347      5.239
REMARK INTER + INTRA:          -9.700
REMARK INTER:                  -7.435
REMARK INTRA:                  -2.264
REMARK UNBOUND:                -2.069
REMARK SMILES CCCCCCCCCCCCCCCC(=O)[O-]
REMARK SMILES IDX 9 1 10 2 11 3 12 4 13 5 14 6 15 7 16 8 17 9 18 10 8 11 7 12
REMARK SMILES IDX 6 13 5 14 4 15 3 16 2 17 1 18
REMARK H PARENT
REMARK Flexibility Score: inf
ROOT
ATOM      1  C   UNL     1     115.327 120.129 122.265  1.00  0.00     0.000 C 
ENDROOT
BRANCH   1   2
ATOM      2  C   UNL     1     116.222 121.167 122.965  1.00  0.00     0.000 C 
BRANCH   2   3
ATOM      3  C   UNL     1     115.500 121.905 124.106  1.00  0.00     0.000 C 
BRANCH   3   4
ATOM      4  C   UNL     1     115.800 123.413 124.114  1.00  0.00     0.000 C 
BRANCH   4   5
ATOM      5  C   UNL     1     114.588 124.251 124.554  1.00  0.00     0.000 C 
BRANCH   5   6
ATOM      6  C   UNL     1     114.547 125.641 123.895  1.00  0.00     0.006 C 
BRANCH   6   7
ATOM      7  C   UNL     1     115.157 126.761 124.756  1.00  0.00     0.053 C 
BRANCH   7   8
ATOM      8  C   UNL     1     114.733 126.686 126.191  1.00  0.00     0.041 C 
ATOM      9  O   UNL     1     115.594 126.566 127.103  1.00  0.00    -0.550 OA
ATOM     10  O   UNL     1     113.388 126.782 126.525  1.00  0.00    -0.550 OA
ENDBRANCH   7   8
ENDBRANCH   6   7
ENDBRANCH   5   6
ENDBRANCH   4   5
ENDBRANCH   3   4
ENDBRANCH   2   3
ENDBRANCH   1   2
BRANCH   1  11
ATOM     11  C   UNL     1     113.811 120.328 122.473  1.00  0.00     0.000 C 
BRANCH  11  12
ATOM     12  C   UNL     1     112.980 120.410 121.177  1.00  0.00    -0.000 C 
BRANCH  12  13
ATOM     13  C   UNL     1     112.452 121.816 120.828  1.00  0.00    -0.000 C 
BRANCH  13  14
ATOM     14  C   UNL     1     113.392 122.978 121.198  1.00  0.00    -0.000 C 
BRANCH  14  15
ATOM     15  C   UNL     1     114.454 123.252 120.122  1.00  0.00    -0.000 C 
BRANCH  15  16
ATOM     16  C   UNL     1     115.379 124.424 120.489  1.00  0.00    -0.000 C 
BRANCH  16  17
ATOM     17  C   UNL     1     116.866 124.084 120.309  1.00  0.00    -0.003 C 
ATOM     18  C   UNL     1     117.045 122.654 119.807  1.00  0.00     0.004 C 
ENDBRANCH  16  17
ENDBRANCH  15  16
ENDBRANCH  14  15
ENDBRANCH  13  14
ENDBRANCH  12  13
ENDBRANCH  11  12
ENDBRANCH   1  11
TORSDOF 14
ENDMDL
MODEL 3
REMARK VINA RESULT:    -4.188      2.425      4.944
REMARK INTER + INTRA:          -9.685
REMARK INTER:                  -7.485
REMARK INTRA:                  -2.200
REMARK UNBOUND:                -2.069
REMARK SMILES CCCCCCCCCCCCCCCC(=O)[O-]
REMARK SMILES IDX 9 1 10 2 11 3 12 4 13 5 14 6 15 7 16 8 17 9 18 10 8 11 7 12
REMARK SMILES IDX 6 13 5 14 4 15 3 16 2 17 1 18
REMARK H PARENT
REMARK Flexibility Score: inf
ROOT
ATOM      1  C   UNL     1     111.889 119.835 123.127  1.00  0.00     0.000 C 
ENDROOT
BRANCH   1   2
ATOM      2  C   UNL     1     112.757 120.311 124.306  1.00  0.00     0.000 C 
BRANCH   2   3
ATOM      3  C   UNL     1     114.260 120.080 124.071  1.00  0.00     0.000 C 
BRANCH   3   4
ATOM      4  C   UNL     1     115.091 121.356 124.286  1.00  0.00     0.000 C 
BRANCH   4   5
ATOM      5  C   UNL     1     114.225 122.627 124.289  1.00  0.00     0.000 C 
BRANCH   5   6
ATOM      6  C   UNL     1     115.057 123.922 124.278  1.00  0.00     0.006 C 
BRANCH   6   7
ATOM      7  C   UNL     1     114.403 125.080 123.503  1.00  0.00     0.053 C 
BRANCH   7   8
ATOM      8  C   UNL     1     114.617 126.410 124.161  1.00  0.00     0.041 C 
ATOM      9  O   UNL     1     113.731 127.304 124.091  1.00  0.00    -0.550 OA
ATOM     10  O   UNL     1     115.781 126.652 124.879  1.00  0.00    -0.550 OA
ENDBRANCH   7   8
ENDBRANCH   6   7
ENDBRANCH   5   6
ENDBRANCH   4   5
ENDBRANCH   3   4
ENDBRANCH   2   3
ENDBRANCH   1   2
BRANCH   1  11
ATOM     11  C   UNL     1     112.562 119.927 121.742  1.00  0.00     0.000 C 
BRANCH  11  12
ATOM     12  C   UNL     1     111.664 120.474 120.615  1.00  0.00    -0.000 C 
BRANCH  12  13
ATOM     13  C   UNL     1     112.070 121.860 120.072  1.00  0.00    -0.000 C 
BRANCH  13  14
ATOM     14  C   UNL     1     112.976 122.687 121.002  1.00  0.00    -0.000 C 
BRANCH  14  15
ATOM     15  C   UNL     1     114.273 123.147 120.318  1.00  0.00    -0.000 C 
BRANCH  15  16
ATOM     16  C   UNL     1     115.499 122.338 120.771  1.00  0.00    -0.000 C 
BRANCH  16  17
ATOM     17  C   UNL     1     116.807 123.137 120.667  1.00  0.00    -0.003 C 
ATOM     18  C   UNL     1     116.549 124.547 120.144  1.00  0.00     0.004 C 
ENDBRANCH  16  17
ENDBRANCH  15  16
ENDBRANCH  14  15
ENDBRANCH  13  14
ENDBRANCH  12  13
ENDBRANCH  11  12
ENDBRANCH   1  11
TORSDOF 14
ENDMDL
MODEL 4
REMARK VINA RESULT:    -4.158      3.014      6.779
REMARK INTER + INTRA:          -9.631
REMARK INTER:                  -8.216
REMARK INTRA:                  -1.415
REMARK UNBOUND:                -2.069
REMARK SMILES CCCCCCCCCCCCCCCC(=O)[O-]
REMARK SMILES IDX 9 1 10 2 11 3 12 4 13 5 14 6 15 7 16 8 17 9 18 10 8 11 7 12
REMARK SMILES IDX 6 13 5 14 4 15 3 16 2 17 1 18
REMARK H PARENT
REMARK Flexibility Score: inf
ROOT
ATOM      1  C   UNL     1     113.046 122.593 121.054  1.00  0.00     0.000 C 
ENDROOT
BRANCH   1   2
ATOM      2  C   UNL     1     112.095 121.646 120.300  1.00  0.00     0.000 C 
BRANCH   2   3
ATOM      3  C   UNL     1     111.408 120.628 121.227  1.00  0.00     0.000 C 
BRANCH   3   4
ATOM      4  C   UNL     1     112.406 119.903 122.146  1.00  0.00     0.000 C 
BRANCH   4   5
ATOM      5  C   UNL     1     111.749 119.393 123.440  1.00  0.00     0.000 C 
BRANCH   5   6
ATOM      6  C   UNL     1     112.343 120.031 124.708  1.00  0.00     0.006 C 
BRANCH   6   7
ATOM      7  C   UNL     1     112.398 119.084 125.920  1.00  0.00     0.053 C 
BRANCH   7   8
ATOM      8  C   UNL     1     113.796 118.672 126.270  1.00  0.00     0.041 C 
ATOM      9  O   UNL     1     114.782 119.246 125.735  1.00  0.00    -0.550 OA
ATOM     10  O   UNL     1     114.012 117.674 127.212  1.00  0.00    -0.550 OA
ENDBRANCH   7   8
ENDBRANCH   6   7
ENDBRANCH   5   6
ENDBRANCH   4   5
ENDBRANCH   3   4
ENDBRANCH   2   3
ENDBRANCH   1   2
BRANCH   1  11
ATOM     11  C   UNL     1     114.499 122.605 120.537  1.00  0.00     0.000 C 
BRANCH  11  12
ATOM     12  C   UNL     1     115.036 123.992 120.131  1.00  0.00    -0.000 C 
BRANCH  12  13
ATOM     13  C   UNL     1     116.573 124.119 120.115  1.00  0.00    -0.000 C 
BRANCH  13  14
ATOM     14  C   UNL     1     117.167 125.002 121.228  1.00  0.00    -0.000 C 
BRANCH  14  15
ATOM     15  C   UNL     1     116.861 124.470 122.638  1.00  0.00    -0.000 C 
BRANCH  15  16
ATOM     16  C   UNL     1     116.015 125.450 123.467  1.00  0.00    -0.000 C 
BRANCH  16  17
ATOM     17  C   UNL     1     114.633 124.882 123.827  1.00  0.00    -0.003 C 
ATOM     18  C   UNL     1     114.733 123.414 124.235  1.00  0.00     0.004 C 
ENDBRANCH  16  17
ENDBRANCH  15  16
ENDBRANCH  14  15
ENDBRANCH  13  14
ENDBRANCH  12  13
ENDBRANCH  11  12
ENDBRANCH   1  11
TORSDOF 14
ENDMDL
MODEL 5
REMARK VINA RESULT:    -4.153      3.241      6.410
REMARK INTER + INTRA:          -9.622
REMARK INTER:                  -7.797
REMARK INTRA:                  -1.825
REMARK UNBOUND:                -2.069
REMARK SMILES CCCCCCCCCCCCCCCC(=O)[O-]
REMARK SMILES IDX 9 1 10 2 11 3 12 4 13 5 14 6 15 7 16 8 17 9 18 10 8 11 7 12
REMARK SMILES IDX 6 13 5 14 4 15 3 16 2 17 1 18
REMARK H PARENT
REMARK Flexibility Score: inf
ROOT
ATOM      1  C   UNL     1     114.961 121.308 124.494  1.00  0.00     0.000 C 
ENDROOT
BRANCH   1   2
ATOM      2  C   UNL     1     113.511 121.825 124.469  1.00  0.00     0.000 C 
BRANCH   2   3
ATOM      3  C   UNL     1     112.472 120.690 124.486  1.00  0.00     0.000 C 
BRANCH   3   4
ATOM      4  C   UNL     1     113.077 119.346 124.924  1.00  0.00     0.000 C 
BRANCH   4   5
ATOM      5  C   UNL     1     112.484 118.840 126.250  1.00  0.00     0.000 C 
BRANCH   5   6
ATOM      6  C   UNL     1     113.472 118.937 127.426  1.00  0.00     0.006 C 
BRANCH   6   7
ATOM      7  C   UNL     1     114.243 117.634 127.707  1.00  0.00     0.053 C 
BRANCH   7   8
ATOM      8  C   UNL     1     115.697 117.735 127.360  1.00  0.00     0.041 C 
ATOM      9  O   UNL     1     116.481 116.784 127.622  1.00  0.00    -0.550 OA
ATOM     10  O   UNL     1     116.182 118.866 126.716  1.00  0.00    -0.550 OA
ENDBRANCH   7   8
ENDBRANCH   6   7
ENDBRANCH   5   6
ENDBRANCH   4   5
ENDBRANCH   3   4
ENDBRANCH   2   3
ENDBRANCH   1   2
BRANCH   1  11
ATOM     11  C   UNL     1     115.919 122.007 123.508  1.00  0.00     0.000 C 
BRANCH  11  12
ATOM     12  C   UNL     1     116.542 123.320 124.022  1.00  0.00    -0.000 C 
BRANCH  12  13
ATOM     13  C   UNL     1     116.203 124.574 123.190  1.00  0.00    -0.000 C 
BRANCH  13  14
ATOM     14  C   UNL     1     114.744 125.055 123.298  1.00  0.00    -0.000 C 
BRANCH  14  15
ATOM     15  C   UNL     1     113.946 124.837 122.002  1.00  0.00    -0.000 C 
BRANCH  15  16
ATOM     16  C   UNL     1     114.844 124.457 120.814  1.00  0.00    -0.000 C 
BRANCH  16  17
ATOM     17  C   UNL     1     114.506 123.075 120.234  1.00  0.00    -0.003 C 
ATOM     18  C   UNL     1     113.246 122.503 120.879  1.00  0.00     0.004 C 
ENDBRANCH  16  17
ENDBRANCH  15  16
ENDBRANCH  14  15
ENDBRANCH  13  14
ENDBRANCH  12  13
ENDBRANCH  11  12
ENDBRANCH   1  11
TORSDOF 14
ENDMDL
MODEL 6
REMARK VINA RESULT:    -4.146      3.482      5.513
REMARK INTER + INTRA:          -9.609
REMARK INTER:                  -7.293
REMARK INTRA:                  -2.316
REMARK UNBOUND:                -2.069
REMARK SMILES CCCCCCCCCCCCCCCC(=O)[O-]
REMARK SMILES IDX 9 1 10 2 11 3 12 4 13 5 14 6 15 7 16 8 17 9 18 10 8 11 7 12
REMARK SMILES IDX 6 13 5 14 4 15 3 16 2 17 1 18
REMARK H PARENT
REMARK Flexibility Score: inf
ROOT
ATOM      1  C   UNL     1     118.147 122.717 122.345  1.00  0.00     0.000 C 
ENDROOT
BRANCH   1   2
ATOM      2  C   UNL     1     117.140 121.557 122.455  1.00  0.00     0.000 C 
BRANCH   2   3
ATOM      3  C   UNL     1     116.008 121.842 123.457  1.00  0.00     0.000 C 
BRANCH   3   4
ATOM      4  C   UNL     1     116.054 123.280 124.002  1.00  0.00     0.000 C 
BRANCH   4   5
ATOM      5  C   UNL     1     114.652 123.838 124.302  1.00  0.00     0.000 C 
BRANCH   5   6
ATOM      6  C   UNL     1     114.503 125.322 123.923  1.00  0.00     0.006 C 
BRANCH   6   7
ATOM      7  C   UNL     1     115.396 126.271 124.741  1.00  0.00     0.053 C 
BRANCH   7   8
ATOM      8  C   UNL     1     114.898 126.475 126.140  1.00  0.00     0.041 C 
ATOM      9  O   UNL     1     115.712 126.654 127.085  1.00  0.00    -0.550 OA
ATOM     10  O   UNL     1     113.533 126.499 126.396  1.00  0.00    -0.550 OA
ENDBRANCH   7   8
ENDBRANCH   6   7
ENDBRANCH   5   6
ENDBRANCH   4   5
ENDBRANCH   3   4
ENDBRANCH   2   3
ENDBRANCH   1   2
BRANCH   1  11
ATOM     11  C   UNL     1     118.363 123.258 120.917  1.00  0.00     0.000 C 
BRANCH  11  12
ATOM     12  C   UNL     1     117.090 123.346 120.052  1.00  0.00    -0.000 C 
BRANCH  12  13
ATOM     13  C   UNL     1     116.237 124.611 120.271  1.00  0.00    -0.000 C 
BRANCH  13  14
ATOM     14  C   UNL     1     114.734 124.357 120.489  1.00  0.00    -0.000 C 
BRANCH  14  15
ATOM     15  C   UNL     1     114.352 122.875 120.340  1.00  0.00    -0.000 C 
BRANCH  15  16
ATOM     16  C   UNL     1     113.011 122.540 121.012  1.00  0.00    -0.000 C 
BRANCH  16  17
ATOM     17  C   UNL     1     112.979 121.120 121.598  1.00  0.00    -0.003 C 
ATOM     18  C   UNL     1     111.726 120.371 121.153  1.00  0.00     0.004 C 
ENDBRANCH  16  17
ENDBRANCH  15  16
ENDBRANCH  14  15
ENDBRANCH  13  14
ENDBRANCH  12  13
ENDBRANCH  11  12
ENDBRANCH   1  11
TORSDOF 14
ENDMDL
MODEL 7
REMARK VINA RESULT:    -4.124      3.040      5.160
REMARK INTER + INTRA:          -9.569
REMARK INTER:                  -7.629
REMARK INTRA:                  -1.939
REMARK UNBOUND:                -2.069
REMARK SMILES CCCCCCCCCCCCCCCC(=O)[O-]
REMARK SMILES IDX 9 1 10 2 11 3 12 4 13 5 14 6 15 7 16 8 17 9 18 10 8 11 7 12
REMARK SMILES IDX 6 13 5 14 4 15 3 16 2 17 1 18
REMARK H PARENT
REMARK Flexibility Score: inf
ROOT
ATOM      1  C   UNL     1     116.270 123.400 120.182  1.00  0.00     0.000 C 
ENDROOT
BRANCH   1   2
ATOM      2  C   UNL     1     117.453 123.933 121.011  1.00  0.00     0.000 C 
BRANCH   2   3
ATOM      3  C   UNL     1     117.634 123.184 122.344  1.00  0.00     0.000 C 
BRANCH   3   4
ATOM      4  C   UNL     1     116.916 123.881 123.511  1.00  0.00     0.000 C 
BRANCH   4   5
ATOM      5  C   UNL     1     116.820 125.404 123.317  1.00  0.00     0.000 C 
BRANCH   5   6
ATOM      6  C   UNL     1     115.494 125.993 123.830  1.00  0.00     0.006 C 
BRANCH   6   7
ATOM      7  C   UNL     1     114.940 125.291 125.083  1.00  0.00     0.053 C 
BRANCH   7   8
ATOM      8  C   UNL     1     114.724 126.234 126.228  1.00  0.00     0.041 C 
ATOM      9  O   UNL     1     115.704 126.654 126.899  1.00  0.00    -0.550 OA
ATOM     10  O   UNL     1     113.443 126.676 126.534  1.00  0.00    -0.550 OA
ENDBRANCH   7   8
ENDBRANCH   6   7
ENDBRANCH   5   6
ENDBRANCH   4   5
ENDBRANCH   3   4
ENDBRANCH   2   3
ENDBRANCH   1   2
BRANCH   1  11
ATOM     11  C   UNL     1     114.977 124.235 120.279  1.00  0.00     0.000 C 
BRANCH  11  12
ATOM     12  C   UNL     1     113.925 123.697 121.269  1.00  0.00    -0.000 C 
BRANCH  12  13
ATOM     13  C   UNL     1     113.425 122.267 120.978  1.00  0.00    -0.000 C 
BRANCH  13  14
ATOM     14  C   UNL     1     113.267 121.365 122.216  1.00  0.00    -0.000 C 
BRANCH  14  15
ATOM     15  C   UNL     1     113.809 122.014 123.500  1.00  0.00    -0.000 C 
BRANCH  15  16
ATOM     16  C   UNL     1     113.692 121.090 124.723  1.00  0.00    -0.000 C 
BRANCH  16  17
ATOM     17  C   UNL     1     112.383 120.286 124.735  1.00  0.00    -0.003 C 
ATOM     18  C   UNL     1     112.458 119.130 125.728  1.00  0.00     0.004 C 
ENDBRANCH  16  17
ENDBRANCH  15  16
ENDBRANCH  14  15
ENDBRANCH  13  14
ENDBRANCH  12  13
ENDBRANCH  11  12
ENDBRANCH   1  11
TORSDOF 14
ENDMDL
MODEL 8
REMARK VINA RESULT:    -4.117      3.034      6.076
REMARK INTER + INTRA:          -9.556
REMARK INTER:                  -7.171
REMARK INTRA:                  -2.385
REMARK UNBOUND:                -2.069
REMARK SMILES CCCCCCCCCCCCCCCC(=O)[O-]
REMARK SMILES IDX 9 1 10 2 11 3 12 4 13 5 14 6 15 7 16 8 17 9 18 10 8 11 7 12
REMARK SMILES IDX 6 13 5 14 4 15 3 16 2 17 1 18
REMARK H PARENT
REMARK Flexibility Score: inf
ROOT
ATOM      1  C   UNL     1     116.810 124.403 120.408  1.00  0.00     0.000 C 
ENDROOT
BRANCH   1   2
ATOM      2  C   UNL     1     115.575 123.656 119.872  1.00  0.00     0.000 C 
BRANCH   2   3
ATOM      3  C   UNL     1     114.283 124.026 120.621  1.00  0.00     0.000 C 
BRANCH   3   4
ATOM      4  C   UNL     1     113.685 122.834 121.386  1.00  0.00     0.000 C 
BRANCH   4   5
ATOM      5  C   UNL     1     114.629 121.619 121.410  1.00  0.00     0.000 C 
BRANCH   5   6
ATOM      6  C   UNL     1     114.493 120.777 122.691  1.00  0.00     0.006 C 
BRANCH   6   7
ATOM      7  C   UNL     1     113.289 121.162 123.570  1.00  0.00     0.053 C 
BRANCH   7   8
ATOM      8  C   UNL     1     112.874 120.062 124.499  1.00  0.00     0.041 C 
ATOM      9  O   UNL     1     111.981 119.243 124.155  1.00  0.00    -0.550 OA
ATOM     10  O   UNL     1     113.498 119.920 125.732  1.00  0.00    -0.550 OA
ENDBRANCH   7   8
ENDBRANCH   6   7
ENDBRANCH   5   6
ENDBRANCH   4   5
ENDBRANCH   3   4
ENDBRANCH   2   3
ENDBRANCH   1   2
BRANCH   1  11
ATOM     11  C   UNL     1     117.864 123.511 121.097  1.00  0.00     0.000 C 
BRANCH  11  12
ATOM     12  C   UNL     1     117.924 123.639 122.632  1.00  0.00    -0.000 C 
BRANCH  12  13
ATOM     13  C   UNL     1     116.808 124.497 123.261  1.00  0.00    -0.000 C 
BRANCH  13  14
ATOM     14  C   UNL     1     115.943 123.777 124.312  1.00  0.00    -0.000 C 
BRANCH  14  15
ATOM     15  C   UNL     1     114.624 124.511 124.604  1.00  0.00    -0.000 C 
BRANCH  15  16
ATOM     16  C   UNL     1     114.485 125.815 123.803  1.00  0.00    -0.000 C 
BRANCH  16  17
ATOM     17  C   UNL     1     114.174 127.028 124.694  1.00  0.00    -0.003 C 
ATOM     18  C   UNL     1     113.895 126.595 126.131  1.00  0.00     0.004 C 
ENDBRANCH  16  17
ENDBRANCH  15  16
ENDBRANCH  14  15
ENDBRANCH  13  14
ENDBRANCH  12  13
ENDBRANCH  11  12
ENDBRANCH   1  11
TORSDOF 14
ENDMDL
MODEL 9
REMARK VINA RESULT:    -4.085      3.182      6.284
REMARK INTER + INTRA:          -9.498
REMARK INTER:                  -7.373
REMARK INTRA:                  -2.125
REMARK UNBOUND:                -2.069
REMARK SMILES CCCCCCCCCCCCCCCC(=O)[O-]
REMARK SMILES IDX 9 1 10 2 11 3 12 4 13 5 14 6 15 7 16 8 17 9 18 10 8 11 7 12
REMARK SMILES IDX 6 13 5 14 4 15 3 16 2 17 1 18
REMARK H PARENT
REMARK Flexibility Score: inf
ROOT
ATOM      1  C   UNL     1     117.097 121.792 122.685  1.00  0.00     0.000 C 
ENDROOT
BRANCH   1   2
ATOM      2  C   UNL     1     116.079 121.187 123.669  1.00  0.00     0.000 C 
BRANCH   2   3
ATOM      3  C   UNL     1     115.239 120.061 123.042  1.00  0.00     0.000 C 
BRANCH   3   4
ATOM      4  C   UNL     1     113.741 120.405 122.988  1.00  0.00     0.000 C 
BRANCH   4   5
ATOM      5  C   UNL     1     113.224 120.986 124.315  1.00  0.00     0.000 C 
BRANCH   5   6
ATOM      6  C   UNL     1     112.025 120.208 124.886  1.00  0.00     0.006 C 
BRANCH   6   7
ATOM      7  C   UNL     1     112.381 118.806 125.413  1.00  0.00     0.053 C 
BRANCH   7   8
ATOM      8  C   UNL     1     113.357 118.845 126.550  1.00  0.00     0.041 C 
ATOM      9  O   UNL     1     112.960 119.094 127.720  1.00  0.00    -0.550 OA
ATOM     10  O   UNL     1     114.700 118.574 126.325  1.00  0.00    -0.550 OA
ENDBRANCH   7   8
ENDBRANCH   6   7
ENDBRANCH   5   6
ENDBRANCH   4   5
ENDBRANCH   3   4
ENDBRANCH   2   3
ENDBRANCH   1   2
BRANCH   1  11
ATOM     11  C   UNL     1     117.050 121.208 121.258  1.00  0.00     0.000 C 
BRANCH  11  12
ATOM     12  C   UNL     1     117.196 122.244 120.125  1.00  0.00    -0.000 C 
BRANCH  12  13
ATOM     13  C   UNL     1     116.453 123.575 120.357  1.00  0.00    -0.000 C 
BRANCH  13  14
ATOM     14  C   UNL     1     114.930 123.521 120.136  1.00  0.00    -0.000 C 
BRANCH  14  15
ATOM     15  C   UNL     1     114.163 124.511 121.028  1.00  0.00    -0.000 C 
BRANCH  15  16
ATOM     16  C   UNL     1     114.132 124.076 122.502  1.00  0.00    -0.000 C 
BRANCH  16  17
ATOM     17  C   UNL     1     114.538 125.206 123.461  1.00  0.00    -0.003 C 
ATOM     18  C   UNL     1     115.470 124.690 124.554  1.00  0.00     0.004 C 
ENDBRANCH  16  17
ENDBRANCH  15  16
ENDBRANCH  14  15
ENDBRANCH  13  14
ENDBRANCH  12  13
ENDBRANCH  11  12
ENDBRANCH   1  11
TORSDOF 14
ENDMDL
