MODEL 1
REMARK VINA RESULT:     1.237      0.000      0.000
REMARK INTER + INTRA:           1.516
REMARK INTER:                   1.454
REMARK INTRA:                   0.062
REMARK UNBOUND:                 0.062
REMARK SMILES O=c1c(O)c(-c2ccc(O)cc2)oc2cc(O)cc(O)c12
REMARK SMILES IDX 5 1 3 2 2 3 1 4 21 5 19 6 18 7 16 8 15 9 14 10 13 11 6 12
REMARK SMILES IDX 7 13 8 14 9 15 12 16 11 17 10 18 4 20 20 22 17 24
REMARK H PARENT 10 19 4 21 20 23 17 25
REMARK Flexibility Score: inf
ROOT
ATOM      1  C   UNL     1      -0.840  31.995  26.848  1.00  0.00     0.180 A 
ATOM      2  C   UNL     1      -1.904  32.192  27.750  1.00  0.00     0.208 A 
ATOM      3  C   UNL     1      -3.175  32.499  27.240  1.00  0.00     0.238 A 
ATOM      4  O   UNL     1      -4.134  32.689  28.039  1.00  0.00    -0.285 OA
ATOM      5  C   UNL     1      -3.367  32.583  25.846  1.00  0.00     0.111 A 
ATOM      6  C   UNL     1      -4.617  32.883  25.253  1.00  0.00     0.134 A 
ATOM      7  C   UNL     1      -4.729  32.939  23.856  1.00  0.00     0.093 A 
ATOM      8  C   UNL     1      -3.619  32.701  23.043  1.00  0.00     0.123 A 
ATOM      9  C   UNL     1      -2.382  32.405  23.623  1.00  0.00     0.094 A 
ATOM     10  C   UNL     1      -2.249  32.346  25.014  1.00  0.00     0.146 A 
ATOM     11  O   UNL     1      -1.062  32.067  25.538  1.00  0.00    -0.452 OA
ENDROOT
BRANCH   1  12
ATOM     12  C   UNL     1       0.534  31.687  27.307  1.00  0.00     0.021 A 
ATOM     13  C   UNL     1       1.247  30.585  26.802  1.00  0.00     0.016 A 
ATOM     14  C   UNL     1       2.534  30.301  27.269  1.00  0.00     0.047 A 
ATOM     15  C   UNL     1       3.118  31.103  28.254  1.00  0.00     0.115 A 
ATOM     16  C   UNL     1       1.119  32.476  28.311  1.00  0.00     0.016 A 
ATOM     17  C   UNL     1       2.406  32.190  28.777  1.00  0.00     0.047 A 
BRANCH  15  18
ATOM     18  O   UNL     1       4.401  30.809  28.710  1.00  0.00    -0.508 OA
ATOM     19  H   UNL     1       4.554  30.222  29.521  1.00  0.00     0.293 HD
ENDBRANCH  15  18
ENDBRANCH   1  12
BRANCH   2  20
ATOM     20  O   UNL     1      -1.699  32.055  29.125  1.00  0.00    -0.502 OA
ATOM     21  H   UNL     1      -2.344  32.430  29.809  1.00  0.00     0.293 HD
ENDBRANCH   2  20
BRANCH   6  22
ATOM     22  O   UNL     1      -5.746  33.125  26.038  1.00  0.00    -0.507 OA
ATOM     23  H   UNL     1      -5.689  33.188  27.047  1.00  0.00     0.293 HD
ENDBRANCH   6  22
BRANCH   8  24
ATOM     24  O   UNL     1      -3.756  32.761  21.657  1.00  0.00    -0.508 OA
ATOM     25  H   UNL     1      -3.760  31.924  21.088  1.00  0.00     0.293 HD
ENDBRANCH   8  24
TORSDOF 5
ENDMDL
MODEL 2
REMARK VINA RESULT:     1.920      3.167      6.241
REMARK INTER + INTRA:           2.318
REMARK INTER:                   2.470
REMARK INTRA:                  -0.152
REMARK UNBOUND:                 0.062
REMARK SMILES O=c1c(O)c(-c2ccc(O)cc2)oc2cc(O)cc(O)c12
REMARK SMILES IDX 5 1 3 2 2 3 1 4 21 5 19 6 18 7 16 8 15 9 14 10 13 11 6 12
REMARK SMILES IDX 7 13 8 14 9 15 12 16 11 17 10 18 4 20 20 22 17 24
REMARK H PARENT 10 19 4 21 20 23 17 25
REMARK Flexibility Score: inf
ROOT
ATOM      1  C   UNL     1       0.641  30.862  24.506  1.00  0.00     0.180 A 
ATOM      2  C   UNL     1      -0.642  31.082  25.046  1.00  0.00     0.208 A 
ATOM      3  C   UNL     1      -0.749  31.578  26.354  1.00  0.00     0.238 A 
ATOM      4  O   UNL     1      -1.893  31.770  26.853  1.00  0.00    -0.285 OA
ATOM      5  C   UNL     1       0.418  31.865  27.090  1.00  0.00     0.111 A 
ATOM      6  C   UNL     1       0.396  32.371  28.412  1.00  0.00     0.134 A 
ATOM      7  C   UNL     1       1.603  32.640  29.075  1.00  0.00     0.093 A 
ATOM      8  C   UNL     1       2.828  32.414  28.444  1.00  0.00     0.123 A 
ATOM      9  C   UNL     1       2.856  31.912  27.139  1.00  0.00     0.094 A 
ATOM     10  C   UNL     1       1.664  31.637  26.461  1.00  0.00     0.146 A 
ATOM     11  O   UNL     1       1.720  31.157  25.224  1.00  0.00    -0.452 OA
ENDROOT
BRANCH   1  12
ATOM     12  C   UNL     1       0.837  30.322  23.141  1.00  0.00     0.021 A 
ATOM     13  C   UNL     1       1.417  29.057  22.929  1.00  0.00     0.016 A 
ATOM     14  C   UNL     1       1.614  28.579  21.630  1.00  0.00     0.047 A 
ATOM     15  C   UNL     1       1.250  29.360  20.529  1.00  0.00     0.115 A 
ATOM     16  C   UNL     1       0.493  31.110  22.030  1.00  0.00     0.016 A 
ATOM     17  C   UNL     1       0.691  30.628  20.732  1.00  0.00     0.047 A 
BRANCH  15  18
ATOM     18  O   UNL     1       1.451  28.871  19.241  1.00  0.00    -0.508 OA
ATOM     19  H   UNL     1       0.723  28.371  18.744  1.00  0.00     0.293 HD
ENDBRANCH  15  18
ENDBRANCH   1  12
BRANCH   2  20
ATOM     20  O   UNL     1      -1.783  30.837  24.278  1.00  0.00    -0.502 OA
ATOM     21  H   UNL     1      -2.430  31.571  24.019  1.00  0.00     0.293 HD
ENDBRANCH   2  20
BRANCH   6  22
ATOM     22  O   UNL     1      -0.812  32.610  29.070  1.00  0.00    -0.507 OA
ATOM     23  H   UNL     1      -0.970  33.456  29.603  1.00  0.00     0.293 HD
ENDBRANCH   6  22
BRANCH   8  24
ATOM     24  O   UNL     1       4.013  32.689  29.124  1.00  0.00    -0.508 OA
ATOM     25  H   UNL     1       4.914  32.428  28.744  1.00  0.00     0.293 HD
ENDBRANCH   8  24
TORSDOF 5
ENDMDL
MODEL 3
REMARK VINA RESULT:     2.386      3.148      5.009
REMARK INTER + INTRA:           2.866
REMARK INTER:                   2.867
REMARK INTRA:                  -0.001
REMARK UNBOUND:                 0.062
REMARK SMILES O=c1c(O)c(-c2ccc(O)cc2)oc2cc(O)cc(O)c12
REMARK SMILES IDX 5 1 3 2 2 3 1 4 21 5 19 6 18 7 16 8 15 9 14 10 13 11 6 12
REMARK SMILES IDX 7 13 8 14 9 15 12 16 11 17 10 18 4 20 20 22 17 24
REMARK H PARENT 10 19 4 21 20 23 17 25
REMARK Flexibility Score: inf
ROOT
ATOM      1  C   UNL     1      -0.151  30.885  24.466  1.00  0.00     0.180 A 
ATOM      2  C   UNL     1       0.649  31.062  25.612  1.00  0.00     0.208 A 
ATOM      3  C   UNL     1       0.078  31.647  26.752  1.00  0.00     0.238 A 
ATOM      4  O   UNL     1       0.788  31.820  27.781  1.00  0.00    -0.285 OA
ATOM      5  C   UNL     1      -1.279  32.026  26.737  1.00  0.00     0.111 A 
ATOM      6  C   UNL     1      -1.930  32.618  27.847  1.00  0.00     0.134 A 
ATOM      7  C   UNL     1      -3.289  32.958  27.756  1.00  0.00     0.093 A 
ATOM      8  C   UNL     1      -4.006  32.718  26.582  1.00  0.00     0.123 A 
ATOM      9  C   UNL     1      -3.368  32.134  25.483  1.00  0.00     0.094 A 
ATOM     10  C   UNL     1      -2.015  31.789  25.553  1.00  0.00     0.146 A 
ATOM     11  O   UNL     1      -1.433  31.241  24.493  1.00  0.00    -0.452 OA
ENDROOT
BRANCH   1  12
ATOM     12  C   UNL     1       0.382  30.293  23.217  1.00  0.00     0.021 A 
ATOM     13  C   UNL     1       1.040  29.049  23.217  1.00  0.00     0.016 A 
ATOM     14  C   UNL     1       1.556  28.523  22.029  1.00  0.00     0.047 A 
ATOM     15  C   UNL     1       1.436  29.235  20.832  1.00  0.00     0.115 A 
ATOM     16  C   UNL     1       0.283  31.013  22.015  1.00  0.00     0.016 A 
ATOM     17  C   UNL     1       0.800  30.483  20.828  1.00  0.00     0.047 A 
BRANCH  15  18
ATOM     18  O   UNL     1       1.954  28.698  19.657  1.00  0.00    -0.508 OA
ATOM     19  H   UNL     1       1.778  27.737  19.390  1.00  0.00     0.293 HD
ENDBRANCH  15  18
ENDBRANCH   1  12
BRANCH   2  20
ATOM     20  O   UNL     1       1.979  30.633  25.617  1.00  0.00    -0.502 OA
ATOM     21  H   UNL     1       2.561  30.684  26.443  1.00  0.00     0.293 HD
ENDBRANCH   2  20
BRANCH   6  22
ATOM     22  O   UNL     1      -1.241  32.869  29.035  1.00  0.00    -0.507 OA
ATOM     23  H   UNL     1      -0.243  33.034  29.046  1.00  0.00     0.293 HD
ENDBRANCH   6  22
BRANCH   8  24
ATOM     24  O   UNL     1      -5.354  33.064  26.518  1.00  0.00    -0.508 OA
ATOM     25  H   UNL     1      -5.650  34.030  26.440  1.00  0.00     0.293 HD
ENDBRANCH   8  24
TORSDOF 5
ENDMDL
