MODEL 1
REMARK VINA RESULT:    -6.708      0.000      0.000
REMARK INTER + INTRA:          -8.381
REMARK INTER:                  -8.080
REMARK INTRA:                  -0.300
REMARK UNBOUND:                -0.300
REMARK SMILES O=c1c(O)c(-c2ccc(O)c(O)c2)oc2cc(O)cc(O)c12
REMARK SMILES IDX 5 1 3 2 2 3 1 4 22 5 20 6 19 7 17 8 16 9 15 10 14 11 6 12
REMARK SMILES IDX 7 13 8 14 9 15 13 16 11 17 10 18 12 20 4 22 21 24 18 26
REMARK H PARENT 10 19 12 21 4 23 21 25 18 27
REMARK Flexibility Score: inf
ROOT
ATOM      1  C   UNL     1       1.152  -4.095   5.412  1.00  0.00     0.180 A 
ATOM      2  C   UNL     1       2.317  -3.910   4.648  1.00  0.00     0.208 A 
ATOM      3  C   UNL     1       2.560  -2.656   4.068  1.00  0.00     0.238 A 
ATOM      4  O   UNL     1       3.565  -2.519   3.325  1.00  0.00    -0.285 OA
ATOM      5  C   UNL     1       1.666  -1.583   4.307  1.00  0.00     0.111 A 
ATOM      6  C   UNL     1       1.836  -0.257   3.807  1.00  0.00     0.134 A 
ATOM      7  C   UNL     1       0.831   0.695   4.019  1.00  0.00     0.093 A 
ATOM      8  C   UNL     1      -0.307   0.390   4.764  1.00  0.00     0.123 A 
ATOM      9  C   UNL     1      -0.458  -0.889   5.304  1.00  0.00     0.094 A 
ATOM     10  C   UNL     1       0.508  -1.871   5.078  1.00  0.00     0.146 A 
ATOM     11  O   UNL     1       0.315  -3.080   5.591  1.00  0.00    -0.452 OA
ENDROOT
BRANCH   1  12
ATOM     12  C   UNL     1       0.819  -5.393   6.043  1.00  0.00     0.025 A 
ATOM     13  C   UNL     1       1.406  -5.788   7.258  1.00  0.00     0.016 A 
ATOM     14  C   UNL     1       1.096  -7.029   7.821  1.00  0.00     0.051 A 
ATOM     15  C   UNL     1       0.210  -7.897   7.176  1.00  0.00     0.157 A 
ATOM     16  C   UNL     1      -0.053  -6.276   5.387  1.00  0.00     0.062 A 
ATOM     17  C   UNL     1      -0.366  -7.522   5.952  1.00  0.00     0.158 A 
BRANCH  15  18
ATOM     18  O   UNL     1      -0.081  -9.128   7.764  1.00  0.00    -0.504 OA
ATOM     19  H   UNL     1       0.047 -10.003   7.271  1.00  0.00     0.293 HD
ENDBRANCH  15  18
BRANCH  17  20
ATOM     20  O   UNL     1      -1.244  -8.385   5.299  1.00  0.00    -0.504 OA
ATOM     21  H   UNL     1      -1.858  -9.008   5.813  1.00  0.00     0.293 HD
ENDBRANCH  17  20
ENDBRANCH   1  12
BRANCH   2  22
ATOM     22  O   UNL     1       3.226  -4.960   4.488  1.00  0.00    -0.502 OA
ATOM     23  H   UNL     1       3.233  -5.772   5.095  1.00  0.00     0.293 HD
ENDBRANCH   2  22
BRANCH   6  24
ATOM     24  O   UNL     1       2.975   0.183   3.125  1.00  0.00    -0.507 OA
ATOM     25  H   UNL     1       3.527  -0.382   2.499  1.00  0.00     0.293 HD
ENDBRANCH   6  24
BRANCH   8  26
ATOM     26  O   UNL     1      -1.278   1.366   4.969  1.00  0.00    -0.508 OA
ATOM     27  H   UNL     1      -1.092   2.190   5.528  1.00  0.00     0.293 HD
ENDBRANCH   8  26
TORSDOF 6
ENDMDL
MODEL 2
REMARK VINA RESULT:    -6.231      1.476      3.114
REMARK INTER + INTRA:          -7.806
REMARK INTER:                  -7.492
REMARK INTRA:                  -0.314
REMARK UNBOUND:                -0.300
REMARK SMILES O=c1c(O)c(-c2ccc(O)c(O)c2)oc2cc(O)cc(O)c12
REMARK SMILES IDX 5 1 3 2 2 3 1 4 22 5 20 6 19 7 17 8 16 9 15 10 14 11 6 12
REMARK SMILES IDX 7 13 8 14 9 15 13 16 11 17 10 18 12 20 4 22 21 24 18 26
REMARK H PARENT 10 19 12 21 4 23 21 25 18 27
REMARK Flexibility Score: inf
ROOT
ATOM      1  C   UNL     1       0.048  -4.716   6.046  1.00  0.00     0.180 A 
ATOM      2  C   UNL     1      -0.941  -3.720   5.973  1.00  0.00     0.208 A 
ATOM      3  C   UNL     1      -0.635  -2.500   5.351  1.00  0.00     0.238 A 
ATOM      4  O   UNL     1      -1.500  -1.586   5.355  1.00  0.00    -0.285 OA
ATOM      5  C   UNL     1       0.637  -2.310   4.759  1.00  0.00     0.111 A 
ATOM      6  C   UNL     1       1.042  -1.130   4.063  1.00  0.00     0.134 A 
ATOM      7  C   UNL     1       2.363  -1.014   3.612  1.00  0.00     0.093 A 
ATOM      8  C   UNL     1       3.275  -2.055   3.773  1.00  0.00     0.123 A 
ATOM      9  C   UNL     1       2.875  -3.234   4.404  1.00  0.00     0.094 A 
ATOM     10  C   UNL     1       1.576  -3.366   4.899  1.00  0.00     0.146 A 
ATOM     11  O   UNL     1       1.243  -4.496   5.511  1.00  0.00    -0.452 OA
ENDROOT
BRANCH   1  12
ATOM     12  C   UNL     1      -0.195  -6.022   6.698  1.00  0.00     0.025 A 
ATOM     13  C   UNL     1       0.202  -6.264   8.026  1.00  0.00     0.016 A 
ATOM     14  C   UNL     1      -0.016  -7.513   8.611  1.00  0.00     0.051 A 
ATOM     15  C   UNL     1      -0.618  -8.543   7.881  1.00  0.00     0.157 A 
ATOM     16  C   UNL     1      -0.779  -7.065   5.961  1.00  0.00     0.062 A 
ATOM     17  C   UNL     1      -0.999  -8.320   6.548  1.00  0.00     0.158 A 
BRANCH  15  18
ATOM     18  O   UNL     1      -0.824  -9.778   8.494  1.00  0.00    -0.504 OA
ATOM     19  H   UNL     1      -1.575 -10.397   8.216  1.00  0.00     0.293 HD
ENDBRANCH  15  18
BRANCH  17  20
ATOM     20  O   UNL     1      -1.593  -9.343   5.811  1.00  0.00    -0.504 OA
ATOM     21  H   UNL     1      -1.276  -9.577   4.877  1.00  0.00     0.293 HD
ENDBRANCH  17  20
ENDBRANCH   1  12
BRANCH   2  22
ATOM     22  O   UNL     1      -2.216  -3.956   6.495  1.00  0.00    -0.502 OA
ATOM     23  H   UNL     1      -3.029  -3.424   6.207  1.00  0.00     0.293 HD
ENDBRANCH   2  22
BRANCH   6  24
ATOM     24  O   UNL     1       0.188  -0.063   3.768  1.00  0.00    -0.507 OA
ATOM     25  H   UNL     1      -0.118   0.632   4.430  1.00  0.00     0.293 HD
ENDBRANCH   6  24
BRANCH   8  26
ATOM     26  O   UNL     1       4.576  -1.911   3.297  1.00  0.00    -0.508 OA
ATOM     27  H   UNL     1       4.809  -2.091   2.328  1.00  0.00     0.293 HD
ENDBRANCH   8  26
TORSDOF 6
ENDMDL
MODEL 3
REMARK VINA RESULT:    -6.201      1.851      6.730
REMARK INTER + INTRA:          -7.771
REMARK INTER:                  -7.444
REMARK INTRA:                  -0.326
REMARK UNBOUND:                -0.300
REMARK SMILES O=c1c(O)c(-c2ccc(O)c(O)c2)oc2cc(O)cc(O)c12
REMARK SMILES IDX 5 1 3 2 2 3 1 4 22 5 20 6 19 7 17 8 16 9 15 10 14 11 6 12
REMARK SMILES IDX 7 13 8 14 9 15 13 16 11 17 10 18 12 20 4 22 21 24 18 26
REMARK H PARENT 10 19 12 21 4 23 21 25 18 27
REMARK Flexibility Score: inf
ROOT
ATOM      1  C   UNL     1       1.786  -2.516   4.978  1.00  0.00     0.180 A 
ATOM      2  C   UNL     1       2.206  -3.674   4.303  1.00  0.00     0.208 A 
ATOM      3  C   UNL     1       2.044  -4.922   4.924  1.00  0.00     0.238 A 
ATOM      4  O   UNL     1       2.490  -5.947   4.347  1.00  0.00    -0.285 OA
ATOM      5  C   UNL     1       1.412  -5.003   6.189  1.00  0.00     0.111 A 
ATOM      6  C   UNL     1       1.155  -6.219   6.893  1.00  0.00     0.134 A 
ATOM      7  C   UNL     1       0.619  -6.168   8.186  1.00  0.00     0.093 A 
ATOM      8  C   UNL     1       0.272  -4.953   8.776  1.00  0.00     0.123 A 
ATOM      9  C   UNL     1       0.469  -3.763   8.076  1.00  0.00     0.094 A 
ATOM     10  C   UNL     1       1.037  -3.777   6.800  1.00  0.00     0.146 A 
ATOM     11  O   UNL     1       1.227  -2.620   6.178  1.00  0.00    -0.452 OA
ENDROOT
BRANCH   1  12
ATOM     12  C   UNL     1       1.936  -1.164   4.394  1.00  0.00     0.025 A 
ATOM     13  C   UNL     1       3.137  -0.442   4.517  1.00  0.00     0.016 A 
ATOM     14  C   UNL     1       3.247   0.842   3.978  1.00  0.00     0.051 A 
ATOM     15  C   UNL     1       2.160   1.431   3.323  1.00  0.00     0.157 A 
ATOM     16  C   UNL     1       0.841  -0.561   3.754  1.00  0.00     0.062 A 
ATOM     17  C   UNL     1       0.950   0.728   3.213  1.00  0.00     0.158 A 
BRANCH  15  18
ATOM     18  O   UNL     1       2.302   2.713   2.794  1.00  0.00    -0.504 OA
ATOM     19  H   UNL     1       1.557   3.398   2.838  1.00  0.00     0.293 HD
ENDBRANCH  15  18
BRANCH  17  20
ATOM     20  O   UNL     1      -0.140   1.311   2.568  1.00  0.00    -0.504 OA
ATOM     21  H   UNL     1      -0.991   1.542   3.068  1.00  0.00     0.293 HD
ENDBRANCH  17  20
ENDBRANCH   1  12
BRANCH   2  22
ATOM     22  O   UNL     1       2.758  -3.581   3.022  1.00  0.00    -0.502 OA
ATOM     23  H   UNL     1       2.232  -3.237   2.226  1.00  0.00     0.293 HD
ENDBRANCH   2  22
BRANCH   6  24
ATOM     24  O   UNL     1       1.380  -7.493   6.363  1.00  0.00    -0.507 OA
ATOM     25  H   UNL     1       0.698  -8.234   6.331  1.00  0.00     0.293 HD
ENDBRANCH   6  24
BRANCH   8  26
ATOM     26  O   UNL     1      -0.273  -4.942  10.058  1.00  0.00    -0.508 OA
ATOM     27  H   UNL     1       0.097  -4.344  10.786  1.00  0.00     0.293 HD
ENDBRANCH   8  26
TORSDOF 6
ENDMDL
MODEL 4
REMARK VINA RESULT:    -6.067      2.094      7.501
REMARK INTER + INTRA:          -7.608
REMARK INTER:                  -7.379
REMARK INTRA:                  -0.229
REMARK UNBOUND:                -0.300
REMARK SMILES O=c1c(O)c(-c2ccc(O)c(O)c2)oc2cc(O)cc(O)c12
REMARK SMILES IDX 5 1 3 2 2 3 1 4 22 5 20 6 19 7 17 8 16 9 15 10 14 11 6 12
REMARK SMILES IDX 7 13 8 14 9 15 13 16 11 17 10 18 12 20 4 22 21 24 18 26
REMARK H PARENT 10 19 12 21 4 23 21 25 18 27
REMARK Flexibility Score: inf
ROOT
ATOM      1  C   UNL     1       1.378  -1.203   5.082  1.00  0.00     0.180 A 
ATOM      2  C   UNL     1       0.921  -1.161   6.410  1.00  0.00     0.208 A 
ATOM      3  C   UNL     1       0.851  -2.355   7.145  1.00  0.00     0.238 A 
ATOM      4  O   UNL     1       0.371  -2.322   8.307  1.00  0.00    -0.285 OA
ATOM      5  C   UNL     1       1.293  -3.568   6.562  1.00  0.00     0.111 A 
ATOM      6  C   UNL     1       1.309  -4.831   7.229  1.00  0.00     0.134 A 
ATOM      7  C   UNL     1       1.667  -5.983   6.517  1.00  0.00     0.093 A 
ATOM      8  C   UNL     1       2.070  -5.912   5.184  1.00  0.00     0.123 A 
ATOM      9  C   UNL     1       2.109  -4.675   4.538  1.00  0.00     0.094 A 
ATOM     10  C   UNL     1       1.722  -3.513   5.210  1.00  0.00     0.146 A 
ATOM     11  O   UNL     1       1.753  -2.361   4.551  1.00  0.00    -0.452 OA
ENDROOT
BRANCH   1  12
ATOM     12  C   UNL     1       1.466   0.011   4.239  1.00  0.00     0.025 A 
ATOM     13  C   UNL     1       0.311   0.675   3.788  1.00  0.00     0.016 A 
ATOM     14  C   UNL     1       0.419   1.804   2.973  1.00  0.00     0.051 A 
ATOM     15  C   UNL     1       1.676   2.281   2.586  1.00  0.00     0.157 A 
ATOM     16  C   UNL     1       2.725   0.479   3.831  1.00  0.00     0.062 A 
ATOM     17  C   UNL     1       2.835   1.614   3.013  1.00  0.00     0.158 A 
BRANCH  15  18
ATOM     18  O   UNL     1       1.751   3.412   1.774  1.00  0.00    -0.504 OA
ATOM     19  H   UNL     1       2.426   4.149   1.940  1.00  0.00     0.293 HD
ENDBRANCH  15  18
BRANCH  17  20
ATOM     20  O   UNL     1       4.091   2.078   2.625  1.00  0.00    -0.504 OA
ATOM     21  H   UNL     1       4.916   1.492   2.686  1.00  0.00     0.293 HD
ENDBRANCH  17  20
ENDBRANCH   1  12
BRANCH   2  22
ATOM     22  O   UNL     1       0.562   0.058   6.992  1.00  0.00    -0.502 OA
ATOM     23  H   UNL     1      -0.389   0.269   7.270  1.00  0.00     0.293 HD
ENDBRANCH   2  22
BRANCH   6  24
ATOM     24  O   UNL     1       1.012  -5.005   8.584  1.00  0.00    -0.507 OA
ATOM     25  H   UNL     1       0.869  -4.258   9.244  1.00  0.00     0.293 HD
ENDBRANCH   6  24
BRANCH   8  26
ATOM     26  O   UNL     1       2.435  -7.075   4.512  1.00  0.00    -0.508 OA
ATOM     27  H   UNL     1       2.289  -7.180   3.515  1.00  0.00     0.293 HD
ENDBRANCH   8  26
TORSDOF 6
ENDMDL
MODEL 5
REMARK VINA RESULT:    -6.027      1.703      7.209
REMARK INTER + INTRA:          -7.560
REMARK INTER:                  -7.239
REMARK INTRA:                  -0.321
REMARK UNBOUND:                -0.300
REMARK SMILES O=c1c(O)c(-c2ccc(O)c(O)c2)oc2cc(O)cc(O)c12
REMARK SMILES IDX 5 1 3 2 2 3 1 4 22 5 20 6 19 7 17 8 16 9 15 10 14 11 6 12
REMARK SMILES IDX 7 13 8 14 9 15 13 16 11 17 10 18 12 20 4 22 21 24 18 26
REMARK H PARENT 10 19 12 21 4 23 21 25 18 27
REMARK Flexibility Score: inf
ROOT
ATOM      1  C   UNL     1       0.636  -4.477   6.407  1.00  0.00     0.180 A 
ATOM      2  C   UNL     1       0.832  -4.434   7.798  1.00  0.00     0.208 A 
ATOM      3  C   UNL     1       0.451  -5.539   8.575  1.00  0.00     0.238 A 
ATOM      4  O   UNL     1       0.560  -5.464   9.826  1.00  0.00    -0.285 OA
ATOM      5  C   UNL     1      -0.070  -6.697   7.947  1.00  0.00     0.111 A 
ATOM      6  C   UNL     1      -0.448  -7.892   8.630  1.00  0.00     0.134 A 
ATOM      7  C   UNL     1      -1.051  -8.934   7.915  1.00  0.00     0.093 A 
ATOM      8  C   UNL     1      -1.232  -8.854   6.535  1.00  0.00     0.123 A 
ATOM      9  C   UNL     1      -0.816  -7.712   5.849  1.00  0.00     0.094 A 
ATOM     10  C   UNL     1      -0.246  -6.640   6.539  1.00  0.00     0.146 A 
ATOM     11  O   UNL     1       0.115  -5.564   5.850  1.00  0.00    -0.452 OA
ENDROOT
BRANCH   1  12
ATOM     12  C   UNL     1       1.000  -3.346   5.524  1.00  0.00     0.025 A 
ATOM     13  C   UNL     1       0.135  -2.253   5.339  1.00  0.00     0.016 A 
ATOM     14  C   UNL     1       0.489  -1.210   4.481  1.00  0.00     0.051 A 
ATOM     15  C   UNL     1       1.702  -1.245   3.786  1.00  0.00     0.157 A 
ATOM     16  C   UNL     1       2.208  -3.389   4.808  1.00  0.00     0.062 A 
ATOM     17  C   UNL     1       2.565  -2.341   3.947  1.00  0.00     0.158 A 
BRANCH  15  18
ATOM     18  O   UNL     1       2.029  -0.187   2.938  1.00  0.00    -0.504 OA
ATOM     19  H   UNL     1       1.515   0.685   2.945  1.00  0.00     0.293 HD
ENDBRANCH  15  18
BRANCH  17  20
ATOM     20  O   UNL     1       3.772  -2.388   3.251  1.00  0.00    -0.504 OA
ATOM     21  H   UNL     1       4.516  -3.022   3.520  1.00  0.00     0.293 HD
ENDBRANCH  17  20
ENDBRANCH   1  12
BRANCH   2  22
ATOM     22  O   UNL     1       1.419  -3.312   8.391  1.00  0.00    -0.502 OA
ATOM     23  H   UNL     1       1.440  -2.406   7.939  1.00  0.00     0.293 HD
ENDBRANCH   2  22
BRANCH   6  24
ATOM     24  O   UNL     1      -0.232  -8.116   9.993  1.00  0.00    -0.507 OA
ATOM     25  H   UNL     1       0.449  -8.753  10.373  1.00  0.00     0.293 HD
ENDBRANCH   6  24
BRANCH   8  26
ATOM     26  O   UNL     1      -1.820  -9.916   5.855  1.00  0.00    -0.508 OA
ATOM     27  H   UNL     1      -2.751 -10.243   6.084  1.00  0.00     0.293 HD
ENDBRANCH   8  26
TORSDOF 6
ENDMDL
MODEL 6
REMARK VINA RESULT:    -5.999     11.024     13.599
REMARK INTER + INTRA:          -7.527
REMARK INTER:                  -7.259
REMARK INTRA:                  -0.268
REMARK UNBOUND:                -0.300
REMARK SMILES O=c1c(O)c(-c2ccc(O)c(O)c2)oc2cc(O)cc(O)c12
REMARK SMILES IDX 5 1 3 2 2 3 1 4 22 5 20 6 19 7 17 8 16 9 15 10 14 11 6 12
REMARK SMILES IDX 7 13 8 14 9 15 13 16 11 17 10 18 12 20 4 22 21 24 18 26
REMARK H PARENT 10 19 12 21 4 23 21 25 18 27
REMARK Flexibility Score: inf
ROOT
ATOM      1  C   UNL     1      -2.213   3.276  -4.845  1.00  0.00     0.180 A 
ATOM      2  C   UNL     1      -1.769   2.168  -4.104  1.00  0.00     0.208 A 
ATOM      3  C   UNL     1      -0.418   2.095  -3.730  1.00  0.00     0.238 A 
ATOM      4  O   UNL     1      -0.012   1.065  -3.133  1.00  0.00    -0.285 OA
ATOM      5  C   UNL     1       0.461   3.157  -4.052  1.00  0.00     0.111 A 
ATOM      6  C   UNL     1       1.840   3.211  -3.685  1.00  0.00     0.134 A 
ATOM      7  C   UNL     1       2.638   4.264  -4.151  1.00  0.00     0.093 A 
ATOM      8  C   UNL     1       2.097   5.296  -4.915  1.00  0.00     0.123 A 
ATOM      9  C   UNL     1       0.738   5.282  -5.234  1.00  0.00     0.094 A 
ATOM     10  C   UNL     1      -0.076   4.227  -4.816  1.00  0.00     0.146 A 
ATOM     11  O   UNL     1      -1.358   4.242  -5.160  1.00  0.00    -0.452 OA
ENDROOT
BRANCH   1  12
ATOM     12  C   UNL     1      -3.619   3.417  -5.287  1.00  0.00     0.025 A 
ATOM     13  C   UNL     1      -4.517   4.265  -4.615  1.00  0.00     0.016 A 
ATOM     14  C   UNL     1      -5.846   4.361  -5.035  1.00  0.00     0.051 A 
ATOM     15  C   UNL     1      -6.302   3.607  -6.121  1.00  0.00     0.157 A 
ATOM     16  C   UNL     1      -4.086   2.645  -6.363  1.00  0.00     0.062 A 
ATOM     17  C   UNL     1      -5.419   2.742  -6.787  1.00  0.00     0.158 A 
BRANCH  15  18
ATOM     18  O   UNL     1      -7.633   3.727  -6.519  1.00  0.00    -0.504 OA
ATOM     19  H   UNL     1      -8.371   3.954  -5.863  1.00  0.00     0.293 HD
ENDBRANCH  15  18
BRANCH  17  20
ATOM     20  O   UNL     1      -5.868   1.980  -7.865  1.00  0.00    -0.504 OA
ATOM     21  H   UNL     1      -6.609   1.295  -7.760  1.00  0.00     0.293 HD
ENDBRANCH  17  20
ENDBRANCH   1  12
BRANCH   2  22
ATOM     22  O   UNL     1      -2.669   1.165  -3.730  1.00  0.00    -0.502 OA
ATOM     23  H   UNL     1      -2.737   0.822  -2.779  1.00  0.00     0.293 HD
ENDBRANCH   2  22
BRANCH   6  24
ATOM     24  O   UNL     1       2.465   2.279  -2.851  1.00  0.00    -0.507 OA
ATOM     25  H   UNL     1       2.266   1.291  -2.837  1.00  0.00     0.293 HD
ENDBRANCH   6  24
BRANCH   8  26
ATOM     26  O   UNL     1       2.917   6.336  -5.347  1.00  0.00    -0.508 OA
ATOM     27  H   UNL     1       3.186   6.430  -6.318  1.00  0.00     0.293 HD
ENDBRANCH   8  26
TORSDOF 6
ENDMDL
MODEL 7
REMARK VINA RESULT:    -5.966      1.497      3.107
REMARK INTER + INTRA:          -7.487
REMARK INTER:                  -7.284
REMARK INTRA:                  -0.202
REMARK UNBOUND:                -0.300
REMARK SMILES O=c1c(O)c(-c2ccc(O)c(O)c2)oc2cc(O)cc(O)c12
REMARK SMILES IDX 5 1 3 2 2 3 1 4 22 5 20 6 19 7 17 8 16 9 15 10 14 11 6 12
REMARK SMILES IDX 7 13 8 14 9 15 13 16 11 17 10 18 12 20 4 22 21 24 18 26
REMARK H PARENT 10 19 12 21 4 23 21 25 18 27
REMARK Flexibility Score: inf
ROOT
ATOM      1  C   UNL     1       0.242  -2.762   5.454  1.00  0.00     0.180 A 
ATOM      2  C   UNL     1      -0.928  -2.033   5.725  1.00  0.00     0.208 A 
ATOM      3  C   UNL     1      -1.005  -0.692   5.320  1.00  0.00     0.238 A 
ATOM      4  O   UNL     1      -2.025  -0.024   5.632  1.00  0.00    -0.285 OA
ATOM      5  C   UNL     1       0.066  -0.111   4.599  1.00  0.00     0.111 A 
ATOM      6  C   UNL     1       0.079   1.227   4.100  1.00  0.00     0.134 A 
ATOM      7  C   UNL     1       1.239   1.727   3.494  1.00  0.00     0.093 A 
ATOM      8  C   UNL     1       2.362   0.921   3.310  1.00  0.00     0.123 A 
ATOM      9  C   UNL     1       2.341  -0.405   3.745  1.00  0.00     0.094 A 
ATOM     10  C   UNL     1       1.213  -0.921   4.388  1.00  0.00     0.146 A 
ATOM     11  O   UNL     1       1.244  -2.181   4.805  1.00  0.00    -0.452 OA
ENDROOT
BRANCH   1  12
ATOM     12  C   UNL     1       0.403  -4.177   5.862  1.00  0.00     0.025 A 
ATOM     13  C   UNL     1       1.339  -4.555   6.841  1.00  0.00     0.016 A 
ATOM     14  C   UNL     1       1.490  -5.899   7.190  1.00  0.00     0.051 A 
ATOM     15  C   UNL     1       0.722  -6.885   6.562  1.00  0.00     0.157 A 
ATOM     16  C   UNL     1      -0.351  -5.171   5.218  1.00  0.00     0.062 A 
ATOM     17  C   UNL     1      -0.201  -6.521   5.569  1.00  0.00     0.158 A 
BRANCH  15  18
ATOM     18  O   UNL     1       0.894  -8.218   6.935  1.00  0.00    -0.504 OA
ATOM     19  H   UNL     1       1.019  -8.493   7.902  1.00  0.00     0.293 HD
ENDBRANCH  15  18
BRANCH  17  20
ATOM     20  O   UNL     1      -0.964  -7.499   4.933  1.00  0.00    -0.504 OA
ATOM     21  H   UNL     1      -0.663  -8.467   4.895  1.00  0.00     0.293 HD
ENDBRANCH  17  20
ENDBRANCH   1  12
BRANCH   2  22
ATOM     22  O   UNL     1      -2.006  -2.647   6.370  1.00  0.00    -0.502 OA
ATOM     23  H   UNL     1      -2.279  -3.605   6.182  1.00  0.00     0.293 HD
ENDBRANCH   2  22
BRANCH   6  24
ATOM     24  O   UNL     1      -1.018   2.092   4.151  1.00  0.00    -0.507 OA
ATOM     25  H   UNL     1      -1.947   1.830   4.440  1.00  0.00     0.293 HD
ENDBRANCH   6  24
BRANCH   8  26
ATOM     26  O   UNL     1       3.491   1.446   2.687  1.00  0.00    -0.508 OA
ATOM     27  H   UNL     1       3.426   2.214   2.030  1.00  0.00     0.293 HD
ENDBRANCH   8  26
TORSDOF 6
ENDMDL
MODEL 8
REMARK VINA RESULT:    -5.951      3.438      6.680
REMARK INTER + INTRA:          -7.469
REMARK INTER:                  -7.222
REMARK INTRA:                  -0.248
REMARK UNBOUND:                -0.300
REMARK SMILES O=c1c(O)c(-c2ccc(O)c(O)c2)oc2cc(O)cc(O)c12
REMARK SMILES IDX 5 1 3 2 2 3 1 4 22 5 20 6 19 7 17 8 16 9 15 10 14 11 6 12
REMARK SMILES IDX 7 13 8 14 9 15 13 16 11 17 10 18 12 20 4 22 21 24 18 26
REMARK H PARENT 10 19 12 21 4 23 21 25 18 27
REMARK Flexibility Score: inf
ROOT
ATOM      1  C   UNL     1      -2.396  -1.419   5.908  1.00  0.00     0.180 A 
ATOM      2  C   UNL     1      -2.223  -2.721   6.407  1.00  0.00     0.208 A 
ATOM      3  C   UNL     1      -1.013  -3.389   6.163  1.00  0.00     0.238 A 
ATOM      4  O   UNL     1      -0.892  -4.581   6.548  1.00  0.00    -0.285 OA
ATOM      5  C   UNL     1       0.032  -2.726   5.473  1.00  0.00     0.111 A 
ATOM      6  C   UNL     1       1.317  -3.290   5.208  1.00  0.00     0.134 A 
ATOM      7  C   UNL     1       2.233  -2.580   4.423  1.00  0.00     0.093 A 
ATOM      8  C   UNL     1       1.939  -1.303   3.946  1.00  0.00     0.123 A 
ATOM      9  C   UNL     1       0.707  -0.721   4.244  1.00  0.00     0.094 A 
ATOM     10  C   UNL     1      -0.243  -1.418   4.993  1.00  0.00     0.146 A 
ATOM     11  O   UNL     1      -1.412  -0.836   5.235  1.00  0.00    -0.452 OA
ENDROOT
BRANCH   1  12
ATOM     12  C   UNL     1      -3.649  -0.657   6.112  1.00  0.00     0.025 A 
ATOM     13  C   UNL     1      -3.985  -0.122   7.369  1.00  0.00     0.016 A 
ATOM     14  C   UNL     1      -5.185   0.571   7.543  1.00  0.00     0.051 A 
ATOM     15  C   UNL     1      -6.072   0.731   6.474  1.00  0.00     0.157 A 
ATOM     16  C   UNL     1      -4.553  -0.514   5.047  1.00  0.00     0.062 A 
ATOM     17  C   UNL     1      -5.757   0.184   5.220  1.00  0.00     0.158 A 
BRANCH  15  18
ATOM     18  O   UNL     1      -7.261   1.431   6.679  1.00  0.00    -0.504 OA
ATOM     19  H   UNL     1      -8.163   0.971   6.673  1.00  0.00     0.293 HD
ENDBRANCH  15  18
BRANCH  17  20
ATOM     20  O   UNL     1      -6.641   0.332   4.152  1.00  0.00    -0.504 OA
ATOM     21  H   UNL     1      -6.550  -0.222   3.307  1.00  0.00     0.293 HD
ENDBRANCH  17  20
ENDBRANCH   1  12
BRANCH   2  22
ATOM     22  O   UNL     1      -3.237  -3.330   7.152  1.00  0.00    -0.502 OA
ATOM     23  H   UNL     1      -3.884  -2.800   7.725  1.00  0.00     0.293 HD
ENDBRANCH   2  22
BRANCH   6  24
ATOM     24  O   UNL     1       1.750  -4.521   5.710  1.00  0.00    -0.507 OA
ATOM     25  H   UNL     1       2.685  -4.886   5.617  1.00  0.00     0.293 HD
ENDBRANCH   6  24
BRANCH   8  26
ATOM     26  O   UNL     1       2.881  -0.619   3.182  1.00  0.00    -0.508 OA
ATOM     27  H   UNL     1       3.527   0.039   3.601  1.00  0.00     0.293 HD
ENDBRANCH   8  26
TORSDOF 6
ENDMDL
MODEL 9
REMARK VINA RESULT:    -5.869      2.027      7.417
REMARK INTER + INTRA:          -7.371
REMARK INTER:                  -7.200
REMARK INTRA:                  -0.171
REMARK UNBOUND:                -0.300
REMARK SMILES O=c1c(O)c(-c2ccc(O)c(O)c2)oc2cc(O)cc(O)c12
REMARK SMILES IDX 5 1 3 2 2 3 1 4 22 5 20 6 19 7 17 8 16 9 15 10 14 11 6 12
REMARK SMILES IDX 7 13 8 14 9 15 13 16 11 17 10 18 12 20 4 22 21 24 18 26
REMARK H PARENT 10 19 12 21 4 23 21 25 18 27
REMARK Flexibility Score: inf
ROOT
ATOM      1  C   UNL     1       1.368  -1.270   5.188  1.00  0.00     0.180 A 
ATOM      2  C   UNL     1       0.047  -1.384   5.654  1.00  0.00     0.208 A 
ATOM      3  C   UNL     1      -0.515  -2.661   5.802  1.00  0.00     0.238 A 
ATOM      4  O   UNL     1      -1.721  -2.754   6.147  1.00  0.00    -0.285 OA
ATOM      5  C   UNL     1       0.268  -3.811   5.538  1.00  0.00     0.111 A 
ATOM      6  C   UNL     1      -0.184  -5.156   5.696  1.00  0.00     0.134 A 
ATOM      7  C   UNL     1       0.645  -6.214   5.302  1.00  0.00     0.093 A 
ATOM      8  C   UNL     1       1.930  -5.981   4.815  1.00  0.00     0.123 A 
ATOM      9  C   UNL     1       2.402  -4.673   4.707  1.00  0.00     0.094 A 
ATOM     10  C   UNL     1       1.586  -3.595   5.056  1.00  0.00     0.146 A 
ATOM     11  O   UNL     1       2.067  -2.365   4.917  1.00  0.00    -0.452 OA
ENDROOT
BRANCH   1  12
ATOM     12  C   UNL     1       2.025   0.043   4.993  1.00  0.00     0.025 A 
ATOM     13  C   UNL     1       2.287   0.900   6.078  1.00  0.00     0.016 A 
ATOM     14  C   UNL     1       2.884   2.145   5.865  1.00  0.00     0.051 A 
ATOM     15  C   UNL     1       3.216   2.560   4.572  1.00  0.00     0.157 A 
ATOM     16  C   UNL     1       2.340   0.472   3.694  1.00  0.00     0.062 A 
ATOM     17  C   UNL     1       2.941   1.722   3.480  1.00  0.00     0.158 A 
BRANCH  15  18
ATOM     18  O   UNL     1       3.814   3.807   4.393  1.00  0.00    -0.504 OA
ATOM     19  H   UNL     1       3.458   4.483   3.728  1.00  0.00     0.293 HD
ENDBRANCH  15  18
BRANCH  17  20
ATOM     20  O   UNL     1       3.262   2.132   2.187  1.00  0.00    -0.504 OA
ATOM     21  H   UNL     1       2.797   2.919   1.748  1.00  0.00     0.293 HD
ENDBRANCH  17  20
ENDBRANCH   1  12
BRANCH   2  22
ATOM     22  O   UNL     1      -0.684  -0.239   5.982  1.00  0.00    -0.502 OA
ATOM     23  H   UNL     1      -0.680   0.161   6.914  1.00  0.00     0.293 HD
ENDBRANCH   2  22
BRANCH   6  24
ATOM     24  O   UNL     1      -1.417  -5.507   6.255  1.00  0.00    -0.507 OA
ATOM     25  H   UNL     1      -2.315  -5.228   5.894  1.00  0.00     0.293 HD
ENDBRANCH   6  24
BRANCH   8  26
ATOM     26  O   UNL     1       2.733  -7.058   4.448  1.00  0.00    -0.508 OA
ATOM     27  H   UNL     1       2.482  -7.670   3.681  1.00  0.00     0.293 HD
ENDBRANCH   8  26
TORSDOF 6
ENDMDL
