MODEL 1
REMARK VINA RESULT:    -6.723      0.000      0.000
REMARK INTER + INTRA:         -11.371
REMARK INTER:                  -9.278
REMARK INTRA:                  -2.093
REMARK UNBOUND:                -2.093
REMARK SMILES CC[C@@H](CC[C@@H](C)[C@@H]1CC[C@@H]2C3=CC[C@@H]4C[C@H](O)CC[C@@]4(C)[C@H]3CC[C@@]21C)C(C)C
REMARK SMILES IDX 5 1 4 2 3 3 2 4 1 5 28 6 29 7 30 8 6 9 7 10 8 11 9 12 26 13
REMARK SMILES IDX 10 14 11 15 25 16 27 17 12 18 24 19 23 20 13 21 21 22 14 23
REMARK SMILES IDX 15 24 20 25 22 26 16 27 19 28 17 29 18 30
REMARK H PARENT 18 31
REMARK Flexibility Score: inf
ROOT
ATOM      1  C   UNL     1     115.233 118.587 128.980  1.00  0.00     0.004 C 
ENDROOT
BRANCH   1   2
ATOM      2  C   UNL     1     116.531 117.860 128.553  1.00  0.00     0.004 C 
BRANCH   2   3
ATOM      3  C   UNL     1     117.381 118.664 127.524  1.00  0.00    -0.009 C 
BRANCH   3   4
ATOM      4  C   UNL     1     117.438 117.889 126.173  1.00  0.00     0.000 C 
ATOM      5  C   UNL     1     116.506 116.673 126.106  1.00  0.00     0.004 C 
ENDBRANCH   3   4
BRANCH   3   6
ATOM      6  C   UNL     1     118.778 119.020 128.143  1.00  0.00    -0.014 C 
ATOM      7  C   UNL     1     119.460 120.228 127.483  1.00  0.00     0.007 C 
ATOM      8  C   UNL     1     118.752 119.187 129.667  1.00  0.00     0.007 C 
ENDBRANCH   3   6
ENDBRANCH   2   3
ENDBRANCH   1   2
BRANCH   1   9
ATOM      9  C   UNL     1     114.941 119.893 128.197  1.00  0.00    -0.011 C 
ATOM     10  C   UNL     1     113.880 119.626 127.104  1.00  0.00     0.008 C 
BRANCH   9  11
ATOM     11  C   UNL     1     114.467 121.055 129.148  1.00  0.00    -0.002 C 
ATOM     12  C   UNL     1     113.479 122.007 128.444  1.00  0.00     0.005 C 
ATOM     13  C   UNL     1     115.548 122.010 129.763  1.00  0.00    -0.023 C 
ATOM     14  C   UNL     1     113.582 123.367 129.125  1.00  0.00     0.009 C 
ATOM     15  C   UNL     1     114.691 123.239 130.165  1.00  0.00     0.021 C 
ATOM     16  C   UNL     1     116.639 122.388 128.706  1.00  0.00     0.008 C 
ATOM     17  C   UNL     1     116.209 121.436 131.049  1.00  0.00     0.012 C 
ATOM     18  C   UNL     1     115.519 124.504 130.329  1.00  0.00    -0.067 C 
ATOM     19  C   UNL     1     117.438 123.655 129.055  1.00  0.00     0.009 C 
ATOM     20  C   UNL     1     116.486 124.859 129.208  1.00  0.00     0.021 C 
ATOM     21  C   UNL     1     115.561 125.113 131.536  1.00  0.00    -0.027 C 
ATOM     22  C   UNL     1     117.151 126.276 129.394  1.00  0.00    -0.023 C 
ATOM     23  C   UNL     1     116.437 126.294 131.853  1.00  0.00     0.031 C 
ATOM     24  C   UNL     1     117.615 126.436 130.875  1.00  0.00     0.002 C 
ATOM     25  C   UNL     1     118.390 126.461 128.464  1.00  0.00     0.010 C 
ATOM     26  C   UNL     1     116.074 127.337 129.009  1.00  0.00     0.012 C 
ATOM     27  C   UNL     1     118.364 127.765 131.120  1.00  0.00     0.036 C 
ATOM     28  C   UNL     1     119.119 127.793 128.696  1.00  0.00     0.032 C 
ATOM     29  C   UNL     1     119.556 127.943 130.161  1.00  0.00     0.114 C 
BRANCH  29  30
ATOM     30  O   UNL     1     120.119 129.218 130.333  1.00  0.00    -0.393 OA
ATOM     31  H   UNL     1     119.362 129.860 130.388  1.00  0.00     0.210 HD
ENDBRANCH  29  30
ENDBRANCH   9  11
ENDBRANCH   1   9
TORSDOF 7
ENDMDL
MODEL 2
REMARK VINA RESULT:    -6.621      3.624      9.543
REMARK INTER + INTRA:         -11.231
REMARK INTER:                 -10.187
REMARK INTRA:                  -1.044
REMARK UNBOUND:                -2.093
REMARK SMILES CC[C@@H](CC[C@@H](C)[C@@H]1CC[C@@H]2C3=CC[C@@H]4C[C@H](O)CC[C@@]4(C)[C@H]3CC[C@@]21C)C(C)C
REMARK SMILES IDX 5 1 4 2 3 3 2 4 1 5 28 6 29 7 30 8 6 9 7 10 8 11 9 12 26 13
REMARK SMILES IDX 10 14 11 15 25 16 27 17 12 18 24 19 23 20 13 21 21 22 14 23
REMARK SMILES IDX 15 24 20 25 22 26 16 27 19 28 17 29 18 30
REMARK H PARENT 18 31
REMARK Flexibility Score: inf
ROOT
ATOM      1  C   UNL     1     119.501 130.087 130.085  1.00  0.00     0.004 C 
ENDROOT
BRANCH   1   2
ATOM      2  C   UNL     1     120.576 131.016 130.698  1.00  0.00     0.004 C 
BRANCH   2   3
ATOM      3  C   UNL     1     120.235 132.531 130.566  1.00  0.00    -0.009 C 
BRANCH   3   4
ATOM      4  C   UNL     1     118.932 132.702 129.728  1.00  0.00     0.000 C 
ATOM      5  C   UNL     1     118.551 134.160 129.448  1.00  0.00     0.004 C 
ENDBRANCH   3   4
BRANCH   3   6
ATOM      6  C   UNL     1     121.479 133.317 130.023  1.00  0.00    -0.014 C 
ATOM      7  C   UNL     1     121.905 134.496 130.911  1.00  0.00     0.007 C 
ATOM      8  C   UNL     1     122.684 132.422 129.709  1.00  0.00     0.007 C 
ENDBRANCH   3   6
ENDBRANCH   2   3
ENDBRANCH   1   2
BRANCH   1   9
ATOM      9  C   UNL     1     118.789 129.166 131.110  1.00  0.00    -0.011 C 
ATOM     10  C   UNL     1     118.041 130.023 132.158  1.00  0.00     0.008 C 
BRANCH   9  11
ATOM     11  C   UNL     1     117.794 128.166 130.410  1.00  0.00    -0.002 C 
ATOM     12  C   UNL     1     116.561 127.873 131.289  1.00  0.00     0.005 C 
ATOM     13  C   UNL     1     118.320 126.747 130.002  1.00  0.00    -0.023 C 
ATOM     14  C   UNL     1     116.027 126.501 130.895  1.00  0.00     0.009 C 
ATOM     15  C   UNL     1     116.997 125.951 129.853  1.00  0.00     0.021 C 
ATOM     16  C   UNL     1     119.236 126.138 131.116  1.00  0.00     0.008 C 
ATOM     17  C   UNL     1     119.050 126.737 128.629  1.00  0.00     0.012 C 
ATOM     18  C   UNL     1     117.201 124.448 129.949  1.00  0.00    -0.067 C 
ATOM     19  C   UNL     1     119.399 124.611 131.031  1.00  0.00     0.009 C 
ATOM     20  C   UNL     1     118.020 123.924 131.120  1.00  0.00     0.021 C 
ATOM     21  C   UNL     1     116.883 123.670 128.888  1.00  0.00    -0.027 C 
ATOM     22  C   UNL     1     118.013 122.351 131.223  1.00  0.00    -0.023 C 
ATOM     23  C   UNL     1     117.154 122.191 128.817  1.00  0.00     0.031 C 
ATOM     24  C   UNL     1     118.241 121.740 129.806  1.00  0.00     0.002 C 
ATOM     25  C   UNL     1     119.133 121.827 132.175  1.00  0.00     0.010 C 
ATOM     26  C   UNL     1     116.626 121.942 131.811  1.00  0.00     0.012 C 
ATOM     27  C   UNL     1     118.341 120.199 129.834  1.00  0.00     0.036 C 
ATOM     28  C   UNL     1     119.214 120.294 132.217  1.00  0.00     0.032 C 
ATOM     29  C   UNL     1     119.424 119.707 130.813  1.00  0.00     0.114 C 
BRANCH  29  30
ATOM     30  O   UNL     1     119.385 118.306 130.901  1.00  0.00    -0.393 OA
ATOM     31  H   UNL     1     118.711 117.997 130.238  1.00  0.00     0.210 HD
ENDBRANCH  29  30
ENDBRANCH   9  11
ENDBRANCH   1   9
TORSDOF 7
ENDMDL
MODEL 3
REMARK VINA RESULT:    -6.296      3.770      6.345
REMARK INTER + INTRA:         -10.782
REMARK INTER:                  -8.852
REMARK INTRA:                  -1.931
REMARK UNBOUND:                -2.093
REMARK SMILES CC[C@@H](CC[C@@H](C)[C@@H]1CC[C@@H]2C3=CC[C@@H]4C[C@H](O)CC[C@@]4(C)[C@H]3CC[C@@]21C)C(C)C
REMARK SMILES IDX 5 1 4 2 3 3 2 4 1 5 28 6 29 7 30 8 6 9 7 10 8 11 9 12 26 13
REMARK SMILES IDX 10 14 11 15 25 16 27 17 12 18 24 19 23 20 13 21 21 22 14 23
REMARK SMILES IDX 15 24 20 25 22 26 16 27 19 28 17 29 18 30
REMARK H PARENT 18 31
REMARK Flexibility Score: inf
ROOT
ATOM      1  C   UNL     1     114.119 122.284 129.242  1.00  0.00     0.004 C 
ENDROOT
BRANCH   1   2
ATOM      2  C   UNL     1     114.653 123.380 128.288  1.00  0.00     0.004 C 
BRANCH   2   3
ATOM      3  C   UNL     1     115.940 124.084 128.812  1.00  0.00    -0.009 C 
BRANCH   3   4
ATOM      4  C   UNL     1     115.595 125.537 129.259  1.00  0.00     0.000 C 
ATOM      5  C   UNL     1     116.040 125.879 130.686  1.00  0.00     0.004 C 
ENDBRANCH   3   4
BRANCH   3   6
ATOM      6  C   UNL     1     117.086 123.974 127.746  1.00  0.00    -0.014 C 
ATOM      7  C   UNL     1     117.765 125.313 127.423  1.00  0.00     0.007 C 
ATOM      8  C   UNL     1     118.136 122.908 128.081  1.00  0.00     0.007 C 
ENDBRANCH   3   6
ENDBRANCH   2   3
ENDBRANCH   1   2
BRANCH   1   9
ATOM      9  C   UNL     1     114.192 122.651 130.746  1.00  0.00    -0.011 C 
ATOM     10  C   UNL     1     112.786 123.037 131.264  1.00  0.00     0.008 C 
BRANCH   9  11
ATOM     11  C   UNL     1     114.790 121.478 131.609  1.00  0.00    -0.002 C 
ATOM     12  C   UNL     1     114.540 121.688 133.117  1.00  0.00     0.005 C 
ATOM     13  C   UNL     1     116.327 121.184 131.514  1.00  0.00    -0.023 C 
ATOM     14  C   UNL     1     115.635 120.948 133.876  1.00  0.00     0.009 C 
ATOM     15  C   UNL     1     116.577 120.381 132.817  1.00  0.00     0.021 C 
ATOM     16  C   UNL     1     117.159 122.510 131.485  1.00  0.00     0.008 C 
ATOM     17  C   UNL     1     116.702 120.279 130.306  1.00  0.00     0.012 C 
ATOM     18  C   UNL     1     118.037 120.386 133.240  1.00  0.00    -0.067 C 
ATOM     19  C   UNL     1     118.638 122.332 131.870  1.00  0.00     0.009 C 
ATOM     20  C   UNL     1     118.750 121.730 133.286  1.00  0.00     0.021 C 
ATOM     21  C   UNL     1     118.708 119.213 133.308  1.00  0.00    -0.027 C 
ATOM     22  C   UNL     1     120.195 121.641 133.910  1.00  0.00    -0.023 C 
ATOM     23  C   UNL     1     120.181 119.101 133.593  1.00  0.00     0.031 C 
ATOM     24  C   UNL     1     120.940 120.408 133.311  1.00  0.00     0.002 C 
ATOM     25  C   UNL     1     121.036 122.921 133.611  1.00  0.00     0.010 C 
ATOM     26  C   UNL     1     120.013 121.511 135.455  1.00  0.00     0.012 C 
ATOM     27  C   UNL     1     122.401 120.302 133.803  1.00  0.00     0.036 C 
ATOM     28  C   UNL     1     122.481 122.820 134.121  1.00  0.00     0.032 C 
ATOM     29  C   UNL     1     123.196 121.594 133.535  1.00  0.00     0.114 C 
BRANCH  29  30
ATOM     30  O   UNL     1     124.471 121.497 134.116  1.00  0.00    -0.393 OA
ATOM     31  H   UNL     1     124.370 121.755 135.071  1.00  0.00     0.210 HD
ENDBRANCH  29  30
ENDBRANCH   9  11
ENDBRANCH   1   9
TORSDOF 7
ENDMDL
MODEL 4
REMARK VINA RESULT:    -6.223      3.881      6.258
REMARK INTER + INTRA:         -10.682
REMARK INTER:                  -8.855
REMARK INTRA:                  -1.827
REMARK UNBOUND:                -2.093
REMARK SMILES CC[C@@H](CC[C@@H](C)[C@@H]1CC[C@@H]2C3=CC[C@@H]4C[C@H](O)CC[C@@]4(C)[C@H]3CC[C@@]21C)C(C)C
REMARK SMILES IDX 5 1 4 2 3 3 2 4 1 5 28 6 29 7 30 8 6 9 7 10 8 11 9 12 26 13
REMARK SMILES IDX 10 14 11 15 25 16 27 17 12 18 24 19 23 20 13 21 21 22 14 23
REMARK SMILES IDX 15 24 20 25 22 26 16 27 19 28 17 29 18 30
REMARK H PARENT 18 31
REMARK Flexibility Score: inf
ROOT
ATOM      1  C   UNL     1     113.869 120.690 132.277  1.00  0.00     0.004 C 
ENDROOT
BRANCH   1   2
ATOM      2  C   UNL     1     113.365 121.873 131.416  1.00  0.00     0.004 C 
BRANCH   2   3
ATOM      3  C   UNL     1     113.834 121.804 129.932  1.00  0.00    -0.009 C 
BRANCH   3   4
ATOM      4  C   UNL     1     114.114 120.322 129.540  1.00  0.00     0.000 C 
ATOM      5  C   UNL     1     114.071 120.051 128.032  1.00  0.00     0.004 C 
ENDBRANCH   3   4
BRANCH   3   6
ATOM      6  C   UNL     1     115.034 122.788 129.701  1.00  0.00    -0.014 C 
ATOM      7  C   UNL     1     115.058 123.422 128.302  1.00  0.00     0.007 C 
ATOM      8  C   UNL     1     115.161 123.869 130.781  1.00  0.00     0.007 C 
ENDBRANCH   3   6
ENDBRANCH   2   3
ENDBRANCH   1   2
BRANCH   1   9
ATOM      9  C   UNL     1     114.899 121.084 133.367  1.00  0.00    -0.011 C 
ATOM     10  C   UNL     1     114.229 121.058 134.761  1.00  0.00     0.008 C 
BRANCH   9  11
ATOM     11  C   UNL     1     116.162 120.143 133.349  1.00  0.00    -0.002 C 
ATOM     12  C   UNL     1     116.773 119.975 134.756  1.00  0.00     0.005 C 
ATOM     13  C   UNL     1     117.381 120.539 132.447  1.00  0.00    -0.023 C 
ATOM     14  C   UNL     1     118.250 119.645 134.583  1.00  0.00     0.009 C 
ATOM     15  C   UNL     1     118.527 119.709 133.082  1.00  0.00     0.021 C 
ATOM     16  C   UNL     1     117.670 122.075 132.525  1.00  0.00     0.008 C 
ATOM     17  C   UNL     1     117.218 120.088 130.968  1.00  0.00     0.012 C 
ATOM     18  C   UNL     1     119.905 120.254 132.743  1.00  0.00    -0.067 C 
ATOM     19  C   UNL     1     119.088 122.471 132.078  1.00  0.00     0.009 C 
ATOM     20  C   UNL     1     120.139 121.745 132.942  1.00  0.00     0.021 C 
ATOM     21  C   UNL     1     120.770 119.476 132.052  1.00  0.00    -0.027 C 
ATOM     22  C   UNL     1     121.645 122.166 132.738  1.00  0.00    -0.023 C 
ATOM     23  C   UNL     1     122.110 119.945 131.553  1.00  0.00     0.031 C 
ATOM     24  C   UNL     1     122.202 121.476 131.454  1.00  0.00     0.002 C 
ATOM     25  C   UNL     1     121.798 123.711 132.577  1.00  0.00     0.010 C 
ATOM     26  C   UNL     1     122.418 121.717 134.017  1.00  0.00     0.012 C 
ATOM     27  C   UNL     1     123.649 121.911 131.129  1.00  0.00     0.036 C 
ATOM     28  C   UNL     1     123.241 124.140 132.276  1.00  0.00     0.032 C 
ATOM     29  C   UNL     1     123.781 123.442 131.018  1.00  0.00     0.114 C 
BRANCH  29  30
ATOM     30  O   UNL     1     125.132 123.791 130.855  1.00  0.00    -0.393 OA
ATOM     31  H   UNL     1     125.209 124.227 129.965  1.00  0.00     0.210 HD
ENDBRANCH  29  30
ENDBRANCH   9  11
ENDBRANCH   1   9
TORSDOF 7
ENDMDL
MODEL 5
REMARK VINA RESULT:    -6.199      2.855      5.143
REMARK INTER + INTRA:         -10.649
REMARK INTER:                  -9.734
REMARK INTRA:                  -0.915
REMARK UNBOUND:                -2.093
REMARK SMILES CC[C@@H](CC[C@@H](C)[C@@H]1CC[C@@H]2C3=CC[C@@H]4C[C@H](O)CC[C@@]4(C)[C@H]3CC[C@@]21C)C(C)C
REMARK SMILES IDX 5 1 4 2 3 3 2 4 1 5 28 6 29 7 30 8 6 9 7 10 8 11 9 12 26 13
REMARK SMILES IDX 10 14 11 15 25 16 27 17 12 18 24 19 23 20 13 21 21 22 14 23
REMARK SMILES IDX 15 24 20 25 22 26 16 27 19 28 17 29 18 30
REMARK H PARENT 18 31
REMARK Flexibility Score: inf
ROOT
ATOM      1  C   UNL     1     114.685 120.634 131.381  1.00  0.00     0.004 C 
ENDROOT
BRANCH   1   2
ATOM      2  C   UNL     1     113.756 121.289 130.330  1.00  0.00     0.004 C 
BRANCH   2   3
ATOM      3  C   UNL     1     113.754 120.551 128.958  1.00  0.00    -0.009 C 
BRANCH   3   4
ATOM      4  C   UNL     1     114.662 119.287 129.043  1.00  0.00     0.000 C 
ATOM      5  C   UNL     1     115.613 119.114 127.852  1.00  0.00     0.004 C 
ENDBRANCH   3   4
BRANCH   3   6
ATOM      6  C   UNL     1     114.120 121.553 127.808  1.00  0.00    -0.014 C 
ATOM      7  C   UNL     1     112.997 121.754 126.779  1.00  0.00     0.007 C 
ATOM      8  C   UNL     1     114.633 122.908 128.311  1.00  0.00     0.007 C 
ENDBRANCH   3   6
ENDBRANCH   2   3
ENDBRANCH   1   2
BRANCH   1   9
ATOM      9  C   UNL     1     114.891 121.474 132.668  1.00  0.00    -0.011 C 
ATOM     10  C   UNL     1     115.229 120.543 133.856  1.00  0.00     0.008 C 
BRANCH   9  11
ATOM     11  C   UNL     1     116.015 122.561 132.487  1.00  0.00    -0.002 C 
ATOM     12  C   UNL     1     115.519 123.770 131.666  1.00  0.00     0.005 C 
ATOM     13  C   UNL     1     117.355 122.146 131.787  1.00  0.00    -0.023 C 
ATOM     14  C   UNL     1     116.733 124.407 131.002  1.00  0.00     0.009 C 
ATOM     15  C   UNL     1     117.926 123.523 131.356  1.00  0.00     0.021 C 
ATOM     16  C   UNL     1     117.088 121.221 130.552  1.00  0.00     0.008 C 
ATOM     17  C   UNL     1     118.371 121.481 132.758  1.00  0.00     0.012 C 
ATOM     18  C   UNL     1     118.951 123.410 130.240  1.00  0.00    -0.067 C 
ATOM     19  C   UNL     1     118.254 121.160 129.550  1.00  0.00     0.009 C 
ATOM     20  C   UNL     1     118.576 122.574 129.024  1.00  0.00     0.021 C 
ATOM     21  C   UNL     1     120.219 123.825 130.464  1.00  0.00    -0.027 C 
ATOM     22  C   UNL     1     119.630 122.678 127.856  1.00  0.00    -0.023 C 
ATOM     23  C   UNL     1     121.348 123.653 129.484  1.00  0.00     0.031 C 
ATOM     24  C   UNL     1     121.068 122.553 128.447  1.00  0.00     0.002 C 
ATOM     25  C   UNL     1     119.431 121.551 126.795  1.00  0.00     0.010 C 
ATOM     26  C   UNL     1     119.407 124.059 127.166  1.00  0.00     0.012 C 
ATOM     27  C   UNL     1     122.160 122.551 127.354  1.00  0.00     0.036 C 
ATOM     28  C   UNL     1     120.505 121.566 125.698  1.00  0.00     0.032 C 
ATOM     29  C   UNL     1     121.916 121.458 126.296  1.00  0.00     0.114 C 
BRANCH  29  30
ATOM     30  O   UNL     1     122.855 121.583 125.258  1.00  0.00    -0.393 OA
ATOM     31  H   UNL     1     123.733 121.304 125.632  1.00  0.00     0.210 HD
ENDBRANCH  29  30
ENDBRANCH   9  11
ENDBRANCH   1   9
TORSDOF 7
ENDMDL
MODEL 6
REMARK VINA RESULT:    -6.168      3.285      6.727
REMARK INTER + INTRA:         -10.606
REMARK INTER:                  -8.736
REMARK INTRA:                  -1.870
REMARK UNBOUND:                -2.093
REMARK SMILES CC[C@@H](CC[C@@H](C)[C@@H]1CC[C@@H]2C3=CC[C@@H]4C[C@H](O)CC[C@@]4(C)[C@H]3CC[C@@]21C)C(C)C
REMARK SMILES IDX 5 1 4 2 3 3 2 4 1 5 28 6 29 7 30 8 6 9 7 10 8 11 9 12 26 13
REMARK SMILES IDX 10 14 11 15 25 16 27 17 12 18 24 19 23 20 13 21 21 22 14 23
REMARK SMILES IDX 15 24 20 25 22 26 16 27 19 28 17 29 18 30
REMARK H PARENT 18 31
REMARK Flexibility Score: inf
ROOT
ATOM      1  C   UNL     1     114.967 123.402 131.938  1.00  0.00     0.004 C 
ENDROOT
BRANCH   1   2
ATOM      2  C   UNL     1     113.694 123.002 131.153  1.00  0.00     0.004 C 
BRANCH   2   3
ATOM      3  C   UNL     1     113.686 121.511 130.701  1.00  0.00    -0.009 C 
BRANCH   3   4
ATOM      4  C   UNL     1     114.415 120.638 131.768  1.00  0.00     0.000 C 
ATOM      5  C   UNL     1     113.488 120.041 132.833  1.00  0.00     0.004 C 
ENDBRANCH   3   4
BRANCH   3   6
ATOM      6  C   UNL     1     114.254 121.386 129.244  1.00  0.00    -0.014 C 
ATOM      7  C   UNL     1     114.075 119.993 128.624  1.00  0.00     0.007 C 
ATOM      8  C   UNL     1     113.736 122.468 128.288  1.00  0.00     0.007 C 
ENDBRANCH   3   6
ENDBRANCH   2   3
ENDBRANCH   1   2
BRANCH   1   9
ATOM      9  C   UNL     1     116.035 124.142 131.092  1.00  0.00    -0.011 C 
ATOM     10  C   UNL     1     116.004 125.656 131.412  1.00  0.00     0.008 C 
BRANCH   9  11
ATOM     11  C   UNL     1     117.479 123.562 131.331  1.00  0.00    -0.002 C 
ATOM     12  C   UNL     1     118.564 124.653 131.213  1.00  0.00     0.005 C 
ATOM     13  C   UNL     1     117.990 122.412 130.396  1.00  0.00    -0.023 C 
ATOM     14  C   UNL     1     119.865 123.970 130.808  1.00  0.00     0.009 C 
ATOM     15  C   UNL     1     119.525 122.496 130.600  1.00  0.00     0.021 C 
ATOM     16  C   UNL     1     117.592 122.672 128.905  1.00  0.00     0.008 C 
ATOM     17  C   UNL     1     117.517 121.001 130.849  1.00  0.00     0.012 C 
ATOM     18  C   UNL     1     120.306 121.849 129.468  1.00  0.00    -0.067 C 
ATOM     19  C   UNL     1     118.431 121.885 127.883  1.00  0.00     0.009 C 
ATOM     20  C   UNL     1     119.925 122.232 128.044  1.00  0.00     0.021 C 
ATOM     21  C   UNL     1     121.108 120.794 129.739  1.00  0.00    -0.027 C 
ATOM     22  C   UNL     1     120.913 121.647 126.964  1.00  0.00    -0.023 C 
ATOM     23  C   UNL     1     121.832 119.995 128.689  1.00  0.00     0.031 C 
ATOM     24  C   UNL     1     121.210 120.151 127.292  1.00  0.00     0.002 C 
ATOM     25  C   UNL     1     120.313 121.729 125.525  1.00  0.00     0.010 C 
ATOM     26  C   UNL     1     122.207 122.517 127.016  1.00  0.00     0.012 C 
ATOM     27  C   UNL     1     122.099 119.476 126.225  1.00  0.00     0.036 C 
ATOM     28  C   UNL     1     121.211 121.076 124.465  1.00  0.00     0.032 C 
ATOM     29  C   UNL     1     121.506 119.608 124.809  1.00  0.00     0.114 C 
BRANCH  29  30
ATOM     30  O   UNL     1     122.412 119.098 123.865  1.00  0.00    -0.393 OA
ATOM     31  H   UNL     1     122.197 118.134 123.754  1.00  0.00     0.210 HD
ENDBRANCH  29  30
ENDBRANCH   9  11
ENDBRANCH   1   9
TORSDOF 7
ENDMDL
MODEL 7
REMARK VINA RESULT:    -6.154      3.453      6.271
REMARK INTER + INTRA:         -10.586
REMARK INTER:                  -9.282
REMARK INTRA:                  -1.304
REMARK UNBOUND:                -2.093
REMARK SMILES CC[C@@H](CC[C@@H](C)[C@@H]1CC[C@@H]2C3=CC[C@@H]4C[C@H](O)CC[C@@]4(C)[C@H]3CC[C@@]21C)C(C)C
REMARK SMILES IDX 5 1 4 2 3 3 2 4 1 5 28 6 29 7 30 8 6 9 7 10 8 11 9 12 26 13
REMARK SMILES IDX 10 14 11 15 25 16 27 17 12 18 24 19 23 20 13 21 21 22 14 23
REMARK SMILES IDX 15 24 20 25 22 26 16 27 19 28 17 29 18 30
REMARK H PARENT 18 31
REMARK Flexibility Score: inf
ROOT
ATOM      1  C   UNL     1     116.132 123.269 127.867  1.00  0.00     0.004 C 
ENDROOT
BRANCH   1   2
ATOM      2  C   UNL     1     116.886 124.579 127.533  1.00  0.00     0.004 C 
BRANCH   2   3
ATOM      3  C   UNL     1     118.431 124.466 127.698  1.00  0.00    -0.009 C 
BRANCH   3   4
ATOM      4  C   UNL     1     118.856 122.968 127.619  1.00  0.00     0.000 C 
ATOM      5  C   UNL     1     119.750 122.630 126.420  1.00  0.00     0.004 C 
ENDBRANCH   3   4
BRANCH   3   6
ATOM      6  C   UNL     1     118.890 125.216 128.997  1.00  0.00    -0.014 C 
ATOM      7  C   UNL     1     118.083 126.487 129.299  1.00  0.00     0.007 C 
ATOM      8  C   UNL     1     118.955 124.317 130.237  1.00  0.00     0.007 C 
ENDBRANCH   3   6
ENDBRANCH   2   3
ENDBRANCH   1   2
BRANCH   1   9
ATOM      9  C   UNL     1     114.666 123.472 128.326  1.00  0.00    -0.011 C 
ATOM     10  C   UNL     1     113.750 122.429 127.645  1.00  0.00     0.008 C 
BRANCH   9  11
ATOM     11  C   UNL     1     114.523 123.385 129.892  1.00  0.00    -0.002 C 
ATOM     12  C   UNL     1     115.251 124.547 130.601  1.00  0.00     0.005 C 
ATOM     13  C   UNL     1     115.048 122.102 130.624  1.00  0.00    -0.023 C 
ATOM     14  C   UNL     1     115.625 124.074 132.000  1.00  0.00     0.009 C 
ATOM     15  C   UNL     1     115.201 122.610 132.082  1.00  0.00     0.021 C 
ATOM     16  C   UNL     1     116.418 121.630 130.031  1.00  0.00     0.008 C 
ATOM     17  C   UNL     1     114.021 120.935 130.622  1.00  0.00     0.012 C 
ATOM     18  C   UNL     1     116.145 121.751 132.907  1.00  0.00    -0.067 C 
ATOM     19  C   UNL     1     117.221 120.707 130.963  1.00  0.00     0.009 C 
ATOM     20  C   UNL     1     117.503 121.419 132.303  1.00  0.00     0.021 C 
ATOM     21  C   UNL     1     115.670 121.112 134.001  1.00  0.00    -0.027 C 
ATOM     22  C   UNL     1     118.464 120.684 133.313  1.00  0.00    -0.023 C 
ATOM     23  C   UNL     1     116.471 120.141 134.825  1.00  0.00     0.031 C 
ATOM     24  C   UNL     1     117.672 119.565 134.057  1.00  0.00     0.002 C 
ATOM     25  C   UNL     1     119.680 120.030 132.584  1.00  0.00     0.010 C 
ATOM     26  C   UNL     1     118.998 121.768 134.300  1.00  0.00     0.012 C 
ATOM     27  C   UNL     1     118.569 118.733 135.001  1.00  0.00     0.036 C 
ATOM     28  C   UNL     1     120.580 119.222 133.530  1.00  0.00     0.032 C 
ATOM     29  C   UNL     1     119.783 118.134 134.266  1.00  0.00     0.114 C 
BRANCH  29  30
ATOM     30  O   UNL     1     120.633 117.502 135.189  1.00  0.00    -0.393 OA
ATOM     31  H   UNL     1     120.080 117.292 135.988  1.00  0.00     0.210 HD
ENDBRANCH  29  30
ENDBRANCH   9  11
ENDBRANCH   1   9
TORSDOF 7
ENDMDL
MODEL 8
REMARK VINA RESULT:    -6.154      1.831      3.831
REMARK INTER + INTRA:         -10.586
REMARK INTER:                  -8.425
REMARK INTRA:                  -2.160
REMARK UNBOUND:                -2.093
REMARK SMILES CC[C@@H](CC[C@@H](C)[C@@H]1CC[C@@H]2C3=CC[C@@H]4C[C@H](O)CC[C@@]4(C)[C@H]3CC[C@@]21C)C(C)C
REMARK SMILES IDX 5 1 4 2 3 3 2 4 1 5 28 6 29 7 30 8 6 9 7 10 8 11 9 12 26 13
REMARK SMILES IDX 10 14 11 15 25 16 27 17 12 18 24 19 23 20 13 21 21 22 14 23
REMARK SMILES IDX 15 24 20 25 22 26 16 27 19 28 17 29 18 30
REMARK H PARENT 18 31
REMARK Flexibility Score: inf
ROOT
ATOM      1  C   UNL     1     119.796 117.468 127.262  1.00  0.00     0.004 C 
ENDROOT
BRANCH   1   2
ATOM      2  C   UNL     1     121.050 118.172 126.690  1.00  0.00     0.004 C 
BRANCH   2   3
ATOM      3  C   UNL     1     120.844 119.696 126.436  1.00  0.00    -0.009 C 
BRANCH   3   4
ATOM      4  C   UNL     1     120.925 119.986 124.907  1.00  0.00     0.000 C 
ATOM      5  C   UNL     1     119.692 120.696 124.334  1.00  0.00     0.004 C 
ENDBRANCH   3   4
BRANCH   3   6
ATOM      6  C   UNL     1     121.836 120.528 127.321  1.00  0.00    -0.014 C 
ATOM      7  C   UNL     1     121.532 122.034 127.347  1.00  0.00     0.007 C 
ATOM      8  C   UNL     1     121.988 119.989 128.748  1.00  0.00     0.007 C 
ENDBRANCH   3   6
ENDBRANCH   2   3
ENDBRANCH   1   2
BRANCH   1   9
ATOM      9  C   UNL     1     118.451 118.004 126.707  1.00  0.00    -0.011 C 
ATOM     10  C   UNL     1     117.874 117.010 125.672  1.00  0.00     0.008 C 
BRANCH   9  11
ATOM     11  C   UNL     1     117.405 118.266 127.855  1.00  0.00    -0.002 C 
ATOM     12  C   UNL     1     115.968 118.387 127.307  1.00  0.00     0.005 C 
ATOM     13  C   UNL     1     117.580 119.539 128.753  1.00  0.00    -0.023 C 
ATOM     14  C   UNL     1     115.170 119.243 128.282  1.00  0.00     0.009 C 
ATOM     15  C   UNL     1     116.158 119.700 129.353  1.00  0.00     0.021 C 
ATOM     16  C   UNL     1     117.991 120.785 127.900  1.00  0.00     0.008 C 
ATOM     17  C   UNL     1     118.579 119.326 129.925  1.00  0.00     0.012 C 
ATOM     18  C   UNL     1     115.891 121.107 129.862  1.00  0.00    -0.067 C 
ATOM     19  C   UNL     1     117.721 122.134 128.588  1.00  0.00     0.009 C 
ATOM     20  C   UNL     1     116.223 122.266 128.932  1.00  0.00     0.021 C 
ATOM     21  C   UNL     1     115.623 121.294 131.175  1.00  0.00    -0.027 C 
ATOM     22  C   UNL     1     115.738 123.660 129.485  1.00  0.00    -0.023 C 
ATOM     23  C   UNL     1     115.464 122.644 131.819  1.00  0.00     0.031 C 
ATOM     24  C   UNL     1     116.109 123.771 130.997  1.00  0.00     0.002 C 
ATOM     25  C   UNL     1     116.402 124.849 128.723  1.00  0.00     0.010 C 
ATOM     26  C   UNL     1     114.195 123.723 129.264  1.00  0.00     0.012 C 
ATOM     27  C   UNL     1     115.751 125.150 131.594  1.00  0.00     0.036 C 
ATOM     28  C   UNL     1     116.025 126.218 129.307  1.00  0.00     0.032 C 
ATOM     29  C   UNL     1     116.383 126.308 130.798  1.00  0.00     0.114 C 
BRANCH  29  30
ATOM     30  O   UNL     1     115.921 127.536 131.298  1.00  0.00    -0.393 OA
ATOM     31  H   UNL     1     116.403 128.248 130.798  1.00  0.00     0.210 HD
ENDBRANCH  29  30
ENDBRANCH   9  11
ENDBRANCH   1   9
TORSDOF 7
ENDMDL
MODEL 9
REMARK VINA RESULT:    -6.144      3.381      6.441
REMARK INTER + INTRA:         -10.572
REMARK INTER:                  -8.766
REMARK INTRA:                  -1.806
REMARK UNBOUND:                -2.093
REMARK SMILES CC[C@@H](CC[C@@H](C)[C@@H]1CC[C@@H]2C3=CC[C@@H]4C[C@H](O)CC[C@@]4(C)[C@H]3CC[C@@]21C)C(C)C
REMARK SMILES IDX 5 1 4 2 3 3 2 4 1 5 28 6 29 7 30 8 6 9 7 10 8 11 9 12 26 13
REMARK SMILES IDX 10 14 11 15 25 16 27 17 12 18 24 19 23 20 13 21 21 22 14 23
REMARK SMILES IDX 15 24 20 25 22 26 16 27 19 28 17 29 18 30
REMARK H PARENT 18 31
REMARK Flexibility Score: inf
ROOT
ATOM      1  C   UNL     1     114.679 123.572 131.341  1.00  0.00     0.004 C 
ENDROOT
BRANCH   1   2
ATOM      2  C   UNL     1     114.129 122.365 132.139  1.00  0.00     0.004 C 
BRANCH   2   3
ATOM      3  C   UNL     1     114.952 121.058 131.934  1.00  0.00    -0.009 C 
BRANCH   3   4
ATOM      4  C   UNL     1     114.062 119.983 131.240  1.00  0.00     0.000 C 
ATOM      5  C   UNL     1     114.278 119.869 129.726  1.00  0.00     0.004 C 
ENDBRANCH   3   4
BRANCH   3   6
ATOM      6  C   UNL     1     115.596 120.609 133.292  1.00  0.00    -0.014 C 
ATOM      7  C   UNL     1     117.002 121.177 133.532  1.00  0.00     0.007 C 
ATOM      8  C   UNL     1     114.701 120.864 134.511  1.00  0.00     0.007 C 
ENDBRANCH   3   6
ENDBRANCH   2   3
ENDBRANCH   1   2
BRANCH   1   9
ATOM      9  C   UNL     1     114.939 123.283 129.840  1.00  0.00    -0.011 C 
ATOM     10  C   UNL     1     113.732 123.755 128.995  1.00  0.00     0.008 C 
BRANCH   9  11
ATOM     11  C   UNL     1     116.264 123.965 129.331  1.00  0.00    -0.002 C 
ATOM     12  C   UNL     1     116.132 124.465 127.877  1.00  0.00     0.005 C 
ATOM     13  C   UNL     1     117.588 123.126 129.328  1.00  0.00    -0.023 C 
ATOM     14  C   UNL     1     117.528 124.492 127.268  1.00  0.00     0.009 C 
ATOM     15  C   UNL     1     118.466 123.924 128.330  1.00  0.00     0.021 C 
ATOM     16  C   UNL     1     117.333 121.664 128.830  1.00  0.00     0.008 C 
ATOM     17  C   UNL     1     118.307 123.115 130.707  1.00  0.00     0.012 C 
ATOM     18  C   UNL     1     119.603 123.095 127.753  1.00  0.00    -0.067 C 
ATOM     19  C   UNL     1     118.599 120.935 128.346  1.00  0.00     0.009 C 
ATOM     20  C   UNL     1     119.257 121.722 127.194  1.00  0.00     0.021 C 
ATOM     21  C   UNL     1     120.880 123.478 127.983  1.00  0.00    -0.027 C 
ATOM     22  C   UNL     1     120.469 121.032 126.461  1.00  0.00    -0.023 C 
ATOM     23  C   UNL     1     122.086 122.677 127.572  1.00  0.00     0.031 C 
ATOM     24  C   UNL     1     121.756 121.195 127.327  1.00  0.00     0.002 C 
ATOM     25  C   UNL     1     120.217 119.509 126.230  1.00  0.00     0.010 C 
ATOM     26  C   UNL     1     120.616 121.730 125.073  1.00  0.00     0.012 C 
ATOM     27  C   UNL     1     122.975 120.463 126.721  1.00  0.00     0.036 C 
ATOM     28  C   UNL     1     121.422 118.790 125.607  1.00  0.00     0.032 C 
ATOM     29  C   UNL     1     122.685 118.972 126.464  1.00  0.00     0.114 C 
BRANCH  29  30
ATOM     30  O   UNL     1     123.771 118.386 125.794  1.00  0.00    -0.393 OA
ATOM     31  H   UNL     1     123.694 118.652 124.839  1.00  0.00     0.210 HD
ENDBRANCH  29  30
ENDBRANCH   9  11
ENDBRANCH   1   9
TORSDOF 7
ENDMDL
