MODEL 1
REMARK VINA RESULT:    -4.425      0.000      0.000
REMARK INTER + INTRA:          -9.712
REMARK INTER:                  -8.306
REMARK INTRA:                  -1.406
REMARK UNBOUND:                -1.406
REMARK SMILES CCCCCCCCC=CCCCCCCCC(=O)[O-]
REMARK SMILES IDX 10 1 9 2 11 3 12 4 13 5 14 6 15 7 16 8 17 9 18 10 19 11
REMARK SMILES IDX 20 12 8 13 7 14 6 15 5 16 4 17 3 18 2 19 1 20
REMARK H PARENT
REMARK Flexibility Score: inf
ROOT
ATOM      1  C   UNL     1     -34.312  -7.177   2.459  1.00  0.00    -0.031 C 
ATOM      2  C   UNL     1     -33.463  -7.709   1.560  1.00  0.00    -0.031 C 
ENDROOT
BRANCH   1   3
ATOM      3  C   UNL     1     -34.386  -7.573   3.914  1.00  0.00     0.027 C 
BRANCH   3   4
ATOM      4  C   UNL     1     -35.214  -8.848   4.126  1.00  0.00     0.004 C 
BRANCH   4   5
ATOM      5  C   UNL     1     -35.310  -9.239   5.612  1.00  0.00     0.000 C 
BRANCH   5   6
ATOM      6  C   UNL     1     -34.898  -8.089   6.545  1.00  0.00     0.000 C 
BRANCH   6   7
ATOM      7  C   UNL     1     -35.973  -7.784   7.602  1.00  0.00     0.000 C 
BRANCH   7   8
ATOM      8  C   UNL     1     -36.573  -6.378   7.450  1.00  0.00     0.006 C 
BRANCH   8   9
ATOM      9  C   UNL     1     -35.587  -5.377   6.835  1.00  0.00     0.053 C 
BRANCH   9  10
ATOM     10  C   UNL     1     -36.001  -3.976   7.155  1.00  0.00     0.041 C 
ATOM     11  O   UNL     1     -35.308  -3.002   6.756  1.00  0.00    -0.550 OA
ATOM     12  O   UNL     1     -37.125  -3.746   7.934  1.00  0.00    -0.550 OA
ENDBRANCH   9  10
ENDBRANCH   8   9
ENDBRANCH   7   8
ENDBRANCH   6   7
ENDBRANCH   5   6
ENDBRANCH   4   5
ENDBRANCH   3   4
ENDBRANCH   1   3
BRANCH   2  13
ATOM     13  C   UNL     1     -32.387  -8.717   1.882  1.00  0.00     0.027 C 
BRANCH  13  14
ATOM     14  C   UNL     1     -32.454  -9.943   0.960  1.00  0.00     0.004 C 
BRANCH  14  15
ATOM     15  C   UNL     1     -33.779 -10.009   0.180  1.00  0.00     0.000 C 
BRANCH  15  16
ATOM     16  C   UNL     1     -33.571 -10.116  -1.342  1.00  0.00     0.000 C 
BRANCH  16  17
ATOM     17  C   UNL     1     -34.638  -9.404  -2.197  1.00  0.00    -0.000 C 
BRANCH  17  18
ATOM     18  C   UNL     1     -35.039  -7.998  -1.707  1.00  0.00    -0.000 C 
BRANCH  18  19
ATOM     19  C   UNL     1     -35.060  -6.918  -2.800  1.00  0.00    -0.003 C 
ATOM     20  C   UNL     1     -35.896  -7.317  -4.015  1.00  0.00     0.004 C 
ENDBRANCH  18  19
ENDBRANCH  17  18
ENDBRANCH  16  17
ENDBRANCH  15  16
ENDBRANCH  14  15
ENDBRANCH  13  14
ENDBRANCH   2  13
TORSDOF 15
ENDMDL
MODEL 2
REMARK VINA RESULT:    -4.423      3.700      8.233
REMARK INTER + INTRA:          -9.708
REMARK INTER:                  -8.185
REMARK INTRA:                  -1.523
REMARK UNBOUND:                -1.406
REMARK SMILES CCCCCCCCC=CCCCCCCCC(=O)[O-]
REMARK SMILES IDX 10 1 9 2 11 3 12 4 13 5 14 6 15 7 16 8 17 9 18 10 19 11
REMARK SMILES IDX 20 12 8 13 7 14 6 15 5 16 4 17 3 18 2 19 1 20
REMARK H PARENT
REMARK Flexibility Score: inf
ROOT
ATOM      1  C   UNL     1     -35.339  -8.667   3.780  1.00  0.00    -0.031 C 
ATOM      2  C   UNL     1     -35.516  -9.538   4.791  1.00  0.00    -0.031 C 
ENDROOT
BRANCH   1   3
ATOM      3  C   UNL     1     -34.086  -7.857   3.549  1.00  0.00     0.027 C 
BRANCH   3   4
ATOM      4  C   UNL     1     -33.911  -7.468   2.074  1.00  0.00     0.004 C 
BRANCH   4   5
ATOM      5  C   UNL     1     -33.388  -8.639   1.222  1.00  0.00     0.000 C 
BRANCH   5   6
ATOM      6  C   UNL     1     -34.450  -9.174   0.249  1.00  0.00     0.000 C 
BRANCH   6   7
ATOM      7  C   UNL     1     -35.742  -8.341   0.283  1.00  0.00     0.000 C 
BRANCH   7   8
ATOM      8  C   UNL     1     -36.175  -7.862  -1.110  1.00  0.00     0.006 C 
BRANCH   8   9
ATOM      9  C   UNL     1     -34.986  -7.499  -2.009  1.00  0.00     0.053 C 
BRANCH   9  10
ATOM     10  C   UNL     1     -35.466  -6.891  -3.288  1.00  0.00     0.041 C 
ATOM     11  O   UNL     1     -35.209  -5.688  -3.555  1.00  0.00    -0.550 OA
ATOM     12  O   UNL     1     -36.238  -7.640  -4.164  1.00  0.00    -0.550 OA
ENDBRANCH   9  10
ENDBRANCH   8   9
ENDBRANCH   7   8
ENDBRANCH   6   7
ENDBRANCH   5   6
ENDBRANCH   4   5
ENDBRANCH   3   4
ENDBRANCH   1   3
BRANCH   2  13
ATOM     13  C   UNL     1     -34.459  -9.913   5.801  1.00  0.00     0.027 C 
BRANCH  13  14
ATOM     14  C   UNL     1     -34.545  -9.052   7.069  1.00  0.00     0.004 C 
BRANCH  14  15
ATOM     15  C   UNL     1     -35.995  -8.657   7.403  1.00  0.00     0.000 C 
BRANCH  15  16
ATOM     16  C   UNL     1     -36.171  -7.139   7.591  1.00  0.00     0.000 C 
BRANCH  16  17
ATOM     17  C   UNL     1     -35.355  -6.264   6.619  1.00  0.00    -0.000 C 
BRANCH  17  18
ATOM     18  C   UNL     1     -35.948  -4.869   6.337  1.00  0.00    -0.000 C 
BRANCH  18  19
ATOM     19  C   UNL     1     -35.287  -3.719   7.114  1.00  0.00    -0.003 C 
ATOM     20  C   UNL     1     -36.267  -2.969   8.014  1.00  0.00     0.004 C 
ENDBRANCH  18  19
ENDBRANCH  17  18
ENDBRANCH  16  17
ENDBRANCH  15  16
ENDBRANCH  14  15
ENDBRANCH  13  14
ENDBRANCH   2  13
TORSDOF 15
ENDMDL
MODEL 3
REMARK VINA RESULT:    -4.374      1.128      1.642
REMARK INTER + INTRA:          -9.616
REMARK INTER:                  -8.286
REMARK INTRA:                  -1.330
REMARK UNBOUND:                -1.406
REMARK SMILES CCCCCCCCC=CCCCCCCCC(=O)[O-]
REMARK SMILES IDX 10 1 9 2 11 3 12 4 13 5 14 6 15 7 16 8 17 9 18 10 19 11
REMARK SMILES IDX 20 12 8 13 7 14 6 15 5 16 4 17 3 18 2 19 1 20
REMARK H PARENT
REMARK Flexibility Score: inf
ROOT
ATOM      1  C   UNL     1     -34.280  -7.103   3.110  1.00  0.00    -0.031 C 
ATOM      2  C   UNL     1     -33.658  -7.384   1.949  1.00  0.00    -0.031 C 
ENDROOT
BRANCH   1   3
ATOM      3  C   UNL     1     -35.238  -8.028   3.821  1.00  0.00     0.027 C 
BRANCH   3   4
ATOM      4  C   UNL     1     -34.522  -8.937   4.831  1.00  0.00     0.004 C 
BRANCH   4   5
ATOM      5  C   UNL     1     -34.511  -8.335   6.248  1.00  0.00     0.000 C 
BRANCH   5   6
ATOM      6  C   UNL     1     -35.866  -8.486   6.957  1.00  0.00     0.000 C 
BRANCH   6   7
ATOM      7  C   UNL     1     -36.301  -7.190   7.662  1.00  0.00     0.000 C 
BRANCH   7   8
ATOM      8  C   UNL     1     -35.846  -5.927   6.915  1.00  0.00     0.006 C 
BRANCH   8   9
ATOM      9  C   UNL     1     -36.884  -4.799   6.969  1.00  0.00     0.053 C 
BRANCH   9  10
ATOM     10  C   UNL     1     -36.260  -3.540   7.479  1.00  0.00     0.041 C 
ATOM     11  O   UNL     1     -35.273  -3.034   6.882  1.00  0.00    -0.550 OA
ATOM     12  O   UNL     1     -36.738  -2.950   8.639  1.00  0.00    -0.550 OA
ENDBRANCH   9  10
ENDBRANCH   8   9
ENDBRANCH   7   8
ENDBRANCH   6   7
ENDBRANCH   5   6
ENDBRANCH   4   5
ENDBRANCH   3   4
ENDBRANCH   1   3
BRANCH   2  13
ATOM     13  C   UNL     1     -33.747  -8.704   1.222  1.00  0.00     0.027 C 
BRANCH  13  14
ATOM     14  C   UNL     1     -34.526  -8.583  -0.095  1.00  0.00     0.004 C 
BRANCH  14  15
ATOM     15  C   UNL     1     -36.048  -8.537   0.134  1.00  0.00     0.000 C 
BRANCH  15  16
ATOM     16  C   UNL     1     -36.852  -8.940  -1.116  1.00  0.00     0.000 C 
BRANCH  16  17
ATOM     17  C   UNL     1     -36.021  -9.081  -2.406  1.00  0.00    -0.000 C 
BRANCH  17  18
ATOM     18  C   UNL     1     -36.694  -8.538  -3.682  1.00  0.00    -0.000 C 
BRANCH  18  19
ATOM     19  C   UNL     1     -36.129  -7.200  -4.188  1.00  0.00    -0.003 C 
ATOM     20  C   UNL     1     -35.177  -6.541  -3.192  1.00  0.00     0.004 C 
ENDBRANCH  18  19
ENDBRANCH  17  18
ENDBRANCH  16  17
ENDBRANCH  15  16
ENDBRANCH  14  15
ENDBRANCH  13  14
ENDBRANCH   2  13
TORSDOF 15
ENDMDL
MODEL 4
REMARK VINA RESULT:    -4.353      1.191      1.699
REMARK INTER + INTRA:          -9.576
REMARK INTER:                  -7.898
REMARK INTRA:                  -1.678
REMARK UNBOUND:                -1.406
REMARK SMILES CCCCCCCCC=CCCCCCCCC(=O)[O-]
REMARK SMILES IDX 10 1 9 2 11 3 12 4 13 5 14 6 15 7 16 8 17 9 18 10 19 11
REMARK SMILES IDX 20 12 8 13 7 14 6 15 5 16 4 17 3 18 2 19 1 20
REMARK H PARENT
REMARK Flexibility Score: inf
ROOT
ATOM      1  C   UNL     1     -34.980  -7.450   3.925  1.00  0.00    -0.031 C 
ATOM      2  C   UNL     1     -34.093  -7.446   2.912  1.00  0.00    -0.031 C 
ENDROOT
BRANCH   1   3
ATOM      3  C   UNL     1     -35.413  -8.679   4.687  1.00  0.00     0.027 C 
BRANCH   3   4
ATOM      4  C   UNL     1     -34.384  -9.095   5.748  1.00  0.00     0.004 C 
BRANCH   4   5
ATOM      5  C   UNL     1     -34.854  -8.762   7.176  1.00  0.00     0.000 C 
BRANCH   5   6
ATOM      6  C   UNL     1     -36.361  -8.469   7.241  1.00  0.00     0.000 C 
BRANCH   6   7
ATOM      7  C   UNL     1     -36.661  -7.107   7.888  1.00  0.00     0.000 C 
BRANCH   7   8
ATOM      8  C   UNL     1     -35.949  -5.944   7.181  1.00  0.00     0.006 C 
BRANCH   8   9
ATOM      9  C   UNL     1     -36.791  -4.662   7.152  1.00  0.00     0.053 C 
BRANCH   9  10
ATOM     10  C   UNL     1     -36.037  -3.529   7.772  1.00  0.00     0.041 C 
ATOM     11  O   UNL     1     -34.784  -3.467   7.666  1.00  0.00    -0.550 OA
ATOM     12  O   UNL     1     -36.713  -2.567   8.507  1.00  0.00    -0.550 OA
ENDBRANCH   9  10
ENDBRANCH   8   9
ENDBRANCH   7   8
ENDBRANCH   6   7
ENDBRANCH   5   6
ENDBRANCH   4   5
ENDBRANCH   3   4
ENDBRANCH   1   3
BRANCH   2  13
ATOM     13  C   UNL     1     -33.321  -8.653   2.438  1.00  0.00     0.027 C 
BRANCH  13  14
ATOM     14  C   UNL     1     -33.736  -9.081   1.024  1.00  0.00     0.004 C 
BRANCH  14  15
ATOM     15  C   UNL     1     -34.927 -10.057   1.039  1.00  0.00     0.000 C 
BRANCH  15  16
ATOM     16  C   UNL     1     -36.273  -9.359   0.769  1.00  0.00     0.000 C 
BRANCH  16  17
ATOM     17  C   UNL     1     -36.570  -9.072  -0.717  1.00  0.00    -0.000 C 
BRANCH  17  18
ATOM     18  C   UNL     1     -36.158  -7.670  -1.208  1.00  0.00    -0.000 C 
BRANCH  18  19
ATOM     19  C   UNL     1     -35.046  -7.661  -2.270  1.00  0.00    -0.003 C 
ATOM     20  C   UNL     1     -34.532  -9.060  -2.605  1.00  0.00     0.004 C 
ENDBRANCH  18  19
ENDBRANCH  17  18
ENDBRANCH  16  17
ENDBRANCH  15  16
ENDBRANCH  14  15
ENDBRANCH  13  14
ENDBRANCH   2  13
TORSDOF 15
ENDMDL
MODEL 5
REMARK VINA RESULT:    -4.318      3.805      8.502
REMARK INTER + INTRA:          -9.511
REMARK INTER:                  -8.170
REMARK INTRA:                  -1.340
REMARK UNBOUND:                -1.406
REMARK SMILES CCCCCCCCC=CCCCCCCCC(=O)[O-]
REMARK SMILES IDX 10 1 9 2 11 3 12 4 13 5 14 6 15 7 16 8 17 9 18 10 19 11
REMARK SMILES IDX 20 12 8 13 7 14 6 15 5 16 4 17 3 18 2 19 1 20
REMARK H PARENT
REMARK Flexibility Score: inf
ROOT
ATOM      1  C   UNL     1     -33.763  -7.215   2.235  1.00  0.00    -0.031 C 
ATOM      2  C   UNL     1     -34.543  -7.095   3.326  1.00  0.00    -0.031 C 
ENDROOT
BRANCH   1   3
ATOM      3  C   UNL     1     -33.156  -8.509   1.747  1.00  0.00     0.027 C 
BRANCH   3   4
ATOM      4  C   UNL     1     -33.934  -9.104   0.566  1.00  0.00     0.004 C 
BRANCH   4   5
ATOM      5  C   UNL     1     -35.146  -9.935   1.028  1.00  0.00     0.000 C 
BRANCH   5   6
ATOM      6  C   UNL     1     -36.452  -9.486   0.354  1.00  0.00     0.000 C 
BRANCH   6   7
ATOM      7  C   UNL     1     -36.237  -8.295  -0.595  1.00  0.00     0.000 C 
BRANCH   7   8
ATOM      8  C   UNL     1     -36.404  -8.678  -2.073  1.00  0.00     0.006 C 
BRANCH   8   9
ATOM      9  C   UNL     1     -35.236  -8.199  -2.945  1.00  0.00     0.053 C 
BRANCH   9  10
ATOM     10  C   UNL     1     -35.621  -6.970  -3.704  1.00  0.00     0.041 C 
ATOM     11  O   UNL     1     -35.149  -5.849  -3.379  1.00  0.00    -0.550 OA
ATOM     12  O   UNL     1     -36.538  -7.055  -4.741  1.00  0.00    -0.550 OA
ENDBRANCH   9  10
ENDBRANCH   8   9
ENDBRANCH   7   8
ENDBRANCH   6   7
ENDBRANCH   5   6
ENDBRANCH   4   5
ENDBRANCH   3   4
ENDBRANCH   1   3
BRANCH   2  13
ATOM     13  C   UNL     1     -35.011  -8.247   4.182  1.00  0.00     0.027 C 
BRANCH  13  14
ATOM     14  C   UNL     1     -34.544  -8.107   5.638  1.00  0.00     0.004 C 
BRANCH  14  15
ATOM     15  C   UNL     1     -35.687  -8.358   6.638  1.00  0.00     0.000 C 
BRANCH  15  16
ATOM     16  C   UNL     1     -36.035  -7.111   7.472  1.00  0.00     0.000 C 
BRANCH  16  17
ATOM     17  C   UNL     1     -35.639  -5.767   6.829  1.00  0.00    -0.000 C 
BRANCH  17  18
ATOM     18  C   UNL     1     -36.608  -4.600   7.101  1.00  0.00    -0.000 C 
BRANCH  18  19
ATOM     19  C   UNL     1     -35.937  -3.307   7.592  1.00  0.00    -0.003 C 
ATOM     20  C   UNL     1     -36.655  -2.679   8.785  1.00  0.00     0.004 C 
ENDBRANCH  18  19
ENDBRANCH  17  18
ENDBRANCH  16  17
ENDBRANCH  15  16
ENDBRANCH  14  15
ENDBRANCH  13  14
ENDBRANCH   2  13
TORSDOF 15
ENDMDL
MODEL 6
REMARK VINA RESULT:    -4.275      3.879      8.408
REMARK INTER + INTRA:          -9.430
REMARK INTER:                  -7.797
REMARK INTRA:                  -1.632
REMARK UNBOUND:                -1.406
REMARK SMILES CCCCCCCCC=CCCCCCCCC(=O)[O-]
REMARK SMILES IDX 10 1 9 2 11 3 12 4 13 5 14 6 15 7 16 8 17 9 18 10 19 11
REMARK SMILES IDX 20 12 8 13 7 14 6 15 5 16 4 17 3 18 2 19 1 20
REMARK H PARENT
REMARK Flexibility Score: inf
ROOT
ATOM      1  C   UNL     1     -35.284  -8.470   3.273  1.00  0.00    -0.031 C 
ATOM      2  C   UNL     1     -35.497  -9.420   4.203  1.00  0.00    -0.031 C 
ENDROOT
BRANCH   1   3
ATOM      3  C   UNL     1     -33.988  -7.719   3.089  1.00  0.00     0.027 C 
BRANCH   3   4
ATOM      4  C   UNL     1     -33.529  -7.707   1.623  1.00  0.00     0.004 C 
BRANCH   4   5
ATOM      5  C   UNL     1     -32.805  -9.009   1.231  1.00  0.00     0.000 C 
BRANCH   5   6
ATOM      6  C   UNL     1     -33.576  -9.807   0.167  1.00  0.00     0.000 C 
BRANCH   6   7
ATOM      7  C   UNL     1     -34.650  -8.957  -0.532  1.00  0.00     0.000 C 
BRANCH   7   8
ATOM      8  C   UNL     1     -34.430  -8.853  -2.049  1.00  0.00     0.006 C 
BRANCH   8   9
ATOM      9  C   UNL     1     -34.938  -7.529  -2.633  1.00  0.00     0.053 C 
BRANCH   9  10
ATOM     10  C   UNL     1     -36.113  -7.770  -3.527  1.00  0.00     0.041 C 
ATOM     11  O   UNL     1     -36.915  -8.709  -3.281  1.00  0.00    -0.550 OA
ATOM     12  O   UNL     1     -36.294  -6.988  -4.657  1.00  0.00    -0.550 OA
ENDBRANCH   9  10
ENDBRANCH   8   9
ENDBRANCH   7   8
ENDBRANCH   6   7
ENDBRANCH   5   6
ENDBRANCH   4   5
ENDBRANCH   3   4
ENDBRANCH   1   3
BRANCH   2  13
ATOM     13  C   UNL     1     -34.447  -9.951   5.148  1.00  0.00     0.027 C 
BRANCH  13  14
ATOM     14  C   UNL     1     -34.420  -9.175   6.472  1.00  0.00     0.004 C 
BRANCH  14  15
ATOM     15  C   UNL     1     -35.829  -8.747   6.921  1.00  0.00     0.000 C 
BRANCH  15  16
ATOM     16  C   UNL     1     -35.920  -7.246   7.250  1.00  0.00     0.000 C 
BRANCH  16  17
ATOM     17  C   UNL     1     -35.167  -6.319   6.276  1.00  0.00    -0.000 C 
BRANCH  17  18
ATOM     18  C   UNL     1     -35.706  -4.877   6.193  1.00  0.00    -0.000 C 
BRANCH  18  19
ATOM     19  C   UNL     1     -36.694  -4.494   7.307  1.00  0.00    -0.003 C 
ATOM     20  C   UNL     1     -36.398  -3.127   7.921  1.00  0.00     0.004 C 
ENDBRANCH  18  19
ENDBRANCH  17  18
ENDBRANCH  16  17
ENDBRANCH  15  16
ENDBRANCH  14  15
ENDBRANCH  13  14
ENDBRANCH   2  13
TORSDOF 15
ENDMDL
MODEL 7
REMARK VINA RESULT:    -3.702      3.787      8.579
REMARK INTER + INTRA:          -8.354
REMARK INTER:                  -7.947
REMARK INTRA:                  -0.407
REMARK UNBOUND:                -1.406
REMARK SMILES CCCCCCCCC=CCCCCCCCC(=O)[O-]
REMARK SMILES IDX 10 1 9 2 11 3 12 4 13 5 14 6 15 7 16 8 17 9 18 10 19 11
REMARK SMILES IDX 20 12 8 13 7 14 6 15 5 16 4 17 3 18 2 19 1 20
REMARK H PARENT
REMARK Flexibility Score: inf
ROOT
ATOM      1  C   UNL     1     -34.134  -9.406   5.761  1.00  0.00    -0.031 C 
ATOM      2  C   UNL     1     -34.434  -8.842   6.946  1.00  0.00    -0.031 C 
ENDROOT
BRANCH   1   3
ATOM      3  C   UNL     1     -35.115  -9.613   4.631  1.00  0.00     0.027 C 
BRANCH   3   4
ATOM      4  C   UNL     1     -34.418 -10.039   3.331  1.00  0.00     0.004 C 
BRANCH   4   5
ATOM      5  C   UNL     1     -33.926  -8.832   2.512  1.00  0.00     0.000 C 
BRANCH   5   6
ATOM      6  C   UNL     1     -34.964  -8.364   1.480  1.00  0.00     0.000 C 
BRANCH   6   7
ATOM      7  C   UNL     1     -34.723  -8.982   0.093  1.00  0.00     0.000 C 
BRANCH   7   8
ATOM      8  C   UNL     1     -34.601  -7.925  -1.015  1.00  0.00     0.006 C 
BRANCH   8   9
ATOM      9  C   UNL     1     -35.928  -7.670  -1.740  1.00  0.00     0.053 C 
BRANCH   9  10
ATOM     10  C   UNL     1     -35.679  -7.080  -3.092  1.00  0.00     0.041 C 
ATOM     11  O   UNL     1     -34.855  -6.138  -3.231  1.00  0.00    -0.550 OA
ATOM     12  O   UNL     1     -36.390  -7.540  -4.190  1.00  0.00    -0.550 OA
ENDBRANCH   9  10
ENDBRANCH   8   9
ENDBRANCH   7   8
ENDBRANCH   6   7
ENDBRANCH   5   6
ENDBRANCH   4   5
ENDBRANCH   3   4
ENDBRANCH   1   3
BRANCH   2  13
ATOM     13  C   UNL     1     -35.773  -8.242   7.300  1.00  0.00     0.027 C 
BRANCH  13  14
ATOM     14  C   UNL     1     -35.825  -6.737   6.999  1.00  0.00     0.004 C 
BRANCH  14  15
ATOM     15  C   UNL     1     -35.259  -6.405   5.606  1.00  0.00     0.000 C 
BRANCH  15  16
ATOM     16  C   UNL     1     -34.799  -4.941   5.483  1.00  0.00     0.000 C 
BRANCH  16  17
ATOM     17  C   UNL     1     -34.737  -4.164   6.813  1.00  0.00    -0.000 C 
BRANCH  17  18
ATOM     18  C   UNL     1     -36.023  -3.402   7.188  1.00  0.00    -0.000 C 
BRANCH  18  19
ATOM     19  C   UNL     1     -35.891  -2.478   8.409  1.00  0.00    -0.003 C 
ATOM     20  C   UNL     1     -37.125  -2.502   9.310  1.00  0.00     0.004 C 
ENDBRANCH  18  19
ENDBRANCH  17  18
ENDBRANCH  16  17
ENDBRANCH  15  16
ENDBRANCH  14  15
ENDBRANCH  13  14
ENDBRANCH   2  13
TORSDOF 15
ENDMDL
MODEL 8
REMARK VINA RESULT:    -3.679      3.696      8.114
REMARK INTER + INTRA:          -8.312
REMARK INTER:                  -6.714
REMARK INTRA:                  -1.598
REMARK UNBOUND:                -1.406
REMARK SMILES CCCCCCCCC=CCCCCCCCC(=O)[O-]
REMARK SMILES IDX 10 1 9 2 11 3 12 4 13 5 14 6 15 7 16 8 17 9 18 10 19 11
REMARK SMILES IDX 20 12 8 13 7 14 6 15 5 16 4 17 3 18 2 19 1 20
REMARK H PARENT
REMARK Flexibility Score: inf
ROOT
ATOM      1  C   UNL     1     -34.143  -5.924   4.990  1.00  0.00    -0.031 C 
ATOM      2  C   UNL     1     -34.562  -5.027   5.902  1.00  0.00    -0.031 C 
ENDROOT
BRANCH   1   3
ATOM      3  C   UNL     1     -35.052  -6.778   4.140  1.00  0.00     0.027 C 
BRANCH   3   4
ATOM      4  C   UNL     1     -34.424  -7.115   2.780  1.00  0.00     0.004 C 
BRANCH   4   5
ATOM      5  C   UNL     1     -33.747  -8.498   2.780  1.00  0.00     0.000 C 
BRANCH   5   6
ATOM      6  C   UNL     1     -34.231  -9.386   1.622  1.00  0.00     0.000 C 
BRANCH   6   7
ATOM      7  C   UNL     1     -35.715  -9.151   1.291  1.00  0.00     0.000 C 
BRANCH   7   8
ATOM      8  C   UNL     1     -35.947  -8.826  -0.192  1.00  0.00     0.006 C 
BRANCH   8   9
ATOM      9  C   UNL     1     -34.776  -8.062  -0.823  1.00  0.00     0.053 C 
BRANCH   9  10
ATOM     10  C   UNL     1     -35.020  -7.847  -2.282  1.00  0.00     0.041 C 
ATOM     11  O   UNL     1     -34.754  -6.736  -2.813  1.00  0.00    -0.550 OA
ATOM     12  O   UNL     1     -35.584  -8.857  -3.046  1.00  0.00    -0.550 OA
ENDBRANCH   9  10
ENDBRANCH   8   9
ENDBRANCH   7   8
ENDBRANCH   6   7
ENDBRANCH   5   6
ENDBRANCH   4   5
ENDBRANCH   3   4
ENDBRANCH   1   3
BRANCH   2  13
ATOM     13  C   UNL     1     -36.005  -4.664   6.154  1.00  0.00     0.027 C 
BRANCH  13  14
ATOM     14  C   UNL     1     -36.439  -4.995   7.589  1.00  0.00     0.004 C 
BRANCH  14  15
ATOM     15  C   UNL     1     -37.121  -6.372   7.684  1.00  0.00     0.000 C 
BRANCH  15  16
ATOM     16  C   UNL     1     -36.114  -7.538   7.684  1.00  0.00     0.000 C 
BRANCH  16  17
ATOM     17  C   UNL     1     -36.738  -8.935   7.496  1.00  0.00    -0.000 C 
BRANCH  17  18
ATOM     18  C   UNL     1     -36.110  -9.788   6.376  1.00  0.00    -0.000 C 
BRANCH  18  19
ATOM     19  C   UNL     1     -34.600  -9.576   6.175  1.00  0.00    -0.003 C 
ATOM     20  C   UNL     1     -33.764 -10.124   7.330  1.00  0.00     0.004 C 
ENDBRANCH  18  19
ENDBRANCH  17  18
ENDBRANCH  16  17
ENDBRANCH  15  16
ENDBRANCH  14  15
ENDBRANCH  13  14
ENDBRANCH   2  13
TORSDOF 15
ENDMDL
MODEL 9
REMARK VINA RESULT:    -3.651      1.789      2.476
REMARK INTER + INTRA:          -8.260
REMARK INTER:                  -7.402
REMARK INTRA:                  -0.858
REMARK UNBOUND:                -1.406
REMARK SMILES CCCCCCCCC=CCCCCCCCC(=O)[O-]
REMARK SMILES IDX 10 1 9 2 11 3 12 4 13 5 14 6 15 7 16 8 17 9 18 10 19 11
REMARK SMILES IDX 20 12 8 13 7 14 6 15 5 16 4 17 3 18 2 19 1 20
REMARK H PARENT
REMARK Flexibility Score: inf
ROOT
ATOM      1  C   UNL     1     -33.842  -9.160   3.211  1.00  0.00    -0.031 C 
ATOM      2  C   UNL     1     -34.959  -9.849   2.909  1.00  0.00    -0.031 C 
ENDROOT
BRANCH   1   3
ATOM      3  C   UNL     1     -33.415  -7.874   2.544  1.00  0.00     0.027 C 
BRANCH   3   4
ATOM      4  C   UNL     1     -34.159  -6.655   3.109  1.00  0.00     0.004 C 
BRANCH   4   5
ATOM      5  C   UNL     1     -34.413  -6.780   4.622  1.00  0.00     0.000 C 
BRANCH   5   6
ATOM      6  C   UNL     1     -35.482  -5.793   5.118  1.00  0.00     0.000 C 
BRANCH   6   7
ATOM      7  C   UNL     1     -35.639  -5.825   6.647  1.00  0.00     0.000 C 
BRANCH   7   8
ATOM      8  C   UNL     1     -36.843  -5.006   7.137  1.00  0.00     0.006 C 
BRANCH   8   9
ATOM      9  C   UNL     1     -36.447  -3.911   8.136  1.00  0.00     0.053 C 
BRANCH   9  10
ATOM     10  C   UNL     1     -35.259  -3.154   7.636  1.00  0.00     0.041 C 
ATOM     11  O   UNL     1     -34.286  -2.922   8.401  1.00  0.00    -0.550 OA
ATOM     12  O   UNL     1     -35.246  -2.664   6.339  1.00  0.00    -0.550 OA
ENDBRANCH   9  10
ENDBRANCH   8   9
ENDBRANCH   7   8
ENDBRANCH   6   7
ENDBRANCH   5   6
ENDBRANCH   4   5
ENDBRANCH   3   4
ENDBRANCH   1   3
BRANCH   2  13
ATOM     13  C   UNL     1     -36.008  -9.398   1.922  1.00  0.00     0.027 C 
BRANCH  13  14
ATOM     14  C   UNL     1     -35.775  -9.990   0.525  1.00  0.00     0.004 C 
BRANCH  14  15
ATOM     15  C   UNL     1     -36.364  -9.101  -0.586  1.00  0.00     0.000 C 
BRANCH  15  16
ATOM     16  C   UNL     1     -35.450  -7.916  -0.949  1.00  0.00     0.000 C 
BRANCH  16  17
ATOM     17  C   UNL     1     -35.626  -7.374  -2.381  1.00  0.00    -0.000 C 
BRANCH  17  18
ATOM     18  C   UNL     1     -36.247  -8.365  -3.385  1.00  0.00    -0.000 C 
BRANCH  18  19
ATOM     19  C   UNL     1     -36.772  -7.725  -4.681  1.00  0.00    -0.003 C 
ATOM     20  C   UNL     1     -36.134  -6.368  -4.975  1.00  0.00     0.004 C 
ENDBRANCH  18  19
ENDBRANCH  17  18
ENDBRANCH  16  17
ENDBRANCH  15  16
ENDBRANCH  14  15
ENDBRANCH  13  14
ENDBRANCH   2  13
TORSDOF 15
ENDMDL
