MODEL 1
REMARK VINA RESULT:    -4.933      0.000      0.000
REMARK INTER + INTRA:         -15.531
REMARK INTER:                 -13.008
REMARK INTRA:                  -2.522
REMARK UNBOUND:                -2.522
REMARK SMILES CCCCCCCCCCCCCCCCCCCCCCCCCCCCCC(=O)[O-]
REMARK SMILES IDX 16 1 17 2 18 3 19 4 20 5 21 6 22 7 23 8 24 9 25 10 26 11
REMARK SMILES IDX 27 12 28 13 29 14 30 15 31 16 32 17 15 18 14 19 13 20 12 21
REMARK SMILES IDX 11 22 10 23 9 24 8 25 7 26 6 27 5 28 4 29 3 30 2 31 1 32
REMARK H PARENT
REMARK Flexibility Score: inf
ROOT
ATOM      1  C   UNL     1      -8.114   7.124  -6.981  1.00  0.00     0.000 C 
ENDROOT
BRANCH   1   2
ATOM      2  C   UNL     1      -9.276   6.484  -6.195  1.00  0.00     0.000 C 
BRANCH   2   3
ATOM      3  C   UNL     1     -10.357   5.788  -7.045  1.00  0.00     0.000 C 
BRANCH   3   4
ATOM      4  C   UNL     1     -10.914   4.480  -6.456  1.00  0.00     0.000 C 
BRANCH   4   5
ATOM      5  C   UNL     1     -10.751   4.377  -4.930  1.00  0.00     0.000 C 
BRANCH   5   6
ATOM      6  C   UNL     1     -10.327   2.973  -4.462  1.00  0.00     0.000 C 
BRANCH   6   7
ATOM      7  C   UNL     1     -10.330   1.895  -5.570  1.00  0.00     0.000 C 
BRANCH   7   8
ATOM      8  C   UNL     1      -9.818   0.498  -5.147  1.00  0.00     0.000 C 
BRANCH   8   9
ATOM      9  C   UNL     1      -9.572  -0.503  -6.295  1.00  0.00     0.000 C 
BRANCH   9  10
ATOM     10  C   UNL     1     -10.710  -0.613  -7.327  1.00  0.00     0.000 C 
BRANCH  10  11
ATOM     11  C   UNL     1     -10.186  -0.812  -8.760  1.00  0.00     0.000 C 
BRANCH  11  12
ATOM     12  C   UNL     1     -10.929   0.050  -9.793  1.00  0.00     0.000 C 
BRANCH  12  13
ATOM     13  C   UNL     1     -10.913   1.547  -9.444  1.00  0.00     0.006 C 
BRANCH  13  14
ATOM     14  C   UNL     1      -9.593   1.936  -8.770  1.00  0.00     0.053 C 
BRANCH  14  15
ATOM     15  C   UNL     1      -9.010   3.154  -9.415  1.00  0.00     0.041 C 
ATOM     16  O   UNL     1      -9.764   4.026  -9.923  1.00  0.00    -0.550 OA
ATOM     17  O   UNL     1      -7.630   3.306  -9.491  1.00  0.00    -0.550 OA
ENDBRANCH  14  15
ENDBRANCH  13  14
ENDBRANCH  12  13
ENDBRANCH  11  12
ENDBRANCH  10  11
ENDBRANCH   9  10
ENDBRANCH   8   9
ENDBRANCH   7   8
ENDBRANCH   6   7
ENDBRANCH   5   6
ENDBRANCH   4   5
ENDBRANCH   3   4
ENDBRANCH   2   3
ENDBRANCH   1   2
BRANCH   1  18
ATOM     18  C   UNL     1      -7.592   6.268  -8.155  1.00  0.00     0.000 C 
BRANCH  18  19
ATOM     19  C   UNL     1      -7.773   6.949  -9.525  1.00  0.00     0.000 C 
BRANCH  19  20
ATOM     20  C   UNL     1      -6.517   7.696 -10.005  1.00  0.00     0.000 C 
BRANCH  20  21
ATOM     21  C   UNL     1      -6.620   8.253 -11.439  1.00  0.00     0.000 C 
BRANCH  21  22
ATOM     22  C   UNL     1      -7.450   9.543 -11.523  1.00  0.00     0.000 C 
BRANCH  22  23
ATOM     23  C   UNL     1      -8.010   9.929 -10.145  1.00  0.00     0.000 C 
BRANCH  23  24
ATOM     24  C   UNL     1      -7.975  11.444  -9.873  1.00  0.00    -0.000 C 
BRANCH  24  25
ATOM     25  C   UNL     1      -7.042  11.883  -8.726  1.00  0.00    -0.000 C 
BRANCH  25  26
ATOM     26  C   UNL     1      -5.557  12.027  -9.114  1.00  0.00    -0.000 C 
BRANCH  26  27
ATOM     27  C   UNL     1      -4.774  10.702  -9.203  1.00  0.00    -0.000 C 
BRANCH  27  28
ATOM     28  C   UNL     1      -4.835   9.809  -7.945  1.00  0.00    -0.000 C 
BRANCH  28  29
ATOM     29  C   UNL     1      -3.493   9.617  -7.211  1.00  0.00    -0.000 C 
BRANCH  29  30
ATOM     30  C   UNL     1      -3.251   8.171  -6.717  1.00  0.00    -0.000 C 
BRANCH  30  31
ATOM     31  C   UNL     1      -4.117   7.128  -7.442  1.00  0.00    -0.003 C 
ATOM     32  C   UNL     1      -4.440   5.913  -6.569  1.00  0.00     0.004 C 
ENDBRANCH  30  31
ENDBRANCH  29  30
ENDBRANCH  28  29
ENDBRANCH  27  28
ENDBRANCH  26  27
ENDBRANCH  25  26
ENDBRANCH  24  25
ENDBRANCH  23  24
ENDBRANCH  22  23
ENDBRANCH  21  22
ENDBRANCH  20  21
ENDBRANCH  19  20
ENDBRANCH  18  19
ENDBRANCH   1  18
TORSDOF 28
ENDMDL
MODEL 2
REMARK VINA RESULT:    -4.651      2.594      7.065
REMARK INTER + INTRA:         -14.786
REMARK INTER:                 -11.968
REMARK INTRA:                  -2.818
REMARK UNBOUND:                -2.522
REMARK SMILES CCCCCCCCCCCCCCCCCCCCCCCCCCCCCC(=O)[O-]
REMARK SMILES IDX 16 1 17 2 18 3 19 4 20 5 21 6 22 7 23 8 24 9 25 10 26 11
REMARK SMILES IDX 27 12 28 13 29 14 30 15 31 16 32 17 15 18 14 19 13 20 12 21
REMARK SMILES IDX 11 22 10 23 9 24 8 25 7 26 6 27 5 28 4 29 3 30 2 31 1 32
REMARK H PARENT
REMARK Flexibility Score: inf
ROOT
ATOM      1  C   UNL     1     -10.854   2.445  -5.955  1.00  0.00     0.000 C 
ENDROOT
BRANCH   1   2
ATOM      2  C   UNL     1     -10.520   3.384  -4.780  1.00  0.00     0.000 C 
BRANCH   2   3
ATOM      3  C   UNL     1     -10.688   4.891  -5.057  1.00  0.00     0.000 C 
BRANCH   3   4
ATOM      4  C   UNL     1      -9.376   5.672  -5.251  1.00  0.00     0.000 C 
BRANCH   4   5
ATOM      5  C   UNL     1      -9.290   6.400  -6.603  1.00  0.00     0.000 C 
BRANCH   5   6
ATOM      6  C   UNL     1     -10.475   6.084  -7.534  1.00  0.00     0.000 C 
BRANCH   6   7
ATOM      7  C   UNL     1     -10.294   6.563  -8.993  1.00  0.00     0.000 C 
BRANCH   7   8
ATOM      8  C   UNL     1      -8.840   6.589  -9.515  1.00  0.00     0.000 C 
BRANCH   8   9
ATOM      9  C   UNL     1      -8.249   7.987  -9.792  1.00  0.00     0.000 C 
BRANCH   9  10
ATOM     10  C   UNL     1      -6.776   8.002 -10.240  1.00  0.00     0.000 C 
BRANCH  10  11
ATOM     11  C   UNL     1      -6.483   9.116 -11.260  1.00  0.00     0.000 C 
BRANCH  11  12
ATOM     12  C   UNL     1      -5.670  10.275 -10.660  1.00  0.00     0.000 C 
BRANCH  12  13
ATOM     13  C   UNL     1      -5.212  10.000  -9.219  1.00  0.00     0.006 C 
BRANCH  13  14
ATOM     14  C   UNL     1      -6.205  10.586  -8.210  1.00  0.00     0.053 C 
BRANCH  14  15
ATOM     15  C   UNL     1      -6.916  11.767  -8.794  1.00  0.00     0.041 C 
ATOM     16  O   UNL     1      -6.485  12.933  -8.589  1.00  0.00    -0.550 OA
ATOM     17  O   UNL     1      -8.080  11.581  -9.531  1.00  0.00    -0.550 OA
ENDBRANCH  14  15
ENDBRANCH  13  14
ENDBRANCH  12  13
ENDBRANCH  11  12
ENDBRANCH  10  11
ENDBRANCH   9  10
ENDBRANCH   8   9
ENDBRANCH   7   8
ENDBRANCH   6   7
ENDBRANCH   5   6
ENDBRANCH   4   5
ENDBRANCH   3   4
ENDBRANCH   2   3
ENDBRANCH   1   2
BRANCH   1  18
ATOM     18  C   UNL     1      -9.980   1.173  -6.023  1.00  0.00     0.000 C 
BRANCH  18  19
ATOM     19  C   UNL     1     -10.338   0.258  -7.209  1.00  0.00     0.000 C 
BRANCH  19  20
ATOM     20  C   UNL     1      -9.581   0.611  -8.501  1.00  0.00     0.000 C 
BRANCH  20  21
ATOM     21  C   UNL     1     -10.323   1.604  -9.418  1.00  0.00     0.000 C 
BRANCH  21  22
ATOM     22  C   UNL     1      -9.651   2.985  -9.472  1.00  0.00     0.000 C 
BRANCH  22  23
ATOM     23  C   UNL     1      -8.174   2.897  -9.059  1.00  0.00     0.000 C 
BRANCH  23  24
ATOM     24  C   UNL     1      -7.449   4.254  -9.089  1.00  0.00    -0.000 C 
BRANCH  24  25
ATOM     25  C   UNL     1      -5.913   4.181  -8.957  1.00  0.00    -0.000 C 
BRANCH  25  26
ATOM     26  C   UNL     1      -5.218   5.528  -8.682  1.00  0.00    -0.000 C 
BRANCH  26  27
ATOM     27  C   UNL     1      -5.558   6.174  -7.324  1.00  0.00    -0.000 C 
BRANCH  27  28
ATOM     28  C   UNL     1      -4.650   7.350  -6.903  1.00  0.00    -0.000 C 
BRANCH  28  29
ATOM     29  C   UNL     1      -3.159   6.997  -6.728  1.00  0.00    -0.000 C 
BRANCH  29  30
ATOM     30  C   UNL     1      -2.236   8.231  -6.593  1.00  0.00    -0.000 C 
BRANCH  30  31
ATOM     31  C   UNL     1      -1.107   8.037  -5.567  1.00  0.00    -0.003 C 
ATOM     32  C   UNL     1       0.122   8.899  -5.864  1.00  0.00     0.004 C 
ENDBRANCH  30  31
ENDBRANCH  29  30
ENDBRANCH  28  29
ENDBRANCH  27  28
ENDBRANCH  26  27
ENDBRANCH  25  26
ENDBRANCH  24  25
ENDBRANCH  23  24
ENDBRANCH  22  23
ENDBRANCH  21  22
ENDBRANCH  20  21
ENDBRANCH  19  20
ENDBRANCH  18  19
ENDBRANCH   1  18
TORSDOF 28
ENDMDL
MODEL 3
REMARK VINA RESULT:    -4.563      1.918      9.273
REMARK INTER + INTRA:         -14.554
REMARK INTER:                 -10.419
REMARK INTRA:                  -4.135
REMARK UNBOUND:                -2.522
REMARK SMILES CCCCCCCCCCCCCCCCCCCCCCCCCCCCCC(=O)[O-]
REMARK SMILES IDX 16 1 17 2 18 3 19 4 20 5 21 6 22 7 23 8 24 9 25 10 26 11
REMARK SMILES IDX 27 12 28 13 29 14 30 15 31 16 32 17 15 18 14 19 13 20 12 21
REMARK SMILES IDX 11 22 10 23 9 24 8 25 7 26 6 27 5 28 4 29 3 30 2 31 1 32
REMARK H PARENT
REMARK Flexibility Score: inf
ROOT
ATOM      1  C   UNL     1      -8.747   6.634  -6.112  1.00  0.00     0.000 C 
ENDROOT
BRANCH   1   2
ATOM      2  C   UNL     1      -7.750   6.580  -7.287  1.00  0.00     0.000 C 
BRANCH   2   3
ATOM      3  C   UNL     1      -7.614   7.874  -8.112  1.00  0.00     0.000 C 
BRANCH   3   4
ATOM      4  C   UNL     1      -7.756   7.700  -9.634  1.00  0.00     0.000 C 
BRANCH   4   5
ATOM      5  C   UNL     1      -8.558   8.825 -10.308  1.00  0.00     0.000 C 
BRANCH   5   6
ATOM      6  C   UNL     1      -7.728   9.636 -11.320  1.00  0.00     0.000 C 
BRANCH   6   7
ATOM      7  C   UNL     1      -6.230   9.255 -11.378  1.00  0.00     0.000 C 
BRANCH   7   8
ATOM      8  C   UNL     1      -5.288  10.104 -10.494  1.00  0.00     0.000 C 
BRANCH   8   9
ATOM      9  C   UNL     1      -5.945  11.289  -9.755  1.00  0.00     0.000 C 
BRANCH   9  10
ATOM     10  C   UNL     1      -5.489  11.491  -8.299  1.00  0.00     0.000 C 
BRANCH  10  11
ATOM     11  C   UNL     1      -5.452  10.172  -7.507  1.00  0.00     0.000 C 
BRANCH  11  12
ATOM     12  C   UNL     1      -4.054   9.845  -6.957  1.00  0.00     0.000 C 
BRANCH  12  13
ATOM     13  C   UNL     1      -3.377   8.682  -7.700  1.00  0.00     0.006 C 
BRANCH  13  14
ATOM     14  C   UNL     1      -4.255   7.427  -7.666  1.00  0.00     0.053 C 
BRANCH  14  15
ATOM     15  C   UNL     1      -3.696   6.417  -6.713  1.00  0.00     0.041 C 
ATOM     16  O   UNL     1      -2.557   6.589  -6.203  1.00  0.00    -0.550 OA
ATOM     17  O   UNL     1      -4.416   5.265  -6.422  1.00  0.00    -0.550 OA
ENDBRANCH  14  15
ENDBRANCH  13  14
ENDBRANCH  12  13
ENDBRANCH  11  12
ENDBRANCH  10  11
ENDBRANCH   9  10
ENDBRANCH   8   9
ENDBRANCH   7   8
ENDBRANCH   6   7
ENDBRANCH   5   6
ENDBRANCH   4   5
ENDBRANCH   3   4
ENDBRANCH   2   3
ENDBRANCH   1   2
BRANCH   1  18
ATOM     18  C   UNL     1     -10.227   6.736  -6.538  1.00  0.00     0.000 C 
BRANCH  18  19
ATOM     19  C   UNL     1     -11.099   5.602  -5.966  1.00  0.00     0.000 C 
BRANCH  19  20
ATOM     20  C   UNL     1     -10.416   4.225  -6.015  1.00  0.00     0.000 C 
BRANCH  20  21
ATOM     21  C   UNL     1     -10.737   3.315  -4.813  1.00  0.00     0.000 C 
BRANCH  21  22
ATOM     22  C   UNL     1      -9.925   2.010  -4.814  1.00  0.00     0.000 C 
BRANCH  22  23
ATOM     23  C   UNL     1     -10.577   0.957  -5.723  1.00  0.00     0.000 C 
BRANCH  23  24
ATOM     24  C   UNL     1      -9.568  -0.031  -6.335  1.00  0.00    -0.000 C 
BRANCH  24  25
ATOM     25  C   UNL     1      -9.959  -0.596  -7.717  1.00  0.00    -0.000 C 
BRANCH  25  26
ATOM     26  C   UNL     1     -11.075   0.179  -8.445  1.00  0.00    -0.000 C 
BRANCH  26  27
ATOM     27  C   UNL     1     -10.685   0.745  -9.824  1.00  0.00    -0.000 C 
BRANCH  27  28
ATOM     28  C   UNL     1     -10.787   2.280  -9.964  1.00  0.00    -0.000 C 
BRANCH  28  29
ATOM     29  C   UNL     1      -9.650   3.076  -9.292  1.00  0.00    -0.000 C 
BRANCH  29  30
ATOM     30  C   UNL     1      -9.700   4.597  -9.572  1.00  0.00    -0.000 C 
BRANCH  30  31
ATOM     31  C   UNL     1     -11.100   5.096  -9.966  1.00  0.00    -0.003 C 
ATOM     32  C   UNL     1     -11.116   6.576 -10.357  1.00  0.00     0.004 C 
ENDBRANCH  30  31
ENDBRANCH  29  30
ENDBRANCH  28  29
ENDBRANCH  27  28
ENDBRANCH  26  27
ENDBRANCH  25  26
ENDBRANCH  24  25
ENDBRANCH  23  24
ENDBRANCH  22  23
ENDBRANCH  21  22
ENDBRANCH  20  21
ENDBRANCH  19  20
ENDBRANCH  18  19
ENDBRANCH   1  18
TORSDOF 28
ENDMDL
MODEL 4
REMARK VINA RESULT:    -4.272      1.901      9.005
REMARK INTER + INTRA:         -13.787
REMARK INTER:                 -10.110
REMARK INTRA:                  -3.676
REMARK UNBOUND:                -2.522
REMARK SMILES CCCCCCCCCCCCCCCCCCCCCCCCCCCCCC(=O)[O-]
REMARK SMILES IDX 16 1 17 2 18 3 19 4 20 5 21 6 22 7 23 8 24 9 25 10 26 11
REMARK SMILES IDX 27 12 28 13 29 14 30 15 31 16 32 17 15 18 14 19 13 20 12 21
REMARK SMILES IDX 11 22 10 23 9 24 8 25 7 26 6 27 5 28 4 29 3 30 2 31 1 32
REMARK H PARENT
REMARK Flexibility Score: inf
ROOT
ATOM      1  C   UNL     1      -6.035   5.516  -8.714  1.00  0.00     0.000 C 
ENDROOT
BRANCH   1   2
ATOM      2  C   UNL     1      -5.925   6.169  -7.322  1.00  0.00     0.000 C 
BRANCH   2   3
ATOM      3  C   UNL     1      -4.687   5.776  -6.493  1.00  0.00     0.000 C 
BRANCH   3   4
ATOM      4  C   UNL     1      -3.530   6.791  -6.521  1.00  0.00     0.000 C 
BRANCH   4   5
ATOM      5  C   UNL     1      -3.267   7.381  -7.916  1.00  0.00     0.000 C 
BRANCH   5   6
ATOM      6  C   UNL     1      -3.523   8.898  -7.987  1.00  0.00     0.000 C 
BRANCH   6   7
ATOM      7  C   UNL     1      -4.739   9.386  -7.166  1.00  0.00     0.000 C 
BRANCH   7   8
ATOM      8  C   UNL     1      -5.145  10.862  -7.383  1.00  0.00     0.000 C 
BRANCH   8   9
ATOM      9  C   UNL     1      -4.809  11.455  -8.767  1.00  0.00     0.000 C 
BRANCH   9  10
ATOM     10  C   UNL     1      -5.812  12.497  -9.297  1.00  0.00     0.000 C 
BRANCH  10  11
ATOM     11  C   UNL     1      -7.249  12.223  -8.821  1.00  0.00     0.000 C 
BRANCH  11  12
ATOM     12  C   UNL     1      -8.122  11.568  -9.904  1.00  0.00     0.000 C 
BRANCH  12  13
ATOM     13  C   UNL     1      -8.203  10.040  -9.763  1.00  0.00     0.006 C 
BRANCH  13  14
ATOM     14  C   UNL     1      -7.987   9.355 -11.115  1.00  0.00     0.053 C 
BRANCH  14  15
ATOM     15  C   UNL     1      -6.526   9.179 -11.391  1.00  0.00     0.041 C 
ATOM     16  O   UNL     1      -5.759   8.742 -10.492  1.00  0.00    -0.550 OA
ATOM     17  O   UNL     1      -6.005   9.537 -12.628  1.00  0.00    -0.550 OA
ENDBRANCH  14  15
ENDBRANCH  13  14
ENDBRANCH  12  13
ENDBRANCH  11  12
ENDBRANCH  10  11
ENDBRANCH   9  10
ENDBRANCH   8   9
ENDBRANCH   7   8
ENDBRANCH   6   7
ENDBRANCH   5   6
ENDBRANCH   4   5
ENDBRANCH   3   4
ENDBRANCH   2   3
ENDBRANCH   1   2
BRANCH   1  18
ATOM     18  C   UNL     1      -7.231   6.010  -9.557  1.00  0.00     0.000 C 
BRANCH  18  19
ATOM     19  C   UNL     1      -8.398   6.533  -8.699  1.00  0.00     0.000 C 
BRANCH  19  20
ATOM     20  C   UNL     1      -9.780   6.113  -9.229  1.00  0.00     0.000 C 
BRANCH  20  21
ATOM     21  C   UNL     1     -10.926   6.281  -8.212  1.00  0.00     0.000 C 
BRANCH  21  22
ATOM     22  C   UNL     1     -11.124   5.044  -7.321  1.00  0.00     0.000 C 
BRANCH  22  23
ATOM     23  C   UNL     1     -10.491   5.256  -5.937  1.00  0.00     0.000 C 
BRANCH  23  24
ATOM     24  C   UNL     1     -11.061   4.320  -4.855  1.00  0.00    -0.000 C 
BRANCH  24  25
ATOM     25  C   UNL     1     -10.330   2.969  -4.705  1.00  0.00    -0.000 C 
BRANCH  25  26
ATOM     26  C   UNL     1     -10.689   1.913  -5.768  1.00  0.00    -0.000 C 
BRANCH  26  27
ATOM     27  C   UNL     1      -9.772   0.674  -5.793  1.00  0.00    -0.000 C 
BRANCH  27  28
ATOM     28  C   UNL     1     -10.174  -0.428  -6.797  1.00  0.00    -0.000 C 
BRANCH  28  29
ATOM     29  C   UNL     1     -11.082   0.037  -7.954  1.00  0.00    -0.000 C 
BRANCH  29  30
ATOM     30  C   UNL     1     -10.307   0.545  -9.193  1.00  0.00    -0.000 C 
BRANCH  30  31
ATOM     31  C   UNL     1     -10.289   2.077  -9.314  1.00  0.00    -0.003 C 
ATOM     32  C   UNL     1      -8.907   2.679  -9.050  1.00  0.00     0.004 C 
ENDBRANCH  30  31
ENDBRANCH  29  30
ENDBRANCH  28  29
ENDBRANCH  27  28
ENDBRANCH  26  27
ENDBRANCH  25  26
ENDBRANCH  24  25
ENDBRANCH  23  24
ENDBRANCH  22  23
ENDBRANCH  21  22
ENDBRANCH  20  21
ENDBRANCH  19  20
ENDBRANCH  18  19
ENDBRANCH   1  18
TORSDOF 28
ENDMDL
MODEL 5
REMARK VINA RESULT:    -4.083      2.781      9.221
REMARK INTER + INTRA:         -13.290
REMARK INTER:                 -10.849
REMARK INTRA:                  -2.441
REMARK UNBOUND:                -2.522
REMARK SMILES CCCCCCCCCCCCCCCCCCCCCCCCCCCCCC(=O)[O-]
REMARK SMILES IDX 16 1 17 2 18 3 19 4 20 5 21 6 22 7 23 8 24 9 25 10 26 11
REMARK SMILES IDX 27 12 28 13 29 14 30 15 31 16 32 17 15 18 14 19 13 20 12 21
REMARK SMILES IDX 11 22 10 23 9 24 8 25 7 26 6 27 5 28 4 29 3 30 2 31 1 32
REMARK H PARENT
REMARK Flexibility Score: inf
ROOT
ATOM      1  C   UNL     1      -7.601   7.081  -7.053  1.00  0.00     0.000 C 
ENDROOT
BRANCH   1   2
ATOM      2  C   UNL     1      -6.299   6.685  -7.777  1.00  0.00     0.000 C 
BRANCH   2   3
ATOM      3  C   UNL     1      -5.038   6.609  -6.895  1.00  0.00     0.000 C 
BRANCH   3   4
ATOM      4  C   UNL     1      -3.734   7.066  -7.573  1.00  0.00     0.000 C 
BRANCH   4   5
ATOM      5  C   UNL     1      -3.158   8.363  -6.984  1.00  0.00     0.000 C 
BRANCH   5   6
ATOM      6  C   UNL     1      -4.225   9.450  -6.758  1.00  0.00     0.000 C 
BRANCH   6   7
ATOM      7  C   UNL     1      -4.997   9.870  -8.030  1.00  0.00     0.000 C 
BRANCH   7   8
ATOM      8  C   UNL     1      -4.221   9.738  -9.360  1.00  0.00     0.000 C 
BRANCH   8   9
ATOM      9  C   UNL     1      -5.064   9.864 -10.646  1.00  0.00     0.000 C 
BRANCH   9  10
ATOM     10  C   UNL     1      -6.209   8.844 -10.784  1.00  0.00     0.000 C 
BRANCH  10  11
ATOM     11  C   UNL     1      -7.490   9.474 -11.360  1.00  0.00     0.000 C 
BRANCH  11  12
ATOM     12  C   UNL     1      -8.444   9.988 -10.270  1.00  0.00     0.000 C 
BRANCH  12  13
ATOM     13  C   UNL     1      -8.231  11.474  -9.943  1.00  0.00     0.006 C 
BRANCH  13  14
ATOM     14  C   UNL     1      -7.242  11.642  -8.785  1.00  0.00     0.053 C 
BRANCH  14  15
ATOM     15  C   UNL     1      -6.548  12.966  -8.871  1.00  0.00     0.041 C 
ATOM     16  O   UNL     1      -5.347  13.030  -9.243  1.00  0.00    -0.550 OA
ATOM     17  O   UNL     1      -7.218  14.126  -8.499  1.00  0.00    -0.550 OA
ENDBRANCH  14  15
ENDBRANCH  13  14
ENDBRANCH  12  13
ENDBRANCH  11  12
ENDBRANCH  10  11
ENDBRANCH   9  10
ENDBRANCH   8   9
ENDBRANCH   7   8
ENDBRANCH   6   7
ENDBRANCH   5   6
ENDBRANCH   4   5
ENDBRANCH   3   4
ENDBRANCH   2   3
ENDBRANCH   1   2
BRANCH   1  18
ATOM     18  C   UNL     1      -8.840   7.166  -7.972  1.00  0.00     0.000 C 
BRANCH  18  19
ATOM     19  C   UNL     1      -9.404   5.783  -8.351  1.00  0.00     0.000 C 
BRANCH  19  20
ATOM     20  C   UNL     1     -10.675   5.861  -9.215  1.00  0.00     0.000 C 
BRANCH  20  21
ATOM     21  C   UNL     1     -10.818   4.714 -10.235  1.00  0.00     0.000 C 
BRANCH  21  22
ATOM     22  C   UNL     1     -10.239   3.384  -9.727  1.00  0.00     0.000 C 
BRANCH  22  23
ATOM     23  C   UNL     1     -11.123   2.201 -10.150  1.00  0.00     0.000 C 
BRANCH  23  24
ATOM     24  C   UNL     1     -10.366   0.862 -10.206  1.00  0.00    -0.000 C 
BRANCH  24  25
ATOM     25  C   UNL     1      -9.612   0.481  -8.914  1.00  0.00    -0.000 C 
BRANCH  25  26
ATOM     26  C   UNL     1     -10.097  -0.815  -8.236  1.00  0.00    -0.000 C 
BRANCH  26  27
ATOM     27  C   UNL     1     -10.798  -0.619  -6.877  1.00  0.00    -0.000 C 
BRANCH  27  28
ATOM     28  C   UNL     1     -11.050   0.849  -6.467  1.00  0.00    -0.000 C 
BRANCH  28  29
ATOM     29  C   UNL     1      -9.943   1.488  -5.604  1.00  0.00    -0.000 C 
BRANCH  29  30
ATOM     30  C   UNL     1     -10.430   2.678  -4.744  1.00  0.00    -0.000 C 
BRANCH  30  31
ATOM     31  C   UNL     1     -10.788   3.923  -5.573  1.00  0.00    -0.003 C 
ATOM     32  C   UNL     1     -10.476   5.232  -4.845  1.00  0.00     0.004 C 
ENDBRANCH  30  31
ENDBRANCH  29  30
ENDBRANCH  28  29
ENDBRANCH  27  28
ENDBRANCH  26  27
ENDBRANCH  25  26
ENDBRANCH  24  25
ENDBRANCH  23  24
ENDBRANCH  22  23
ENDBRANCH  21  22
ENDBRANCH  20  21
ENDBRANCH  19  20
ENDBRANCH  18  19
ENDBRANCH   1  18
TORSDOF 28
ENDMDL
MODEL 6
REMARK VINA RESULT:    -4.012     13.703     16.877
REMARK INTER + INTRA:         -13.102
REMARK INTER:                 -10.271
REMARK INTRA:                  -2.831
REMARK UNBOUND:                -2.522
REMARK SMILES CCCCCCCCCCCCCCCCCCCCCCCCCCCCCC(=O)[O-]
REMARK SMILES IDX 16 1 17 2 18 3 19 4 20 5 21 6 22 7 23 8 24 9 25 10 26 11
REMARK SMILES IDX 27 12 28 13 29 14 30 15 31 16 32 17 15 18 14 19 13 20 12 21
REMARK SMILES IDX 11 22 10 23 9 24 8 25 7 26 6 27 5 28 4 29 3 30 2 31 1 32
REMARK H PARENT
REMARK Flexibility Score: inf
ROOT
ATOM      1  C   UNL     1      -0.278  13.973 -16.190  1.00  0.00     0.000 C 
ENDROOT
BRANCH   1   2
ATOM      2  C   UNL     1       0.337  14.115 -17.596  1.00  0.00     0.000 C 
BRANCH   2   3
ATOM      3  C   UNL     1       1.229  12.946 -18.059  1.00  0.00     0.000 C 
BRANCH   3   4
ATOM      4  C   UNL     1       2.735  13.257 -18.123  1.00  0.00     0.000 C 
BRANCH   4   5
ATOM      5  C   UNL     1       3.051  14.761 -18.125  1.00  0.00     0.000 C 
BRANCH   5   6
ATOM      6  C   UNL     1       2.899  15.411 -16.738  1.00  0.00     0.000 C 
BRANCH   6   7
ATOM      7  C   UNL     1       3.477  16.841 -16.628  1.00  0.00     0.000 C 
BRANCH   7   8
ATOM      8  C   UNL     1       2.518  17.985 -17.031  1.00  0.00     0.000 C 
BRANCH   8   9
ATOM      9  C   UNL     1       1.104  17.552 -17.472  1.00  0.00     0.000 C 
BRANCH   9  10
ATOM     10  C   UNL     1       0.069  18.688 -17.569  1.00  0.00     0.000 C 
BRANCH  10  11
ATOM     11  C   UNL     1      -1.376  18.163 -17.626  1.00  0.00     0.000 C 
BRANCH  11  12
ATOM     12  C   UNL     1      -1.723  17.240 -16.447  1.00  0.00     0.000 C 
BRANCH  12  13
ATOM     13  C   UNL     1      -3.237  17.066 -16.250  1.00  0.00     0.006 C 
BRANCH  13  14
ATOM     14  C   UNL     1      -4.004  17.499 -17.504  1.00  0.00     0.053 C 
BRANCH  14  15
ATOM     15  C   UNL     1      -5.297  16.753 -17.615  1.00  0.00     0.041 C 
ATOM     16  O   UNL     1      -6.392  17.374 -17.584  1.00  0.00    -0.550 OA
ATOM     17  O   UNL     1      -5.293  15.367 -17.711  1.00  0.00    -0.550 OA
ENDBRANCH  14  15
ENDBRANCH  13  14
ENDBRANCH  12  13
ENDBRANCH  11  12
ENDBRANCH  10  11
ENDBRANCH   9  10
ENDBRANCH   8   9
ENDBRANCH   7   8
ENDBRANCH   6   7
ENDBRANCH   5   6
ENDBRANCH   4   5
ENDBRANCH   3   4
ENDBRANCH   2   3
ENDBRANCH   1   2
BRANCH   1  18
ATOM     18  C   UNL     1       0.070  12.650 -15.473  1.00  0.00     0.000 C 
BRANCH  18  19
ATOM     19  C   UNL     1       1.244  12.790 -14.485  1.00  0.00     0.000 C 
BRANCH  19  20
ATOM     20  C   UNL     1       1.887  11.443 -14.110  1.00  0.00     0.000 C 
BRANCH  20  21
ATOM     21  C   UNL     1       1.802  10.372 -15.215  1.00  0.00     0.000 C 
BRANCH  21  22
ATOM     22  C   UNL     1       2.910  10.510 -16.270  1.00  0.00     0.000 C 
BRANCH  22  23
ATOM     23  C   UNL     1       4.282  10.153 -15.678  1.00  0.00     0.000 C 
BRANCH  23  24
ATOM     24  C   UNL     1       5.324  11.276 -15.829  1.00  0.00    -0.000 C 
BRANCH  24  25
ATOM     25  C   UNL     1       4.928  12.627 -15.199  1.00  0.00    -0.000 C 
BRANCH  25  26
ATOM     26  C   UNL     1       6.026  13.296 -14.349  1.00  0.00    -0.000 C 
BRANCH  26  27
ATOM     27  C   UNL     1       6.023  12.911 -12.857  1.00  0.00    -0.000 C 
BRANCH  27  28
ATOM     28  C   UNL     1       7.124  11.916 -12.426  1.00  0.00    -0.000 C 
BRANCH  28  29
ATOM     29  C   UNL     1       6.892  10.454 -12.857  1.00  0.00    -0.000 C 
BRANCH  29  30
ATOM     30  C   UNL     1       7.622   9.417 -11.972  1.00  0.00    -0.000 C 
BRANCH  30  31
ATOM     31  C   UNL     1       8.660  10.047 -11.028  1.00  0.00    -0.003 C 
ATOM     32  C   UNL     1       8.118  10.278  -9.617  1.00  0.00     0.004 C 
ENDBRANCH  30  31
ENDBRANCH  29  30
ENDBRANCH  28  29
ENDBRANCH  27  28
ENDBRANCH  26  27
ENDBRANCH  25  26
ENDBRANCH  24  25
ENDBRANCH  23  24
ENDBRANCH  22  23
ENDBRANCH  21  22
ENDBRANCH  20  21
ENDBRANCH  19  20
ENDBRANCH  18  19
ENDBRANCH   1  18
TORSDOF 28
ENDMDL
MODEL 7
REMARK VINA RESULT:    -3.934      1.860      3.349
REMARK INTER + INTRA:         -12.896
REMARK INTER:                  -9.902
REMARK INTRA:                  -2.994
REMARK UNBOUND:                -2.522
REMARK SMILES CCCCCCCCCCCCCCCCCCCCCCCCCCCCCC(=O)[O-]
REMARK SMILES IDX 16 1 17 2 18 3 19 4 20 5 21 6 22 7 23 8 24 9 25 10 26 11
REMARK SMILES IDX 27 12 28 13 29 14 30 15 31 16 32 17 15 18 14 19 13 20 12 21
REMARK SMILES IDX 11 22 10 23 9 24 8 25 7 26 6 27 5 28 4 29 3 30 2 31 1 32
REMARK H PARENT
REMARK Flexibility Score: inf
ROOT
ATOM      1  C   UNL     1      -6.563   6.763  -9.464  1.00  0.00     0.000 C 
ENDROOT
BRANCH   1   2
ATOM      2  C   UNL     1      -7.779   7.358  -8.726  1.00  0.00     0.000 C 
BRANCH   2   3
ATOM      3  C   UNL     1      -7.817   7.128  -7.203  1.00  0.00     0.000 C 
BRANCH   3   4
ATOM      4  C   UNL     1      -8.955   6.220  -6.705  1.00  0.00     0.000 C 
BRANCH   4   5
ATOM      5  C   UNL     1     -10.358   6.767  -7.016  1.00  0.00     0.000 C 
BRANCH   5   6
ATOM      6  C   UNL     1     -11.125   5.913  -8.042  1.00  0.00     0.000 C 
BRANCH   6   7
ATOM      7  C   UNL     1     -10.377   5.679  -9.375  1.00  0.00     0.000 C 
BRANCH   7   8
ATOM      8  C   UNL     1     -10.147   4.200  -9.763  1.00  0.00     0.000 C 
BRANCH   8   9
ATOM      9  C   UNL     1      -9.115   3.434  -8.910  1.00  0.00     0.000 C 
BRANCH   9  10
ATOM     10  C   UNL     1      -8.779   2.014  -9.402  1.00  0.00     0.000 C 
BRANCH  10  11
ATOM     11  C   UNL     1      -9.113   0.936  -8.357  1.00  0.00     0.000 C 
BRANCH  11  12
ATOM     12  C   UNL     1     -10.497   1.133  -7.717  1.00  0.00     0.000 C 
BRANCH  12  13
ATOM     13  C   UNL     1     -10.430   1.302  -6.191  1.00  0.00     0.006 C 
BRANCH  13  14
ATOM     14  C   UNL     1     -11.044   2.638  -5.762  1.00  0.00     0.053 C 
BRANCH  14  15
ATOM     15  C   UNL     1     -10.376   3.154  -4.525  1.00  0.00     0.041 C 
ATOM     16  O   UNL     1     -10.117   4.381  -4.408  1.00  0.00    -0.550 OA
ATOM     17  O   UNL     1     -10.000   2.270  -3.520  1.00  0.00    -0.550 OA
ENDBRANCH  14  15
ENDBRANCH  13  14
ENDBRANCH  12  13
ENDBRANCH  11  12
ENDBRANCH  10  11
ENDBRANCH   9  10
ENDBRANCH   8   9
ENDBRANCH   7   8
ENDBRANCH   6   7
ENDBRANCH   5   6
ENDBRANCH   4   5
ENDBRANCH   3   4
ENDBRANCH   2   3
ENDBRANCH   1   2
BRANCH   1  18
ATOM     18  C   UNL     1      -6.471   7.151 -10.956  1.00  0.00     0.000 C 
BRANCH  18  19
ATOM     19  C   UNL     1      -6.295   8.666 -11.175  1.00  0.00     0.000 C 
BRANCH  19  20
ATOM     20  C   UNL     1      -7.390   9.284 -12.061  1.00  0.00     0.000 C 
BRANCH  20  21
ATOM     21  C   UNL     1      -8.565   9.902 -11.277  1.00  0.00     0.000 C 
BRANCH  21  22
ATOM     22  C   UNL     1      -8.182  10.307  -9.845  1.00  0.00     0.000 C 
BRANCH  22  23
ATOM     23  C   UNL     1      -8.234  11.833  -9.671  1.00  0.00     0.000 C 
BRANCH  23  24
ATOM     24  C   UNL     1      -7.368  12.345  -8.507  1.00  0.00    -0.000 C 
BRANCH  24  25
ATOM     25  C   UNL     1      -6.228  13.304  -8.910  1.00  0.00    -0.000 C 
BRANCH  25  26
ATOM     26  C   UNL     1      -4.853  12.636  -9.105  1.00  0.00    -0.000 C 
BRANCH  26  27
ATOM     27  C   UNL     1      -4.858  11.379  -9.996  1.00  0.00    -0.000 C 
BRANCH  27  28
ATOM     28  C   UNL     1      -4.577  10.048  -9.266  1.00  0.00    -0.000 C 
BRANCH  28  29
ATOM     29  C   UNL     1      -4.490  10.147  -7.730  1.00  0.00    -0.000 C 
BRANCH  29  30
ATOM     30  C   UNL     1      -4.616   8.786  -7.006  1.00  0.00    -0.000 C 
BRANCH  30  31
ATOM     31  C   UNL     1      -3.567   7.757  -7.457  1.00  0.00    -0.003 C 
ATOM     32  C   UNL     1      -2.435   7.577  -6.443  1.00  0.00     0.004 C 
ENDBRANCH  30  31
ENDBRANCH  29  30
ENDBRANCH  28  29
ENDBRANCH  27  28
ENDBRANCH  26  27
ENDBRANCH  25  26
ENDBRANCH  24  25
ENDBRANCH  23  24
ENDBRANCH  22  23
ENDBRANCH  21  22
ENDBRANCH  20  21
ENDBRANCH  19  20
ENDBRANCH  18  19
ENDBRANCH   1  18
TORSDOF 28
ENDMDL
MODEL 8
REMARK VINA RESULT:    -3.926     14.135     17.727
REMARK INTER + INTRA:         -12.874
REMARK INTER:                 -10.350
REMARK INTRA:                  -2.524
REMARK UNBOUND:                -2.522
REMARK SMILES CCCCCCCCCCCCCCCCCCCCCCCCCCCCCC(=O)[O-]
REMARK SMILES IDX 16 1 17 2 18 3 19 4 20 5 21 6 22 7 23 8 24 9 25 10 26 11
REMARK SMILES IDX 27 12 28 13 29 14 30 15 31 16 32 17 15 18 14 19 13 20 12 21
REMARK SMILES IDX 11 22 10 23 9 24 8 25 7 26 6 27 5 28 4 29 3 30 2 31 1 32
REMARK H PARENT
REMARK Flexibility Score: inf
ROOT
ATOM      1  C   UNL     1      -0.645  13.570 -15.665  1.00  0.00     0.000 C 
ENDROOT
BRANCH   1   2
ATOM      2  C   UNL     1      -0.459  15.065 -15.996  1.00  0.00     0.000 C 
BRANCH   2   3
ATOM      3  C   UNL     1      -0.647  16.040 -14.818  1.00  0.00     0.000 C 
BRANCH   3   4
ATOM      4  C   UNL     1      -1.822  17.024 -14.962  1.00  0.00     0.000 C 
BRANCH   4   5
ATOM      5  C   UNL     1      -1.386  18.451 -15.333  1.00  0.00     0.000 C 
BRANCH   5   6
ATOM      6  C   UNL     1      -1.495  18.743 -16.840  1.00  0.00     0.000 C 
BRANCH   6   7
ATOM      7  C   UNL     1      -0.144  18.994 -17.549  1.00  0.00     0.000 C 
BRANCH   7   8
ATOM      8  C   UNL     1       0.554  17.740 -18.124  1.00  0.00     0.000 C 
BRANCH   8   9
ATOM      9  C   UNL     1       2.011  17.513 -17.670  1.00  0.00     0.000 C 
BRANCH   9  10
ATOM     10  C   UNL     1       2.407  16.043 -17.441  1.00  0.00     0.000 C 
BRANCH  10  11
ATOM     11  C   UNL     1       3.867  15.893 -16.978  1.00  0.00     0.000 C 
BRANCH  11  12
ATOM     12  C   UNL     1       4.303  14.425 -16.844  1.00  0.00     0.000 C 
BRANCH  12  13
ATOM     13  C   UNL     1       5.404  14.035 -17.842  1.00  0.00     0.006 C 
BRANCH  13  14
ATOM     14  C   UNL     1       6.596  13.399 -17.120  1.00  0.00     0.053 C 
BRANCH  14  15
ATOM     15  C   UNL     1       6.819  14.054 -15.792  1.00  0.00     0.041 C 
ATOM     16  O   UNL     1       6.583  13.424 -14.727  1.00  0.00    -0.550 OA
ATOM     17  O   UNL     1       7.249  15.374 -15.733  1.00  0.00    -0.550 OA
ENDBRANCH  14  15
ENDBRANCH  13  14
ENDBRANCH  12  13
ENDBRANCH  11  12
ENDBRANCH  10  11
ENDBRANCH   9  10
ENDBRANCH   8   9
ENDBRANCH   7   8
ENDBRANCH   6   7
ENDBRANCH   5   6
ENDBRANCH   4   5
ENDBRANCH   3   4
ENDBRANCH   2   3
ENDBRANCH   1   2
BRANCH   1  18
ATOM     18  C   UNL     1       0.587  12.692 -15.974  1.00  0.00     0.000 C 
BRANCH  18  19
ATOM     19  C   UNL     1       1.274  12.150 -14.706  1.00  0.00     0.000 C 
BRANCH  19  20
ATOM     20  C   UNL     1       1.914  10.765 -14.905  1.00  0.00     0.000 C 
BRANCH  20  21
ATOM     21  C   UNL     1       2.806  10.654 -16.157  1.00  0.00     0.000 C 
BRANCH  21  22
ATOM     22  C   UNL     1       4.243  11.142 -15.915  1.00  0.00     0.000 C 
BRANCH  22  23
ATOM     23  C   UNL     1       4.792  10.600 -14.587  1.00  0.00     0.000 C 
BRANCH  23  24
ATOM     24  C   UNL     1       6.102   9.807 -14.745  1.00  0.00    -0.000 C 
BRANCH  24  25
ATOM     25  C   UNL     1       6.708   9.272 -13.431  1.00  0.00    -0.000 C 
BRANCH  25  26
ATOM     26  C   UNL     1       7.293  10.349 -12.497  1.00  0.00    -0.000 C 
BRANCH  26  27
ATOM     27  C   UNL     1       8.126   9.810 -11.318  1.00  0.00    -0.000 C 
BRANCH  27  28
ATOM     28  C   UNL     1       8.906  10.873 -10.515  1.00  0.00    -0.000 C 
BRANCH  28  29
ATOM     29  C   UNL     1       9.106  12.223 -11.235  1.00  0.00    -0.000 C 
BRANCH  29  30
ATOM     30  C   UNL     1       8.278  13.382 -10.631  1.00  0.00    -0.000 C 
BRANCH  30  31
ATOM     31  C   UNL     1       9.125  14.618 -10.286  1.00  0.00    -0.003 C 
ATOM     32  C   UNL     1       8.943  15.763 -11.285  1.00  0.00     0.004 C 
ENDBRANCH  30  31
ENDBRANCH  29  30
ENDBRANCH  28  29
ENDBRANCH  27  28
ENDBRANCH  26  27
ENDBRANCH  25  26
ENDBRANCH  24  25
ENDBRANCH  23  24
ENDBRANCH  22  23
ENDBRANCH  21  22
ENDBRANCH  20  21
ENDBRANCH  19  20
ENDBRANCH  18  19
ENDBRANCH   1  18
TORSDOF 28
ENDMDL
MODEL 9
REMARK VINA RESULT:    -3.855      2.774      8.892
REMARK INTER + INTRA:         -12.689
REMARK INTER:                  -9.522
REMARK INTRA:                  -3.167
REMARK UNBOUND:                -2.522
REMARK SMILES CCCCCCCCCCCCCCCCCCCCCCCCCCCCCC(=O)[O-]
REMARK SMILES IDX 16 1 17 2 18 3 19 4 20 5 21 6 22 7 23 8 24 9 25 10 26 11
REMARK SMILES IDX 27 12 28 13 29 14 30 15 31 16 32 17 15 18 14 19 13 20 12 21
REMARK SMILES IDX 11 22 10 23 9 24 8 25 7 26 6 27 5 28 4 29 3 30 2 31 1 32
REMARK H PARENT
REMARK Flexibility Score: inf
ROOT
ATOM      1  C   UNL     1      -8.853   6.701  -5.994  1.00  0.00     0.000 C 
ENDROOT
BRANCH   1   2
ATOM      2  C   UNL     1      -7.809   6.992  -7.091  1.00  0.00     0.000 C 
BRANCH   2   3
ATOM      3  C   UNL     1      -8.085   8.229  -7.968  1.00  0.00     0.000 C 
BRANCH   3   4
ATOM      4  C   UNL     1      -8.267   7.941  -9.468  1.00  0.00     0.000 C 
BRANCH   4   5
ATOM      5  C   UNL     1      -8.676   9.178 -10.285  1.00  0.00     0.000 C 
BRANCH   5   6
ATOM      6  C   UNL     1      -7.586   9.638 -11.270  1.00  0.00     0.000 C 
BRANCH   6   7
ATOM      7  C   UNL     1      -6.211   8.960 -11.074  1.00  0.00     0.000 C 
BRANCH   7   8
ATOM      8  C   UNL     1      -5.085   9.871 -10.534  1.00  0.00     0.000 C 
BRANCH   8   9
ATOM      9  C   UNL     1      -5.515  10.926  -9.494  1.00  0.00     0.000 C 
BRANCH   9  10
ATOM     10  C   UNL     1      -5.113  10.618  -8.040  1.00  0.00     0.000 C 
BRANCH  10  11
ATOM     11  C   UNL     1      -4.992   9.108  -7.772  1.00  0.00     0.000 C 
BRANCH  11  12
ATOM     12  C   UNL     1      -3.593   8.555  -8.087  1.00  0.00     0.000 C 
BRANCH  12  13
ATOM     13  C   UNL     1      -2.845   8.073  -6.834  1.00  0.00     0.006 C 
BRANCH  13  14
ATOM     14  C   UNL     1      -1.838   9.126  -6.361  1.00  0.00     0.053 C 
BRANCH  14  15
ATOM     15  C   UNL     1      -0.624   8.472  -5.778  1.00  0.00     0.041 C 
ATOM     16  O   UNL     1       0.520   8.955  -5.988  1.00  0.00    -0.550 OA
ATOM     17  O   UNL     1      -0.753   7.303  -5.038  1.00  0.00    -0.550 OA
ENDBRANCH  14  15
ENDBRANCH  13  14
ENDBRANCH  12  13
ENDBRANCH  11  12
ENDBRANCH  10  11
ENDBRANCH   9  10
ENDBRANCH   8   9
ENDBRANCH   7   8
ENDBRANCH   6   7
ENDBRANCH   5   6
ENDBRANCH   4   5
ENDBRANCH   3   4
ENDBRANCH   2   3
ENDBRANCH   1   2
BRANCH   1  18
ATOM     18  C   UNL     1     -10.242   6.293  -6.528  1.00  0.00     0.000 C 
BRANCH  18  19
ATOM     19  C   UNL     1     -10.958   5.268  -5.628  1.00  0.00     0.000 C 
BRANCH  19  20
ATOM     20  C   UNL     1     -10.995   3.852  -6.227  1.00  0.00     0.000 C 
BRANCH  20  21
ATOM     21  C   UNL     1     -10.594   2.737  -5.241  1.00  0.00     0.000 C 
BRANCH  21  22
ATOM     22  C   UNL     1     -10.026   1.493  -5.942  1.00  0.00     0.000 C 
BRANCH  22  23
ATOM     23  C   UNL     1     -10.996   0.973  -7.014  1.00  0.00     0.000 C 
BRANCH  23  24
ATOM     24  C   UNL     1     -10.304   0.616  -8.342  1.00  0.00    -0.000 C 
BRANCH  24  25
ATOM     25  C   UNL     1     -10.869   1.329  -9.589  1.00  0.00    -0.000 C 
BRANCH  25  26
ATOM     26  C   UNL     1     -11.097   2.844  -9.424  1.00  0.00    -0.000 C 
BRANCH  26  27
ATOM     27  C   UNL     1      -9.930   3.735  -9.893  1.00  0.00    -0.000 C 
BRANCH  27  28
ATOM     28  C   UNL     1      -8.627   3.604  -9.076  1.00  0.00    -0.000 C 
BRANCH  28  29
ATOM     29  C   UNL     1      -7.547   4.660  -9.388  1.00  0.00    -0.000 C 
BRANCH  29  30
ATOM     30  C   UNL     1      -6.108   4.203  -9.053  1.00  0.00    -0.000 C 
BRANCH  30  31
ATOM     31  C   UNL     1      -5.190   5.355  -8.614  1.00  0.00    -0.003 C 
ATOM     32  C   UNL     1      -4.923   5.362  -7.107  1.00  0.00     0.004 C 
ENDBRANCH  30  31
ENDBRANCH  29  30
ENDBRANCH  28  29
ENDBRANCH  27  28
ENDBRANCH  26  27
ENDBRANCH  25  26
ENDBRANCH  24  25
ENDBRANCH  23  24
ENDBRANCH  22  23
ENDBRANCH  21  22
ENDBRANCH  20  21
ENDBRANCH  19  20
ENDBRANCH  18  19
ENDBRANCH   1  18
TORSDOF 28
ENDMDL
