MODEL 1
REMARK VINA RESULT:    -3.151      0.000      0.000
REMARK INTER + INTRA:         -11.323
REMARK INTER:                  -7.941
REMARK INTRA:                  -3.382
REMARK UNBOUND:                -3.382
REMARK SMILES CCCCCCCCCCCCCCCCCCCCCCCCCCCC(=O)[O-]
REMARK SMILES IDX 15 1 16 2 17 3 18 4 19 5 20 6 21 7 22 8 23 9 24 10 25 11
REMARK SMILES IDX 26 12 27 13 28 14 29 15 30 16 14 17 13 18 12 19 11 20 10 21
REMARK SMILES IDX 9 22 8 23 7 24 6 25 5 26 4 27 3 28 2 29 1 30
REMARK H PARENT
REMARK Flexibility Score: inf
ROOT
ATOM      1  C   UNL     1     -21.239   7.054   9.702  1.00  0.00     0.000 C 
ENDROOT
BRANCH   1   2
ATOM      2  C   UNL     1     -19.736   7.243   9.967  1.00  0.00     0.000 C 
BRANCH   2   3
ATOM      3  C   UNL     1     -18.861   6.396   9.029  1.00  0.00     0.000 C 
BRANCH   3   4
ATOM      4  C   UNL     1     -19.725   5.582   8.052  1.00  0.00     0.000 C 
BRANCH   4   5
ATOM      5  C   UNL     1     -19.114   5.499   6.643  1.00  0.00     0.000 C 
BRANCH   5   6
ATOM      6  C   UNL     1     -18.769   6.854   5.993  1.00  0.00     0.000 C 
BRANCH   6   7
ATOM      7  C   UNL     1     -19.050   6.915   4.477  1.00  0.00     0.000 C 
BRANCH   7   8
ATOM      8  C   UNL     1     -20.104   5.889   4.029  1.00  0.00     0.000 C 
BRANCH   8   9
ATOM      9  C   UNL     1     -21.112   6.515   3.060  1.00  0.00     0.000 C 
BRANCH   9  10
ATOM     10  C   UNL     1     -20.434   7.560   2.159  1.00  0.00     0.000 C 
BRANCH  10  11
ATOM     11  C   UNL     1     -20.277   7.088   0.702  1.00  0.00     0.000 C 
BRANCH  11  12
ATOM     12  C   UNL     1     -21.270   5.995   0.261  1.00  0.00     0.006 C 
BRANCH  12  13
ATOM     13  C   UNL     1     -22.266   6.441  -0.821  1.00  0.00     0.053 C 
BRANCH  13  14
ATOM     14  C   UNL     1     -21.807   6.071  -2.199  1.00  0.00     0.041 C 
ATOM     15  O   UNL     1     -21.248   6.930  -2.933  1.00  0.00    -0.550 OA
ATOM     16  O   UNL     1     -21.985   4.775  -2.668  1.00  0.00    -0.550 OA
ENDBRANCH  13  14
ENDBRANCH  12  13
ENDBRANCH  11  12
ENDBRANCH  10  11
ENDBRANCH   9  10
ENDBRANCH   8   9
ENDBRANCH   7   8
ENDBRANCH   6   7
ENDBRANCH   5   6
ENDBRANCH   4   5
ENDBRANCH   3   4
ENDBRANCH   2   3
ENDBRANCH   1   2
BRANCH   1  17
ATOM     17  C   UNL     1     -22.106   8.009  10.536  1.00  0.00     0.000 C 
BRANCH  17  18
ATOM     18  C   UNL     1     -21.809   7.857  12.037  1.00  0.00     0.000 C 
BRANCH  18  19
ATOM     19  C   UNL     1     -23.067   7.542  12.864  1.00  0.00     0.000 C 
BRANCH  19  20
ATOM     20  C   UNL     1     -24.007   6.543  12.166  1.00  0.00     0.000 C 
BRANCH  20  21
ATOM     21  C   UNL     1     -23.868   5.111  12.713  1.00  0.00     0.000 C 
BRANCH  21  22
ATOM     22  C   UNL     1     -22.548   4.401  12.348  1.00  0.00    -0.000 C 
BRANCH  22  23
ATOM     23  C   UNL     1     -22.538   3.703  10.974  1.00  0.00    -0.000 C 
BRANCH  23  24
ATOM     24  C   UNL     1     -22.490   2.166  11.028  1.00  0.00    -0.000 C 
BRANCH  24  25
ATOM     25  C   UNL     1     -21.986   1.537   9.717  1.00  0.00    -0.000 C 
BRANCH  25  26
ATOM     26  C   UNL     1     -20.786   2.293   9.126  1.00  0.00    -0.000 C 
BRANCH  26  27
ATOM     27  C   UNL     1     -19.458   1.546   9.341  1.00  0.00    -0.000 C 
BRANCH  27  28
ATOM     28  C   UNL     1     -18.813   1.883  10.702  1.00  0.00    -0.000 C 
BRANCH  28  29
ATOM     29  C   UNL     1     -18.873   3.379  11.057  1.00  0.00    -0.003 C 
ATOM     30  C   UNL     1     -18.900   3.636  12.563  1.00  0.00     0.004 C 
ENDBRANCH  28  29
ENDBRANCH  27  28
ENDBRANCH  26  27
ENDBRANCH  25  26
ENDBRANCH  24  25
ENDBRANCH  23  24
ENDBRANCH  22  23
ENDBRANCH  21  22
ENDBRANCH  20  21
ENDBRANCH  19  20
ENDBRANCH  18  19
ENDBRANCH  17  18
ENDBRANCH   1  17
TORSDOF 26
ENDMDL
MODEL 2
REMARK VINA RESULT:    -3.090      1.268      3.891
REMARK INTER + INTRA:         -11.169
REMARK INTER:                  -7.892
REMARK INTRA:                  -3.277
REMARK UNBOUND:                -3.382
REMARK SMILES CCCCCCCCCCCCCCCCCCCCCCCCCCCC(=O)[O-]
REMARK SMILES IDX 15 1 16 2 17 3 18 4 19 5 20 6 21 7 22 8 23 9 24 10 25 11
REMARK SMILES IDX 26 12 27 13 28 14 29 15 30 16 14 17 13 18 12 19 11 20 10 21
REMARK SMILES IDX 9 22 8 23 7 24 6 25 5 26 4 27 3 28 2 29 1 30
REMARK H PARENT
REMARK Flexibility Score: inf
ROOT
ATOM      1  C   UNL     1     -20.412   2.869   7.961  1.00  0.00     0.000 C 
ENDROOT
BRANCH   1   2
ATOM      2  C   UNL     1     -19.026   3.327   7.477  1.00  0.00     0.000 C 
BRANCH   2   3
ATOM      3  C   UNL     1     -18.990   3.598   5.964  1.00  0.00     0.000 C 
BRANCH   3   4
ATOM      4  C   UNL     1     -18.369   4.972   5.664  1.00  0.00     0.000 C 
BRANCH   4   5
ATOM      5  C   UNL     1     -19.391   6.119   5.743  1.00  0.00     0.000 C 
BRANCH   5   6
ATOM      6  C   UNL     1     -19.060   7.357   4.886  1.00  0.00     0.000 C 
BRANCH   6   7
ATOM      7  C   UNL     1     -19.327   7.169   3.378  1.00  0.00     0.000 C 
BRANCH   7   8
ATOM      8  C   UNL     1     -20.826   7.175   3.037  1.00  0.00     0.000 C 
BRANCH   8   9
ATOM      9  C   UNL     1     -21.085   6.550   1.663  1.00  0.00     0.000 C 
BRANCH   9  10
ATOM     10  C   UNL     1     -20.017   6.989   0.647  1.00  0.00     0.000 C 
BRANCH  10  11
ATOM     11  C   UNL     1     -19.713   5.914  -0.411  1.00  0.00     0.000 C 
BRANCH  11  12
ATOM     12  C   UNL     1     -19.848   6.383  -1.873  1.00  0.00     0.006 C 
BRANCH  12  13
ATOM     13  C   UNL     1     -21.298   6.570  -2.348  1.00  0.00     0.053 C 
BRANCH  13  14
ATOM     14  C   UNL     1     -22.014   5.264  -2.506  1.00  0.00     0.041 C 
ATOM     15  O   UNL     1     -21.635   4.433  -3.376  1.00  0.00    -0.550 OA
ATOM     16  O   UNL     1     -23.092   4.956  -1.684  1.00  0.00    -0.550 OA
ENDBRANCH  13  14
ENDBRANCH  12  13
ENDBRANCH  11  12
ENDBRANCH  10  11
ENDBRANCH   9  10
ENDBRANCH   8   9
ENDBRANCH   7   8
ENDBRANCH   6   7
ENDBRANCH   5   6
ENDBRANCH   4   5
ENDBRANCH   3   4
ENDBRANCH   2   3
ENDBRANCH   1   2
BRANCH   1  17
ATOM     17  C   UNL     1     -20.395   2.388   9.419  1.00  0.00     0.000 C 
BRANCH  17  18
ATOM     18  C   UNL     1     -21.688   1.632   9.767  1.00  0.00     0.000 C 
BRANCH  18  19
ATOM     19  C   UNL     1     -22.403   2.212  11.000  1.00  0.00     0.000 C 
BRANCH  19  20
ATOM     20  C   UNL     1     -21.558   3.260  11.744  1.00  0.00     0.000 C 
BRANCH  20  21
ATOM     21  C   UNL     1     -22.411   4.225  12.586  1.00  0.00     0.000 C 
BRANCH  21  22
ATOM     22  C   UNL     1     -23.684   4.746  11.889  1.00  0.00    -0.000 C 
BRANCH  22  23
ATOM     23  C   UNL     1     -24.334   5.979  12.546  1.00  0.00    -0.000 C 
BRANCH  23  24
ATOM     24  C   UNL     1     -23.943   7.329  11.918  1.00  0.00    -0.000 C 
BRANCH  24  25
ATOM     25  C   UNL     1     -22.773   8.011  12.648  1.00  0.00    -0.000 C 
BRANCH  25  26
ATOM     26  C   UNL     1     -21.413   7.689  12.010  1.00  0.00    -0.000 C 
BRANCH  26  27
ATOM     27  C   UNL     1     -21.462   7.732  10.472  1.00  0.00    -0.000 C 
BRANCH  27  28
ATOM     28  C   UNL     1     -21.011   6.399   9.838  1.00  0.00    -0.000 C 
BRANCH  28  29
ATOM     29  C   UNL     1     -19.500   6.333   9.553  1.00  0.00    -0.003 C 
ATOM     30  C   UNL     1     -18.738   5.472  10.558  1.00  0.00     0.004 C 
ENDBRANCH  28  29
ENDBRANCH  27  28
ENDBRANCH  26  27
ENDBRANCH  25  26
ENDBRANCH  24  25
ENDBRANCH  23  24
ENDBRANCH  22  23
ENDBRANCH  21  22
ENDBRANCH  20  21
ENDBRANCH  19  20
ENDBRANCH  18  19
ENDBRANCH  17  18
ENDBRANCH   1  17
TORSDOF 26
ENDMDL
MODEL 3
REMARK VINA RESULT:    -3.061      1.271      2.619
REMARK INTER + INTRA:         -11.097
REMARK INTER:                  -7.856
REMARK INTRA:                  -3.241
REMARK UNBOUND:                -3.382
REMARK SMILES CCCCCCCCCCCCCCCCCCCCCCCCCCCC(=O)[O-]
REMARK SMILES IDX 15 1 16 2 17 3 18 4 19 5 20 6 21 7 22 8 23 9 24 10 25 11
REMARK SMILES IDX 26 12 27 13 28 14 29 15 30 16 14 17 13 18 12 19 11 20 10 21
REMARK SMILES IDX 9 22 8 23 7 24 6 25 5 26 4 27 3 28 2 29 1 30
REMARK H PARENT
REMARK Flexibility Score: inf
ROOT
ATOM      1  C   UNL     1     -19.950   5.941   8.643  1.00  0.00     0.000 C 
ENDROOT
BRANCH   1   2
ATOM      2  C   UNL     1     -19.282   7.145   7.958  1.00  0.00     0.000 C 
BRANCH   2   3
ATOM      3  C   UNL     1     -18.423   6.735   6.751  1.00  0.00     0.000 C 
BRANCH   3   4
ATOM      4  C   UNL     1     -19.188   5.770   5.831  1.00  0.00     0.000 C 
BRANCH   4   5
ATOM      5  C   UNL     1     -19.205   6.232   4.364  1.00  0.00     0.000 C 
BRANCH   5   6
ATOM      6  C   UNL     1     -20.574   6.141   3.660  1.00  0.00     0.000 C 
BRANCH   6   7
ATOM      7  C   UNL     1     -20.656   6.929   2.336  1.00  0.00     0.000 C 
BRANCH   7   8
ATOM      8  C   UNL     1     -19.368   7.713   2.034  1.00  0.00     0.000 C 
BRANCH   8   9
ATOM      9  C   UNL     1     -18.700   7.211   0.751  1.00  0.00     0.000 C 
BRANCH   9  10
ATOM     10  C   UNL     1     -19.391   5.939   0.231  1.00  0.00     0.000 C 
BRANCH  10  11
ATOM     11  C   UNL     1     -19.531   5.913  -1.301  1.00  0.00     0.000 C 
BRANCH  11  12
ATOM     12  C   UNL     1     -20.939   6.251  -1.832  1.00  0.00     0.006 C 
BRANCH  12  13
ATOM     13  C   UNL     1     -21.793   5.024  -2.189  1.00  0.00     0.053 C 
BRANCH  13  14
ATOM     14  C   UNL     1     -22.985   4.885  -1.291  1.00  0.00     0.041 C 
ATOM     15  O   UNL     1     -23.204   3.798  -0.691  1.00  0.00    -0.550 OA
ATOM     16  O   UNL     1     -23.846   5.960  -1.104  1.00  0.00    -0.550 OA
ENDBRANCH  13  14
ENDBRANCH  12  13
ENDBRANCH  11  12
ENDBRANCH  10  11
ENDBRANCH   9  10
ENDBRANCH   8   9
ENDBRANCH   7   8
ENDBRANCH   6   7
ENDBRANCH   5   6
ENDBRANCH   4   5
ENDBRANCH   3   4
ENDBRANCH   2   3
ENDBRANCH   1   2
BRANCH   1  17
ATOM     17  C   UNL     1     -20.995   6.364   9.686  1.00  0.00     0.000 C 
BRANCH  17  18
ATOM     18  C   UNL     1     -20.331   7.070  10.879  1.00  0.00     0.000 C 
BRANCH  18  19
ATOM     19  C   UNL     1     -21.344   7.795  11.781  1.00  0.00     0.000 C 
BRANCH  19  20
ATOM     20  C   UNL     1     -22.782   7.732  11.237  1.00  0.00     0.000 C 
BRANCH  20  21
ATOM     21  C   UNL     1     -23.824   7.455  12.335  1.00  0.00     0.000 C 
BRANCH  21  22
ATOM     22  C   UNL     1     -24.491   6.067  12.265  1.00  0.00    -0.000 C 
BRANCH  22  23
ATOM     23  C   UNL     1     -23.584   4.883  12.651  1.00  0.00    -0.000 C 
BRANCH  23  24
ATOM     24  C   UNL     1     -23.130   4.004  11.472  1.00  0.00    -0.000 C 
BRANCH  24  25
ATOM     25  C   UNL     1     -22.036   2.995  11.866  1.00  0.00    -0.000 C 
BRANCH  25  26
ATOM     26  C   UNL     1     -20.761   3.682  12.381  1.00  0.00    -0.000 C 
BRANCH  26  27
ATOM     27  C   UNL     1     -19.549   3.431  11.467  1.00  0.00    -0.000 C 
BRANCH  27  28
ATOM     28  C   UNL     1     -19.651   2.085  10.720  1.00  0.00    -0.000 C 
BRANCH  28  29
ATOM     29  C   UNL     1     -19.479   2.212   9.196  1.00  0.00    -0.003 C 
ATOM     30  C   UNL     1     -20.803   2.395   8.457  1.00  0.00     0.004 C 
ENDBRANCH  28  29
ENDBRANCH  27  28
ENDBRANCH  26  27
ENDBRANCH  25  26
ENDBRANCH  24  25
ENDBRANCH  23  24
ENDBRANCH  22  23
ENDBRANCH  21  22
ENDBRANCH  20  21
ENDBRANCH  19  20
ENDBRANCH  18  19
ENDBRANCH  17  18
ENDBRANCH   1  17
TORSDOF 26
ENDMDL
MODEL 4
REMARK VINA RESULT:    -2.981      3.764     11.220
REMARK INTER + INTRA:         -10.894
REMARK INTER:                  -8.922
REMARK INTRA:                  -1.972
REMARK UNBOUND:                -3.382
REMARK SMILES CCCCCCCCCCCCCCCCCCCCCCCCCCCC(=O)[O-]
REMARK SMILES IDX 15 1 16 2 17 3 18 4 19 5 20 6 21 7 22 8 23 9 24 10 25 11
REMARK SMILES IDX 26 12 27 13 28 14 29 15 30 16 14 17 13 18 12 19 11 20 10 21
REMARK SMILES IDX 9 22 8 23 7 24 6 25 5 26 4 27 3 28 2 29 1 30
REMARK H PARENT
REMARK Flexibility Score: inf
ROOT
ATOM      1  C   UNL     1     -19.269   5.055   5.278  1.00  0.00     0.000 C 
ENDROOT
BRANCH   1   2
ATOM      2  C   UNL     1     -18.771   6.046   6.344  1.00  0.00     0.000 C 
BRANCH   2   3
ATOM      3  C   UNL     1     -19.706   6.120   7.562  1.00  0.00     0.000 C 
BRANCH   3   4
ATOM      4  C   UNL     1     -19.696   7.527   8.182  1.00  0.00     0.000 C 
BRANCH   4   5
ATOM      5  C   UNL     1     -20.997   7.857   8.933  1.00  0.00     0.000 C 
BRANCH   5   6
ATOM      6  C   UNL     1     -20.837   8.120  10.444  1.00  0.00     0.000 C 
BRANCH   6   7
ATOM      7  C   UNL     1     -20.707   6.839  11.296  1.00  0.00     0.000 C 
BRANCH   7   8
ATOM      8  C   UNL     1     -21.636   6.847  12.521  1.00  0.00     0.000 C 
BRANCH   8   9
ATOM      9  C   UNL     1     -23.105   6.728  12.104  1.00  0.00     0.000 C 
BRANCH   9  10
ATOM     10  C   UNL     1     -23.635   5.306  12.350  1.00  0.00     0.000 C 
BRANCH  10  11
ATOM     11  C   UNL     1     -22.622   4.403  13.077  1.00  0.00     0.000 C 
BRANCH  11  12
ATOM     12  C   UNL     1     -22.031   3.266  12.220  1.00  0.00     0.006 C 
BRANCH  12  13
ATOM     13  C   UNL     1     -22.836   2.943  10.951  1.00  0.00     0.053 C 
BRANCH  13  14
ATOM     14  C   UNL     1     -21.978   2.357   9.872  1.00  0.00     0.041 C 
ATOM     15  O   UNL     1     -22.059   1.130   9.593  1.00  0.00    -0.550 OA
ATOM     16  O   UNL     1     -21.096   3.166   9.164  1.00  0.00    -0.550 OA
ENDBRANCH  13  14
ENDBRANCH  12  13
ENDBRANCH  11  12
ENDBRANCH  10  11
ENDBRANCH   9  10
ENDBRANCH   8   9
ENDBRANCH   7   8
ENDBRANCH   6   7
ENDBRANCH   5   6
ENDBRANCH   4   5
ENDBRANCH   3   4
ENDBRANCH   2   3
ENDBRANCH   1   2
BRANCH   1  17
ATOM     17  C   UNL     1     -20.022   5.752   4.135  1.00  0.00     0.000 C 
BRANCH  17  18
ATOM     18  C   UNL     1     -19.044   6.410   3.149  1.00  0.00     0.000 C 
BRANCH  18  19
ATOM     19  C   UNL     1     -19.728   7.431   2.223  1.00  0.00     0.000 C 
BRANCH  19  20
ATOM     20  C   UNL     1     -19.315   7.271   0.749  1.00  0.00     0.000 C 
BRANCH  20  21
ATOM     21  C   UNL     1     -19.980   6.060   0.072  1.00  0.00     0.000 C 
BRANCH  21  22
ATOM     22  C   UNL     1     -21.521   6.098   0.038  1.00  0.00    -0.000 C 
BRANCH  22  23
ATOM     23  C   UNL     1     -22.149   6.000  -1.366  1.00  0.00    -0.000 C 
BRANCH  23  24
ATOM     24  C   UNL     1     -22.030   4.619  -2.033  1.00  0.00    -0.000 C 
BRANCH  24  25
ATOM     25  C   UNL     1     -21.239   4.659  -3.353  1.00  0.00    -0.000 C 
BRANCH  25  26
ATOM     26  C   UNL     1     -20.513   5.997  -3.562  1.00  0.00    -0.000 C 
BRANCH  26  27
ATOM     27  C   UNL     1     -19.077   5.810  -4.083  1.00  0.00    -0.000 C 
BRANCH  27  28
ATOM     28  C   UNL     1     -18.886   4.453  -4.792  1.00  0.00    -0.000 C 
BRANCH  28  29
ATOM     29  C   UNL     1     -18.009   3.464  -4.003  1.00  0.00    -0.003 C 
ATOM     30  C   UNL     1     -18.419   2.007  -4.207  1.00  0.00     0.004 C 
ENDBRANCH  28  29
ENDBRANCH  27  28
ENDBRANCH  26  27
ENDBRANCH  25  26
ENDBRANCH  24  25
ENDBRANCH  23  24
ENDBRANCH  22  23
ENDBRANCH  21  22
ENDBRANCH  20  21
ENDBRANCH  19  20
ENDBRANCH  18  19
ENDBRANCH  17  18
ENDBRANCH   1  17
TORSDOF 26
ENDMDL
MODEL 5
REMARK VINA RESULT:    -2.919      1.817      4.247
REMARK INTER + INTRA:         -10.737
REMARK INTER:                  -7.705
REMARK INTRA:                  -3.032
REMARK UNBOUND:                -3.382
REMARK SMILES CCCCCCCCCCCCCCCCCCCCCCCCCCCC(=O)[O-]
REMARK SMILES IDX 15 1 16 2 17 3 18 4 19 5 20 6 21 7 22 8 23 9 24 10 25 11
REMARK SMILES IDX 26 12 27 13 28 14 29 15 30 16 14 17 13 18 12 19 11 20 10 21
REMARK SMILES IDX 9 22 8 23 7 24 6 25 5 26 4 27 3 28 2 29 1 30
REMARK H PARENT
REMARK Flexibility Score: inf
ROOT
ATOM      1  C   UNL     1     -19.812   4.099   7.944  1.00  0.00     0.000 C 
ENDROOT
BRANCH   1   2
ATOM      2  C   UNL     1     -19.353   3.713   6.527  1.00  0.00     0.000 C 
BRANCH   2   3
ATOM      3  C   UNL     1     -18.490   4.802   5.871  1.00  0.00     0.000 C 
BRANCH   3   4
ATOM      4  C   UNL     1     -19.359   5.957   5.350  1.00  0.00     0.000 C 
BRANCH   4   5
ATOM      5  C   UNL     1     -19.895   5.707   3.930  1.00  0.00     0.000 C 
BRANCH   5   6
ATOM      6  C   UNL     1     -20.702   6.869   3.315  1.00  0.00     0.000 C 
BRANCH   6   7
ATOM      7  C   UNL     1     -19.839   7.914   2.578  1.00  0.00     0.000 C 
BRANCH   7   8
ATOM      8  C   UNL     1     -19.860   7.727   1.052  1.00  0.00     0.000 C 
BRANCH   8   9
ATOM      9  C   UNL     1     -21.175   7.094   0.588  1.00  0.00     0.000 C 
BRANCH   9  10
ATOM     10  C   UNL     1     -20.913   5.872  -0.307  1.00  0.00     0.000 C 
BRANCH  10  11
ATOM     11  C   UNL     1     -19.431   5.713  -0.690  1.00  0.00     0.000 C 
BRANCH  11  12
ATOM     12  C   UNL     1     -19.145   5.715  -2.205  1.00  0.00     0.006 C 
BRANCH  12  13
ATOM     13  C   UNL     1     -19.969   4.695  -3.007  1.00  0.00     0.053 C 
BRANCH  13  14
ATOM     14  C   UNL     1     -19.147   4.004  -4.054  1.00  0.00     0.041 C 
ATOM     15  O   UNL     1     -18.962   4.547  -5.176  1.00  0.00    -0.550 OA
ATOM     16  O   UNL     1     -18.575   2.766  -3.786  1.00  0.00    -0.550 OA
ENDBRANCH  13  14
ENDBRANCH  12  13
ENDBRANCH  11  12
ENDBRANCH  10  11
ENDBRANCH   9  10
ENDBRANCH   8   9
ENDBRANCH   7   8
ENDBRANCH   6   7
ENDBRANCH   5   6
ENDBRANCH   4   5
ENDBRANCH   3   4
ENDBRANCH   2   3
ENDBRANCH   1   2
BRANCH   1  17
ATOM     17  C   UNL     1     -19.287   3.131   9.015  1.00  0.00     0.000 C 
BRANCH  17  18
ATOM     18  C   UNL     1     -18.064   3.717   9.737  1.00  0.00     0.000 C 
BRANCH  18  19
ATOM     19  C   UNL     1     -18.188   3.651  11.269  1.00  0.00     0.000 C 
BRANCH  19  20
ATOM     20  C   UNL     1     -19.153   2.550  11.744  1.00  0.00     0.000 C 
BRANCH  20  21
ATOM     21  C   UNL     1     -19.774   2.853  13.119  1.00  0.00     0.000 C 
BRANCH  21  22
ATOM     22  C   UNL     1     -21.174   3.498  13.073  1.00  0.00    -0.000 C 
BRANCH  22  23
ATOM     23  C   UNL     1     -22.046   3.087  11.870  1.00  0.00    -0.000 C 
BRANCH  23  24
ATOM     24  C   UNL     1     -23.224   4.030  11.572  1.00  0.00    -0.000 C 
BRANCH  24  25
ATOM     25  C   UNL     1     -23.494   5.028  12.712  1.00  0.00    -0.000 C 
BRANCH  25  26
ATOM     26  C   UNL     1     -23.855   6.429  12.194  1.00  0.00    -0.000 C 
BRANCH  26  27
ATOM     27  C   UNL     1     -22.628   7.352  12.091  1.00  0.00    -0.000 C 
BRANCH  27  28
ATOM     28  C   UNL     1     -21.873   7.172  10.758  1.00  0.00    -0.000 C 
BRANCH  28  29
ATOM     29  C   UNL     1     -20.446   6.621  10.929  1.00  0.00    -0.003 C 
ATOM     30  C   UNL     1     -19.911   6.774  12.352  1.00  0.00     0.004 C 
ENDBRANCH  28  29
ENDBRANCH  27  28
ENDBRANCH  26  27
ENDBRANCH  25  26
ENDBRANCH  24  25
ENDBRANCH  23  24
ENDBRANCH  22  23
ENDBRANCH  21  22
ENDBRANCH  20  21
ENDBRANCH  19  20
ENDBRANCH  18  19
ENDBRANCH  17  18
ENDBRANCH   1  17
TORSDOF 26
ENDMDL
MODEL 6
REMARK VINA RESULT:    -2.893      1.651      4.419
REMARK INTER + INTRA:         -10.673
REMARK INTER:                  -7.966
REMARK INTRA:                  -2.707
REMARK UNBOUND:                -3.382
REMARK SMILES CCCCCCCCCCCCCCCCCCCCCCCCCCCC(=O)[O-]
REMARK SMILES IDX 15 1 16 2 17 3 18 4 19 5 20 6 21 7 22 8 23 9 24 10 25 11
REMARK SMILES IDX 26 12 27 13 28 14 29 15 30 16 14 17 13 18 12 19 11 20 10 21
REMARK SMILES IDX 9 22 8 23 7 24 6 25 5 26 4 27 3 28 2 29 1 30
REMARK H PARENT
REMARK Flexibility Score: inf
ROOT
ATOM      1  C   UNL     1     -19.393   3.248   6.622  1.00  0.00     0.000 C 
ENDROOT
BRANCH   1   2
ATOM      2  C   UNL     1     -17.993   3.670   6.145  1.00  0.00     0.000 C 
BRANCH   2   3
ATOM      3  C   UNL     1     -18.042   4.776   5.078  1.00  0.00     0.000 C 
BRANCH   3   4
ATOM      4  C   UNL     1     -19.400   5.496   5.091  1.00  0.00     0.000 C 
BRANCH   4   5
ATOM      5  C   UNL     1     -19.797   6.045   3.710  1.00  0.00     0.000 C 
BRANCH   5   6
ATOM      6  C   UNL     1     -19.139   7.383   3.319  1.00  0.00     0.000 C 
BRANCH   6   7
ATOM      7  C   UNL     1     -18.849   7.526   1.809  1.00  0.00     0.000 C 
BRANCH   7   8
ATOM      8  C   UNL     1     -20.014   7.035   0.935  1.00  0.00     0.000 C 
BRANCH   8   9
ATOM      9  C   UNL     1     -19.558   6.778  -0.504  1.00  0.00     0.000 C 
BRANCH   9  10
ATOM     10  C   UNL     1     -20.719   6.972  -1.494  1.00  0.00     0.000 C 
BRANCH  10  11
ATOM     11  C   UNL     1     -21.755   5.835  -1.439  1.00  0.00     0.000 C 
BRANCH  11  12
ATOM     12  C   UNL     1     -21.927   5.046  -2.752  1.00  0.00     0.006 C 
BRANCH  12  13
ATOM     13  C   UNL     1     -20.786   4.061  -3.054  1.00  0.00     0.053 C 
BRANCH  13  14
ATOM     14  C   UNL     1     -19.881   4.559  -4.139  1.00  0.00     0.041 C 
ATOM     15  O   UNL     1     -20.155   5.625  -4.754  1.00  0.00    -0.550 OA
ATOM     16  O   UNL     1     -18.728   3.854  -4.464  1.00  0.00    -0.550 OA
ENDBRANCH  13  14
ENDBRANCH  12  13
ENDBRANCH  11  12
ENDBRANCH  10  11
ENDBRANCH   9  10
ENDBRANCH   8   9
ENDBRANCH   7   8
ENDBRANCH   6   7
ENDBRANCH   5   6
ENDBRANCH   4   5
ENDBRANCH   3   4
ENDBRANCH   2   3
ENDBRANCH   1   2
BRANCH   1  17
ATOM     17  C   UNL     1     -19.540   3.322   8.149  1.00  0.00     0.000 C 
BRANCH  17  18
ATOM     18  C   UNL     1     -18.299   3.958   8.794  1.00  0.00     0.000 C 
BRANCH  18  19
ATOM     19  C   UNL     1     -18.544   5.403   9.261  1.00  0.00     0.000 C 
BRANCH  19  20
ATOM     20  C   UNL     1     -19.713   5.519  10.256  1.00  0.00     0.000 C 
BRANCH  20  21
ATOM     21  C   UNL     1     -20.838   6.439   9.750  1.00  0.00     0.000 C 
BRANCH  21  22
ATOM     22  C   UNL     1     -21.178   7.622  10.679  1.00  0.00    -0.000 C 
BRANCH  22  23
ATOM     23  C   UNL     1     -22.682   7.843  10.934  1.00  0.00    -0.000 C 
BRANCH  23  24
ATOM     24  C   UNL     1     -23.124   7.666  12.398  1.00  0.00    -0.000 C 
BRANCH  24  25
ATOM     25  C   UNL     1     -24.369   6.774  12.542  1.00  0.00    -0.000 C 
BRANCH  25  26
ATOM     26  C   UNL     1     -24.078   5.301  12.216  1.00  0.00    -0.000 C 
BRANCH  26  27
ATOM     27  C   UNL     1     -22.990   4.701  13.125  1.00  0.00    -0.000 C 
BRANCH  27  28
ATOM     28  C   UNL     1     -22.094   3.695  12.375  1.00  0.00    -0.000 C 
BRANCH  28  29
ATOM     29  C   UNL     1     -22.703   3.192  11.055  1.00  0.00    -0.003 C 
ATOM     30  C   UNL     1     -22.043   1.915  10.538  1.00  0.00     0.004 C 
ENDBRANCH  28  29
ENDBRANCH  27  28
ENDBRANCH  26  27
ENDBRANCH  25  26
ENDBRANCH  24  25
ENDBRANCH  23  24
ENDBRANCH  22  23
ENDBRANCH  21  22
ENDBRANCH  20  21
ENDBRANCH  19  20
ENDBRANCH  18  19
ENDBRANCH  17  18
ENDBRANCH   1  17
TORSDOF 26
ENDMDL
MODEL 7
REMARK VINA RESULT:    -2.861      1.887      5.756
REMARK INTER + INTRA:         -10.591
REMARK INTER:                  -8.417
REMARK INTRA:                  -2.174
REMARK UNBOUND:                -3.382
REMARK SMILES CCCCCCCCCCCCCCCCCCCCCCCCCCCC(=O)[O-]
REMARK SMILES IDX 15 1 16 2 17 3 18 4 19 5 20 6 21 7 22 8 23 9 24 10 25 11
REMARK SMILES IDX 26 12 27 13 28 14 29 15 30 16 14 17 13 18 12 19 11 20 10 21
REMARK SMILES IDX 9 22 8 23 7 24 6 25 5 26 4 27 3 28 2 29 1 30
REMARK H PARENT
REMARK Flexibility Score: inf
ROOT
ATOM      1  C   UNL     1     -20.099   5.858   4.095  1.00  0.00     0.000 C 
ENDROOT
BRANCH   1   2
ATOM      2  C   UNL     1     -19.610   7.291   3.827  1.00  0.00     0.000 C 
BRANCH   2   3
ATOM      3  C   UNL     1     -20.054   7.818   2.453  1.00  0.00     0.000 C 
BRANCH   3   4
ATOM      4  C   UNL     1     -19.504   6.939   1.319  1.00  0.00     0.000 C 
BRANCH   4   5
ATOM      5  C   UNL     1     -19.045   7.756   0.100  1.00  0.00     0.000 C 
BRANCH   5   6
ATOM      6  C   UNL     1     -18.539   6.926  -1.098  1.00  0.00     0.000 C 
BRANCH   6   7
ATOM      7  C   UNL     1     -18.786   7.587  -2.471  1.00  0.00     0.000 C 
BRANCH   7   8
ATOM      8  C   UNL     1     -18.332   6.702  -3.643  1.00  0.00     0.000 C 
BRANCH   8   9
ATOM      9  C   UNL     1     -19.450   6.530  -4.675  1.00  0.00     0.000 C 
BRANCH   9  10
ATOM     10  C   UNL     1     -19.849   5.051  -4.814  1.00  0.00     0.000 C 
BRANCH  10  11
ATOM     11  C   UNL     1     -20.270   4.412  -3.478  1.00  0.00     0.000 C 
BRANCH  11  12
ATOM     12  C   UNL     1     -21.728   4.684  -3.057  1.00  0.00     0.006 C 
BRANCH  12  13
ATOM     13  C   UNL     1     -21.872   5.463  -1.740  1.00  0.00     0.053 C 
BRANCH  13  14
ATOM     14  C   UNL     1     -23.149   5.136  -1.027  1.00  0.00     0.041 C 
ATOM     15  O   UNL     1     -24.124   5.934  -1.073  1.00  0.00    -0.550 OA
ATOM     16  O   UNL     1     -23.268   3.943  -0.323  1.00  0.00    -0.550 OA
ENDBRANCH  13  14
ENDBRANCH  12  13
ENDBRANCH  11  12
ENDBRANCH  10  11
ENDBRANCH   9  10
ENDBRANCH   8   9
ENDBRANCH   7   8
ENDBRANCH   6   7
ENDBRANCH   5   6
ENDBRANCH   4   5
ENDBRANCH   3   4
ENDBRANCH   2   3
ENDBRANCH   1   2
BRANCH   1  17
ATOM     17  C   UNL     1     -19.226   5.121   5.122  1.00  0.00     0.000 C 
BRANCH  17  18
ATOM     18  C   UNL     1     -19.210   5.864   6.467  1.00  0.00     0.000 C 
BRANCH  18  19
ATOM     19  C   UNL     1     -19.379   4.920   7.670  1.00  0.00     0.000 C 
BRANCH  19  20
ATOM     20  C   UNL     1     -19.835   3.508   7.263  1.00  0.00     0.000 C 
BRANCH  20  21
ATOM     21  C   UNL     1     -20.222   2.635   8.470  1.00  0.00     0.000 C 
BRANCH  21  22
ATOM     22  C   UNL     1     -19.041   2.181   9.350  1.00  0.00    -0.000 C 
BRANCH  22  23
ATOM     23  C   UNL     1     -19.384   1.933  10.832  1.00  0.00    -0.000 C 
BRANCH  23  24
ATOM     24  C   UNL     1     -18.910   3.032  11.799  1.00  0.00    -0.000 C 
BRANCH  24  25
ATOM     25  C   UNL     1     -20.056   3.623  12.639  1.00  0.00    -0.000 C 
BRANCH  25  26
ATOM     26  C   UNL     1     -20.865   4.679  11.870  1.00  0.00    -0.000 C 
BRANCH  26  27
ATOM     27  C   UNL     1     -22.336   4.267  11.678  1.00  0.00    -0.000 C 
BRANCH  27  28
ATOM     28  C   UNL     1     -23.246   4.814  12.797  1.00  0.00    -0.000 C 
BRANCH  28  29
ATOM     29  C   UNL     1     -24.329   5.782  12.291  1.00  0.00    -0.003 C 
ATOM     30  C   UNL     1     -23.983   7.250  12.537  1.00  0.00     0.004 C 
ENDBRANCH  28  29
ENDBRANCH  27  28
ENDBRANCH  26  27
ENDBRANCH  25  26
ENDBRANCH  24  25
ENDBRANCH  23  24
ENDBRANCH  22  23
ENDBRANCH  21  22
ENDBRANCH  20  21
ENDBRANCH  19  20
ENDBRANCH  18  19
ENDBRANCH  17  18
ENDBRANCH   1  17
TORSDOF 26
ENDMDL
MODEL 8
REMARK VINA RESULT:    -2.843      3.561     10.838
REMARK INTER + INTRA:         -10.546
REMARK INTER:                  -7.931
REMARK INTRA:                  -2.615
REMARK UNBOUND:                -3.382
REMARK SMILES CCCCCCCCCCCCCCCCCCCCCCCCCCCC(=O)[O-]
REMARK SMILES IDX 15 1 16 2 17 3 18 4 19 5 20 6 21 7 22 8 23 9 24 10 25 11
REMARK SMILES IDX 26 12 27 13 28 14 29 15 30 16 14 17 13 18 12 19 11 20 10 21
REMARK SMILES IDX 9 22 8 23 7 24 6 25 5 26 4 27 3 28 2 29 1 30
REMARK H PARENT
REMARK Flexibility Score: inf
ROOT
ATOM      1  C   UNL     1     -18.696   5.481   6.098  1.00  0.00     0.000 C 
ENDROOT
BRANCH   1   2
ATOM      2  C   UNL     1     -19.461   6.550   6.896  1.00  0.00     0.000 C 
BRANCH   2   3
ATOM      3  C   UNL     1     -19.370   6.328   8.415  1.00  0.00     0.000 C 
BRANCH   3   4
ATOM      4  C   UNL     1     -20.196   7.375   9.178  1.00  0.00     0.000 C 
BRANCH   4   5
ATOM      5  C   UNL     1     -20.981   6.773  10.356  1.00  0.00     0.000 C 
BRANCH   5   6
ATOM      6  C   UNL     1     -20.221   6.725  11.697  1.00  0.00     0.000 C 
BRANCH   6   7
ATOM      7  C   UNL     1     -21.027   6.101  12.856  1.00  0.00     0.000 C 
BRANCH   7   8
ATOM      8  C   UNL     1     -22.538   6.070  12.575  1.00  0.00     0.000 C 
BRANCH   8   9
ATOM      9  C   UNL     1     -23.107   4.659  12.756  1.00  0.00     0.000 C 
BRANCH   9  10
ATOM     10  C   UNL     1     -23.171   3.914  11.412  1.00  0.00     0.000 C 
BRANCH  10  11
ATOM     11  C   UNL     1     -22.135   2.781  11.302  1.00  0.00     0.000 C 
BRANCH  11  12
ATOM     12  C   UNL     1     -20.904   3.105  10.435  1.00  0.00     0.006 C 
BRANCH  12  13
ATOM     13  C   UNL     1     -21.118   2.897   8.927  1.00  0.00     0.053 C 
BRANCH  13  14
ATOM     14  C   UNL     1     -21.688   1.546   8.618  1.00  0.00     0.041 C 
ATOM     15  O   UNL     1     -22.818   1.445   8.069  1.00  0.00    -0.550 OA
ATOM     16  O   UNL     1     -20.967   0.398   8.925  1.00  0.00    -0.550 OA
ENDBRANCH  13  14
ENDBRANCH  12  13
ENDBRANCH  11  12
ENDBRANCH  10  11
ENDBRANCH   9  10
ENDBRANCH   8   9
ENDBRANCH   7   8
ENDBRANCH   6   7
ENDBRANCH   5   6
ENDBRANCH   4   5
ENDBRANCH   3   4
ENDBRANCH   2   3
ENDBRANCH   1   2
BRANCH   1  17
ATOM     17  C   UNL     1     -19.392   5.127   4.775  1.00  0.00     0.000 C 
BRANCH  17  18
ATOM     18  C   UNL     1     -18.833   5.966   3.615  1.00  0.00     0.000 C 
BRANCH  18  19
ATOM     19  C   UNL     1     -19.879   6.243   2.521  1.00  0.00     0.000 C 
BRANCH  19  20
ATOM     20  C   UNL     1     -19.268   6.858   1.250  1.00  0.00     0.000 C 
BRANCH  20  21
ATOM     21  C   UNL     1     -18.576   5.813   0.356  1.00  0.00     0.000 C 
BRANCH  21  22
ATOM     22  C   UNL     1     -18.134   6.331  -1.027  1.00  0.00    -0.000 C 
BRANCH  22  23
ATOM     23  C   UNL     1     -18.087   5.267  -2.141  1.00  0.00    -0.000 C 
BRANCH  23  24
ATOM     24  C   UNL     1     -18.320   5.806  -3.563  1.00  0.00    -0.000 C 
BRANCH  24  25
ATOM     25  C   UNL     1     -19.561   5.194  -4.238  1.00  0.00    -0.000 C 
BRANCH  25  26
ATOM     26  C   UNL     1     -20.253   4.144  -3.355  1.00  0.00    -0.000 C 
BRANCH  26  27
ATOM     27  C   UNL     1     -21.673   4.569  -2.941  1.00  0.00    -0.000 C 
BRANCH  27  28
ATOM     28  C   UNL     1     -21.710   5.176  -1.523  1.00  0.00    -0.000 C 
BRANCH  28  29
ATOM     29  C   UNL     1     -23.135   5.384  -0.980  1.00  0.00    -0.003 C 
ATOM     30  C   UNL     1     -23.603   4.244  -0.076  1.00  0.00     0.004 C 
ENDBRANCH  28  29
ENDBRANCH  27  28
ENDBRANCH  26  27
ENDBRANCH  25  26
ENDBRANCH  24  25
ENDBRANCH  23  24
ENDBRANCH  22  23
ENDBRANCH  21  22
ENDBRANCH  20  21
ENDBRANCH  19  20
ENDBRANCH  18  19
ENDBRANCH  17  18
ENDBRANCH   1  17
TORSDOF 26
ENDMDL
MODEL 9
REMARK VINA RESULT:    -2.814      1.310      3.217
REMARK INTER + INTRA:         -10.472
REMARK INTER:                  -7.317
REMARK INTRA:                  -3.155
REMARK UNBOUND:                -3.382
REMARK SMILES CCCCCCCCCCCCCCCCCCCCCCCCCCCC(=O)[O-]
REMARK SMILES IDX 15 1 16 2 17 3 18 4 19 5 20 6 21 7 22 8 23 9 24 10 25 11
REMARK SMILES IDX 26 12 27 13 28 14 29 15 30 16 14 17 13 18 12 19 11 20 10 21
REMARK SMILES IDX 9 22 8 23 7 24 6 25 5 26 4 27 3 28 2 29 1 30
REMARK H PARENT
REMARK Flexibility Score: inf
ROOT
ATOM      1  C   UNL     1     -20.113   6.668   9.066  1.00  0.00     0.000 C 
ENDROOT
BRANCH   1   2
ATOM      2  C   UNL     1     -18.605   6.765   8.782  1.00  0.00     0.000 C 
BRANCH   2   3
ATOM      3  C   UNL     1     -18.134   5.735   7.743  1.00  0.00     0.000 C 
BRANCH   3   4
ATOM      4  C   UNL     1     -19.305   4.869   7.252  1.00  0.00     0.000 C 
BRANCH   4   5
ATOM      5  C   UNL     1     -19.365   4.761   5.719  1.00  0.00     0.000 C 
BRANCH   5   6
ATOM      6  C   UNL     1     -19.251   6.099   4.959  1.00  0.00     0.000 C 
BRANCH   6   7
ATOM      7  C   UNL     1     -19.786   6.048   3.512  1.00  0.00     0.000 C 
BRANCH   7   8
ATOM      8  C   UNL     1     -21.140   6.758   3.357  1.00  0.00     0.000 C 
BRANCH   8   9
ATOM      9  C   UNL     1     -21.207   7.549   2.047  1.00  0.00     0.000 C 
BRANCH   9  10
ATOM     10  C   UNL     1     -20.035   7.180   1.122  1.00  0.00     0.000 C 
BRANCH  10  11
ATOM     11  C   UNL     1     -20.464   6.979  -0.343  1.00  0.00     0.000 C 
BRANCH  11  12
ATOM     12  C   UNL     1     -20.249   5.556  -0.896  1.00  0.00     0.006 C 
BRANCH  12  13
ATOM     13  C   UNL     1     -21.414   5.023  -1.745  1.00  0.00     0.053 C 
BRANCH  13  14
ATOM     14  C   UNL     1     -22.730   5.142  -1.037  1.00  0.00     0.041 C 
ATOM     15  O   UNL     1     -23.403   6.204  -1.124  1.00  0.00    -0.550 OA
ATOM     16  O   UNL     1     -23.220   4.075  -0.293  1.00  0.00    -0.550 OA
ENDBRANCH  13  14
ENDBRANCH  12  13
ENDBRANCH  11  12
ENDBRANCH  10  11
ENDBRANCH   9  10
ENDBRANCH   8   9
ENDBRANCH   7   8
ENDBRANCH   6   7
ENDBRANCH   5   6
ENDBRANCH   4   5
ENDBRANCH   3   4
ENDBRANCH   2   3
ENDBRANCH   1   2
BRANCH   1  17
ATOM     17  C   UNL     1     -20.414   6.370  10.543  1.00  0.00     0.000 C 
BRANCH  17  18
ATOM     18  C   UNL     1     -19.527   7.217  11.470  1.00  0.00     0.000 C 
BRANCH  18  19
ATOM     19  C   UNL     1     -18.664   6.362  12.413  1.00  0.00     0.000 C 
BRANCH  19  20
ATOM     20  C   UNL     1     -18.944   4.855  12.279  1.00  0.00     0.000 C 
BRANCH  20  21
ATOM     21  C   UNL     1     -18.019   4.166  11.260  1.00  0.00     0.000 C 
BRANCH  21  22
ATOM     22  C   UNL     1     -17.897   2.637  11.423  1.00  0.00    -0.000 C 
BRANCH  22  23
ATOM     23  C   UNL     1     -19.126   1.828  10.964  1.00  0.00    -0.000 C 
BRANCH  23  24
ATOM     24  C   UNL     1     -20.076   2.578  10.013  1.00  0.00    -0.000 C 
BRANCH  24  25
ATOM     25  C   UNL     1     -21.548   2.161  10.188  1.00  0.00    -0.000 C 
BRANCH  25  26
ATOM     26  C   UNL     1     -22.391   3.251  10.866  1.00  0.00    -0.000 C 
BRANCH  26  27
ATOM     27  C   UNL     1     -22.204   3.274  12.394  1.00  0.00    -0.000 C 
BRANCH  27  28
ATOM     28  C   UNL     1     -22.595   4.634  13.008  1.00  0.00    -0.000 C 
BRANCH  28  29
ATOM     29  C   UNL     1     -23.863   5.248  12.390  1.00  0.00    -0.003 C 
ATOM     30  C   UNL     1     -23.761   6.758  12.189  1.00  0.00     0.004 C 
ENDBRANCH  28  29
ENDBRANCH  27  28
ENDBRANCH  26  27
ENDBRANCH  25  26
ENDBRANCH  24  25
ENDBRANCH  23  24
ENDBRANCH  22  23
ENDBRANCH  21  22
ENDBRANCH  20  21
ENDBRANCH  19  20
ENDBRANCH  18  19
ENDBRANCH  17  18
ENDBRANCH   1  17
TORSDOF 26
ENDMDL
