MODEL 1
REMARK VINA RESULT:    -4.337      0.000      0.000
REMARK INTER + INTRA:          -7.645
REMARK INTER:                  -6.872
REMARK INTRA:                  -0.773
REMARK UNBOUND:                -0.773
REMARK SMILES CCCCCCCCCCCC(=O)[O-]
REMARK SMILES IDX 7 1 8 2 9 3 10 4 11 5 12 6 13 7 14 8 6 9 5 10 4 11 3 12 2 13
REMARK SMILES IDX 1 14
REMARK H PARENT
REMARK Flexibility Score: inf
ROOT
ATOM      1  C   UNL     1       7.692 -19.435  22.931  1.00  0.00     0.000 C 
ENDROOT
BRANCH   1   2
ATOM      2  C   UNL     1       7.979 -18.640  21.645  1.00  0.00     0.000 C 
BRANCH   2   3
ATOM      3  C   UNL     1       8.300 -17.152  21.898  1.00  0.00     0.000 C 
BRANCH   3   4
ATOM      4  C   UNL     1       7.271 -16.488  22.828  1.00  0.00     0.006 C 
BRANCH   4   5
ATOM      5  C   UNL     1       7.766 -15.141  23.373  1.00  0.00     0.053 C 
BRANCH   5   6
ATOM      6  C   UNL     1       8.919 -15.317  24.312  1.00  0.00     0.041 C 
ATOM      7  O   UNL     1       8.732 -15.787  25.466  1.00  0.00    -0.550 OA
ATOM      8  O   UNL     1      10.206 -14.989  23.904  1.00  0.00    -0.550 OA
ENDBRANCH   5   6
ENDBRANCH   4   5
ENDBRANCH   3   4
ENDBRANCH   2   3
ENDBRANCH   1   2
BRANCH   1   9
ATOM      9  C   UNL     1       6.995 -20.776  22.663  1.00  0.00     0.000 C 
BRANCH   9  10
ATOM     10  C   UNL     1       7.045 -21.134  21.171  1.00  0.00    -0.000 C 
BRANCH  10  11
ATOM     11  C   UNL     1       7.368 -22.619  20.922  1.00  0.00    -0.000 C 
BRANCH  11  12
ATOM     12  C   UNL     1       8.646 -23.130  21.611  1.00  0.00    -0.000 C 
BRANCH  12  13
ATOM     13  C   UNL     1       9.923 -22.480  21.059  1.00  0.00    -0.003 C 
ATOM     14  C   UNL     1      11.087 -22.643  22.032  1.00  0.00     0.004 C 
ENDBRANCH  12  13
ENDBRANCH  11  12
ENDBRANCH  10  11
ENDBRANCH   9  10
ENDBRANCH   1   9
TORSDOF 10
ENDMDL
MODEL 2
REMARK VINA RESULT:    -4.218      3.567      6.395
REMARK INTER + INTRA:          -7.457
REMARK INTER:                  -6.465
REMARK INTRA:                  -0.992
REMARK UNBOUND:                -0.773
REMARK SMILES CCCCCCCCCCCC(=O)[O-]
REMARK SMILES IDX 7 1 8 2 9 3 10 4 11 5 12 6 13 7 14 8 6 9 5 10 4 11 3 12 2 13
REMARK SMILES IDX 1 14
REMARK H PARENT
REMARK Flexibility Score: inf
ROOT
ATOM      1  C   UNL     1       7.090 -17.748  24.682  1.00  0.00     0.000 C 
ENDROOT
BRANCH   1   2
ATOM      2  C   UNL     1       7.282 -19.276  24.677  1.00  0.00     0.000 C 
BRANCH   2   3
ATOM      3  C   UNL     1       7.949 -19.809  23.392  1.00  0.00     0.000 C 
BRANCH   3   4
ATOM      4  C   UNL     1       7.316 -21.127  22.915  1.00  0.00     0.006 C 
BRANCH   4   5
ATOM      5  C   UNL     1       7.098 -21.149  21.396  1.00  0.00     0.053 C 
BRANCH   5   6
ATOM      6  C   UNL     1       7.898 -22.234  20.741  1.00  0.00     0.041 C 
ATOM      7  O   UNL     1       8.268 -22.113  19.543  1.00  0.00    -0.550 OA
ATOM      8  O   UNL     1       8.258 -23.365  21.461  1.00  0.00    -0.550 OA
ENDBRANCH   5   6
ENDBRANCH   4   5
ENDBRANCH   3   4
ENDBRANCH   2   3
ENDBRANCH   1   2
BRANCH   1   9
ATOM      9  C   UNL     1       7.526 -17.086  23.368  1.00  0.00     0.000 C 
BRANCH   9  10
ATOM     10  C   UNL     1       7.898 -15.614  23.590  1.00  0.00    -0.000 C 
BRANCH  10  11
ATOM     11  C   UNL     1       9.196 -15.438  24.399  1.00  0.00    -0.000 C 
BRANCH  11  12
ATOM     12  C   UNL     1      10.455 -16.035  23.744  1.00  0.00    -0.000 C 
BRANCH  12  13
ATOM     13  C   UNL     1      11.285 -16.889  24.713  1.00  0.00    -0.003 C 
ATOM     14  C   UNL     1      10.480 -17.250  25.957  1.00  0.00     0.004 C 
ENDBRANCH  12  13
ENDBRANCH  11  12
ENDBRANCH  10  11
ENDBRANCH   9  10
ENDBRANCH   1   9
TORSDOF 10
ENDMDL
MODEL 3
REMARK VINA RESULT:    -4.206      3.645      6.167
REMARK INTER + INTRA:          -7.438
REMARK INTER:                  -6.506
REMARK INTRA:                  -0.931
REMARK UNBOUND:                -0.773
REMARK SMILES CCCCCCCCCCCC(=O)[O-]
REMARK SMILES IDX 7 1 8 2 9 3 10 4 11 5 12 6 13 7 14 8 6 9 5 10 4 11 3 12 2 13
REMARK SMILES IDX 1 14
REMARK H PARENT
REMARK Flexibility Score: inf
ROOT
ATOM      1  C   UNL     1       7.552 -18.911  25.286  1.00  0.00     0.000 C 
ENDROOT
BRANCH   1   2
ATOM      2  C   UNL     1       6.860 -20.265  25.042  1.00  0.00     0.000 C 
BRANCH   2   3
ATOM      3  C   UNL     1       6.419 -20.475  23.579  1.00  0.00     0.000 C 
BRANCH   3   4
ATOM      4  C   UNL     1       7.507 -21.164  22.738  1.00  0.00     0.006 C 
BRANCH   4   5
ATOM      5  C   UNL     1       7.015 -21.515  21.328  1.00  0.00     0.053 C 
BRANCH   5   6
ATOM      6  C   UNL     1       8.018 -22.343  20.584  1.00  0.00     0.041 C 
ATOM      7  O   UNL     1       8.499 -23.381  21.111  1.00  0.00    -0.550 OA
ATOM      8  O   UNL     1       8.400 -21.984  19.298  1.00  0.00    -0.550 OA
ENDBRANCH   5   6
ENDBRANCH   4   5
ENDBRANCH   3   4
ENDBRANCH   2   3
ENDBRANCH   1   2
BRANCH   1   9
ATOM      9  C   UNL     1       6.978 -17.781  24.422  1.00  0.00     0.000 C 
BRANCH   9  10
ATOM     10  C   UNL     1       8.090 -17.057  23.651  1.00  0.00    -0.000 C 
BRANCH  10  11
ATOM     11  C   UNL     1       7.651 -16.605  22.246  1.00  0.00    -0.000 C 
BRANCH  11  12
ATOM     12  C   UNL     1       7.758 -17.684  21.154  1.00  0.00    -0.000 C 
BRANCH  12  13
ATOM     13  C   UNL     1       7.221 -17.215  19.794  1.00  0.00    -0.003 C 
ATOM     14  C   UNL     1       6.641 -15.808  19.888  1.00  0.00     0.004 C 
ENDBRANCH  12  13
ENDBRANCH  11  12
ENDBRANCH  10  11
ENDBRANCH   9  10
ENDBRANCH   1   9
TORSDOF 10
ENDMDL
MODEL 4
REMARK VINA RESULT:    -4.200      1.776      2.776
REMARK INTER + INTRA:          -7.428
REMARK INTER:                  -6.306
REMARK INTRA:                  -1.123
REMARK UNBOUND:                -0.773
REMARK SMILES CCCCCCCCCCCC(=O)[O-]
REMARK SMILES IDX 7 1 8 2 9 3 10 4 11 5 12 6 13 7 14 8 6 9 5 10 4 11 3 12 2 13
REMARK SMILES IDX 1 14
REMARK H PARENT
REMARK Flexibility Score: inf
ROOT
ATOM      1  C   UNL     1       7.495 -17.948  19.969  1.00  0.00     0.000 C 
ENDROOT
BRANCH   1   2
ATOM      2  C   UNL     1       8.029 -17.045  21.096  1.00  0.00     0.000 C 
BRANCH   2   3
ATOM      3  C   UNL     1       7.142 -15.813  21.371  1.00  0.00     0.000 C 
BRANCH   3   4
ATOM      4  C   UNL     1       6.829 -15.647  22.868  1.00  0.00     0.006 C 
BRANCH   4   5
ATOM      5  C   UNL     1       7.427 -16.778  23.714  1.00  0.00     0.053 C 
BRANCH   5   6
ATOM      6  C   UNL     1       8.373 -16.251  24.749  1.00  0.00     0.041 C 
ATOM      7  O   UNL     1       8.565 -16.890  25.818  1.00  0.00    -0.550 OA
ATOM      8  O   UNL     1       9.066 -15.069  24.521  1.00  0.00    -0.550 OA
ENDBRANCH   5   6
ENDBRANCH   4   5
ENDBRANCH   3   4
ENDBRANCH   2   3
ENDBRANCH   1   2
BRANCH   1   9
ATOM      9  C   UNL     1       7.601 -19.443  20.299  1.00  0.00     0.000 C 
BRANCH   9  10
ATOM     10  C   UNL     1       8.883 -19.744  21.088  1.00  0.00    -0.000 C 
BRANCH  10  11
ATOM     11  C   UNL     1       8.615 -20.489  22.408  1.00  0.00    -0.000 C 
BRANCH  11  12
ATOM     12  C   UNL     1       7.216 -21.121  22.523  1.00  0.00    -0.000 C 
BRANCH  12  13
ATOM     13  C   UNL     1       6.311 -20.394  23.527  1.00  0.00    -0.003 C 
ATOM     14  C   UNL     1       6.994 -20.258  24.885  1.00  0.00     0.004 C 
ENDBRANCH  12  13
ENDBRANCH  11  12
ENDBRANCH  10  11
ENDBRANCH   9  10
ENDBRANCH   1   9
TORSDOF 10
ENDMDL
MODEL 5
REMARK VINA RESULT:    -4.187      0.986      1.553
REMARK INTER + INTRA:          -7.408
REMARK INTER:                  -6.366
REMARK INTRA:                  -1.042
REMARK UNBOUND:                -0.773
REMARK SMILES CCCCCCCCCCCC(=O)[O-]
REMARK SMILES IDX 7 1 8 2 9 3 10 4 11 5 12 6 13 7 14 8 6 9 5 10 4 11 3 12 2 13
REMARK SMILES IDX 1 14
REMARK H PARENT
REMARK Flexibility Score: inf
ROOT
ATOM      1  C   UNL     1       7.023 -21.078  22.878  1.00  0.00     0.000 C 
ENDROOT
BRANCH   1   2
ATOM      2  C   UNL     1       6.885 -19.768  23.675  1.00  0.00     0.000 C 
BRANCH   2   3
ATOM      3  C   UNL     1       8.208 -18.988  23.813  1.00  0.00     0.000 C 
BRANCH   3   4
ATOM      4  C   UNL     1       8.198 -17.681  23.002  1.00  0.00     0.006 C 
BRANCH   4   5
ATOM      5  C   UNL     1       7.599 -16.511  23.796  1.00  0.00     0.053 C 
BRANCH   5   6
ATOM      6  C   UNL     1       8.597 -15.923  24.746  1.00  0.00     0.041 C 
ATOM      7  O   UNL     1       8.493 -16.131  25.984  1.00  0.00    -0.550 OA
ATOM      8  O   UNL     1       9.658 -15.169  24.263  1.00  0.00    -0.550 OA
ENDBRANCH   5   6
ENDBRANCH   4   5
ENDBRANCH   3   4
ENDBRANCH   2   3
ENDBRANCH   1   2
BRANCH   1   9
ATOM      9  C   UNL     1       7.050 -20.856  21.360  1.00  0.00     0.000 C 
BRANCH   9  10
ATOM     10  C   UNL     1       7.817 -21.980  20.652  1.00  0.00    -0.000 C 
BRANCH  10  11
ATOM     11  C   UNL     1       8.397 -23.020  21.629  1.00  0.00    -0.000 C 
BRANCH  11  12
ATOM     12  C   UNL     1       9.934 -23.054  21.704  1.00  0.00    -0.000 C 
BRANCH  12  13
ATOM     13  C   UNL     1      10.587 -21.759  21.196  1.00  0.00    -0.003 C 
ATOM     14  C   UNL     1      10.977 -20.849  22.356  1.00  0.00     0.004 C 
ENDBRANCH  12  13
ENDBRANCH  11  12
ENDBRANCH  10  11
ENDBRANCH   9  10
ENDBRANCH   1   9
TORSDOF 10
ENDMDL
MODEL 6
REMARK VINA RESULT:    -4.170      3.603      5.542
REMARK INTER + INTRA:          -7.381
REMARK INTER:                  -5.779
REMARK INTRA:                  -1.602
REMARK UNBOUND:                -0.773
REMARK SMILES CCCCCCCCCCCC(=O)[O-]
REMARK SMILES IDX 7 1 8 2 9 3 10 4 11 5 12 6 13 7 14 8 6 9 5 10 4 11 3 12 2 13
REMARK SMILES IDX 1 14
REMARK H PARENT
REMARK Flexibility Score: inf
ROOT
ATOM      1  C   UNL     1       7.515 -18.780  25.013  1.00  0.00     0.000 C 
ENDROOT
BRANCH   1   2
ATOM      2  C   UNL     1       6.945 -20.208  24.942  1.00  0.00     0.000 C 
BRANCH   2   3
ATOM      3  C   UNL     1       6.399 -20.586  23.550  1.00  0.00     0.000 C 
BRANCH   3   4
ATOM      4  C   UNL     1       7.389 -21.455  22.755  1.00  0.00     0.006 C 
BRANCH   4   5
ATOM      5  C   UNL     1       7.158 -21.360  21.241  1.00  0.00     0.053 C 
BRANCH   5   6
ATOM      6  C   UNL     1       8.123 -22.219  20.482  1.00  0.00     0.041 C 
ATOM      7  O   UNL     1       8.687 -23.193  21.049  1.00  0.00    -0.550 OA
ATOM      8  O   UNL     1       8.378 -21.962  19.142  1.00  0.00    -0.550 OA
ENDBRANCH   5   6
ENDBRANCH   4   5
ENDBRANCH   3   4
ENDBRANCH   2   3
ENDBRANCH   1   2
BRANCH   1   9
ATOM      9  C   UNL     1       6.782 -17.796  24.091  1.00  0.00     0.000 C 
BRANCH   9  10
ATOM     10  C   UNL     1       7.771 -17.044  23.189  1.00  0.00    -0.000 C 
BRANCH  10  11
ATOM     11  C   UNL     1       7.821 -17.603  21.756  1.00  0.00    -0.000 C 
BRANCH  11  12
ATOM     12  C   UNL     1       9.142 -18.294  21.374  1.00  0.00    -0.000 C 
BRANCH  12  13
ATOM     13  C   UNL     1      10.194 -18.234  22.491  1.00  0.00    -0.003 C 
ATOM     14  C   UNL     1      10.554 -19.632  22.983  1.00  0.00     0.004 C 
ENDBRANCH  12  13
ENDBRANCH  11  12
ENDBRANCH  10  11
ENDBRANCH   9  10
ENDBRANCH   1   9
TORSDOF 10
ENDMDL
MODEL 7
REMARK VINA RESULT:    -4.167      1.875      3.179
REMARK INTER + INTRA:          -7.375
REMARK INTER:                  -6.000
REMARK INTRA:                  -1.376
REMARK UNBOUND:                -0.773
REMARK SMILES CCCCCCCCCCCC(=O)[O-]
REMARK SMILES IDX 7 1 8 2 9 3 10 4 11 5 12 6 13 7 14 8 6 9 5 10 4 11 3 12 2 13
REMARK SMILES IDX 1 14
REMARK H PARENT
REMARK Flexibility Score: inf
ROOT
ATOM      1  C   UNL     1       6.790 -20.732  24.355  1.00  0.00     0.000 C 
ENDROOT
BRANCH   1   2
ATOM      2  C   UNL     1       7.312 -19.363  24.829  1.00  0.00     0.000 C 
BRANCH   2   3
ATOM      3  C   UNL     1       6.398 -18.185  24.432  1.00  0.00     0.000 C 
BRANCH   3   4
ATOM      4  C   UNL     1       7.154 -17.110  23.633  1.00  0.00     0.006 C 
BRANCH   4   5
ATOM      5  C   UNL     1       8.669 -17.172  23.865  1.00  0.00     0.053 C 
BRANCH   5   6
ATOM      6  C   UNL     1       9.154 -15.995  24.654  1.00  0.00     0.041 C 
ATOM      7  O   UNL     1       8.878 -15.895  25.880  1.00  0.00    -0.550 OA
ATOM      8  O   UNL     1       9.936 -15.023  24.045  1.00  0.00    -0.550 OA
ENDBRANCH   5   6
ENDBRANCH   4   5
ENDBRANCH   3   4
ENDBRANCH   2   3
ENDBRANCH   1   2
BRANCH   1   9
ATOM      9  C   UNL     1       7.075 -21.001  22.872  1.00  0.00     0.000 C 
BRANCH   9  10
ATOM     10  C   UNL     1       8.503 -20.580  22.499  1.00  0.00    -0.000 C 
BRANCH  10  11
ATOM     11  C   UNL     1       8.640 -20.165  21.023  1.00  0.00    -0.000 C 
BRANCH  11  12
ATOM     12  C   UNL     1       7.543 -19.215  20.511  1.00  0.00    -0.000 C 
BRANCH  12  13
ATOM     13  C   UNL     1       8.105 -18.009  19.745  1.00  0.00    -0.003 C 
ATOM     14  C   UNL     1       7.324 -16.739  20.069  1.00  0.00     0.004 C 
ENDBRANCH  12  13
ENDBRANCH  11  12
ENDBRANCH  10  11
ENDBRANCH   9  10
ENDBRANCH   1   9
TORSDOF 10
ENDMDL
MODEL 8
REMARK VINA RESULT:    -4.137      1.351      1.846
REMARK INTER + INTRA:          -7.329
REMARK INTER:                  -6.316
REMARK INTRA:                  -1.012
REMARK UNBOUND:                -0.773
REMARK SMILES CCCCCCCCCCCC(=O)[O-]
REMARK SMILES IDX 7 1 8 2 9 3 10 4 11 5 12 6 13 7 14 8 6 9 5 10 4 11 3 12 2 13
REMARK SMILES IDX 1 14
REMARK H PARENT
REMARK Flexibility Score: inf
ROOT
ATOM      1  C   UNL     1       8.371 -18.863  22.690  1.00  0.00     0.000 C 
ENDROOT
BRANCH   1   2
ATOM      2  C   UNL     1       9.890 -18.650  22.552  1.00  0.00     0.000 C 
BRANCH   2   3
ATOM      3  C   UNL     1      10.308 -17.166  22.560  1.00  0.00     0.000 C 
BRANCH   3   4
ATOM      4  C   UNL     1       9.177 -16.248  23.054  1.00  0.00     0.006 C 
BRANCH   4   5
ATOM      5  C   UNL     1       9.549 -15.517  24.351  1.00  0.00     0.053 C 
BRANCH   5   6
ATOM      6  C   UNL     1       9.373 -16.398  25.550  1.00  0.00     0.041 C 
ATOM      7  O   UNL     1       8.224 -16.606  26.022  1.00  0.00    -0.550 OA
ATOM      8  O   UNL     1      10.476 -17.013  26.130  1.00  0.00    -0.550 OA
ENDBRANCH   5   6
ENDBRANCH   4   5
ENDBRANCH   3   4
ENDBRANCH   2   3
ENDBRANCH   1   2
BRANCH   1   9
ATOM      9  C   UNL     1       8.010 -19.969  23.691  1.00  0.00     0.000 C 
BRANCH   9  10
ATOM     10  C   UNL     1       7.088 -21.014  23.047  1.00  0.00    -0.000 C 
BRANCH  10  11
ATOM     11  C   UNL     1       7.073 -20.936  21.510  1.00  0.00    -0.000 C 
BRANCH  11  12
ATOM     12  C   UNL     1       7.610 -22.187  20.791  1.00  0.00    -0.000 C 
BRANCH  12  13
ATOM     13  C   UNL     1       8.509 -23.052  21.686  1.00  0.00    -0.003 C 
ATOM     14  C   UNL     1       9.982 -22.847  21.348  1.00  0.00     0.004 C 
ENDBRANCH  12  13
ENDBRANCH  11  12
ENDBRANCH  10  11
ENDBRANCH   9  10
ENDBRANCH   1   9
TORSDOF 10
ENDMDL
MODEL 9
REMARK VINA RESULT:    -4.127      3.092      4.592
REMARK INTER + INTRA:          -7.312
REMARK INTER:                  -5.586
REMARK INTRA:                  -1.726
REMARK UNBOUND:                -0.773
REMARK SMILES CCCCCCCCCCCC(=O)[O-]
REMARK SMILES IDX 7 1 8 2 9 3 10 4 11 5 12 6 13 7 14 8 6 9 5 10 4 11 3 12 2 13
REMARK SMILES IDX 1 14
REMARK H PARENT
REMARK Flexibility Score: inf
ROOT
ATOM      1  C   UNL     1       7.747 -15.251  23.352  1.00  0.00     0.000 C 
ENDROOT
BRANCH   1   2
ATOM      2  C   UNL     1       9.091 -15.423  24.083  1.00  0.00     0.000 C 
BRANCH   2   3
ATOM      3  C   UNL     1       8.949 -16.008  25.503  1.00  0.00     0.000 C 
BRANCH   3   4
ATOM      4  C   UNL     1      10.073 -17.005  25.834  1.00  0.00     0.006 C 
BRANCH   4   5
ATOM      5  C   UNL     1      11.158 -17.036  24.750  1.00  0.00     0.053 C 
BRANCH   5   6
ATOM      6  C   UNL     1      11.940 -18.313  24.790  1.00  0.00     0.041 C 
ATOM      7  O   UNL     1      12.973 -18.402  25.506  1.00  0.00    -0.550 OA
ATOM      8  O   UNL     1      11.513 -19.414  24.060  1.00  0.00    -0.550 OA
ENDBRANCH   5   6
ENDBRANCH   4   5
ENDBRANCH   3   4
ENDBRANCH   2   3
ENDBRANCH   1   2
BRANCH   1   9
ATOM      9  C   UNL     1       7.571 -16.229  22.182  1.00  0.00     0.000 C 
BRANCH   9  10
ATOM     10  C   UNL     1       8.895 -16.930  21.846  1.00  0.00    -0.000 C 
BRANCH  10  11
ATOM     11  C   UNL     1       8.807 -18.463  21.955  1.00  0.00    -0.000 C 
BRANCH  11  12
ATOM     12  C   UNL     1       7.571 -18.991  22.706  1.00  0.00    -0.000 C 
BRANCH  12  13
ATOM     13  C   UNL     1       7.891 -19.450  24.136  1.00  0.00    -0.003 C 
ATOM     14  C   UNL     1       6.841 -18.950  25.122  1.00  0.00     0.004 C 
ENDBRANCH  12  13
ENDBRANCH  11  12
ENDBRANCH  10  11
ENDBRANCH   9  10
ENDBRANCH   1   9
TORSDOF 10
ENDMDL
