MODEL 1
REMARK VINA RESULT:    -8.145      0.000      0.000
REMARK INTER + INTRA:          -9.127
REMARK INTER:                  -8.859
REMARK INTRA:                  -0.268
REMARK UNBOUND:                -0.268
REMARK SMILES C[C@@H]1[C@H](C)CC[C@]2(C(=O)[O-])CC[C@]3(C)C(=CC[C@@H]4[C@]5(C)CC[C@H](O)C(C)(C)[C@H]5CC[C@]43C)[C@H]12
REMARK SMILES IDX 7 1 6 2 11 3 33 4 5 5 12 6 15 7 2 8 3 9 13 10 16 11 1 12
REMARK SMILES IDX 4 13 14 14 31 15 17 16 18 17 30 18 32 19 19 20 29 21 28 22
REMARK SMILES IDX 21 23 20 24 25 25 22 26 23 27 26 28 27 29 8 30 9 31 10 32
REMARK SMILES IDX 24 33
REMARK H PARENT 24 34
REMARK Flexibility Score: inf
ROOT
ATOM      1  C   UNL     1     101.791  98.542  96.347  1.00  0.00     0.017 C 
ATOM      2  C   UNL     1     100.520  97.697  96.084  1.00  0.00     0.014 C 
ATOM      3  C   UNL     1     102.813  98.111  95.253  1.00  0.00     0.014 C 
ATOM      4  C   UNL     1     102.381  98.231  97.780  1.00  0.00     0.030 C 
ATOM      5  C   UNL     1      99.634  97.667  97.366  1.00  0.00     0.004 C 
ATOM      6  C   UNL     1     104.105  98.874  95.415  1.00  0.00     0.013 C 
ATOM      7  C   UNL     1     103.834  98.681  97.953  1.00  0.00    -0.063 C 
ATOM      8  C   UNL     1     101.830  96.929  98.585  1.00  0.00    -0.003 C 
ATOM      9  C   UNL     1     100.237  96.629  98.359  1.00  0.00    -0.011 C 
ATOM     10  C   UNL     1     104.822  98.588  96.765  1.00  0.00    -0.006 C 
ATOM     11  C   UNL     1     104.190  99.207  99.152  1.00  0.00    -0.027 C 
ATOM     12  C   UNL     1     102.673  95.609  98.689  1.00  0.00     0.008 C 
ATOM     13  C   UNL     1      99.674  95.245  97.861  1.00  0.00     0.008 C 
ATOM     14  C   UNL     1     105.323  97.104  96.752  1.00  0.00     0.017 C 
ATOM     15  C   UNL     1     106.061  99.632  96.913  1.00  0.00    -0.020 C 
ATOM     16  C   UNL     1     105.401 100.065  99.346  1.00  0.00     0.032 C 
ATOM     17  C   UNL     1     106.549  99.659  98.404  1.00  0.00     0.006 C 
ATOM     18  C   UNL     1     107.248  99.197  95.960  1.00  0.00     0.008 C 
ATOM     19  C   UNL     1     105.582 101.061  96.492  1.00  0.00     0.012 C 
ATOM     20  C   UNL     1     107.896 100.482  98.684  1.00  0.00    -0.025 C 
ATOM     21  C   UNL     1     108.679  99.316  96.541  1.00  0.00     0.005 C 
ATOM     22  C   UNL     1     108.735 100.634  97.342  1.00  0.00     0.003 C 
ATOM     23  C   UNL     1     107.682 101.924  99.238  1.00  0.00     0.010 C 
ATOM     24  C   UNL     1     108.633  99.649  99.789  1.00  0.00     0.012 C 
ATOM     25  C   UNL     1     110.106 101.361  97.468  1.00  0.00    -0.006 C 
ATOM     26  C   UNL     1     108.968 102.715  99.395  1.00  0.00     0.033 C 
ATOM     27  C   UNL     1     109.810 102.780  98.112  1.00  0.00     0.120 C 
ATOM     28  C   UNL     1     110.709 101.574  96.078  1.00  0.00     0.014 C 
ATOM     29  C   UNL     1     111.178 100.602  98.303  1.00  0.00     0.014 C 
ENDROOT
BRANCH   1  30
ATOM     30  C   UNL     1     101.392 100.016  96.223  1.00  0.00     0.048 C 
ATOM     31  O   UNL     1     101.246 100.749  97.293  1.00  0.00    -0.550 OA
ATOM     32  O   UNL     1     100.757 100.493  95.082  1.00  0.00    -0.550 OA
ENDBRANCH   1  30
BRANCH  27  33
ATOM     33  O   UNL     1     109.112 103.593  97.199  1.00  0.00    -0.393 OA
ATOM     34  H   UNL     1     108.569 104.266  97.693  1.00  0.00     0.210 HD
ENDBRANCH  27  33
TORSDOF 2
ENDMDL
MODEL 2
REMARK VINA RESULT:    -7.095      2.172      8.239
REMARK INTER + INTRA:          -7.984
REMARK INTER:                  -7.809
REMARK INTRA:                  -0.175
REMARK UNBOUND:                -0.268
REMARK SMILES C[C@@H]1[C@H](C)CC[C@]2(C(=O)[O-])CC[C@]3(C)C(=CC[C@@H]4[C@]5(C)CC[C@H](O)C(C)(C)[C@H]5CC[C@]43C)[C@H]12
REMARK SMILES IDX 7 1 6 2 11 3 33 4 5 5 12 6 15 7 2 8 3 9 13 10 16 11 1 12
REMARK SMILES IDX 4 13 14 14 31 15 17 16 18 17 30 18 32 19 19 20 29 21 28 22
REMARK SMILES IDX 21 23 20 24 25 25 22 26 23 27 26 28 27 29 8 30 9 31 10 32
REMARK SMILES IDX 24 33
REMARK H PARENT 24 34
REMARK Flexibility Score: inf
ROOT
ATOM      1  C   UNL     1     106.653 100.237  96.935  1.00  0.00     0.017 C 
ATOM      2  C   UNL     1     107.942 101.078  97.102  1.00  0.00     0.014 C 
ATOM      3  C   UNL     1     105.713 101.088  96.028  1.00  0.00     0.014 C 
ATOM      4  C   UNL     1     105.961  99.990  98.334  1.00  0.00     0.030 C 
ATOM      5  C   UNL     1     108.733 100.584  98.350  1.00  0.00     0.004 C 
ATOM      6  C   UNL     1     104.410 100.362  95.798  1.00  0.00     0.013 C 
ATOM      7  C   UNL     1     104.498  99.554  98.225  1.00  0.00    -0.063 C 
ATOM      8  C   UNL     1     106.457 100.864  99.614  1.00  0.00    -0.003 C 
ATOM      9  C   UNL     1     108.064 101.177  99.626  1.00  0.00    -0.011 C 
ATOM     10  C   UNL     1     103.599 100.128  97.103  1.00  0.00    -0.006 C 
ATOM     11  C   UNL     1     104.054  98.618  99.101  1.00  0.00    -0.027 C 
ATOM     12  C   UNL     1     105.614 102.067 100.165  1.00  0.00     0.008 C 
ATOM     13  C   UNL     1     108.666 102.628  99.740  1.00  0.00     0.008 C 
ATOM     14  C   UNL     1     103.105 101.518  97.632  1.00  0.00     0.017 C 
ATOM     15  C   UNL     1     102.349  99.148  96.755  1.00  0.00    -0.020 C 
ATOM     16  C   UNL     1     102.830  97.790  98.869  1.00  0.00     0.032 C 
ATOM     17  C   UNL     1     101.754  98.563  98.085  1.00  0.00     0.006 C 
ATOM     18  C   UNL     1     101.235  99.953  95.969  1.00  0.00     0.008 C 
ATOM     19  C   UNL     1     102.851  97.977  95.847  1.00  0.00     0.012 C 
ATOM     20  C   UNL     1     100.388  97.739  97.935  1.00  0.00    -0.025 C 
ATOM     21  C   UNL     1      99.766  99.664  96.364  1.00  0.00     0.005 C 
ATOM     22  C   UNL     1      99.647  98.142  96.588  1.00  0.00     0.003 C 
ATOM     23  C   UNL     1     100.556  96.188  97.902  1.00  0.00     0.010 C 
ATOM     24  C   UNL     1      99.575  98.104  99.226  1.00  0.00     0.012 C 
ATOM     25  C   UNL     1      98.268  97.465  96.333  1.00  0.00    -0.006 C 
ATOM     26  C   UNL     1      99.258  95.438  97.656  1.00  0.00     0.033 C 
ATOM     27  C   UNL     1      98.511  95.900  96.396  1.00  0.00     0.120 C 
ATOM     28  C   UNL     1      97.766  97.824  94.933  1.00  0.00     0.014 C 
ATOM     29  C   UNL     1      97.141  97.877  97.325  1.00  0.00     0.014 C 
ENDROOT
BRANCH   1  30
ATOM     30  C   UNL     1     107.054  98.914  96.276  1.00  0.00     0.048 C 
ATOM     31  O   UNL     1     107.355  98.877  95.006  1.00  0.00    -0.550 OA
ATOM     32  O   UNL     1     106.694  97.694  96.839  1.00  0.00    -0.550 OA
ENDBRANCH   1  30
BRANCH  27  33
ATOM     33  O   UNL     1      99.271  95.480  95.288  1.00  0.00    -0.393 OA
ATOM     34  H   UNL     1      98.913  95.893  94.456  1.00  0.00     0.210 HD
ENDBRANCH  27  33
TORSDOF 2
ENDMDL
MODEL 3
REMARK VINA RESULT:    -6.992      1.905      8.101
REMARK INTER + INTRA:          -7.872
REMARK INTER:                  -7.606
REMARK INTRA:                  -0.266
REMARK UNBOUND:                -0.268
REMARK SMILES C[C@@H]1[C@H](C)CC[C@]2(C(=O)[O-])CC[C@]3(C)C(=CC[C@@H]4[C@]5(C)CC[C@H](O)C(C)(C)[C@H]5CC[C@]43C)[C@H]12
REMARK SMILES IDX 7 1 6 2 11 3 33 4 5 5 12 6 15 7 2 8 3 9 13 10 16 11 1 12
REMARK SMILES IDX 4 13 14 14 31 15 17 16 18 17 30 18 32 19 19 20 29 21 28 22
REMARK SMILES IDX 21 23 20 24 25 25 22 26 23 27 26 28 27 29 8 30 9 31 10 32
REMARK SMILES IDX 24 33
REMARK H PARENT 24 34
REMARK Flexibility Score: inf
ROOT
ATOM      1  C   UNL     1     108.851 100.190  97.741  1.00  0.00     0.017 C 
ATOM      2  C   UNL     1     110.374 100.393  97.553  1.00  0.00     0.014 C 
ATOM      3  C   UNL     1     108.483  98.954  96.865  1.00  0.00     0.014 C 
ATOM      4  C   UNL     1     108.051 101.456  97.236  1.00  0.00     0.030 C 
ATOM      5  C   UNL     1     110.765 101.846  97.961  1.00  0.00     0.004 C 
ATOM      6  C   UNL     1     107.006  98.661  96.967  1.00  0.00     0.013 C 
ATOM      7  C   UNL     1     106.566 101.183  96.987  1.00  0.00    -0.063 C 
ATOM      8  C   UNL     1     108.836 102.570  96.345  1.00  0.00    -0.003 C 
ATOM      9  C   UNL     1     110.393 102.805  96.791  1.00  0.00    -0.011 C 
ATOM     10  C   UNL     1     106.113  99.813  96.426  1.00  0.00    -0.006 C 
ATOM     11  C   UNL     1     105.682 102.154  97.328  1.00  0.00    -0.027 C 
ATOM     12  C   UNL     1     108.643 102.664  94.791  1.00  0.00     0.008 C 
ATOM     13  C   UNL     1     111.609 102.690  95.796  1.00  0.00     0.008 C 
ATOM     14  C   UNL     1     106.317  99.907  94.876  1.00  0.00     0.017 C 
ATOM     15  C   UNL     1     104.567  99.475  96.802  1.00  0.00    -0.020 C 
ATOM     16  C   UNL     1     104.226 101.896  97.553  1.00  0.00     0.032 C 
ATOM     17  C   UNL     1     103.695 100.771  96.647  1.00  0.00     0.006 C 
ATOM     18  C   UNL     1     104.019  98.333  95.853  1.00  0.00     0.008 C 
ATOM     19  C   UNL     1     104.497  98.970  98.281  1.00  0.00     0.012 C 
ATOM     20  C   UNL     1     102.111 100.567  96.782  1.00  0.00    -0.025 C 
ATOM     21  C   UNL     1     102.571  98.507  95.329  1.00  0.00     0.005 C 
ATOM     22  C   UNL     1     101.727  99.049  96.501  1.00  0.00     0.003 C 
ATOM     23  C   UNL     1     101.518 100.923  98.180  1.00  0.00     0.010 C 
ATOM     24  C   UNL     1     101.504 101.566  95.737  1.00  0.00     0.012 C 
ATOM     25  C   UNL     1     100.208  98.708  96.535  1.00  0.00    -0.006 C 
ATOM     26  C   UNL     1     100.035 100.622  98.310  1.00  0.00     0.033 C 
ATOM     27  C   UNL     1      99.669  99.173  97.952  1.00  0.00     0.120 C 
ATOM     28  C   UNL     1     100.015  97.194  96.414  1.00  0.00     0.014 C 
ATOM     29  C   UNL     1      99.364  99.353  95.398  1.00  0.00     0.014 C 
ENDROOT
BRANCH   1  30
ATOM     30  C   UNL     1     108.605  99.939  99.231  1.00  0.00     0.048 C 
ATOM     31  O   UNL     1     108.110 100.885  99.983  1.00  0.00    -0.550 OA
ATOM     32  O   UNL     1     109.278  98.929  99.910  1.00  0.00    -0.550 OA
ENDBRANCH   1  30
BRANCH  27  33
ATOM     33  O   UNL     1     100.193  98.351  98.968  1.00  0.00    -0.393 OA
ATOM     34  H   UNL     1     100.999  97.872  98.633  1.00  0.00     0.210 HD
ENDBRANCH  27  33
TORSDOF 2
ENDMDL
MODEL 4
REMARK VINA RESULT:    -6.815      1.572      8.443
REMARK INTER + INTRA:          -7.680
REMARK INTER:                  -7.425
REMARK INTRA:                  -0.254
REMARK UNBOUND:                -0.268
REMARK SMILES C[C@@H]1[C@H](C)CC[C@]2(C(=O)[O-])CC[C@]3(C)C(=CC[C@@H]4[C@]5(C)CC[C@H](O)C(C)(C)[C@H]5CC[C@]43C)[C@H]12
REMARK SMILES IDX 7 1 6 2 11 3 33 4 5 5 12 6 15 7 2 8 3 9 13 10 16 11 1 12
REMARK SMILES IDX 4 13 14 14 31 15 17 16 18 17 30 18 32 19 19 20 29 21 28 22
REMARK SMILES IDX 21 23 20 24 25 25 22 26 23 27 26 28 27 29 8 30 9 31 10 32
REMARK SMILES IDX 24 33
REMARK H PARENT 24 34
REMARK Flexibility Score: inf
ROOT
ATOM      1  C   UNL     1     110.180 103.481  96.932  1.00  0.00     0.017 C 
ATOM      2  C   UNL     1     111.536 104.195  97.157  1.00  0.00     0.014 C 
ATOM      3  C   UNL     1     109.424 103.583  98.291  1.00  0.00     0.014 C 
ATOM      4  C   UNL     1     110.404 101.962  96.560  1.00  0.00     0.030 C 
ATOM      5  C   UNL     1     112.555 103.742  96.069  1.00  0.00     0.004 C 
ATOM      6  C   UNL     1     108.077 102.910  98.192  1.00  0.00     0.013 C 
ATOM      7  C   UNL     1     109.153 101.098  96.739  1.00  0.00    -0.063 C 
ATOM      8  C   UNL     1     111.881 101.314  96.780  1.00  0.00    -0.003 C 
ATOM      9  C   UNL     1     113.114 102.343  96.467  1.00  0.00    -0.011 C 
ATOM     10  C   UNL     1     108.172 101.386  97.901  1.00  0.00    -0.006 C 
ATOM     11  C   UNL     1     108.922 100.128  95.819  1.00  0.00    -0.027 C 
ATOM     12  C   UNL     1     112.191 100.367  97.991  1.00  0.00     0.008 C 
ATOM     13  C   UNL     1     114.261 102.664  97.498  1.00  0.00     0.008 C 
ATOM     14  C   UNL     1     108.791 100.683  99.157  1.00  0.00     0.017 C 
ATOM     15  C   UNL     1     106.674 100.834  97.592  1.00  0.00    -0.020 C 
ATOM     16  C   UNL     1     107.578  99.507  95.601  1.00  0.00     0.032 C 
ATOM     17  C   UNL     1     106.764  99.425  96.905  1.00  0.00     0.006 C 
ATOM     18  C   UNL     1     105.848 100.731  98.939  1.00  0.00     0.008 C 
ATOM     19  C   UNL     1     105.944 101.836  96.636  1.00  0.00     0.012 C 
ATOM     20  C   UNL     1     105.375  98.649  96.718  1.00  0.00    -0.025 C 
ATOM     21  C   UNL     1     104.952  99.478  99.104  1.00  0.00     0.005 C 
ATOM     22  C   UNL     1     104.290  99.209  97.736  1.00  0.00     0.003 C 
ATOM     23  C   UNL     1     104.746  98.760  95.294  1.00  0.00     0.010 C 
ATOM     24  C   UNL     1     105.740  97.143  96.962  1.00  0.00     0.012 C 
ATOM     25  C   UNL     1     102.901  98.507  97.715  1.00  0.00    -0.006 C 
ATOM     26  C   UNL     1     103.382  98.103  95.176  1.00  0.00     0.033 C 
ATOM     27  C   UNL     1     102.371  98.594  96.223  1.00  0.00     0.120 C 
ATOM     28  C   UNL     1     101.926  99.261  98.622  1.00  0.00     0.014 C 
ATOM     29  C   UNL     1     102.904  97.029  98.202  1.00  0.00     0.014 C 
ENDROOT
BRANCH   1  30
ATOM     30  C   UNL     1     109.455 104.225  95.807  1.00  0.00     0.048 C 
ATOM     31  O   UNL     1     109.294 103.656  94.642  1.00  0.00    -0.550 OA
ATOM     32  O   UNL     1     109.352 105.611  95.813  1.00  0.00    -0.550 OA
ENDBRANCH   1  30
BRANCH  27  33
ATOM     33  O   UNL     1     102.050  99.924  95.896  1.00  0.00    -0.393 OA
ATOM     34  H   UNL     1     102.444 100.160  95.013  1.00  0.00     0.210 HD
ENDBRANCH  27  33
TORSDOF 2
ENDMDL
MODEL 5
REMARK VINA RESULT:    -6.789      2.263      3.973
REMARK INTER + INTRA:          -7.652
REMARK INTER:                  -7.411
REMARK INTRA:                  -0.241
REMARK UNBOUND:                -0.268
REMARK SMILES C[C@@H]1[C@H](C)CC[C@]2(C(=O)[O-])CC[C@]3(C)C(=CC[C@@H]4[C@]5(C)CC[C@H](O)C(C)(C)[C@H]5CC[C@]43C)[C@H]12
REMARK SMILES IDX 7 1 6 2 11 3 33 4 5 5 12 6 15 7 2 8 3 9 13 10 16 11 1 12
REMARK SMILES IDX 4 13 14 14 31 15 17 16 18 17 30 18 32 19 19 20 29 21 28 22
REMARK SMILES IDX 21 23 20 24 25 25 22 26 23 27 26 28 27 29 8 30 9 31 10 32
REMARK SMILES IDX 24 33
REMARK H PARENT 24 34
REMARK Flexibility Score: inf
ROOT
ATOM      1  C   UNL     1     105.381  98.011  96.822  1.00  0.00     0.017 C 
ATOM      2  C   UNL     1     104.328  96.966  97.265  1.00  0.00     0.014 C 
ATOM      3  C   UNL     1     106.749  97.470  97.339  1.00  0.00     0.014 C 
ATOM      4  C   UNL     1     105.083  99.418  97.479  1.00  0.00     0.030 C 
ATOM      5  C   UNL     1     102.909  97.612  97.251  1.00  0.00     0.004 C 
ATOM      6  C   UNL     1     107.861  98.419  96.965  1.00  0.00     0.013 C 
ATOM      7  C   UNL     1     106.278 100.373  97.447  1.00  0.00    -0.063 C 
ATOM      8  C   UNL     1     104.008  99.497  98.698  1.00  0.00    -0.003 C 
ATOM      9  C   UNL     1     102.744  98.469  98.541  1.00  0.00    -0.011 C 
ATOM     10  C   UNL     1     107.715  99.823  97.618  1.00  0.00    -0.006 C 
ATOM     11  C   UNL     1     106.028 101.685  97.210  1.00  0.00    -0.027 C 
ATOM     12  C   UNL     1     104.467  99.650 100.190  1.00  0.00     0.008 C 
ATOM     13  C   UNL     1     102.328  97.428  99.647  1.00  0.00     0.008 C 
ATOM     14  C   UNL     1     107.925  99.672  99.163  1.00  0.00     0.017 C 
ATOM     15  C   UNL     1     108.832 100.806  96.961  1.00  0.00    -0.020 C 
ATOM     16  C   UNL     1     107.070 102.646  96.729  1.00  0.00     0.032 C 
ATOM     17  C   UNL     1     108.467 102.300  97.276  1.00  0.00     0.006 C 
ATOM     18  C   UNL     1     110.263 100.462  97.544  1.00  0.00     0.008 C 
ATOM     19  C   UNL     1     108.860 100.589  95.412  1.00  0.00     0.012 C 
ATOM     20  C   UNL     1     109.573 103.389  96.876  1.00  0.00    -0.025 C 
ATOM     21  C   UNL     1     111.178 101.665  97.882  1.00  0.00     0.005 C 
ATOM     22  C   UNL     1     111.001 102.701  96.753  1.00  0.00     0.003 C 
ATOM     23  C   UNL     1     109.315 104.121  95.523  1.00  0.00     0.010 C 
ATOM     24  C   UNL     1     109.492 104.457  98.021  1.00  0.00     0.012 C 
ATOM     25  C   UNL     1     112.193 103.649  96.429  1.00  0.00    -0.006 C 
ATOM     26  C   UNL     1     110.430 105.071  95.120  1.00  0.00     0.033 C 
ATOM     27  C   UNL     1     111.817 104.411  95.090  1.00  0.00     0.120 C 
ATOM     28  C   UNL     1     113.458 102.823  96.180  1.00  0.00     0.014 C 
ATOM     29  C   UNL     1     112.546 104.669  97.550  1.00  0.00     0.014 C 
ENDROOT
BRANCH   1  30
ATOM     30  C   UNL     1     105.328  98.092  95.294  1.00  0.00     0.048 C 
ATOM     31  O   UNL     1     104.609  99.013  94.710  1.00  0.00    -0.550 OA
ATOM     32  O   UNL     1     105.641  96.990  94.506  1.00  0.00    -0.550 OA
ENDBRANCH   1  30
BRANCH  27  33
ATOM     33  O   UNL     1     111.827 103.519  94.001  1.00  0.00    -0.393 OA
ATOM     34  H   UNL     1     111.385 103.939  93.215  1.00  0.00     0.210 HD
ENDBRANCH  27  33
TORSDOF 2
ENDMDL
MODEL 6
REMARK VINA RESULT:    -6.749      2.635      8.508
REMARK INTER + INTRA:          -7.608
REMARK INTER:                  -7.345
REMARK INTRA:                  -0.263
REMARK UNBOUND:                -0.268
REMARK SMILES C[C@@H]1[C@H](C)CC[C@]2(C(=O)[O-])CC[C@]3(C)C(=CC[C@@H]4[C@]5(C)CC[C@H](O)C(C)(C)[C@H]5CC[C@]43C)[C@H]12
REMARK SMILES IDX 7 1 6 2 11 3 33 4 5 5 12 6 15 7 2 8 3 9 13 10 16 11 1 12
REMARK SMILES IDX 4 13 14 14 31 15 17 16 18 17 30 18 32 19 19 20 29 21 28 22
REMARK SMILES IDX 21 23 20 24 25 25 22 26 23 27 26 28 27 29 8 30 9 31 10 32
REMARK SMILES IDX 24 33
REMARK H PARENT 24 34
REMARK Flexibility Score: inf
ROOT
ATOM      1  C   UNL     1     105.385  98.961  95.739  1.00  0.00     0.017 C 
ATOM      2  C   UNL     1     106.838  99.378  95.403  1.00  0.00     0.014 C 
ATOM      3  C   UNL     1     104.481  99.777  94.767  1.00  0.00     0.014 C 
ATOM      4  C   UNL     1     105.029  99.332  97.234  1.00  0.00     0.030 C 
ATOM      5  C   UNL     1     107.775  99.027  96.598  1.00  0.00     0.004 C 
ATOM      6  C   UNL     1     103.027  99.453  95.008  1.00  0.00     0.013 C 
ATOM      7  C   UNL     1     103.525  99.353  97.517  1.00  0.00    -0.063 C 
ATOM      8  C   UNL     1     106.026 100.327  98.049  1.00  0.00    -0.003 C 
ATOM      9  C   UNL     1     107.611 100.123  97.693  1.00  0.00    -0.011 C 
ATOM     10  C   UNL     1     102.538  99.846  96.431  1.00  0.00    -0.006 C 
ATOM     11  C   UNL     1     103.104  98.877  98.716  1.00  0.00    -0.027 C 
ATOM     12  C   UNL     1     105.663 101.833  98.297  1.00  0.00     0.008 C 
ATOM     13  C   UNL     1     108.552 101.291  97.216  1.00  0.00     0.008 C 
ATOM     14  C   UNL     1     102.542 101.409  96.538  1.00  0.00     0.017 C 
ATOM     15  C   UNL     1     101.043  99.241  96.639  1.00  0.00    -0.020 C 
ATOM     16  C   UNL     1     101.699  98.435  98.976  1.00  0.00     0.032 C 
ATOM     17  C   UNL     1     100.679  99.255  98.165  1.00  0.00     0.006 C 
ATOM     18  C   UNL     1      99.995 100.101  95.822  1.00  0.00     0.008 C 
ATOM     19  C   UNL     1     101.005  97.771  96.105  1.00  0.00     0.012 C 
ATOM     20  C   UNL     1      99.162  98.882  98.525  1.00  0.00    -0.025 C 
ATOM     21  C   UNL     1      98.647 100.397  96.525  1.00  0.00     0.005 C 
ATOM     22  C   UNL     1      98.226  99.108  97.260  1.00  0.00     0.003 C 
ATOM     23  C   UNL     1      98.939  97.408  98.985  1.00  0.00     0.010 C 
ATOM     24  C   UNL     1      98.812  99.818  99.734  1.00  0.00     0.012 C 
ATOM     25  C   UNL     1      96.706  98.845  97.475  1.00  0.00    -0.006 C 
ATOM     26  C   UNL     1      97.480  97.055  99.219  1.00  0.00     0.033 C 
ATOM     27  C   UNL     1      96.574  97.360  98.017  1.00  0.00     0.120 C 
ATOM     28  C   UNL     1      95.970  98.942  96.137  1.00  0.00     0.014 C 
ATOM     29  C   UNL     1      95.998  99.837  98.442  1.00  0.00     0.014 C 
ENDROOT
BRANCH   1  30
ATOM     30  C   UNL     1     105.278  97.452  95.505  1.00  0.00     0.048 C 
ATOM     31  O   UNL     1     105.233  96.631  96.519  1.00  0.00    -0.550 OA
ATOM     32  O   UNL     1     105.664  96.884  94.295  1.00  0.00    -0.550 OA
ENDBRANCH   1  30
BRANCH  27  33
ATOM     33  O   UNL     1      96.907  96.440  97.005  1.00  0.00    -0.393 OA
ATOM     34  H   UNL     1      97.790  96.675  96.611  1.00  0.00     0.210 HD
ENDBRANCH  27  33
TORSDOF 2
ENDMDL
MODEL 7
REMARK VINA RESULT:    -6.724      1.766      7.955
REMARK INTER + INTRA:          -7.582
REMARK INTER:                  -7.369
REMARK INTRA:                  -0.212
REMARK UNBOUND:                -0.268
REMARK SMILES C[C@@H]1[C@H](C)CC[C@]2(C(=O)[O-])CC[C@]3(C)C(=CC[C@@H]4[C@]5(C)CC[C@H](O)C(C)(C)[C@H]5CC[C@]43C)[C@H]12
REMARK SMILES IDX 7 1 6 2 11 3 33 4 5 5 12 6 15 7 2 8 3 9 13 10 16 11 1 12
REMARK SMILES IDX 4 13 14 14 31 15 17 16 18 17 30 18 32 19 19 20 29 21 28 22
REMARK SMILES IDX 21 23 20 24 25 25 22 26 23 27 26 28 27 29 8 30 9 31 10 32
REMARK SMILES IDX 24 33
REMARK H PARENT 24 34
REMARK Flexibility Score: inf
ROOT
ATOM      1  C   UNL     1     107.802 101.533  96.915  1.00  0.00     0.017 C 
ATOM      2  C   UNL     1     109.233 102.053  97.196  1.00  0.00     0.014 C 
ATOM      3  C   UNL     1     106.842 102.600  97.523  1.00  0.00     0.014 C 
ATOM      4  C   UNL     1     107.565 100.139  97.623  1.00  0.00     0.030 C 
ATOM      5  C   UNL     1     110.250 100.877  97.089  1.00  0.00     0.004 C 
ATOM      6  C   UNL     1     105.405 102.192  97.311  1.00  0.00     0.013 C 
ATOM      7  C   UNL     1     106.087  99.766  97.759  1.00  0.00    -0.063 C 
ATOM      8  C   UNL     1     108.638  99.640  98.740  1.00  0.00    -0.003 C 
ATOM      9  C   UNL     1     110.188 100.049  98.407  1.00  0.00    -0.011 C 
ATOM     10  C   UNL     1     105.031 100.865  98.029  1.00  0.00    -0.006 C 
ATOM     11  C   UNL     1     105.749  98.464  97.577  1.00  0.00    -0.027 C 
ATOM     12  C   UNL     1     108.322  99.714 100.275  1.00  0.00     0.008 C 
ATOM     13  C   UNL     1     111.112 100.841  99.406  1.00  0.00     0.008 C 
ATOM     14  C   UNL     1     105.071 101.113  99.575  1.00  0.00     0.017 C 
ATOM     15  C   UNL     1     103.545 100.423  97.538  1.00  0.00    -0.020 C 
ATOM     16  C   UNL     1     104.359  98.015  97.253  1.00  0.00     0.032 C 
ATOM     17  C   UNL     1     103.296  98.917  97.905  1.00  0.00     0.006 C 
ATOM     18  C   UNL     1     102.454 101.339  98.229  1.00  0.00     0.008 C 
ATOM     19  C   UNL     1     103.440 100.608  95.987  1.00  0.00     0.012 C 
ATOM     20  C   UNL     1     101.804  98.379  97.675  1.00  0.00    -0.025 C 
ATOM     21  C   UNL     1     101.168 100.629  98.721  1.00  0.00     0.005 C 
ATOM     22  C   UNL     1     100.780  99.595  97.644  1.00  0.00     0.003 C 
ATOM     23  C   UNL     1     101.589  97.585  96.349  1.00  0.00     0.010 C 
ATOM     24  C   UNL     1     101.563  97.392  98.868  1.00  0.00     0.012 C 
ATOM     25  C   UNL     1      99.276  99.222  97.488  1.00  0.00    -0.006 C 
ATOM     26  C   UNL     1     100.146  97.177  96.108  1.00  0.00     0.033 C 
ATOM     27  C   UNL     1      99.158  98.352  96.167  1.00  0.00     0.120 C 
ATOM     28  C   UNL     1      98.444 100.494  97.309  1.00  0.00     0.014 C 
ATOM     29  C   UNL     1      98.660  98.458  98.695  1.00  0.00     0.014 C 
ENDROOT
BRANCH   1  30
ATOM     30  C   UNL     1     107.650 101.413  95.396  1.00  0.00     0.048 C 
ATOM     31  O   UNL     1     107.365 100.260  94.853  1.00  0.00    -0.550 OA
ATOM     32  O   UNL     1     108.224 102.348  94.542  1.00  0.00    -0.550 OA
ENDBRANCH   1  30
BRANCH  27  33
ATOM     33  O   UNL     1      99.398  99.151  95.034  1.00  0.00    -0.393 OA
ATOM     34  H   UNL     1      98.567  99.637  94.781  1.00  0.00     0.210 HD
ENDBRANCH  27  33
TORSDOF 2
ENDMDL
MODEL 8
REMARK VINA RESULT:    -6.676      2.127      8.549
REMARK INTER + INTRA:          -7.528
REMARK INTER:                  -7.276
REMARK INTRA:                  -0.252
REMARK UNBOUND:                -0.268
REMARK SMILES C[C@@H]1[C@H](C)CC[C@]2(C(=O)[O-])CC[C@]3(C)C(=CC[C@@H]4[C@]5(C)CC[C@H](O)C(C)(C)[C@H]5CC[C@]43C)[C@H]12
REMARK SMILES IDX 7 1 6 2 11 3 33 4 5 5 12 6 15 7 2 8 3 9 13 10 16 11 1 12
REMARK SMILES IDX 4 13 14 14 31 15 17 16 18 17 30 18 32 19 19 20 29 21 28 22
REMARK SMILES IDX 21 23 20 24 25 25 22 26 23 27 26 28 27 29 8 30 9 31 10 32
REMARK SMILES IDX 24 33
REMARK H PARENT 24 34
REMARK Flexibility Score: inf
ROOT
ATOM      1  C   UNL     1     105.093 100.859  98.095  1.00  0.00     0.017 C 
ATOM      2  C   UNL     1     106.546 101.391  98.143  1.00  0.00     0.014 C 
ATOM      3  C   UNL     1     105.055  99.654  99.082  1.00  0.00     0.014 C 
ATOM      4  C   UNL     1     104.726 100.366  96.639  1.00  0.00     0.030 C 
ATOM      5  C   UNL     1     106.835 102.246  96.873  1.00  0.00     0.004 C 
ATOM      6  C   UNL     1     103.674  99.047  99.115  1.00  0.00     0.013 C 
ATOM      7  C   UNL     1     103.498  99.453  96.594  1.00  0.00    -0.063 C 
ATOM      8  C   UNL     1     105.924 100.174  95.555  1.00  0.00    -0.003 C 
ATOM      9  C   UNL     1     107.123 101.282  95.683  1.00  0.00    -0.011 C 
ATOM     10  C   UNL     1     103.230  98.456  97.747  1.00  0.00    -0.006 C 
ATOM     11  C   UNL     1     102.646  99.597  95.548  1.00  0.00    -0.027 C 
ATOM     12  C   UNL     1     106.468  98.753  95.173  1.00  0.00     0.008 C 
ATOM     13  C   UNL     1     108.642 100.903  95.851  1.00  0.00     0.008 C 
ATOM     14  C   UNL     1     104.124  97.207  97.438  1.00  0.00     0.017 C 
ATOM     15  C   UNL     1     101.659  98.049  97.856  1.00  0.00    -0.020 C 
ATOM     16  C   UNL     1     101.230  99.114  95.570  1.00  0.00     0.032 C 
ATOM     17  C   UNL     1     101.071  97.837  96.416  1.00  0.00     0.006 C 
ATOM     18  C   UNL     1     101.503  96.723  98.708  1.00  0.00     0.008 C 
ATOM     19  C   UNL     1     100.880  99.198  98.576  1.00  0.00     0.012 C 
ATOM     20  C   UNL     1      99.588  97.233  96.349  1.00  0.00    -0.025 C 
ATOM     21  C   UNL     1     100.474  95.688  98.190  1.00  0.00     0.005 C 
ATOM     22  C   UNL     1      99.241  96.478  97.705  1.00  0.00     0.003 C 
ATOM     23  C   UNL     1      98.459  98.286  96.126  1.00  0.00     0.010 C 
ATOM     24  C   UNL     1      99.614  96.288  95.098  1.00  0.00     0.012 C 
ATOM     25  C   UNL     1      97.849  95.783  97.766  1.00  0.00    -0.006 C 
ATOM     26  C   UNL     1      97.059  97.699  96.171  1.00  0.00     0.033 C 
ATOM     27  C   UNL     1      96.769  96.900  97.450  1.00  0.00     0.120 C 
ATOM     28  C   UNL     1      97.599  95.249  99.178  1.00  0.00     0.014 C 
ATOM     29  C   UNL     1      97.675  94.575  96.800  1.00  0.00     0.014 C 
ENDROOT
BRANCH   1  30
ATOM     30  C   UNL     1     104.175 102.002  98.538  1.00  0.00     0.048 C 
ATOM     31  O   UNL     1     103.568 102.740  97.648  1.00  0.00    -0.550 OA
ATOM     32  O   UNL     1     104.296 102.571  99.801  1.00  0.00    -0.550 OA
ENDBRANCH   1  30
BRANCH  27  33
ATOM     33  O   UNL     1      96.699  97.824  98.509  1.00  0.00    -0.393 OA
ATOM     34  H   UNL     1      96.560  98.741  98.148  1.00  0.00     0.210 HD
ENDBRANCH  27  33
TORSDOF 2
ENDMDL
MODEL 9
REMARK VINA RESULT:    -6.600      1.998      8.040
REMARK INTER + INTRA:          -7.447
REMARK INTER:                  -7.417
REMARK INTRA:                  -0.029
REMARK UNBOUND:                -0.268
REMARK SMILES C[C@@H]1[C@H](C)CC[C@]2(C(=O)[O-])CC[C@]3(C)C(=CC[C@@H]4[C@]5(C)CC[C@H](O)C(C)(C)[C@H]5CC[C@]43C)[C@H]12
REMARK SMILES IDX 7 1 6 2 11 3 33 4 5 5 12 6 15 7 2 8 3 9 13 10 16 11 1 12
REMARK SMILES IDX 4 13 14 14 31 15 17 16 18 17 30 18 32 19 19 20 29 21 28 22
REMARK SMILES IDX 21 23 20 24 25 25 22 26 23 27 26 28 27 29 8 30 9 31 10 32
REMARK SMILES IDX 24 33
REMARK H PARENT 24 34
REMARK Flexibility Score: inf
ROOT
ATOM      1  C   UNL     1     110.804 100.872  98.974  1.00  0.00     0.017 C 
ATOM      2  C   UNL     1     112.107 100.950  99.807  1.00  0.00     0.014 C 
ATOM      3  C   UNL     1     109.834 101.908  99.618  1.00  0.00     0.014 C 
ATOM      4  C   UNL     1     110.173  99.426  99.060  1.00  0.00     0.030 C 
ATOM      5  C   UNL     1     112.948  99.657  99.591  1.00  0.00     0.004 C 
ATOM      6  C   UNL     1     108.515 101.916  98.884  1.00  0.00     0.013 C 
ATOM      7  C   UNL     1     108.702  99.375  98.638  1.00  0.00    -0.063 C 
ATOM      8  C   UNL     1     110.733  98.396 100.189  1.00  0.00    -0.003 C 
ATOM      9  C   UNL     1     112.341  98.520 100.467  1.00  0.00    -0.011 C 
ATOM     10  C   UNL     1     107.760 100.559  98.963  1.00  0.00    -0.006 C 
ATOM     11  C   UNL     1     108.289  98.293  97.931  1.00  0.00    -0.027 C 
ATOM     12  C   UNL     1     109.926  98.095 101.500  1.00  0.00     0.008 C 
ATOM     13  C   UNL     1     112.961  98.760 101.895  1.00  0.00     0.008 C 
ATOM     14  C   UNL     1     107.303 100.336 100.445  1.00  0.00     0.017 C 
ATOM     15  C   UNL     1     106.487 100.627  97.953  1.00  0.00    -0.020 C 
ATOM     16  C   UNL     1     107.048  98.284  97.095  1.00  0.00     0.032 C 
ATOM     17  C   UNL     1     105.946  99.177  97.692  1.00  0.00     0.006 C 
ATOM     18  C   UNL     1     105.347 101.528  98.583  1.00  0.00     0.008 C 
ATOM     19  C   UNL     1     106.939 101.269  96.600  1.00  0.00     0.012 C 
ATOM     20  C   UNL     1     104.567  99.081  96.881  1.00  0.00    -0.025 C 
ATOM     21  C   UNL     1     103.894 101.018  98.417  1.00  0.00     0.005 C 
ATOM     22  C   UNL     1     103.771 100.454  96.986  1.00  0.00     0.003 C 
ATOM     23  C   UNL     1     104.719  98.772  95.359  1.00  0.00     0.010 C 
ATOM     24  C   UNL     1     103.815  97.874  97.541  1.00  0.00     0.012 C 
ATOM     25  C   UNL     1     102.376 100.493  96.295  1.00  0.00    -0.006 C 
ATOM     26  C   UNL     1     103.406  98.790  94.598  1.00  0.00     0.033 C 
ATOM     27  C   UNL     1     102.608 100.091  94.779  1.00  0.00     0.120 C 
ATOM     28  C   UNL     1     101.817 101.917  96.341  1.00  0.00     0.014 C 
ATOM     29  C   UNL     1     101.298  99.575  96.940  1.00  0.00     0.014 C 
ENDROOT
BRANCH   1  30
ATOM     30  C   UNL     1     111.164 101.232  97.530  1.00  0.00     0.048 C 
ATOM     31  O   UNL     1     111.907 102.276  97.279  1.00  0.00    -0.550 OA
ATOM     32  O   UNL     1     110.395 100.778  96.464  1.00  0.00    -0.550 OA
ENDBRANCH   1  30
BRANCH  27  33
ATOM     33  O   UNL     1     103.315 101.106  94.108  1.00  0.00    -0.393 OA
ATOM     34  H   UNL     1     104.029 100.704  93.543  1.00  0.00     0.210 HD
ENDBRANCH  27  33
TORSDOF 2
ENDMDL
