MODEL 1
REMARK VINA RESULT:     0.940      0.000      0.000
REMARK INTER + INTRA:           0.454
REMARK INTER:                   2.149
REMARK INTRA:                  -1.695
REMARK UNBOUND:                -1.695
REMARK SMILES CCCCCCCCCCCCCCCCCCCCCCCC(=O)[O-]
REMARK SMILES IDX 13 1 14 2 15 3 16 4 17 5 18 6 19 7 20 8 21 9 22 10 23 11
REMARK SMILES IDX 24 12 25 13 26 14 12 15 11 16 10 17 9 18 8 19 7 20 6 21 5 22
REMARK SMILES IDX 4 23 3 24 2 25 1 26
REMARK H PARENT
REMARK Flexibility Score: inf
ROOT
ATOM      1  C   UNL     1      53.590  80.255  37.241  1.00  0.00     0.000 C 
ENDROOT
BRANCH   1   2
ATOM      2  C   UNL     1      53.132  79.063  36.380  1.00  0.00     0.000 C 
BRANCH   2   3
ATOM      3  C   UNL     1      53.276  79.297  34.861  1.00  0.00     0.000 C 
BRANCH   3   4
ATOM      4  C   UNL     1      53.882  80.671  34.526  1.00  0.00     0.000 C 
BRANCH   4   5
ATOM      5  C   UNL     1      53.774  81.015  33.032  1.00  0.00     0.000 C 
BRANCH   5   6
ATOM      6  C   UNL     1      55.010  81.757  32.500  1.00  0.00     0.000 C 
BRANCH   6   7
ATOM      7  C   UNL     1      54.981  81.839  30.966  1.00  0.00     0.000 C 
BRANCH   7   8
ATOM      8  C   UNL     1      54.601  83.240  30.459  1.00  0.00     0.000 C 
BRANCH   8   9
ATOM      9  C   UNL     1      54.686  84.307  31.564  1.00  0.00     0.000 C 
BRANCH   9  10
ATOM     10  C   UNL     1      53.381  85.101  31.723  1.00  0.00     0.006 C 
BRANCH  10  11
ATOM     11  C   UNL     1      52.343  84.374  32.588  1.00  0.00     0.053 C 
BRANCH  11  12
ATOM     12  C   UNL     1      51.211  83.878  31.743  1.00  0.00     0.041 C 
ATOM     13  O   UNL     1      50.300  83.174  32.254  1.00  0.00    -0.550 OA
ATOM     14  O   UNL     1      51.147  84.219  30.397  1.00  0.00    -0.550 OA
ENDBRANCH  11  12
ENDBRANCH  10  11
ENDBRANCH   9  10
ENDBRANCH   8   9
ENDBRANCH   7   8
ENDBRANCH   6   7
ENDBRANCH   5   6
ENDBRANCH   4   5
ENDBRANCH   3   4
ENDBRANCH   2   3
ENDBRANCH   1   2
BRANCH   1  15
ATOM     15  C   UNL     1      52.558  80.754  38.269  1.00  0.00     0.000 C 
BRANCH  15  16
ATOM     16  C   UNL     1      51.213  80.004  38.261  1.00  0.00     0.000 C 
BRANCH  16  17
ATOM     17  C   UNL     1      50.387  80.245  39.534  1.00  0.00     0.000 C 
BRANCH  17  18
ATOM     18  C   UNL     1      48.943  79.757  39.358  1.00  0.00    -0.000 C 
BRANCH  18  19
ATOM     19  C   UNL     1      47.971  80.620  40.177  1.00  0.00    -0.000 C 
BRANCH  19  20
ATOM     20  C   UNL     1      48.657  81.362  41.339  1.00  0.00    -0.000 C 
BRANCH  20  21
ATOM     21  C   UNL     1      48.553  82.898  41.284  1.00  0.00    -0.000 C 
BRANCH  21  22
ATOM     22  C   UNL     1      49.420  83.595  42.348  1.00  0.00    -0.000 C 
BRANCH  22  23
ATOM     23  C   UNL     1      48.625  83.956  43.614  1.00  0.00    -0.000 C 
BRANCH  23  24
ATOM     24  C   UNL     1      49.500  83.965  44.878  1.00  0.00    -0.000 C 
BRANCH  24  25
ATOM     25  C   UNL     1      49.291  82.714  45.746  1.00  0.00    -0.003 C 
ATOM     26  C   UNL     1      48.354  81.694  45.099  1.00  0.00     0.004 C 
ENDBRANCH  24  25
ENDBRANCH  23  24
ENDBRANCH  22  23
ENDBRANCH  21  22
ENDBRANCH  20  21
ENDBRANCH  19  20
ENDBRANCH  18  19
ENDBRANCH  17  18
ENDBRANCH  16  17
ENDBRANCH  15  16
ENDBRANCH   1  15
TORSDOF 22
ENDMDL
MODEL 2
REMARK VINA RESULT:     1.051      4.665     12.119
REMARK INTER + INTRA:           0.707
REMARK INTER:                   1.925
REMARK INTRA:                  -1.218
REMARK UNBOUND:                -1.695
REMARK SMILES CCCCCCCCCCCCCCCCCCCCCCCC(=O)[O-]
REMARK SMILES IDX 13 1 14 2 15 3 16 4 17 5 18 6 19 7 20 8 21 9 22 10 23 11
REMARK SMILES IDX 24 12 25 13 26 14 12 15 11 16 10 17 9 18 8 19 7 20 6 21 5 22
REMARK SMILES IDX 4 23 3 24 2 25 1 26
REMARK H PARENT
REMARK Flexibility Score: inf
ROOT
ATOM      1  C   UNL     1      50.561  80.541  39.323  1.00  0.00     0.000 C 
ENDROOT
BRANCH   1   2
ATOM      2  C   UNL     1      49.219  79.789  39.394  1.00  0.00     0.000 C 
BRANCH   2   3
ATOM      3  C   UNL     1      48.136  80.521  40.215  1.00  0.00     0.000 C 
BRANCH   3   4
ATOM      4  C   UNL     1      48.518  81.974  40.543  1.00  0.00     0.000 C 
BRANCH   4   5
ATOM      5  C   UNL     1      48.492  82.266  42.052  1.00  0.00     0.000 C 
BRANCH   5   6
ATOM      6  C   UNL     1      49.304  83.514  42.432  1.00  0.00     0.000 C 
BRANCH   6   7
ATOM      7  C   UNL     1      48.610  84.298  43.556  1.00  0.00     0.000 C 
BRANCH   7   8
ATOM      8  C   UNL     1      48.200  83.399  44.734  1.00  0.00     0.000 C 
BRANCH   8   9
ATOM      9  C   UNL     1      49.411  82.887  45.531  1.00  0.00     0.000 C 
BRANCH   9  10
ATOM     10  C   UNL     1      49.010  81.960  46.688  1.00  0.00     0.006 C 
BRANCH  10  11
ATOM     11  C   UNL     1      48.345  80.662  46.210  1.00  0.00     0.053 C 
BRANCH  11  12
ATOM     12  C   UNL     1      48.877  79.488  46.971  1.00  0.00     0.041 C 
ATOM     13  O   UNL     1      49.176  79.605  48.189  1.00  0.00    -0.550 OA
ATOM     14  O   UNL     1      49.014  78.257  46.341  1.00  0.00    -0.550 OA
ENDBRANCH  11  12
ENDBRANCH  10  11
ENDBRANCH   9  10
ENDBRANCH   8   9
ENDBRANCH   7   8
ENDBRANCH   6   7
ENDBRANCH   5   6
ENDBRANCH   4   5
ENDBRANCH   3   4
ENDBRANCH   2   3
ENDBRANCH   1   2
BRANCH   1  15
ATOM     15  C   UNL     1      51.515  80.072  38.209  1.00  0.00     0.000 C 
BRANCH  15  16
ATOM     16  C   UNL     1      52.839  80.854  38.111  1.00  0.00     0.000 C 
BRANCH  16  17
ATOM     17  C   UNL     1      53.826  80.234  37.110  1.00  0.00     0.000 C 
BRANCH  17  18
ATOM     18  C   UNL     1      53.117  79.837  35.808  1.00  0.00    -0.000 C 
BRANCH  18  19
ATOM     19  C   UNL     1      53.958  80.232  34.585  1.00  0.00    -0.000 C 
BRANCH  19  20
ATOM     20  C   UNL     1      53.188  81.109  33.582  1.00  0.00    -0.000 C 
BRANCH  20  21
ATOM     21  C   UNL     1      54.036  81.692  32.437  1.00  0.00    -0.000 C 
BRANCH  21  22
ATOM     22  C   UNL     1      55.504  81.926  32.839  1.00  0.00    -0.000 C 
BRANCH  22  23
ATOM     23  C   UNL     1      55.896  83.412  32.804  1.00  0.00    -0.000 C 
BRANCH  23  24
ATOM     24  C   UNL     1      55.743  84.031  31.405  1.00  0.00    -0.000 C 
BRANCH  24  25
ATOM     25  C   UNL     1      57.092  84.211  30.692  1.00  0.00    -0.003 C 
ATOM     26  C   UNL     1      57.143  83.509  29.334  1.00  0.00     0.004 C 
ENDBRANCH  24  25
ENDBRANCH  23  24
ENDBRANCH  22  23
ENDBRANCH  21  22
ENDBRANCH  20  21
ENDBRANCH  19  20
ENDBRANCH  18  19
ENDBRANCH  17  18
ENDBRANCH  16  17
ENDBRANCH  15  16
ENDBRANCH   1  15
TORSDOF 22
ENDMDL
MODEL 3
REMARK VINA RESULT:     1.150      3.873     10.754
REMARK INTER + INTRA:           0.935
REMARK INTER:                   2.824
REMARK INTRA:                  -1.889
REMARK UNBOUND:                -1.695
REMARK SMILES CCCCCCCCCCCCCCCCCCCCCCCC(=O)[O-]
REMARK SMILES IDX 13 1 14 2 15 3 16 4 17 5 18 6 19 7 20 8 21 9 22 10 23 11
REMARK SMILES IDX 24 12 25 13 26 14 12 15 11 16 10 17 9 18 8 19 7 20 6 21 5 22
REMARK SMILES IDX 4 23 3 24 2 25 1 26
REMARK H PARENT
REMARK Flexibility Score: inf
ROOT
ATOM      1  C   UNL     1      53.117  79.658  36.003  1.00  0.00     0.000 C 
ENDROOT
BRANCH   1   2
ATOM      2  C   UNL     1      53.837  80.323  37.192  1.00  0.00     0.000 C 
BRANCH   2   3
ATOM      3  C   UNL     1      52.881  80.901  38.258  1.00  0.00     0.000 C 
BRANCH   3   4
ATOM      4  C   UNL     1      51.518  80.189  38.283  1.00  0.00     0.000 C 
BRANCH   4   5
ATOM      5  C   UNL     1      50.588  80.730  39.381  1.00  0.00     0.000 C 
BRANCH   5   6
ATOM      6  C   UNL     1      49.343  79.855  39.592  1.00  0.00     0.000 C 
BRANCH   6   7
ATOM      7  C   UNL     1      48.180  80.686  40.156  1.00  0.00     0.000 C 
BRANCH   7   8
ATOM      8  C   UNL     1      48.488  81.259  41.550  1.00  0.00     0.000 C 
BRANCH   8   9
ATOM      9  C   UNL     1      48.205  82.769  41.639  1.00  0.00     0.000 C 
BRANCH   9  10
ATOM     10  C   UNL     1      49.318  83.538  42.366  1.00  0.00     0.006 C 
BRANCH  10  11
ATOM     11  C   UNL     1      48.879  84.066  43.738  1.00  0.00     0.053 C 
BRANCH  11  12
ATOM     12  C   UNL     1      49.879  83.694  44.788  1.00  0.00     0.041 C 
ATOM     13  O   UNL     1      49.586  82.843  45.670  1.00  0.00    -0.550 OA
ATOM     14  O   UNL     1      51.146  84.266  44.774  1.00  0.00    -0.550 OA
ENDBRANCH  11  12
ENDBRANCH  10  11
ENDBRANCH   9  10
ENDBRANCH   8   9
ENDBRANCH   7   8
ENDBRANCH   6   7
ENDBRANCH   5   6
ENDBRANCH   4   5
ENDBRANCH   3   4
ENDBRANCH   2   3
ENDBRANCH   1   2
BRANCH   1  15
ATOM     15  C   UNL     1      53.879  79.710  34.666  1.00  0.00     0.000 C 
BRANCH  15  16
ATOM     16  C   UNL     1      53.611  80.963  33.810  1.00  0.00     0.000 C 
BRANCH  16  17
ATOM     17  C   UNL     1      54.830  81.389  32.979  1.00  0.00     0.000 C 
BRANCH  17  18
ATOM     18  C   UNL     1      54.411  82.259  31.786  1.00  0.00    -0.000 C 
BRANCH  18  19
ATOM     19  C   UNL     1      54.556  81.486  30.467  1.00  0.00    -0.000 C 
BRANCH  19  20
ATOM     20  C   UNL     1      53.231  81.358  29.695  1.00  0.00    -0.000 C 
BRANCH  20  21
ATOM     21  C   UNL     1      52.005  81.004  30.556  1.00  0.00    -0.000 C 
BRANCH  21  22
ATOM     22  C   UNL     1      50.860  82.024  30.418  1.00  0.00    -0.000 C 
BRANCH  22  23
ATOM     23  C   UNL     1      51.327  83.355  29.806  1.00  0.00    -0.000 C 
BRANCH  23  24
ATOM     24  C   UNL     1      50.903  84.572  30.646  1.00  0.00    -0.000 C 
BRANCH  24  25
ATOM     25  C   UNL     1      52.053  85.122  31.503  1.00  0.00    -0.003 C 
ATOM     26  C   UNL     1      51.961  84.689  32.967  1.00  0.00     0.004 C 
ENDBRANCH  24  25
ENDBRANCH  23  24
ENDBRANCH  22  23
ENDBRANCH  21  22
ENDBRANCH  20  21
ENDBRANCH  19  20
ENDBRANCH  18  19
ENDBRANCH  17  18
ENDBRANCH  16  17
ENDBRANCH  15  16
ENDBRANCH   1  15
TORSDOF 22
ENDMDL
MODEL 4
REMARK VINA RESULT:     1.207      2.033      2.722
REMARK INTER + INTRA:           1.063
REMARK INTER:                   2.455
REMARK INTRA:                  -1.392
REMARK UNBOUND:                -1.695
REMARK SMILES CCCCCCCCCCCCCCCCCCCCCCCC(=O)[O-]
REMARK SMILES IDX 13 1 14 2 15 3 16 4 17 5 18 6 19 7 20 8 21 9 22 10 23 11
REMARK SMILES IDX 24 12 25 13 26 14 12 15 11 16 10 17 9 18 8 19 7 20 6 21 5 22
REMARK SMILES IDX 4 23 3 24 2 25 1 26
REMARK H PARENT
REMARK Flexibility Score: inf
ROOT
ATOM      1  C   UNL     1      53.641  80.487  37.340  1.00  0.00     0.000 C 
ENDROOT
BRANCH   1   2
ATOM      2  C   UNL     1      53.446  79.123  36.653  1.00  0.00     0.000 C 
BRANCH   2   3
ATOM      3  C   UNL     1      53.320  79.209  35.117  1.00  0.00     0.000 C 
BRANCH   3   4
ATOM      4  C   UNL     1      53.796  80.560  34.556  1.00  0.00     0.000 C 
BRANCH   4   5
ATOM      5  C   UNL     1      53.236  80.848  33.153  1.00  0.00     0.000 C 
BRANCH   5   6
ATOM      6  C   UNL     1      53.901  82.062  32.484  1.00  0.00     0.000 C 
BRANCH   6   7
ATOM      7  C   UNL     1      52.862  83.151  32.174  1.00  0.00     0.000 C 
BRANCH   7   8
ATOM      8  C   UNL     1      52.980  83.683  30.735  1.00  0.00     0.000 C 
BRANCH   8   9
ATOM      9  C   UNL     1      53.618  82.659  29.781  1.00  0.00     0.000 C 
BRANCH   9  10
ATOM     10  C   UNL     1      54.940  83.154  29.178  1.00  0.00     0.006 C 
BRANCH  10  11
ATOM     11  C   UNL     1      55.439  84.454  29.823  1.00  0.00     0.053 C 
BRANCH  11  12
ATOM     12  C   UNL     1      56.753  84.231  30.505  1.00  0.00     0.041 C 
ATOM     13  O   UNL     1      56.788  83.894  31.718  1.00  0.00    -0.550 OA
ATOM     14  O   UNL     1      57.938  84.367  29.791  1.00  0.00    -0.550 OA
ENDBRANCH  11  12
ENDBRANCH  10  11
ENDBRANCH   9  10
ENDBRANCH   8   9
ENDBRANCH   7   8
ENDBRANCH   6   7
ENDBRANCH   5   6
ENDBRANCH   4   5
ENDBRANCH   3   4
ENDBRANCH   2   3
ENDBRANCH   1   2
BRANCH   1  15
ATOM     15  C   UNL     1      52.481  80.934  38.249  1.00  0.00     0.000 C 
BRANCH  15  16
ATOM     16  C   UNL     1      51.300  79.948  38.333  1.00  0.00     0.000 C 
BRANCH  16  17
ATOM     17  C   UNL     1      50.411  80.186  39.562  1.00  0.00     0.000 C 
BRANCH  17  18
ATOM     18  C   UNL     1      48.987  79.663  39.325  1.00  0.00    -0.000 C 
BRANCH  18  19
ATOM     19  C   UNL     1      47.976  80.413  40.204  1.00  0.00    -0.000 C 
BRANCH  19  20
ATOM     20  C   UNL     1      48.454  81.821  40.605  1.00  0.00    -0.000 C 
BRANCH  20  21
ATOM     21  C   UNL     1      48.201  82.202  42.075  1.00  0.00    -0.000 C 
BRANCH  21  22
ATOM     22  C   UNL     1      48.966  83.466  42.506  1.00  0.00    -0.000 C 
BRANCH  22  23
ATOM     23  C   UNL     1      48.161  84.341  43.480  1.00  0.00    -0.000 C 
BRANCH  23  24
ATOM     24  C   UNL     1      48.843  84.480  44.851  1.00  0.00    -0.000 C 
BRANCH  24  25
ATOM     25  C   UNL     1      50.054  83.548  45.002  1.00  0.00    -0.003 C 
ATOM     26  C   UNL     1      51.388  84.288  44.898  1.00  0.00     0.004 C 
ENDBRANCH  24  25
ENDBRANCH  23  24
ENDBRANCH  22  23
ENDBRANCH  21  22
ENDBRANCH  20  21
ENDBRANCH  19  20
ENDBRANCH  18  19
ENDBRANCH  17  18
ENDBRANCH  16  17
ENDBRANCH  15  16
ENDBRANCH   1  15
TORSDOF 22
ENDMDL
MODEL 5
REMARK VINA RESULT:     1.208      3.335     10.472
REMARK INTER + INTRA:           1.067
REMARK INTER:                   2.819
REMARK INTRA:                  -1.752
REMARK UNBOUND:                -1.695
REMARK SMILES CCCCCCCCCCCCCCCCCCCCCCCC(=O)[O-]
REMARK SMILES IDX 13 1 14 2 15 3 16 4 17 5 18 6 19 7 20 8 21 9 22 10 23 11
REMARK SMILES IDX 24 12 25 13 26 14 12 15 11 16 10 17 9 18 8 19 7 20 6 21 5 22
REMARK SMILES IDX 4 23 3 24 2 25 1 26
REMARK H PARENT
REMARK Flexibility Score: inf
ROOT
ATOM      1  C   UNL     1      53.868  80.619  34.369  1.00  0.00     0.000 C 
ENDROOT
BRANCH   1   2
ATOM      2  C   UNL     1      53.553  79.205  34.890  1.00  0.00     0.000 C 
BRANCH   2   3
ATOM      3  C   UNL     1      53.114  79.167  36.370  1.00  0.00     0.000 C 
BRANCH   3   4
ATOM      4  C   UNL     1      53.560  80.412  37.155  1.00  0.00     0.000 C 
BRANCH   4   5
ATOM      5  C   UNL     1      52.584  80.781  38.283  1.00  0.00     0.000 C 
BRANCH   5   6
ATOM      6  C   UNL     1      51.299  79.939  38.258  1.00  0.00     0.000 C 
BRANCH   6   7
ATOM      7  C   UNL     1      50.301  80.431  39.318  1.00  0.00     0.000 C 
BRANCH   7   8
ATOM      8  C   UNL     1      49.025  79.574  39.369  1.00  0.00     0.000 C 
BRANCH   8   9
ATOM      9  C   UNL     1      47.970  80.149  40.329  1.00  0.00     0.000 C 
BRANCH   9  10
ATOM     10  C   UNL     1      48.554  81.187  41.299  1.00  0.00     0.006 C 
BRANCH  10  11
ATOM     11  C   UNL     1      48.287  82.633  40.857  1.00  0.00     0.053 C 
BRANCH  11  12
ATOM     12  C   UNL     1      48.841  83.598  41.857  1.00  0.00     0.041 C 
ATOM     13  O   UNL     1      50.087  83.737  41.982  1.00  0.00    -0.550 OA
ATOM     14  O   UNL     1      47.980  84.367  42.632  1.00  0.00    -0.550 OA
ENDBRANCH  11  12
ENDBRANCH  10  11
ENDBRANCH   9  10
ENDBRANCH   8   9
ENDBRANCH   7   8
ENDBRANCH   6   7
ENDBRANCH   5   6
ENDBRANCH   4   5
ENDBRANCH   3   4
ENDBRANCH   2   3
ENDBRANCH   1   2
BRANCH   1  15
ATOM     15  C   UNL     1      53.169  81.001  33.051  1.00  0.00     0.000 C 
BRANCH  15  16
ATOM     16  C   UNL     1      54.050  81.761  32.041  1.00  0.00     0.000 C 
BRANCH  16  17
ATOM     17  C   UNL     1      55.389  82.216  32.641  1.00  0.00     0.000 C 
BRANCH  17  18
ATOM     18  C   UNL     1      55.619  83.715  32.412  1.00  0.00    -0.000 C 
BRANCH  18  19
ATOM     19  C   UNL     1      56.870  83.952  31.553  1.00  0.00    -0.000 C 
BRANCH  19  20
ATOM     20  C   UNL     1      56.558  84.051  30.049  1.00  0.00    -0.000 C 
BRANCH  20  21
ATOM     21  C   UNL     1      55.438  85.041  29.678  1.00  0.00    -0.000 C 
BRANCH  21  22
ATOM     22  C   UNL     1      54.101  84.345  29.370  1.00  0.00    -0.000 C 
BRANCH  22  23
ATOM     23  C   UNL     1      52.912  85.006  30.085  1.00  0.00    -0.000 C 
BRANCH  23  24
ATOM     24  C   UNL     1      51.676  84.092  30.147  1.00  0.00    -0.000 C 
BRANCH  24  25
ATOM     25  C   UNL     1      50.943  84.186  31.493  1.00  0.00    -0.003 C 
ATOM     26  C   UNL     1      50.229  82.887  31.871  1.00  0.00     0.004 C 
ENDBRANCH  24  25
ENDBRANCH  23  24
ENDBRANCH  22  23
ENDBRANCH  21  22
ENDBRANCH  20  21
ENDBRANCH  19  20
ENDBRANCH  18  19
ENDBRANCH  17  18
ENDBRANCH  16  17
ENDBRANCH  15  16
ENDBRANCH   1  15
TORSDOF 22
ENDMDL
MODEL 6
REMARK VINA RESULT:     1.227      4.027     10.558
REMARK INTER + INTRA:           1.111
REMARK INTER:                   2.520
REMARK INTRA:                  -1.409
REMARK UNBOUND:                -1.695
REMARK SMILES CCCCCCCCCCCCCCCCCCCCCCCC(=O)[O-]
REMARK SMILES IDX 13 1 14 2 15 3 16 4 17 5 18 6 19 7 20 8 21 9 22 10 23 11
REMARK SMILES IDX 24 12 25 13 26 14 12 15 11 16 10 17 9 18 8 19 7 20 6 21 5 22
REMARK SMILES IDX 4 23 3 24 2 25 1 26
REMARK H PARENT
REMARK Flexibility Score: inf
ROOT
ATOM      1  C   UNL     1      53.119  79.914  35.802  1.00  0.00     0.000 C 
ENDROOT
BRANCH   1   2
ATOM      2  C   UNL     1      53.799  80.295  37.130  1.00  0.00     0.000 C 
BRANCH   2   3
ATOM      3  C   UNL     1      52.827  80.842  38.196  1.00  0.00     0.000 C 
BRANCH   3   4
ATOM      4  C   UNL     1      51.515  80.041  38.272  1.00  0.00     0.000 C 
BRANCH   4   5
ATOM      5  C   UNL     1      50.516  80.637  39.276  1.00  0.00     0.000 C 
BRANCH   5   6
ATOM      6  C   UNL     1      49.305  79.725  39.525  1.00  0.00     0.000 C 
BRANCH   6   7
ATOM      7  C   UNL     1      48.079  80.547  39.952  1.00  0.00     0.000 C 
BRANCH   7   8
ATOM      8  C   UNL     1      48.225  81.132  41.366  1.00  0.00     0.000 C 
BRANCH   8   9
ATOM      9  C   UNL     1      48.653  82.609  41.349  1.00  0.00     0.000 C 
BRANCH   9  10
ATOM     10  C   UNL     1      48.374  83.322  42.681  1.00  0.00     0.006 C 
BRANCH  10  11
ATOM     11  C   UNL     1      49.629  83.963  43.288  1.00  0.00     0.053 C 
BRANCH  11  12
ATOM     12  C   UNL     1      49.669  83.740  44.767  1.00  0.00     0.041 C 
ATOM     13  O   UNL     1      49.096  82.739  45.273  1.00  0.00    -0.550 OA
ATOM     14  O   UNL     1      50.366  84.623  45.585  1.00  0.00    -0.550 OA
ENDBRANCH  11  12
ENDBRANCH  10  11
ENDBRANCH   9  10
ENDBRANCH   8   9
ENDBRANCH   7   8
ENDBRANCH   6   7
ENDBRANCH   5   6
ENDBRANCH   4   5
ENDBRANCH   3   4
ENDBRANCH   2   3
ENDBRANCH   1   2
BRANCH   1  15
ATOM     15  C   UNL     1      53.987  80.102  34.544  1.00  0.00     0.000 C 
BRANCH  15  16
ATOM     16  C   UNL     1      53.567  81.268  33.629  1.00  0.00     0.000 C 
BRANCH  16  17
ATOM     17  C   UNL     1      54.598  81.566  32.530  1.00  0.00     0.000 C 
BRANCH  17  18
ATOM     18  C   UNL     1      55.587  82.650  32.978  1.00  0.00    -0.000 C 
BRANCH  18  19
ATOM     19  C   UNL     1      55.667  83.780  31.942  1.00  0.00    -0.000 C 
BRANCH  19  20
ATOM     20  C   UNL     1      54.827  85.012  32.327  1.00  0.00    -0.000 C 
BRANCH  20  21
ATOM     21  C   UNL     1      53.397  85.032  31.756  1.00  0.00    -0.000 C 
BRANCH  21  22
ATOM     22  C   UNL     1      52.324  84.738  32.819  1.00  0.00    -0.000 C 
BRANCH  22  23
ATOM     23  C   UNL     1      51.021  84.196  32.209  1.00  0.00    -0.000 C 
BRANCH  23  24
ATOM     24  C   UNL     1      51.163  82.753  31.697  1.00  0.00    -0.000 C 
BRANCH  24  25
ATOM     25  C   UNL     1      50.172  82.429  30.569  1.00  0.00    -0.003 C 
ATOM     26  C   UNL     1      48.838  83.160  30.724  1.00  0.00     0.004 C 
ENDBRANCH  24  25
ENDBRANCH  23  24
ENDBRANCH  22  23
ENDBRANCH  21  22
ENDBRANCH  20  21
ENDBRANCH  19  20
ENDBRANCH  18  19
ENDBRANCH  17  18
ENDBRANCH  16  17
ENDBRANCH  15  16
ENDBRANCH   1  15
TORSDOF 22
ENDMDL
MODEL 7
REMARK VINA RESULT:     1.269      4.735      6.526
REMARK INTER + INTRA:           1.206
REMARK INTER:                   2.445
REMARK INTRA:                  -1.239
REMARK UNBOUND:                -1.695
REMARK SMILES CCCCCCCCCCCCCCCCCCCCCCCC(=O)[O-]
REMARK SMILES IDX 13 1 14 2 15 3 16 4 17 5 18 6 19 7 20 8 21 9 22 10 23 11
REMARK SMILES IDX 24 12 25 13 26 14 12 15 11 16 10 17 9 18 8 19 7 20 6 21 5 22
REMARK SMILES IDX 4 23 3 24 2 25 1 26
REMARK H PARENT
REMARK Flexibility Score: inf
ROOT
ATOM      1  C   UNL     1      55.576  82.616  32.576  1.00  0.00     0.000 C 
ENDROOT
BRANCH   1   2
ATOM      2  C   UNL     1      55.218  84.075  32.237  1.00  0.00     0.000 C 
BRANCH   2   3
ATOM      3  C   UNL     1      56.274  84.792  31.369  1.00  0.00     0.000 C 
BRANCH   3   4
ATOM      4  C   UNL     1      56.713  83.956  30.154  1.00  0.00     0.000 C 
BRANCH   4   5
ATOM      5  C   UNL     1      55.935  84.315  28.878  1.00  0.00     0.000 C 
BRANCH   5   6
ATOM      6  C   UNL     1      54.486  83.803  28.899  1.00  0.00     0.000 C 
BRANCH   6   7
ATOM      7  C   UNL     1      53.499  84.963  29.104  1.00  0.00     0.000 C 
BRANCH   7   8
ATOM      8  C   UNL     1      52.808  84.912  30.477  1.00  0.00     0.000 C 
BRANCH   8   9
ATOM      9  C   UNL     1      51.277  85.009  30.367  1.00  0.00     0.000 C 
BRANCH   9  10
ATOM     10  C   UNL     1      50.680  83.938  29.442  1.00  0.00     0.006 C 
BRANCH  10  11
ATOM     11  C   UNL     1      50.242  82.675  30.196  1.00  0.00     0.053 C 
BRANCH  11  12
ATOM     12  C   UNL     1      49.113  82.986  31.128  1.00  0.00     0.041 C 
ATOM     13  O   UNL     1      47.920  82.848  30.747  1.00  0.00    -0.550 OA
ATOM     14  O   UNL     1      49.379  83.400  32.428  1.00  0.00    -0.550 OA
ENDBRANCH  11  12
ENDBRANCH  10  11
ENDBRANCH   9  10
ENDBRANCH   8   9
ENDBRANCH   7   8
ENDBRANCH   6   7
ENDBRANCH   5   6
ENDBRANCH   4   5
ENDBRANCH   3   4
ENDBRANCH   2   3
ENDBRANCH   1   2
BRANCH   1  15
ATOM     15  C   UNL     1      55.042  81.564  31.587  1.00  0.00     0.000 C 
BRANCH  15  16
ATOM     16  C   UNL     1      53.508  81.434  31.537  1.00  0.00     0.000 C 
BRANCH  16  17
ATOM     17  C   UNL     1      52.858  81.492  32.927  1.00  0.00     0.000 C 
BRANCH  17  18
ATOM     18  C   UNL     1      53.642  80.648  33.941  1.00  0.00    -0.000 C 
BRANCH  18  19
ATOM     19  C   UNL     1      53.038  79.242  34.065  1.00  0.00    -0.000 C 
BRANCH  19  20
ATOM     20  C   UNL     1      52.778  78.824  35.524  1.00  0.00    -0.000 C 
BRANCH  20  21
ATOM     21  C   UNL     1      53.984  78.971  36.470  1.00  0.00    -0.000 C 
BRANCH  21  22
ATOM     22  C   UNL     1      53.723  79.955  37.625  1.00  0.00    -0.000 C 
BRANCH  22  23
ATOM     23  C   UNL     1      54.854  79.957  38.666  1.00  0.00    -0.000 C 
BRANCH  23  24
ATOM     24  C   UNL     1      55.190  78.546  39.176  1.00  0.00    -0.000 C 
BRANCH  24  25
ATOM     25  C   UNL     1      55.460  78.517  40.688  1.00  0.00    -0.003 C 
ATOM     26  C   UNL     1      56.462  77.434  41.090  1.00  0.00     0.004 C 
ENDBRANCH  24  25
ENDBRANCH  23  24
ENDBRANCH  22  23
ENDBRANCH  21  22
ENDBRANCH  20  21
ENDBRANCH  19  20
ENDBRANCH  18  19
ENDBRANCH  17  18
ENDBRANCH  16  17
ENDBRANCH  15  16
ENDBRANCH   1  15
TORSDOF 22
ENDMDL
MODEL 8
REMARK VINA RESULT:     1.378      1.086      2.617
REMARK INTER + INTRA:           1.456
REMARK INTER:                   3.095
REMARK INTRA:                  -1.639
REMARK UNBOUND:                -1.695
REMARK SMILES CCCCCCCCCCCCCCCCCCCCCCCC(=O)[O-]
REMARK SMILES IDX 13 1 14 2 15 3 16 4 17 5 18 6 19 7 20 8 21 9 22 10 23 11
REMARK SMILES IDX 24 12 25 13 26 14 12 15 11 16 10 17 9 18 8 19 7 20 6 21 5 22
REMARK SMILES IDX 4 23 3 24 2 25 1 26
REMARK H PARENT
REMARK Flexibility Score: inf
ROOT
ATOM      1  C   UNL     1      53.473  79.533  34.557  1.00  0.00     0.000 C 
ENDROOT
BRANCH   1   2
ATOM      2  C   UNL     1      53.862  80.988  34.233  1.00  0.00     0.000 C 
BRANCH   2   3
ATOM      3  C   UNL     1      53.710  81.358  32.742  1.00  0.00     0.000 C 
BRANCH   3   4
ATOM      4  C   UNL     1      55.048  81.736  32.083  1.00  0.00     0.000 C 
BRANCH   4   5
ATOM      5  C   UNL     1      55.791  82.844  32.847  1.00  0.00     0.000 C 
BRANCH   5   6
ATOM      6  C   UNL     1      56.001  84.111  32.004  1.00  0.00     0.000 C 
BRANCH   6   7
ATOM      7  C   UNL     1      55.040  84.137  30.806  1.00  0.00     0.000 C 
BRANCH   7   8
ATOM      8  C   UNL     1      53.863  85.104  31.015  1.00  0.00     0.000 C 
BRANCH   8   9
ATOM      9  C   UNL     1      52.520  84.500  30.568  1.00  0.00     0.000 C 
BRANCH   9  10
ATOM     10  C   UNL     1      51.519  84.361  31.724  1.00  0.00     0.006 C 
BRANCH  10  11
ATOM     11  C   UNL     1      50.686  83.075  31.640  1.00  0.00     0.053 C 
BRANCH  11  12
ATOM     12  C   UNL     1      49.232  83.379  31.821  1.00  0.00     0.041 C 
ATOM     13  O   UNL     1      48.853  84.126  32.762  1.00  0.00    -0.550 OA
ATOM     14  O   UNL     1      48.297  82.860  30.932  1.00  0.00    -0.550 OA
ENDBRANCH  11  12
ENDBRANCH  10  11
ENDBRANCH   9  10
ENDBRANCH   8   9
ENDBRANCH   7   8
ENDBRANCH   6   7
ENDBRANCH   5   6
ENDBRANCH   4   5
ENDBRANCH   3   4
ENDBRANCH   2   3
ENDBRANCH   1   2
BRANCH   1  15
ATOM     15  C   UNL     1      53.144  79.258  36.036  1.00  0.00     0.000 C 
BRANCH  15  16
ATOM     16  C   UNL     1      53.800  80.224  37.041  1.00  0.00     0.000 C 
BRANCH  16  17
ATOM     17  C   UNL     1      52.774  80.984  37.895  1.00  0.00     0.000 C 
BRANCH  17  18
ATOM     18  C   UNL     1      51.819  80.017  38.606  1.00  0.00    -0.000 C 
BRANCH  18  19
ATOM     19  C   UNL     1      50.508  80.721  38.984  1.00  0.00    -0.000 C 
BRANCH  19  20
ATOM     20  C   UNL     1      49.429  79.751  39.498  1.00  0.00    -0.000 C 
BRANCH  20  21
ATOM     21  C   UNL     1      48.084  80.404  39.866  1.00  0.00    -0.000 C 
BRANCH  21  22
ATOM     22  C   UNL     1      48.251  81.776  40.544  1.00  0.00    -0.000 C 
BRANCH  22  23
ATOM     23  C   UNL     1      48.174  81.691  42.077  1.00  0.00    -0.000 C 
BRANCH  23  24
ATOM     24  C   UNL     1      47.877  83.051  42.730  1.00  0.00    -0.000 C 
BRANCH  24  25
ATOM     25  C   UNL     1      49.031  83.542  43.617  1.00  0.00    -0.003 C 
ATOM     26  C   UNL     1      48.994  82.943  45.024  1.00  0.00     0.004 C 
ENDBRANCH  24  25
ENDBRANCH  23  24
ENDBRANCH  22  23
ENDBRANCH  21  22
ENDBRANCH  20  21
ENDBRANCH  19  20
ENDBRANCH  18  19
ENDBRANCH  17  18
ENDBRANCH  16  17
ENDBRANCH  15  16
ENDBRANCH   1  15
TORSDOF 22
ENDMDL
MODEL 9
REMARK VINA RESULT:     1.481      3.557     10.638
REMARK INTER + INTRA:           1.689
REMARK INTER:                   3.495
REMARK INTRA:                  -1.805
REMARK UNBOUND:                -1.695
REMARK SMILES CCCCCCCCCCCCCCCCCCCCCCCC(=O)[O-]
REMARK SMILES IDX 13 1 14 2 15 3 16 4 17 5 18 6 19 7 20 8 21 9 22 10 23 11
REMARK SMILES IDX 24 12 25 13 26 14 12 15 11 16 10 17 9 18 8 19 7 20 6 21 5 22
REMARK SMILES IDX 4 23 3 24 2 25 1 26
REMARK H PARENT
REMARK Flexibility Score: inf
ROOT
ATOM      1  C   UNL     1      53.879  80.641  34.596  1.00  0.00     0.000 C 
ENDROOT
BRANCH   1   2
ATOM      2  C   UNL     1      53.466  79.236  35.074  1.00  0.00     0.000 C 
BRANCH   2   3
ATOM      3  C   UNL     1      53.222  79.141  36.595  1.00  0.00     0.000 C 
BRANCH   3   4
ATOM      4  C   UNL     1      53.522  80.459  37.330  1.00  0.00     0.000 C 
BRANCH   4   5
ATOM      5  C   UNL     1      52.616  80.673  38.553  1.00  0.00     0.000 C 
BRANCH   5   6
ATOM      6  C   UNL     1      51.162  80.247  38.300  1.00  0.00     0.000 C 
BRANCH   6   7
ATOM      7  C   UNL     1      50.429  79.986  39.625  1.00  0.00     0.000 C 
BRANCH   7   8
ATOM      8  C   UNL     1      48.941  79.656  39.420  1.00  0.00     0.000 C 
BRANCH   8   9
ATOM      9  C   UNL     1      48.026  80.851  39.740  1.00  0.00     0.000 C 
BRANCH   9  10
ATOM     10  C   UNL     1      48.153  81.321  41.196  1.00  0.00     0.006 C 
BRANCH  10  11
ATOM     11  C   UNL     1      48.713  82.745  41.316  1.00  0.00     0.053 C 
BRANCH  11  12
ATOM     12  C   UNL     1      48.902  83.115  42.754  1.00  0.00     0.041 C 
ATOM     13  O   UNL     1      49.680  84.053  43.071  1.00  0.00    -0.550 OA
ATOM     14  O   UNL     1      48.194  82.441  43.744  1.00  0.00    -0.550 OA
ENDBRANCH  11  12
ENDBRANCH  10  11
ENDBRANCH   9  10
ENDBRANCH   8   9
ENDBRANCH   7   8
ENDBRANCH   6   7
ENDBRANCH   5   6
ENDBRANCH   4   5
ENDBRANCH   3   4
ENDBRANCH   2   3
ENDBRANCH   1   2
BRANCH   1  15
ATOM     15  C   UNL     1      53.504  80.972  33.139  1.00  0.00     0.000 C 
BRANCH  15  16
ATOM     16  C   UNL     1      54.318  82.113  32.499  1.00  0.00     0.000 C 
BRANCH  16  17
ATOM     17  C   UNL     1      55.189  81.638  31.326  1.00  0.00     0.000 C 
BRANCH  17  18
ATOM     18  C   UNL     1      55.231  82.687  30.207  1.00  0.00    -0.000 C 
BRANCH  18  19
ATOM     19  C   UNL     1      54.581  82.146  28.925  1.00  0.00    -0.000 C 
BRANCH  19  20
ATOM     20  C   UNL     1      53.397  81.202  29.203  1.00  0.00    -0.000 C 
BRANCH  20  21
ATOM     21  C   UNL     1      52.006  81.856  29.111  1.00  0.00    -0.000 C 
BRANCH  21  22
ATOM     22  C   UNL     1      51.204  81.743  30.421  1.00  0.00    -0.000 C 
BRANCH  22  23
ATOM     23  C   UNL     1      51.105  83.081  31.170  1.00  0.00    -0.000 C 
BRANCH  23  24
ATOM     24  C   UNL     1      50.336  84.149  30.374  1.00  0.00    -0.000 C 
BRANCH  24  25
ATOM     25  C   UNL     1      48.884  83.737  30.090  1.00  0.00    -0.003 C 
ATOM     26  C   UNL     1      48.158  84.721  29.172  1.00  0.00     0.004 C 
ENDBRANCH  24  25
ENDBRANCH  23  24
ENDBRANCH  22  23
ENDBRANCH  21  22
ENDBRANCH  20  21
ENDBRANCH  19  20
ENDBRANCH  18  19
ENDBRANCH  17  18
ENDBRANCH  16  17
ENDBRANCH  15  16
ENDBRANCH   1  15
TORSDOF 22
ENDMDL
