MODEL 1
REMARK VINA RESULT:    -4.617      0.000      0.000
REMARK INTER + INTRA:         -10.592
REMARK INTER:                  -8.935
REMARK INTRA:                  -1.657
REMARK UNBOUND:                -1.657
REMARK SMILES CCCCCCCCCCCCCCCCCC(=O)[O-]
REMARK SMILES IDX 10 1 11 2 12 3 13 4 14 5 15 6 16 7 17 8 18 9 19 10 20 11
REMARK SMILES IDX 9 12 8 13 7 14 6 15 5 16 4 17 3 18 2 19 1 20
REMARK H PARENT
REMARK Flexibility Score: inf
ROOT
ATOM      1  C   UNL     1       2.374 -13.757 -18.653  1.00  0.00     0.000 C 
ENDROOT
BRANCH   1   2
ATOM      2  C   UNL     1       1.268 -14.382 -17.779  1.00  0.00     0.000 C 
BRANCH   2   3
ATOM      3  C   UNL     1       0.588 -15.626 -18.379  1.00  0.00     0.000 C 
BRANCH   3   4
ATOM      4  C   UNL     1      -0.920 -15.435 -18.597  1.00  0.00     0.000 C 
BRANCH   4   5
ATOM      5  C   UNL     1      -1.626 -16.786 -18.765  1.00  0.00     0.000 C 
BRANCH   5   6
ATOM      6  C   UNL     1      -0.987 -17.606 -19.891  1.00  0.00     0.000 C 
BRANCH   6   7
ATOM      7  C   UNL     1      -0.913 -19.093 -19.516  1.00  0.00     0.006 C 
BRANCH   7   8
ATOM      8  C   UNL     1       0.467 -19.488 -18.972  1.00  0.00     0.053 C 
BRANCH   8   9
ATOM      9  C   UNL     1       0.442 -19.693 -17.489  1.00  0.00     0.041 C 
ATOM     10  O   UNL     1      -0.647 -19.917 -16.899  1.00  0.00    -0.550 OA
ATOM     11  O   UNL     1       1.626 -19.670 -16.763  1.00  0.00    -0.550 OA
ENDBRANCH   8   9
ENDBRANCH   7   8
ENDBRANCH   6   7
ENDBRANCH   5   6
ENDBRANCH   4   5
ENDBRANCH   3   4
ENDBRANCH   2   3
ENDBRANCH   1   2
BRANCH   1  12
ATOM     12  C   UNL     1       2.390 -12.218 -18.686  1.00  0.00     0.000 C 
BRANCH  12  13
ATOM     13  C   UNL     1       3.696 -11.648 -19.258  1.00  0.00    -0.000 C 
BRANCH  13  14
ATOM     14  C   UNL     1       3.999 -10.264 -18.664  1.00  0.00    -0.000 C 
BRANCH  14  15
ATOM     15  C   UNL     1       3.154  -9.969 -17.406  1.00  0.00    -0.000 C 
BRANCH  15  16
ATOM     16  C   UNL     1       3.968  -9.982 -16.101  1.00  0.00    -0.000 C 
BRANCH  16  17
ATOM     17  C   UNL     1       5.047 -11.077 -16.082  1.00  0.00    -0.000 C 
BRANCH  17  18
ATOM     18  C   UNL     1       4.478 -12.461 -15.729  1.00  0.00    -0.000 C 
BRANCH  18  19
ATOM     19  C   UNL     1       3.659 -12.446 -14.430  1.00  0.00    -0.003 C 
ATOM     20  C   UNL     1       2.239 -12.953 -14.671  1.00  0.00     0.004 C 
ENDBRANCH  18  19
ENDBRANCH  17  18
ENDBRANCH  16  17
ENDBRANCH  15  16
ENDBRANCH  14  15
ENDBRANCH  13  14
ENDBRANCH  12  13
ENDBRANCH   1  12
TORSDOF 16
ENDMDL
MODEL 2
REMARK VINA RESULT:    -4.610      0.992      3.080
REMARK INTER + INTRA:         -10.579
REMARK INTER:                  -8.923
REMARK INTRA:                  -1.656
REMARK UNBOUND:                -1.657
REMARK SMILES CCCCCCCCCCCCCCCCCC(=O)[O-]
REMARK SMILES IDX 10 1 11 2 12 3 13 4 14 5 15 6 16 7 17 8 18 9 19 10 20 11
REMARK SMILES IDX 9 12 8 13 7 14 6 15 5 16 4 17 3 18 2 19 1 20
REMARK H PARENT
REMARK Flexibility Score: inf
ROOT
ATOM      1  C   UNL     1       2.036 -13.341 -15.487  1.00  0.00     0.000 C 
ENDROOT
BRANCH   1   2
ATOM      2  C   UNL     1       2.417 -14.079 -16.786  1.00  0.00     0.000 C 
BRANCH   2   3
ATOM      3  C   UNL     1       1.328 -14.091 -17.873  1.00  0.00     0.000 C 
BRANCH   3   4
ATOM      4  C   UNL     1       0.712 -15.482 -18.086  1.00  0.00     0.000 C 
BRANCH   4   5
ATOM      5  C   UNL     1      -0.677 -15.375 -18.725  1.00  0.00     0.000 C 
BRANCH   5   6
ATOM      6  C   UNL     1      -1.408 -16.722 -18.684  1.00  0.00     0.000 C 
BRANCH   6   7
ATOM      7  C   UNL     1      -0.957 -17.629 -19.838  1.00  0.00     0.006 C 
BRANCH   7   8
ATOM      8  C   UNL     1      -0.877 -19.104 -19.420  1.00  0.00     0.053 C 
BRANCH   8   9
ATOM      9  C   UNL     1      -0.026 -19.292 -18.202  1.00  0.00     0.041 C 
ATOM     10  O   UNL     1      -0.504 -19.842 -17.176  1.00  0.00    -0.550 OA
ATOM     11  O   UNL     1       1.304 -18.890 -18.212  1.00  0.00    -0.550 OA
ENDBRANCH   8   9
ENDBRANCH   7   8
ENDBRANCH   6   7
ENDBRANCH   5   6
ENDBRANCH   4   5
ENDBRANCH   3   4
ENDBRANCH   2   3
ENDBRANCH   1   2
BRANCH   1  12
ATOM     12  C   UNL     1       3.150 -12.470 -14.878  1.00  0.00     0.000 C 
BRANCH  12  13
ATOM     13  C   UNL     1       4.476 -12.576 -15.646  1.00  0.00    -0.000 C 
BRANCH  13  14
ATOM     14  C   UNL     1       4.955 -11.192 -16.108  1.00  0.00    -0.000 C 
BRANCH  14  15
ATOM     15  C   UNL     1       3.830 -10.136 -16.060  1.00  0.00    -0.000 C 
BRANCH  15  16
ATOM     16  C   UNL     1       3.413  -9.619 -17.447  1.00  0.00    -0.000 C 
BRANCH  16  17
ATOM     17  C   UNL     1       2.833 -10.723 -18.347  1.00  0.00    -0.000 C 
BRANCH  17  18
ATOM     18  C   UNL     1       3.876 -11.305 -19.315  1.00  0.00    -0.000 C 
BRANCH  18  19
ATOM     19  C   UNL     1       4.656 -10.214 -20.064  1.00  0.00    -0.003 C 
ATOM     20  C   UNL     1       6.081 -10.669 -20.370  1.00  0.00     0.004 C 
ENDBRANCH  18  19
ENDBRANCH  17  18
ENDBRANCH  16  17
ENDBRANCH  15  16
ENDBRANCH  14  15
ENDBRANCH  13  14
ENDBRANCH  12  13
ENDBRANCH   1  12
TORSDOF 16
ENDMDL
MODEL 3
REMARK VINA RESULT:    -4.548      0.860      2.921
REMARK INTER + INTRA:         -10.460
REMARK INTER:                  -8.934
REMARK INTRA:                  -1.526
REMARK UNBOUND:                -1.657
REMARK SMILES CCCCCCCCCCCCCCCCCC(=O)[O-]
REMARK SMILES IDX 10 1 11 2 12 3 13 4 14 5 15 6 16 7 17 8 18 9 19 10 20 11
REMARK SMILES IDX 9 12 8 13 7 14 6 15 5 16 4 17 3 18 2 19 1 20
REMARK H PARENT
REMARK Flexibility Score: inf
ROOT
ATOM      1  C   UNL     1       2.736 -13.437 -16.946  1.00  0.00     0.000 C 
ENDROOT
BRANCH   1   2
ATOM      2  C   UNL     1       1.891 -13.887 -18.155  1.00  0.00     0.000 C 
BRANCH   2   3
ATOM      3  C   UNL     1       1.044 -15.151 -17.923  1.00  0.00     0.000 C 
BRANCH   3   4
ATOM      4  C   UNL     1      -0.305 -15.109 -18.657  1.00  0.00     0.000 C 
BRANCH   4   5
ATOM      5  C   UNL     1      -1.074 -16.421 -18.468  1.00  0.00     0.000 C 
BRANCH   5   6
ATOM      6  C   UNL     1      -1.081 -17.248 -19.759  1.00  0.00     0.000 C 
BRANCH   6   7
ATOM      7  C   UNL     1      -1.092 -18.752 -19.450  1.00  0.00     0.006 C 
BRANCH   7   8
ATOM      8  C   UNL     1       0.309 -19.291 -19.132  1.00  0.00     0.053 C 
BRANCH   8   9
ATOM      9  C   UNL     1       0.467 -19.608 -17.677  1.00  0.00     0.041 C 
ATOM     10  O   UNL     1       1.579 -19.440 -17.110  1.00  0.00    -0.550 OA
ATOM     11  O   UNL     1      -0.621 -20.055 -16.939  1.00  0.00    -0.550 OA
ENDBRANCH   8   9
ENDBRANCH   7   8
ENDBRANCH   6   7
ENDBRANCH   5   6
ENDBRANCH   4   5
ENDBRANCH   3   4
ENDBRANCH   2   3
ENDBRANCH   1   2
BRANCH   1  12
ATOM     12  C   UNL     1       2.013 -13.487 -15.588  1.00  0.00     0.000 C 
BRANCH  12  13
ATOM     13  C   UNL     1       2.736 -12.681 -14.498  1.00  0.00    -0.000 C 
BRANCH  13  14
ATOM     14  C   UNL     1       4.185 -12.379 -14.909  1.00  0.00    -0.000 C 
BRANCH  14  15
ATOM     15  C   UNL     1       4.458 -10.864 -15.021  1.00  0.00    -0.000 C 
BRANCH  15  16
ATOM     16  C   UNL     1       4.478 -10.349 -16.470  1.00  0.00    -0.000 C 
BRANCH  16  17
ATOM     17  C   UNL     1       3.125  -9.771 -16.917  1.00  0.00    -0.000 C 
BRANCH  17  18
ATOM     18  C   UNL     1       2.805 -10.083 -18.388  1.00  0.00    -0.000 C 
BRANCH  18  19
ATOM     19  C   UNL     1       3.941 -10.845 -19.088  1.00  0.00    -0.003 C 
ATOM     20  C   UNL     1       4.479 -10.054 -20.278  1.00  0.00     0.004 C 
ENDBRANCH  18  19
ENDBRANCH  17  18
ENDBRANCH  16  17
ENDBRANCH  15  16
ENDBRANCH  14  15
ENDBRANCH  13  14
ENDBRANCH  12  13
ENDBRANCH   1  12
TORSDOF 16
ENDMDL
MODEL 4
REMARK VINA RESULT:    -4.474      3.819      8.010
REMARK INTER + INTRA:         -10.315
REMARK INTER:                  -8.928
REMARK INTRA:                  -1.387
REMARK UNBOUND:                -1.657
REMARK SMILES CCCCCCCCCCCCCCCCCC(=O)[O-]
REMARK SMILES IDX 10 1 11 2 12 3 13 4 14 5 15 6 16 7 17 8 18 9 19 10 20 11
REMARK SMILES IDX 9 12 8 13 7 14 6 15 5 16 4 17 3 18 2 19 1 20
REMARK H PARENT
REMARK Flexibility Score: inf
ROOT
ATOM      1  C   UNL     1       4.183 -11.722 -14.293  1.00  0.00     0.000 C 
ENDROOT
BRANCH   1   2
ATOM      2  C   UNL     1       4.654 -10.815 -15.447  1.00  0.00     0.000 C 
BRANCH   2   3
ATOM      3  C   UNL     1       4.283  -9.329 -15.301  1.00  0.00     0.000 C 
BRANCH   3   4
ATOM      4  C   UNL     1       3.534  -8.777 -16.524  1.00  0.00     0.000 C 
BRANCH   4   5
ATOM      5  C   UNL     1       2.871  -9.909 -17.319  1.00  0.00     0.000 C 
BRANCH   5   6
ATOM      6  C   UNL     1       3.381  -9.939 -18.764  1.00  0.00     0.000 C 
BRANCH   6   7
ATOM      7  C   UNL     1       3.840 -11.351 -19.157  1.00  0.00     0.006 C 
BRANCH   7   8
ATOM      8  C   UNL     1       5.369 -11.479 -19.186  1.00  0.00     0.053 C 
BRANCH   8   9
ATOM      9  C   UNL     1       5.968 -10.726 -20.333  1.00  0.00     0.041 C 
ATOM     10  O   UNL     1       5.234 -10.300 -21.263  1.00  0.00    -0.550 OA
ATOM     11  O   UNL     1       7.332 -10.464 -20.358  1.00  0.00    -0.550 OA
ENDBRANCH   8   9
ENDBRANCH   7   8
ENDBRANCH   6   7
ENDBRANCH   5   6
ENDBRANCH   4   5
ENDBRANCH   3   4
ENDBRANCH   2   3
ENDBRANCH   1   2
BRANCH   1  12
ATOM     12  C   UNL     1       3.043 -12.694 -14.649  1.00  0.00     0.000 C 
BRANCH  12  13
ATOM     13  C   UNL     1       3.116 -13.192 -16.099  1.00  0.00    -0.000 C 
BRANCH  13  14
ATOM     14  C   UNL     1       1.871 -14.018 -16.460  1.00  0.00    -0.000 C 
BRANCH  14  15
ATOM     15  C   UNL     1       1.677 -14.149 -17.985  1.00  0.00    -0.000 C 
BRANCH  15  16
ATOM     16  C   UNL     1       1.098 -15.507 -18.418  1.00  0.00    -0.000 C 
BRANCH  16  17
ATOM     17  C   UNL     1      -0.439 -15.530 -18.409  1.00  0.00    -0.000 C 
BRANCH  17  18
ATOM     18  C   UNL     1      -1.021 -16.525 -19.427  1.00  0.00    -0.000 C 
BRANCH  18  19
ATOM     19  C   UNL     1      -1.178 -17.938 -18.844  1.00  0.00    -0.003 C 
ATOM     20  C   UNL     1      -1.033 -18.999 -19.932  1.00  0.00     0.004 C 
ENDBRANCH  18  19
ENDBRANCH  17  18
ENDBRANCH  16  17
ENDBRANCH  15  16
ENDBRANCH  14  15
ENDBRANCH  13  14
ENDBRANCH  12  13
ENDBRANCH   1  12
TORSDOF 16
ENDMDL
MODEL 5
REMARK VINA RESULT:    -4.457      3.322      8.178
REMARK INTER + INTRA:         -10.282
REMARK INTER:                  -8.922
REMARK INTRA:                  -1.360
REMARK UNBOUND:                -1.657
REMARK SMILES CCCCCCCCCCCCCCCCCC(=O)[O-]
REMARK SMILES IDX 10 1 11 2 12 3 13 4 14 5 15 6 16 7 17 8 18 9 19 10 20 11
REMARK SMILES IDX 9 12 8 13 7 14 6 15 5 16 4 17 3 18 2 19 1 20
REMARK H PARENT
REMARK Flexibility Score: inf
ROOT
ATOM      1  C   UNL     1       2.962 -13.359 -16.325  1.00  0.00     0.000 C 
ENDROOT
BRANCH   1   2
ATOM      2  C   UNL     1       3.054 -12.992 -14.830  1.00  0.00     0.000 C 
BRANCH   2   3
ATOM      3  C   UNL     1       3.919 -11.759 -14.514  1.00  0.00     0.000 C 
BRANCH   3   4
ATOM      4  C   UNL     1       4.557 -11.139 -15.766  1.00  0.00     0.000 C 
BRANCH   4   5
ATOM      5  C   UNL     1       4.214  -9.649 -15.878  1.00  0.00     0.000 C 
BRANCH   5   6
ATOM      6  C   UNL     1       3.171  -9.404 -16.975  1.00  0.00     0.000 C 
BRANCH   6   7
ATOM      7  C   UNL     1       3.238 -10.496 -18.053  1.00  0.00     0.006 C 
BRANCH   7   8
ATOM      8  C   UNL     1       3.813  -9.972 -19.375  1.00  0.00     0.053 C 
BRANCH   8   9
ATOM      9  C   UNL     1       5.085 -10.671 -19.745  1.00  0.00     0.041 C 
ATOM     10  O   UNL     1       5.576 -11.540 -18.977  1.00  0.00    -0.550 OA
ATOM     11  O   UNL     1       5.710 -10.387 -20.952  1.00  0.00    -0.550 OA
ENDBRANCH   8   9
ENDBRANCH   7   8
ENDBRANCH   6   7
ENDBRANCH   5   6
ENDBRANCH   4   5
ENDBRANCH   3   4
ENDBRANCH   2   3
ENDBRANCH   1   2
BRANCH   1  12
ATOM     12  C   UNL     1       1.642 -14.023 -16.755  1.00  0.00     0.000 C 
BRANCH  12  13
ATOM     13  C   UNL     1       1.641 -14.446 -18.231  1.00  0.00    -0.000 C 
BRANCH  13  14
ATOM     14  C   UNL     1       0.880 -15.767 -18.425  1.00  0.00    -0.000 C 
BRANCH  14  15
ATOM     15  C   UNL     1      -0.648 -15.560 -18.477  1.00  0.00    -0.000 C 
BRANCH  15  16
ATOM     16  C   UNL     1      -1.396 -16.679 -19.222  1.00  0.00    -0.000 C 
BRANCH  16  17
ATOM     17  C   UNL     1      -0.487 -17.866 -19.581  1.00  0.00    -0.000 C 
BRANCH  17  18
ATOM     18  C   UNL     1      -1.044 -19.210 -19.081  1.00  0.00    -0.000 C 
BRANCH  18  19
ATOM     19  C   UNL     1      -0.492 -19.598 -17.701  1.00  0.00    -0.003 C 
ATOM     20  C   UNL     1       1.008 -19.330 -17.615  1.00  0.00     0.004 C 
ENDBRANCH  18  19
ENDBRANCH  17  18
ENDBRANCH  16  17
ENDBRANCH  15  16
ENDBRANCH  14  15
ENDBRANCH  13  14
ENDBRANCH  12  13
ENDBRANCH   1  12
TORSDOF 16
ENDMDL
MODEL 6
REMARK VINA RESULT:    -4.436      2.452      7.891
REMARK INTER + INTRA:         -10.242
REMARK INTER:                  -8.582
REMARK INTRA:                  -1.660
REMARK UNBOUND:                -1.657
REMARK SMILES CCCCCCCCCCCCCCCCCC(=O)[O-]
REMARK SMILES IDX 10 1 11 2 12 3 13 4 14 5 15 6 16 7 17 8 18 9 19 10 20 11
REMARK SMILES IDX 9 12 8 13 7 14 6 15 5 16 4 17 3 18 2 19 1 20
REMARK H PARENT
REMARK Flexibility Score: inf
ROOT
ATOM      1  C   UNL     1       2.356 -13.938 -18.482  1.00  0.00     0.000 C 
ENDROOT
BRANCH   1   2
ATOM      2  C   UNL     1       2.376 -12.415 -18.724  1.00  0.00     0.000 C 
BRANCH   2   3
ATOM      3  C   UNL     1       3.744 -11.838 -19.133  1.00  0.00     0.000 C 
BRANCH   3   4
ATOM      4  C   UNL     1       3.886 -10.346 -18.797  1.00  0.00     0.000 C 
BRANCH   4   5
ATOM      5  C   UNL     1       2.843  -9.914 -17.760  1.00  0.00     0.000 C 
BRANCH   5   6
ATOM      6  C   UNL     1       3.516  -9.344 -16.506  1.00  0.00     0.000 C 
BRANCH   6   7
ATOM      7  C   UNL     1       4.587 -10.305 -15.970  1.00  0.00     0.006 C 
BRANCH   7   8
ATOM      8  C   UNL     1       4.091 -11.116 -14.765  1.00  0.00     0.053 C 
BRANCH   8   9
ATOM      9  C   UNL     1       3.646 -12.489 -15.163  1.00  0.00     0.041 C 
ATOM     10  O   UNL     1       4.428 -13.250 -15.791  1.00  0.00    -0.550 OA
ATOM     11  O   UNL     1       2.380 -12.941 -14.811  1.00  0.00    -0.550 OA
ENDBRANCH   8   9
ENDBRANCH   7   8
ENDBRANCH   6   7
ENDBRANCH   5   6
ENDBRANCH   4   5
ENDBRANCH   3   4
ENDBRANCH   2   3
ENDBRANCH   1   2
BRANCH   1  12
ATOM     12  C   UNL     1       1.140 -14.459 -17.695  1.00  0.00     0.000 C 
BRANCH  12  13
ATOM     13  C   UNL     1       0.461 -15.658 -18.372  1.00  0.00    -0.000 C 
BRANCH  13  14
ATOM     14  C   UNL     1      -1.001 -15.337 -18.720  1.00  0.00    -0.000 C 
BRANCH  14  15
ATOM     15  C   UNL     1      -1.882 -16.603 -18.769  1.00  0.00    -0.000 C 
BRANCH  15  16
ATOM     16  C   UNL     1      -1.856 -17.318 -20.131  1.00  0.00    -0.000 C 
BRANCH  16  17
ATOM     17  C   UNL     1      -1.552 -18.821 -20.011  1.00  0.00    -0.000 C 
BRANCH  17  18
ATOM     18  C   UNL     1      -0.912 -19.188 -18.662  1.00  0.00    -0.000 C 
BRANCH  18  19
ATOM     19  C   UNL     1       0.616 -19.311 -18.751  1.00  0.00    -0.003 C 
ATOM     20  C   UNL     1       1.242 -19.398 -17.361  1.00  0.00     0.004 C 
ENDBRANCH  18  19
ENDBRANCH  17  18
ENDBRANCH  16  17
ENDBRANCH  15  16
ENDBRANCH  14  15
ENDBRANCH  13  14
ENDBRANCH  12  13
ENDBRANCH   1  12
TORSDOF 16
ENDMDL
MODEL 7
REMARK VINA RESULT:    -4.169      3.213      8.267
REMARK INTER + INTRA:          -9.726
REMARK INTER:                  -8.232
REMARK INTRA:                  -1.494
REMARK UNBOUND:                -1.657
REMARK SMILES CCCCCCCCCCCCCCCCCC(=O)[O-]
REMARK SMILES IDX 10 1 11 2 12 3 13 4 14 5 15 6 16 7 17 8 18 9 19 10 20 11
REMARK SMILES IDX 9 12 8 13 7 14 6 15 5 16 4 17 3 18 2 19 1 20
REMARK H PARENT
REMARK Flexibility Score: inf
ROOT
ATOM      1  C   UNL     1       1.240 -15.057 -17.679  1.00  0.00     0.000 C 
ENDROOT
BRANCH   1   2
ATOM      2  C   UNL     1       2.030 -13.764 -17.399  1.00  0.00     0.000 C 
BRANCH   2   3
ATOM      3  C   UNL     1       2.362 -13.510 -15.918  1.00  0.00     0.000 C 
BRANCH   3   4
ATOM      4  C   UNL     1       3.766 -12.920 -15.713  1.00  0.00     0.000 C 
BRANCH   4   5
ATOM      5  C   UNL     1       3.686 -11.463 -15.243  1.00  0.00     0.000 C 
BRANCH   5   6
ATOM      6  C   UNL     1       4.465 -10.537 -16.183  1.00  0.00     0.000 C 
BRANCH   6   7
ATOM      7  C   UNL     1       3.514  -9.623 -16.970  1.00  0.00     0.006 C 
BRANCH   7   8
ATOM      8  C   UNL     1       2.858 -10.348 -18.153  1.00  0.00     0.053 C 
BRANCH   8   9
ATOM      9  C   UNL     1       3.859 -10.721 -19.202  1.00  0.00     0.041 C 
ATOM     10  O   UNL     1       4.219 -11.921 -19.335  1.00  0.00    -0.550 OA
ATOM     11  O   UNL     1       4.369  -9.751 -20.055  1.00  0.00    -0.550 OA
ENDBRANCH   8   9
ENDBRANCH   7   8
ENDBRANCH   6   7
ENDBRANCH   5   6
ENDBRANCH   4   5
ENDBRANCH   3   4
ENDBRANCH   2   3
ENDBRANCH   1   2
BRANCH   1  12
ATOM     12  C   UNL     1       0.208 -14.961 -18.818  1.00  0.00     0.000 C 
BRANCH  12  13
ATOM     13  C   UNL     1      -1.130 -15.626 -18.468  1.00  0.00    -0.000 C 
BRANCH  13  14
ATOM     14  C   UNL     1      -2.046 -15.700 -19.699  1.00  0.00    -0.000 C 
BRANCH  14  15
ATOM     15  C   UNL     1      -2.037 -17.098 -20.353  1.00  0.00    -0.000 C 
BRANCH  15  16
ATOM     16  C   UNL     1      -1.661 -18.229 -19.380  1.00  0.00    -0.000 C 
BRANCH  16  17
ATOM     17  C   UNL     1      -1.000 -19.426 -20.084  1.00  0.00    -0.000 C 
BRANCH  17  18
ATOM     18  C   UNL     1       0.364 -19.791 -19.475  1.00  0.00    -0.000 C 
BRANCH  18  19
ATOM     19  C   UNL     1       0.793 -18.815 -18.369  1.00  0.00    -0.003 C 
ATOM     20  C   UNL     1       1.200 -19.566 -17.103  1.00  0.00     0.004 C 
ENDBRANCH  18  19
ENDBRANCH  17  18
ENDBRANCH  16  17
ENDBRANCH  15  16
ENDBRANCH  14  15
ENDBRANCH  13  14
ENDBRANCH  12  13
ENDBRANCH   1  12
TORSDOF 16
ENDMDL
MODEL 8
REMARK VINA RESULT:    -3.933      5.532      8.612
REMARK INTER + INTRA:          -9.269
REMARK INTER:                  -8.254
REMARK INTRA:                  -1.015
REMARK UNBOUND:                -1.657
REMARK SMILES CCCCCCCCCCCCCCCCCC(=O)[O-]
REMARK SMILES IDX 10 1 11 2 12 3 13 4 14 5 15 6 16 7 17 8 18 9 19 10 20 11
REMARK SMILES IDX 9 12 8 13 7 14 6 15 5 16 4 17 3 18 2 19 1 20
REMARK H PARENT
REMARK Flexibility Score: inf
ROOT
ATOM      1  C   UNL     1       3.047 -13.379 -16.649  1.00  0.00     0.000 C 
ENDROOT
BRANCH   1   2
ATOM      2  C   UNL     1       2.153 -13.245 -15.400  1.00  0.00     0.000 C 
BRANCH   2   3
ATOM      3  C   UNL     1       2.817 -12.560 -14.193  1.00  0.00     0.000 C 
BRANCH   3   4
ATOM      4  C   UNL     1       4.331 -12.371 -14.372  1.00  0.00     0.000 C 
BRANCH   4   5
ATOM      5  C   UNL     1       4.640 -11.030 -15.049  1.00  0.00     0.000 C 
BRANCH   5   6
ATOM      6  C   UNL     1       4.681  -9.892 -14.023  1.00  0.00     0.000 C 
BRANCH   6   7
ATOM      7  C   UNL     1       4.213  -8.570 -14.648  1.00  0.00     0.006 C 
BRANCH   7   8
ATOM      8  C   UNL     1       4.188  -7.422 -13.630  1.00  0.00     0.053 C 
BRANCH   8   9
ATOM      9  C   UNL     1       2.980  -6.553 -13.800  1.00  0.00     0.041 C 
ATOM     10  O   UNL     1       2.592  -6.228 -14.953  1.00  0.00    -0.550 OA
ATOM     11  O   UNL     1       2.264  -6.130 -12.688  1.00  0.00    -0.550 OA
ENDBRANCH   8   9
ENDBRANCH   7   8
ENDBRANCH   6   7
ENDBRANCH   5   6
ENDBRANCH   4   5
ENDBRANCH   3   4
ENDBRANCH   2   3
ENDBRANCH   1   2
BRANCH   1  12
ATOM     12  C   UNL     1       2.296 -13.390 -17.993  1.00  0.00     0.000 C 
BRANCH  12  13
ATOM     13  C   UNL     1       2.647 -12.188 -18.882  1.00  0.00    -0.000 C 
BRANCH  13  14
ATOM     14  C   UNL     1       2.565 -10.875 -18.088  1.00  0.00    -0.000 C 
BRANCH  14  15
ATOM     15  C   UNL     1       3.648  -9.862 -18.518  1.00  0.00    -0.000 C 
BRANCH  15  16
ATOM     16  C   UNL     1       4.230 -10.141 -19.914  1.00  0.00    -0.000 C 
BRANCH  16  17
ATOM     17  C   UNL     1       5.534 -10.954 -19.866  1.00  0.00    -0.000 C 
BRANCH  17  18
ATOM     18  C   UNL     1       6.574 -10.465 -20.887  1.00  0.00    -0.000 C 
BRANCH  18  19
ATOM     19  C   UNL     1       7.982 -10.351 -20.283  1.00  0.00    -0.003 C 
ATOM     20  C   UNL     1       8.991  -9.886 -21.330  1.00  0.00     0.004 C 
ENDBRANCH  18  19
ENDBRANCH  17  18
ENDBRANCH  16  17
ENDBRANCH  15  16
ENDBRANCH  14  15
ENDBRANCH  13  14
ENDBRANCH  12  13
ENDBRANCH   1  12
TORSDOF 16
ENDMDL
MODEL 9
REMARK VINA RESULT:    -3.871      2.459      7.696
REMARK INTER + INTRA:          -9.149
REMARK INTER:                  -8.489
REMARK INTRA:                  -0.659
REMARK UNBOUND:                -1.657
REMARK SMILES CCCCCCCCCCCCCCCCCC(=O)[O-]
REMARK SMILES IDX 10 1 11 2 12 3 13 4 14 5 15 6 16 7 17 8 18 9 19 10 20 11
REMARK SMILES IDX 9 12 8 13 7 14 6 15 5 16 4 17 3 18 2 19 1 20
REMARK H PARENT
REMARK Flexibility Score: inf
ROOT
ATOM      1  C   UNL     1       2.297 -12.308 -18.749  1.00  0.00     0.000 C 
ENDROOT
BRANCH   1   2
ATOM      2  C   UNL     1       3.635 -11.636 -19.115  1.00  0.00     0.000 C 
BRANCH   2   3
ATOM      3  C   UNL     1       3.794 -10.187 -18.621  1.00  0.00     0.000 C 
BRANCH   3   4
ATOM      4  C   UNL     1       2.967  -9.892 -17.361  1.00  0.00     0.000 C 
BRANCH   4   5
ATOM      5  C   UNL     1       3.790  -9.101 -16.337  1.00  0.00     0.000 C 
BRANCH   5   6
ATOM      6  C   UNL     1       4.428 -10.036 -15.303  1.00  0.00     0.000 C 
BRANCH   6   7
ATOM      7  C   UNL     1       4.698 -11.422 -15.906  1.00  0.00     0.006 C 
BRANCH   7   8
ATOM      8  C   UNL     1       4.372 -12.556 -14.925  1.00  0.00     0.053 C 
BRANCH   8   9
ATOM      9  C   UNL     1       2.912 -12.605 -14.596  1.00  0.00     0.041 C 
ATOM     10  O   UNL     1       2.163 -13.445 -15.162  1.00  0.00    -0.550 OA
ATOM     11  O   UNL     1       2.384 -11.746 -13.640  1.00  0.00    -0.550 OA
ENDBRANCH   8   9
ENDBRANCH   7   8
ENDBRANCH   6   7
ENDBRANCH   5   6
ENDBRANCH   4   5
ENDBRANCH   3   4
ENDBRANCH   2   3
ENDBRANCH   1   2
BRANCH   1  12
ATOM     12  C   UNL     1       2.330 -13.847 -18.696  1.00  0.00     0.000 C 
BRANCH  12  13
ATOM     13  C   UNL     1       1.216 -14.437 -17.819  1.00  0.00    -0.000 C 
BRANCH  13  14
ATOM     14  C   UNL     1       0.641 -15.715 -18.448  1.00  0.00    -0.000 C 
BRANCH  14  15
ATOM     15  C   UNL     1      -0.901 -15.691 -18.517  1.00  0.00    -0.000 C 
BRANCH  15  16
ATOM     16  C   UNL     1      -1.486 -16.677 -19.543  1.00  0.00    -0.000 C 
BRANCH  16  17
ATOM     17  C   UNL     1      -0.595 -17.911 -19.759  1.00  0.00    -0.000 C 
BRANCH  17  18
ATOM     18  C   UNL     1      -1.154 -19.171 -19.077  1.00  0.00    -0.000 C 
BRANCH  18  19
ATOM     19  C   UNL     1      -0.550 -19.401 -17.683  1.00  0.00    -0.003 C 
ATOM     20  C   UNL     1       0.973 -19.311 -17.724  1.00  0.00     0.004 C 
ENDBRANCH  18  19
ENDBRANCH  17  18
ENDBRANCH  16  17
ENDBRANCH  15  16
ENDBRANCH  14  15
ENDBRANCH  13  14
ENDBRANCH  12  13
ENDBRANCH   1  12
TORSDOF 16
ENDMDL
