MODEL 1
REMARK VINA RESULT:    -3.769      0.000      0.000
REMARK INTER + INTRA:          -9.148
REMARK INTER:                  -7.075
REMARK INTRA:                  -2.073
REMARK UNBOUND:                -2.073
REMARK SMILES CCCCCCCCC=CCCCCCCCC(=O)[O-]
REMARK SMILES IDX 10 1 9 2 11 3 12 4 13 5 14 6 15 7 16 8 17 9 18 10 19 11
REMARK SMILES IDX 20 12 8 13 7 14 6 15 5 16 4 17 3 18 2 19 1 20
REMARK H PARENT
REMARK Flexibility Score: inf
ROOT
ATOM      1  C   UNL     1      -6.484   2.956  39.653  1.00  0.00    -0.031 C 
ATOM      2  C   UNL     1      -6.513   4.269  39.356  1.00  0.00    -0.031 C 
ENDROOT
BRANCH   1   3
ATOM      3  C   UNL     1      -7.699   2.093  39.900  1.00  0.00     0.027 C 
BRANCH   3   4
ATOM      4  C   UNL     1      -7.718   0.875  38.968  1.00  0.00     0.004 C 
BRANCH   4   5
ATOM      5  C   UNL     1      -7.410  -0.430  39.717  1.00  0.00     0.000 C 
BRANCH   5   6
ATOM      6  C   UNL     1      -6.338  -1.245  38.983  1.00  0.00     0.000 C 
BRANCH   6   7
ATOM      7  C   UNL     1      -5.658  -0.402  37.894  1.00  0.00     0.000 C 
BRANCH   7   8
ATOM      8  C   UNL     1      -4.183  -0.108  38.205  1.00  0.00     0.006 C 
BRANCH   8   9
ATOM      9  C   UNL     1      -3.766   1.315  37.809  1.00  0.00     0.053 C 
BRANCH   9  10
ATOM     10  C   UNL     1      -3.100   1.312  36.469  1.00  0.00     0.041 C 
ATOM     11  O   UNL     1      -2.785   2.398  35.915  1.00  0.00    -0.550 OA
ATOM     12  O   UNL     1      -2.783   0.108  35.853  1.00  0.00    -0.550 OA
ENDBRANCH   9  10
ENDBRANCH   8   9
ENDBRANCH   7   8
ENDBRANCH   6   7
ENDBRANCH   5   6
ENDBRANCH   4   5
ENDBRANCH   3   4
ENDBRANCH   1   3
BRANCH   2  13
ATOM     13  C   UNL     1      -7.762   5.113  39.285  1.00  0.00     0.027 C 
BRANCH  13  14
ATOM     14  C   UNL     1      -7.961   5.745  37.896  1.00  0.00     0.004 C 
BRANCH  14  15
ATOM     15  C   UNL     1      -8.528   4.773  36.844  1.00  0.00     0.000 C 
BRANCH  15  16
ATOM     16  C   UNL     1      -9.936   5.168  36.372  1.00  0.00     0.000 C 
BRANCH  16  17
ATOM     17  C   UNL     1     -10.961   4.033  36.537  1.00  0.00    -0.000 C 
BRANCH  17  18
ATOM     18  C   UNL     1     -10.450   2.855  37.393  1.00  0.00    -0.000 C 
BRANCH  18  19
ATOM     19  C   UNL     1     -11.422   2.497  38.526  1.00  0.00    -0.003 C 
ATOM     20  C   UNL     1     -12.824   3.027  38.240  1.00  0.00     0.004 C 
ENDBRANCH  18  19
ENDBRANCH  17  18
ENDBRANCH  16  17
ENDBRANCH  15  16
ENDBRANCH  14  15
ENDBRANCH  13  14
ENDBRANCH   2  13
TORSDOF 15
ENDMDL
MODEL 2
REMARK VINA RESULT:    -3.657      3.906      7.545
REMARK INTER + INTRA:          -8.937
REMARK INTER:                  -6.442
REMARK INTRA:                  -2.495
REMARK UNBOUND:                -2.073
REMARK SMILES CCCCCCCCC=CCCCCCCCC(=O)[O-]
REMARK SMILES IDX 10 1 9 2 11 3 12 4 13 5 14 6 15 7 16 8 17 9 18 10 19 11
REMARK SMILES IDX 20 12 8 13 7 14 6 15 5 16 4 17 3 18 2 19 1 20
REMARK H PARENT
REMARK Flexibility Score: inf
ROOT
ATOM      1  C   UNL     1      -6.731   3.661  36.146  1.00  0.00    -0.031 C 
ATOM      2  C   UNL     1      -6.791   2.449  35.563  1.00  0.00    -0.031 C 
ENDROOT
BRANCH   1   3
ATOM      3  C   UNL     1      -7.063   3.950  37.591  1.00  0.00     0.027 C 
BRANCH   3   4
ATOM      4  C   UNL     1      -8.400   4.690  37.721  1.00  0.00     0.004 C 
BRANCH   4   5
ATOM      5  C   UNL     1      -9.597   3.728  37.688  1.00  0.00     0.000 C 
BRANCH   5   6
ATOM      6  C   UNL     1     -10.599   4.134  36.602  1.00  0.00     0.000 C 
BRANCH   6   7
ATOM      7  C   UNL     1     -10.166   5.438  35.915  1.00  0.00     0.000 C 
BRANCH   7   8
ATOM      8  C   UNL     1     -10.210   5.345  34.382  1.00  0.00     0.006 C 
BRANCH   8   9
ATOM      9  C   UNL     1     -11.013   4.135  33.885  1.00  0.00     0.053 C 
BRANCH   9  10
ATOM     10  C   UNL     1     -12.256   4.585  33.185  1.00  0.00     0.041 C 
ATOM     11  O   UNL     1     -13.381   4.150  33.545  1.00  0.00    -0.550 OA
ATOM     12  O   UNL     1     -12.178   5.525  32.164  1.00  0.00    -0.550 OA
ENDBRANCH   9  10
ENDBRANCH   8   9
ENDBRANCH   7   8
ENDBRANCH   6   7
ENDBRANCH   5   6
ENDBRANCH   4   5
ENDBRANCH   3   4
ENDBRANCH   1   3
BRANCH   2  13
ATOM     13  C   UNL     1      -7.264   1.186  36.240  1.00  0.00     0.027 C 
BRANCH  13  14
ATOM     14  C   UNL     1      -6.745  -0.082  35.540  1.00  0.00     0.004 C 
BRANCH  14  15
ATOM     15  C   UNL     1      -5.550  -0.743  36.254  1.00  0.00     0.000 C 
BRANCH  15  16
ATOM     16  C   UNL     1      -5.377  -0.247  37.698  1.00  0.00     0.000 C 
BRANCH  16  17
ATOM     17  C   UNL     1      -3.997   0.383  37.951  1.00  0.00    -0.000 C 
BRANCH  17  18
ATOM     18  C   UNL     1      -4.064   1.793  38.576  1.00  0.00    -0.000 C 
BRANCH  18  19
ATOM     19  C   UNL     1      -3.305   2.834  37.740  1.00  0.00    -0.003 C 
ATOM     20  C   UNL     1      -3.061   2.331  36.320  1.00  0.00     0.004 C 
ENDBRANCH  18  19
ENDBRANCH  17  18
ENDBRANCH  16  17
ENDBRANCH  15  16
ENDBRANCH  14  15
ENDBRANCH  13  14
ENDBRANCH   2  13
TORSDOF 15
ENDMDL
MODEL 3
REMARK VINA RESULT:    -3.656      3.193      6.061
REMARK INTER + INTRA:          -8.935
REMARK INTER:                  -5.841
REMARK INTRA:                  -3.094
REMARK UNBOUND:                -2.073
REMARK SMILES CCCCCCCCC=CCCCCCCCC(=O)[O-]
REMARK SMILES IDX 10 1 9 2 11 3 12 4 13 5 14 6 15 7 16 8 17 9 18 10 19 11
REMARK SMILES IDX 20 12 8 13 7 14 6 15 5 16 4 17 3 18 2 19 1 20
REMARK H PARENT
REMARK Flexibility Score: inf
ROOT
ATOM      1  C   UNL     1      -3.713   2.749  38.090  1.00  0.00    -0.031 C 
ATOM      2  C   UNL     1      -3.484   1.521  37.588  1.00  0.00    -0.031 C 
ENDROOT
BRANCH   1   3
ATOM      3  C   UNL     1      -4.420   3.039  39.393  1.00  0.00     0.027 C 
BRANCH   3   4
ATOM      4  C   UNL     1      -5.870   3.479  39.156  1.00  0.00     0.004 C 
BRANCH   4   5
ATOM      5  C   UNL     1      -6.877   2.527  39.817  1.00  0.00     0.000 C 
BRANCH   5   6
ATOM      6  C   UNL     1      -8.310   2.851  39.379  1.00  0.00     0.000 C 
BRANCH   6   7
ATOM      7  C   UNL     1      -8.326   4.005  38.365  1.00  0.00     0.000 C 
BRANCH   7   8
ATOM      8  C   UNL     1      -9.432   3.854  37.310  1.00  0.00     0.006 C 
BRANCH   8   9
ATOM      9  C   UNL     1      -9.660   5.138  36.501  1.00  0.00     0.053 C 
BRANCH   9  10
ATOM     10  C   UNL     1     -10.058   4.809  35.097  1.00  0.00     0.041 C 
ATOM     11  O   UNL     1     -10.584   5.687  34.364  1.00  0.00    -0.550 OA
ATOM     12  O   UNL     1      -9.803   3.544  34.581  1.00  0.00    -0.550 OA
ENDBRANCH   9  10
ENDBRANCH   8   9
ENDBRANCH   7   8
ENDBRANCH   6   7
ENDBRANCH   5   6
ENDBRANCH   4   5
ENDBRANCH   3   4
ENDBRANCH   1   3
BRANCH   2  13
ATOM     13  C   UNL     1      -3.955   0.230  38.211  1.00  0.00     0.027 C 
BRANCH  13  14
ATOM     14  C   UNL     1      -5.404  -0.112  37.821  1.00  0.00     0.004 C 
BRANCH  14  15
ATOM     15  C   UNL     1      -5.750   0.217  36.357  1.00  0.00     0.000 C 
BRANCH  15  16
ATOM     16  C   UNL     1      -6.843   1.291  36.235  1.00  0.00     0.000 C 
BRANCH  16  17
ATOM     17  C   UNL     1      -6.616   2.240  35.046  1.00  0.00    -0.000 C 
BRANCH  17  18
ATOM     18  C   UNL     1      -6.089   3.632  35.455  1.00  0.00    -0.000 C 
BRANCH  18  19
ATOM     19  C   UNL     1      -4.817   4.019  34.687  1.00  0.00    -0.003 C 
ATOM     20  C   UNL     1      -4.030   5.096  35.428  1.00  0.00     0.004 C 
ENDBRANCH  18  19
ENDBRANCH  17  18
ENDBRANCH  16  17
ENDBRANCH  15  16
ENDBRANCH  14  15
ENDBRANCH  13  14
ENDBRANCH   2  13
TORSDOF 15
ENDMDL
MODEL 4
REMARK VINA RESULT:    -3.652     11.559     14.333
REMARK INTER + INTRA:          -8.928
REMARK INTER:                  -6.919
REMARK INTRA:                  -2.009
REMARK UNBOUND:                -2.073
REMARK SMILES CCCCCCCCC=CCCCCCCCC(=O)[O-]
REMARK SMILES IDX 10 1 9 2 11 3 12 4 13 5 14 6 15 7 16 8 17 9 18 10 19 11
REMARK SMILES IDX 20 12 8 13 7 14 6 15 5 16 4 17 3 18 2 19 1 20
REMARK H PARENT
REMARK Flexibility Score: inf
ROOT
ATOM      1  C   UNL     1      -1.469  -6.828  31.095  1.00  0.00    -0.031 C 
ATOM      2  C   UNL     1      -1.162  -5.816  31.928  1.00  0.00    -0.031 C 
ENDROOT
BRANCH   1   3
ATOM      3  C   UNL     1      -2.764  -7.605  31.110  1.00  0.00     0.027 C 
BRANCH   3   4
ATOM      4  C   UNL     1      -3.509  -7.476  29.775  1.00  0.00     0.004 C 
BRANCH   4   5
ATOM      5  C   UNL     1      -4.348  -8.723  29.460  1.00  0.00     0.000 C 
BRANCH   5   6
ATOM      6  C   UNL     1      -4.231  -9.104  27.980  1.00  0.00     0.000 C 
BRANCH   6   7
ATOM      7  C   UNL     1      -5.399  -8.522  27.169  1.00  0.00     0.000 C 
BRANCH   7   8
ATOM      8  C   UNL     1      -5.195  -8.658  25.652  1.00  0.00     0.006 C 
BRANCH   8   9
ATOM      9  C   UNL     1      -4.111  -9.683  25.289  1.00  0.00     0.053 C 
BRANCH   9  10
ATOM     10  C   UNL     1      -3.095  -9.069  24.379  1.00  0.00     0.041 C 
ATOM     11  O   UNL     1      -2.266  -9.797  23.771  1.00  0.00    -0.550 OA
ATOM     12  O   UNL     1      -3.093  -7.697  24.163  1.00  0.00    -0.550 OA
ENDBRANCH   9  10
ENDBRANCH   8   9
ENDBRANCH   7   8
ENDBRANCH   6   7
ENDBRANCH   5   6
ENDBRANCH   4   5
ENDBRANCH   3   4
ENDBRANCH   1   3
BRANCH   2  13
ATOM     13  C   UNL     1      -2.034  -5.331  33.060  1.00  0.00     0.027 C 
BRANCH  13  14
ATOM     14  C   UNL     1      -2.635  -3.942  32.780  1.00  0.00     0.004 C 
BRANCH  14  15
ATOM     15  C   UNL     1      -3.822  -3.962  31.797  1.00  0.00     0.000 C 
BRANCH  15  16
ATOM     16  C   UNL     1      -3.608  -3.031  30.594  1.00  0.00     0.000 C 
BRANCH  16  17
ATOM     17  C   UNL     1      -3.277  -3.795  29.300  1.00  0.00    -0.000 C 
BRANCH  17  18
ATOM     18  C   UNL     1      -1.780  -3.763  28.926  1.00  0.00    -0.000 C 
BRANCH  18  19
ATOM     19  C   UNL     1      -1.392  -4.916  27.989  1.00  0.00    -0.003 C 
ATOM     20  C   UNL     1      -1.091  -4.407  26.582  1.00  0.00     0.004 C 
ENDBRANCH  18  19
ENDBRANCH  17  18
ENDBRANCH  16  17
ENDBRANCH  15  16
ENDBRANCH  14  15
ENDBRANCH  13  14
ENDBRANCH   2  13
TORSDOF 15
ENDMDL
MODEL 5
REMARK VINA RESULT:    -3.637      3.188      6.445
REMARK INTER + INTRA:          -8.899
REMARK INTER:                  -6.112
REMARK INTRA:                  -2.787
REMARK UNBOUND:                -2.073
REMARK SMILES CCCCCCCCC=CCCCCCCCC(=O)[O-]
REMARK SMILES IDX 10 1 9 2 11 3 12 4 13 5 14 6 15 7 16 8 17 9 18 10 19 11
REMARK SMILES IDX 20 12 8 13 7 14 6 15 5 16 4 17 3 18 2 19 1 20
REMARK H PARENT
REMARK Flexibility Score: inf
ROOT
ATOM      1  C   UNL     1      -7.006  -0.918  37.262  1.00  0.00    -0.031 C 
ATOM      2  C   UNL     1      -5.882  -0.877  36.521  1.00  0.00    -0.031 C 
ENDROOT
BRANCH   1   3
ATOM      3  C   UNL     1      -7.746   0.290  37.789  1.00  0.00     0.027 C 
BRANCH   3   4
ATOM      4  C   UNL     1      -7.590   0.422  39.309  1.00  0.00     0.004 C 
BRANCH   4   5
ATOM      5  C   UNL     1      -7.117   1.824  39.720  1.00  0.00     0.000 C 
BRANCH   5   6
ATOM      6  C   UNL     1      -7.274   2.819  38.565  1.00  0.00     0.000 C 
BRANCH   6   7
ATOM      7  C   UNL     1      -7.659   4.211  39.088  1.00  0.00     0.000 C 
BRANCH   7   8
ATOM      8  C   UNL     1      -8.105   5.164  37.968  1.00  0.00     0.006 C 
BRANCH   8   9
ATOM      9  C   UNL     1      -8.653   4.421  36.741  1.00  0.00     0.053 C 
BRANCH   9  10
ATOM     10  C   UNL     1     -10.023   4.916  36.399  1.00  0.00     0.041 C 
ATOM     11  O   UNL     1     -10.168   6.006  35.784  1.00  0.00    -0.550 OA
ATOM     12  O   UNL     1     -11.138   4.151  36.715  1.00  0.00    -0.550 OA
ENDBRANCH   9  10
ENDBRANCH   8   9
ENDBRANCH   7   8
ENDBRANCH   6   7
ENDBRANCH   5   6
ENDBRANCH   4   5
ENDBRANCH   3   4
ENDBRANCH   1   3
BRANCH   2  13
ATOM     13  C   UNL     1      -5.137   0.381  36.147  1.00  0.00     0.027 C 
BRANCH  13  14
ATOM     14  C   UNL     1      -3.736   0.439  36.781  1.00  0.00     0.004 C 
BRANCH  14  15
ATOM     15  C   UNL     1      -3.750   0.638  38.308  1.00  0.00     0.000 C 
BRANCH  15  16
ATOM     16  C   UNL     1      -3.667   2.119  38.712  1.00  0.00     0.000 C 
BRANCH  16  17
ATOM     17  C   UNL     1      -3.116   3.013  37.589  1.00  0.00    -0.000 C 
BRANCH  17  18
ATOM     18  C   UNL     1      -3.392   4.517  37.801  1.00  0.00    -0.000 C 
BRANCH  18  19
ATOM     19  C   UNL     1      -4.616   4.999  37.009  1.00  0.00    -0.003 C 
ATOM     20  C   UNL     1      -4.879   4.105  35.800  1.00  0.00     0.004 C 
ENDBRANCH  18  19
ENDBRANCH  17  18
ENDBRANCH  16  17
ENDBRANCH  15  16
ENDBRANCH  14  15
ENDBRANCH  13  14
ENDBRANCH   2  13
TORSDOF 15
ENDMDL
MODEL 6
REMARK VINA RESULT:    -3.629      1.904      3.745
REMARK INTER + INTRA:          -8.885
REMARK INTER:                  -6.140
REMARK INTRA:                  -2.746
REMARK UNBOUND:                -2.073
REMARK SMILES CCCCCCCCC=CCCCCCCCC(=O)[O-]
REMARK SMILES IDX 10 1 9 2 11 3 12 4 13 5 14 6 15 7 16 8 17 9 18 10 19 11
REMARK SMILES IDX 20 12 8 13 7 14 6 15 5 16 4 17 3 18 2 19 1 20
REMARK H PARENT
REMARK Flexibility Score: inf
ROOT
ATOM      1  C   UNL     1      -6.381   0.267  37.539  1.00  0.00    -0.031 C 
ATOM      2  C   UNL     1      -7.262   1.121  38.093  1.00  0.00    -0.031 C 
ENDROOT
BRANCH   1   3
ATOM      3  C   UNL     1      -5.238  -0.399  38.267  1.00  0.00     0.027 C 
BRANCH   3   4
ATOM      4  C   UNL     1      -3.886   0.192  37.847  1.00  0.00     0.004 C 
BRANCH   4   5
ATOM      5  C   UNL     1      -3.566   1.492  38.600  1.00  0.00     0.000 C 
BRANCH   5   6
ATOM      6  C   UNL     1      -3.210   2.619  37.625  1.00  0.00     0.000 C 
BRANCH   6   7
ATOM      7  C   UNL     1      -3.528   2.214  36.177  1.00  0.00     0.000 C 
BRANCH   7   8
ATOM      8  C   UNL     1      -4.748   2.952  35.607  1.00  0.00     0.006 C 
BRANCH   8   9
ATOM      9  C   UNL     1      -4.380   3.916  34.471  1.00  0.00     0.053 C 
BRANCH   9  10
ATOM     10  C   UNL     1      -3.674   5.119  35.013  1.00  0.00     0.041 C 
ATOM     11  O   UNL     1      -4.155   5.749  35.992  1.00  0.00    -0.550 OA
ATOM     12  O   UNL     1      -2.459   5.516  34.468  1.00  0.00    -0.550 OA
ENDBRANCH   9  10
ENDBRANCH   8   9
ENDBRANCH   7   8
ENDBRANCH   6   7
ENDBRANCH   5   6
ENDBRANCH   4   5
ENDBRANCH   3   4
ENDBRANCH   1   3
BRANCH   2  13
ATOM     13  C   UNL     1      -7.215   1.607  39.521  1.00  0.00     0.027 C 
BRANCH  13  14
ATOM     14  C   UNL     1      -7.325   3.139  39.620  1.00  0.00     0.004 C 
BRANCH  14  15
ATOM     15  C   UNL     1      -6.354   3.895  38.694  1.00  0.00     0.000 C 
BRANCH  15  16
ATOM     16  C   UNL     1      -7.079   4.837  37.720  1.00  0.00     0.000 C 
BRANCH  16  17
ATOM     17  C   UNL     1      -8.603   4.853  37.929  1.00  0.00    -0.000 C 
BRANCH  17  18
ATOM     18  C   UNL     1      -9.407   5.034  36.625  1.00  0.00    -0.000 C 
BRANCH  18  19
ATOM     19  C   UNL     1     -10.636   4.115  36.570  1.00  0.00    -0.003 C 
ATOM     20  C   UNL     1     -10.592   3.065  37.676  1.00  0.00     0.004 C 
ENDBRANCH  18  19
ENDBRANCH  17  18
ENDBRANCH  16  17
ENDBRANCH  15  16
ENDBRANCH  14  15
ENDBRANCH  13  14
ENDBRANCH   2  13
TORSDOF 15
ENDMDL
MODEL 7
REMARK VINA RESULT:    -3.628      3.220      6.092
REMARK INTER + INTRA:          -8.883
REMARK INTER:                  -6.085
REMARK INTRA:                  -2.798
REMARK UNBOUND:                -2.073
REMARK SMILES CCCCCCCCC=CCCCCCCCC(=O)[O-]
REMARK SMILES IDX 10 1 9 2 11 3 12 4 13 5 14 6 15 7 16 8 17 9 18 10 19 11
REMARK SMILES IDX 20 12 8 13 7 14 6 15 5 16 4 17 3 18 2 19 1 20
REMARK H PARENT
REMARK Flexibility Score: inf
ROOT
ATOM      1  C   UNL     1      -5.182  -0.416  37.806  1.00  0.00    -0.031 C 
ATOM      2  C   UNL     1      -3.998   0.215  37.699  1.00  0.00    -0.031 C 
ENDROOT
BRANCH   1   3
ATOM      3  C   UNL     1      -6.229  -0.132  38.857  1.00  0.00     0.027 C 
BRANCH   3   4
ATOM      4  C   UNL     1      -7.122   1.048  38.452  1.00  0.00     0.004 C 
BRANCH   4   5
ATOM      5  C   UNL     1      -7.059   2.196  39.469  1.00  0.00     0.000 C 
BRANCH   5   6
ATOM      6  C   UNL     1      -8.227   3.169  39.274  1.00  0.00     0.000 C 
BRANCH   6   7
ATOM      7  C   UNL     1      -7.723   4.615  39.150  1.00  0.00     0.000 C 
BRANCH   7   8
ATOM      8  C   UNL     1      -8.077   5.253  37.799  1.00  0.00     0.006 C 
BRANCH   8   9
ATOM      9  C   UNL     1      -8.801   4.283  36.856  1.00  0.00     0.053 C 
BRANCH   9  10
ATOM     10  C   UNL     1     -10.133   4.836  36.458  1.00  0.00     0.041 C 
ATOM     11  O   UNL     1     -11.193   4.286  36.857  1.00  0.00    -0.550 OA
ATOM     12  O   UNL     1     -10.204   5.989  35.685  1.00  0.00    -0.550 OA
ENDBRANCH   9  10
ENDBRANCH   8   9
ENDBRANCH   7   8
ENDBRANCH   6   7
ENDBRANCH   5   6
ENDBRANCH   4   5
ENDBRANCH   3   4
ENDBRANCH   1   3
BRANCH   2  13
ATOM     13  C   UNL     1      -3.490   1.269  38.653  1.00  0.00     0.027 C 
BRANCH  13  14
ATOM     14  C   UNL     1      -3.750   2.696  38.138  1.00  0.00     0.004 C 
BRANCH  14  15
ATOM     15  C   UNL     1      -2.733   3.173  37.083  1.00  0.00     0.000 C 
BRANCH  15  16
ATOM     16  C   UNL     1      -3.372   4.067  36.009  1.00  0.00     0.000 C 
BRANCH  16  17
ATOM     17  C   UNL     1      -4.887   4.243  36.203  1.00  0.00    -0.000 C 
BRANCH  17  18
ATOM     18  C   UNL     1      -5.731   3.686  35.037  1.00  0.00    -0.000 C 
BRANCH  18  19
ATOM     19  C   UNL     1      -6.041   2.192  35.208  1.00  0.00    -0.003 C 
ATOM     20  C   UNL     1      -5.106   1.333  34.360  1.00  0.00     0.004 C 
ENDBRANCH  18  19
ENDBRANCH  17  18
ENDBRANCH  16  17
ENDBRANCH  15  16
ENDBRANCH  14  15
ENDBRANCH  13  14
ENDBRANCH   2  13
TORSDOF 15
ENDMDL
MODEL 8
REMARK VINA RESULT:    -3.546      2.420      3.566
REMARK INTER + INTRA:          -8.728
REMARK INTER:                  -6.348
REMARK INTRA:                  -2.380
REMARK UNBOUND:                -2.073
REMARK SMILES CCCCCCCCC=CCCCCCCCC(=O)[O-]
REMARK SMILES IDX 10 1 9 2 11 3 12 4 13 5 14 6 15 7 16 8 17 9 18 10 19 11
REMARK SMILES IDX 20 12 8 13 7 14 6 15 5 16 4 17 3 18 2 19 1 20
REMARK H PARENT
REMARK Flexibility Score: inf
ROOT
ATOM      1  C   UNL     1      -6.363   2.987  39.689  1.00  0.00    -0.031 C 
ATOM      2  C   UNL     1      -7.508   2.998  38.980  1.00  0.00    -0.031 C 
ENDROOT
BRANCH   1   3
ATOM      3  C   UNL     1      -5.044   3.557  39.222  1.00  0.00     0.027 C 
BRANCH   3   4
ATOM      4  C   UNL     1      -4.014   2.450  38.968  1.00  0.00     0.004 C 
BRANCH   4   5
ATOM      5  C   UNL     1      -4.221   1.770  37.606  1.00  0.00     0.000 C 
BRANCH   5   6
ATOM      6  C   UNL     1      -3.917   0.270  37.688  1.00  0.00     0.000 C 
BRANCH   6   7
ATOM      7  C   UNL     1      -5.040  -0.478  38.424  1.00  0.00     0.000 C 
BRANCH   7   8
ATOM      8  C   UNL     1      -6.390  -0.385  37.698  1.00  0.00     0.006 C 
BRANCH   8   9
ATOM      9  C   UNL     1      -7.581  -0.678  38.621  1.00  0.00     0.053 C 
BRANCH   9  10
ATOM     10  C   UNL     1      -7.899  -2.140  38.616  1.00  0.00     0.041 C 
ATOM     11  O   UNL     1      -8.111  -2.747  39.699  1.00  0.00    -0.550 OA
ATOM     12  O   UNL     1      -8.008  -2.824  37.411  1.00  0.00    -0.550 OA
ENDBRANCH   9  10
ENDBRANCH   8   9
ENDBRANCH   7   8
ENDBRANCH   6   7
ENDBRANCH   5   6
ENDBRANCH   4   5
ENDBRANCH   3   4
ENDBRANCH   1   3
BRANCH   2  13
ATOM     13  C   UNL     1      -7.649   3.526  37.573  1.00  0.00     0.027 C 
BRANCH  13  14
ATOM     14  C   UNL     1      -8.279   4.929  37.537  1.00  0.00     0.004 C 
BRANCH  14  15
ATOM     15  C   UNL     1      -9.573   5.010  36.704  1.00  0.00     0.000 C 
BRANCH  15  16
ATOM     16  C   UNL     1     -10.289   3.655  36.591  1.00  0.00     0.000 C 
BRANCH  16  17
ATOM     17  C   UNL     1     -11.738   3.702  37.102  1.00  0.00    -0.000 C 
BRANCH  17  18
ATOM     18  C   UNL     1     -12.087   2.565  38.086  1.00  0.00    -0.000 C 
BRANCH  18  19
ATOM     19  C   UNL     1     -10.838   1.817  38.573  1.00  0.00    -0.003 C 
ATOM     20  C   UNL     1     -10.896   1.563  40.077  1.00  0.00     0.004 C 
ENDBRANCH  18  19
ENDBRANCH  17  18
ENDBRANCH  16  17
ENDBRANCH  15  16
ENDBRANCH  14  15
ENDBRANCH  13  14
ENDBRANCH   2  13
TORSDOF 15
ENDMDL
MODEL 9
REMARK VINA RESULT:    -3.538      1.257      2.279
REMARK INTER + INTRA:          -8.714
REMARK INTER:                  -5.907
REMARK INTRA:                  -2.807
REMARK UNBOUND:                -2.073
REMARK SMILES CCCCCCCCC=CCCCCCCCC(=O)[O-]
REMARK SMILES IDX 10 1 9 2 11 3 12 4 13 5 14 6 15 7 16 8 17 9 18 10 19 11
REMARK SMILES IDX 20 12 8 13 7 14 6 15 5 16 4 17 3 18 2 19 1 20
REMARK H PARENT
REMARK Flexibility Score: inf
ROOT
ATOM      1  C   UNL     1      -7.813   0.871  38.875  1.00  0.00    -0.031 C 
ATOM      2  C   UNL     1      -7.554   1.782  39.831  1.00  0.00    -0.031 C 
ENDROOT
BRANCH   1   3
ATOM      3  C   UNL     1      -7.170   0.837  37.508  1.00  0.00     0.027 C 
BRANCH   3   4
ATOM      4  C   UNL     1      -6.323  -0.428  37.320  1.00  0.00     0.004 C 
BRANCH   4   5
ATOM      5  C   UNL     1      -5.171  -0.507  38.332  1.00  0.00     0.000 C 
BRANCH   5   6
ATOM      6  C   UNL     1      -3.907   0.161  37.780  1.00  0.00     0.000 C 
BRANCH   6   7
ATOM      7  C   UNL     1      -3.516   1.382  38.628  1.00  0.00     0.000 C 
BRANCH   7   8
ATOM      8  C   UNL     1      -3.542   2.693  37.828  1.00  0.00     0.006 C 
BRANCH   8   9
ATOM      9  C   UNL     1      -4.080   2.508  36.403  1.00  0.00     0.053 C 
BRANCH   9  10
ATOM     10  C   UNL     1      -3.218   3.235  35.420  1.00  0.00     0.041 C 
ATOM     11  O   UNL     1      -2.685   4.332  35.733  1.00  0.00    -0.550 OA
ATOM     12  O   UNL     1      -2.963   2.677  34.173  1.00  0.00    -0.550 OA
ENDBRANCH   9  10
ENDBRANCH   8   9
ENDBRANCH   7   8
ENDBRANCH   6   7
ENDBRANCH   5   6
ENDBRANCH   4   5
ENDBRANCH   3   4
ENDBRANCH   1   3
BRANCH   2  13
ATOM     13  C   UNL     1      -6.626   2.962  39.675  1.00  0.00     0.027 C 
BRANCH  13  14
ATOM     14  C   UNL     1      -7.349   4.206  39.129  1.00  0.00     0.004 C 
BRANCH  14  15
ATOM     15  C   UNL     1      -7.024   4.520  37.656  1.00  0.00     0.000 C 
BRANCH  15  16
ATOM     16  C   UNL     1      -8.235   4.326  36.730  1.00  0.00     0.000 C 
BRANCH  16  17
ATOM     17  C   UNL     1      -9.537   4.050  37.501  1.00  0.00    -0.000 C 
BRANCH  17  18
ATOM     18  C   UNL     1     -10.393   2.920  36.889  1.00  0.00    -0.000 C 
BRANCH  18  19
ATOM     19  C   UNL     1     -11.505   2.457  37.840  1.00  0.00    -0.003 C 
ATOM     20  C   UNL     1     -12.790   3.249  37.616  1.00  0.00     0.004 C 
ENDBRANCH  18  19
ENDBRANCH  17  18
ENDBRANCH  16  17
ENDBRANCH  15  16
ENDBRANCH  14  15
ENDBRANCH  13  14
ENDBRANCH   2  13
TORSDOF 15
ENDMDL
