MODEL 1
REMARK VINA RESULT:    -3.775      0.000      0.000
REMARK INTER + INTRA:          -9.939
REMARK INTER:                  -7.305
REMARK INTRA:                  -2.634
REMARK UNBOUND:                -2.634
REMARK SMILES CCCCCCCCCCCCCCCCCC(=O)[O-]
REMARK SMILES IDX 10 1 11 2 12 3 13 4 14 5 15 6 16 7 17 8 18 9 19 10 20 11
REMARK SMILES IDX 9 12 8 13 7 14 6 15 5 16 4 17 3 18 2 19 1 20
REMARK H PARENT
REMARK Flexibility Score: inf
ROOT
ATOM      1  C   UNL     1     298.935 325.332 645.767  1.00  0.00     0.000 C 
ENDROOT
BRANCH   1   2
ATOM      2  C   UNL     1     299.253 324.069 646.585  1.00  0.00     0.000 C 
BRANCH   2   3
ATOM      3  C   UNL     1     300.221 324.345 647.748  1.00  0.00     0.000 C 
BRANCH   3   4
ATOM      4  C   UNL     1     301.560 323.602 647.597  1.00  0.00     0.000 C 
BRANCH   4   5
ATOM      5  C   UNL     1     302.772 324.299 648.249  1.00  0.00     0.000 C 
BRANCH   5   6
ATOM      6  C   UNL     1     303.813 323.351 648.870  1.00  0.00     0.000 C 
BRANCH   6   7
ATOM      7  C   UNL     1     304.107 322.126 647.988  1.00  0.00     0.006 C 
BRANCH   7   8
ATOM      8  C   UNL     1     305.552 321.634 648.146  1.00  0.00     0.053 C 
BRANCH   8   9
ATOM      9  C   UNL     1     305.643 320.493 649.113  1.00  0.00     0.041 C 
ATOM     10  O   UNL     1     306.759 319.972 649.377  1.00  0.00    -0.550 OA
ATOM     11  O   UNL     1     304.500 320.028 649.750  1.00  0.00    -0.550 OA
ENDBRANCH   8   9
ENDBRANCH   7   8
ENDBRANCH   6   7
ENDBRANCH   5   6
ENDBRANCH   4   5
ENDBRANCH   3   4
ENDBRANCH   2   3
ENDBRANCH   1   2
BRANCH   1  12
ATOM     12  C   UNL     1     299.563 326.599 646.373  1.00  0.00     0.000 C 
BRANCH  12  13
ATOM     13  C   UNL     1     299.854 327.677 645.316  1.00  0.00    -0.000 C 
BRANCH  13  14
ATOM     14  C   UNL     1     301.271 327.568 644.733  1.00  0.00    -0.000 C 
BRANCH  14  15
ATOM     15  C   UNL     1     302.273 327.124 645.806  1.00  0.00    -0.000 C 
BRANCH  15  16
ATOM     16  C   UNL     1     303.229 326.054 645.257  1.00  0.00    -0.000 C 
BRANCH  16  17
ATOM     17  C   UNL     1     302.743 325.447 643.931  1.00  0.00    -0.000 C 
BRANCH  17  18
ATOM     18  C   UNL     1     302.129 324.049 644.110  1.00  0.00    -0.000 C 
BRANCH  18  19
ATOM     19  C   UNL     1     301.124 323.700 643.001  1.00  0.00    -0.003 C 
ATOM     20  C   UNL     1     300.669 324.925 642.206  1.00  0.00     0.004 C 
ENDBRANCH  18  19
ENDBRANCH  17  18
ENDBRANCH  16  17
ENDBRANCH  15  16
ENDBRANCH  14  15
ENDBRANCH  13  14
ENDBRANCH  12  13
ENDBRANCH   1  12
TORSDOF 16
ENDMDL
MODEL 2
REMARK VINA RESULT:    -3.632      2.546      5.979
REMARK INTER + INTRA:          -9.663
REMARK INTER:                  -7.388
REMARK INTRA:                  -2.275
REMARK UNBOUND:                -2.634
REMARK SMILES CCCCCCCCCCCCCCCCCC(=O)[O-]
REMARK SMILES IDX 10 1 11 2 12 3 13 4 14 5 15 6 16 7 17 8 18 9 19 10 20 11
REMARK SMILES IDX 9 12 8 13 7 14 6 15 5 16 4 17 3 18 2 19 1 20
REMARK H PARENT
REMARK Flexibility Score: inf
ROOT
ATOM      1  C   UNL     1     302.486 324.536 643.584  1.00  0.00     0.000 C 
ENDROOT
BRANCH   1   2
ATOM      2  C   UNL     1     301.003 324.136 643.515  1.00  0.00     0.000 C 
BRANCH   2   3
ATOM      3  C   UNL     1     300.093 325.101 644.294  1.00  0.00     0.000 C 
BRANCH   3   4
ATOM      4  C   UNL     1     299.202 324.381 645.322  1.00  0.00     0.000 C 
BRANCH   4   5
ATOM      5  C   UNL     1     299.304 324.918 646.765  1.00  0.00     0.000 C 
BRANCH   5   6
ATOM      6  C   UNL     1     299.989 323.971 647.766  1.00  0.00     0.000 C 
BRANCH   6   7
ATOM      7  C   UNL     1     301.414 323.579 647.338  1.00  0.00     0.006 C 
BRANCH   7   8
ATOM      8  C   UNL     1     302.484 324.287 648.180  1.00  0.00     0.053 C 
BRANCH   8   9
ATOM      9  C   UNL     1     303.220 325.319 647.381  1.00  0.00     0.041 C 
ATOM     10  O   UNL     1     302.585 326.154 646.685  1.00  0.00    -0.550 OA
ATOM     11  O   UNL     1     304.607 325.381 647.434  1.00  0.00    -0.550 OA
ENDBRANCH   8   9
ENDBRANCH   7   8
ENDBRANCH   6   7
ENDBRANCH   5   6
ENDBRANCH   4   5
ENDBRANCH   3   4
ENDBRANCH   2   3
ENDBRANCH   1   2
BRANCH   1  12
ATOM     12  C   UNL     1     303.369 323.422 644.172  1.00  0.00     0.000 C 
BRANCH  12  13
ATOM     13  C   UNL     1     304.824 323.872 644.384  1.00  0.00    -0.000 C 
BRANCH  13  14
ATOM     14  C   UNL     1     305.628 322.891 645.250  1.00  0.00    -0.000 C 
BRANCH  14  15
ATOM     15  C   UNL     1     304.698 322.059 646.143  1.00  0.00    -0.000 C 
BRANCH  15  16
ATOM     16  C   UNL     1     305.488 321.362 647.261  1.00  0.00    -0.000 C 
BRANCH  16  17
ATOM     17  C   UNL     1     304.790 321.453 648.628  1.00  0.00    -0.000 C 
BRANCH  17  18
ATOM     18  C   UNL     1     305.449 322.481 649.562  1.00  0.00    -0.000 C 
BRANCH  18  19
ATOM     19  C   UNL     1     306.436 321.833 650.547  1.00  0.00    -0.003 C 
ATOM     20  C   UNL     1     305.880 320.566 651.197  1.00  0.00     0.004 C 
ENDBRANCH  18  19
ENDBRANCH  17  18
ENDBRANCH  16  17
ENDBRANCH  15  16
ENDBRANCH  14  15
ENDBRANCH  13  14
ENDBRANCH  12  13
ENDBRANCH   1  12
TORSDOF 16
ENDMDL
MODEL 3
REMARK VINA RESULT:    -3.615      1.582      3.685
REMARK INTER + INTRA:          -9.630
REMARK INTER:                  -6.843
REMARK INTRA:                  -2.787
REMARK UNBOUND:                -2.634
REMARK SMILES CCCCCCCCCCCCCCCCCC(=O)[O-]
REMARK SMILES IDX 10 1 11 2 12 3 13 4 14 5 15 6 16 7 17 8 18 9 19 10 20 11
REMARK SMILES IDX 9 12 8 13 7 14 6 15 5 16 4 17 3 18 2 19 1 20
REMARK H PARENT
REMARK Flexibility Score: inf
ROOT
ATOM      1  C   UNL     1     302.817 325.093 646.200  1.00  0.00     0.000 C 
ENDROOT
BRANCH   1   2
ATOM      2  C   UNL     1     302.525 323.998 645.162  1.00  0.00     0.000 C 
BRANCH   2   3
ATOM      3  C   UNL     1     303.568 323.960 644.032  1.00  0.00     0.000 C 
BRANCH   3   4
ATOM      4  C   UNL     1     304.556 322.788 644.172  1.00  0.00     0.000 C 
BRANCH   4   5
ATOM      5  C   UNL     1     305.928 323.158 644.774  1.00  0.00     0.000 C 
BRANCH   5   6
ATOM      6  C   UNL     1     306.112 322.781 646.255  1.00  0.00     0.000 C 
BRANCH   6   7
ATOM      7  C   UNL     1     305.142 321.680 646.716  1.00  0.00     0.006 C 
BRANCH   7   8
ATOM      8  C   UNL     1     304.420 322.055 648.017  1.00  0.00     0.053 C 
BRANCH   8   9
ATOM      9  C   UNL     1     304.963 321.295 649.189  1.00  0.00     0.041 C 
ATOM     10  O   UNL     1     305.340 320.102 649.051  1.00  0.00    -0.550 OA
ATOM     11  O   UNL     1     305.086 321.916 650.425  1.00  0.00    -0.550 OA
ENDBRANCH   8   9
ENDBRANCH   7   8
ENDBRANCH   6   7
ENDBRANCH   5   6
ENDBRANCH   4   5
ENDBRANCH   3   4
ENDBRANCH   2   3
ENDBRANCH   1   2
BRANCH   1  12
ATOM     12  C   UNL     1     301.856 325.038 647.401  1.00  0.00     0.000 C 
BRANCH  12  13
ATOM     13  C   UNL     1     301.162 323.674 647.540  1.00  0.00    -0.000 C 
BRANCH  13  14
ATOM     14  C   UNL     1     299.630 323.788 647.564  1.00  0.00    -0.000 C 
BRANCH  14  15
ATOM     15  C   UNL     1     299.161 325.035 646.803  1.00  0.00    -0.000 C 
BRANCH  15  16
ATOM     16  C   UNL     1     298.876 324.705 645.330  1.00  0.00    -0.000 C 
BRANCH  16  17
ATOM     17  C   UNL     1     299.219 325.868 644.384  1.00  0.00    -0.000 C 
BRANCH  17  18
ATOM     18  C   UNL     1     299.543 327.168 645.138  1.00  0.00    -0.000 C 
BRANCH  18  19
ATOM     19  C   UNL     1     300.929 327.728 644.778  1.00  0.00    -0.003 C 
ATOM     20  C   UNL     1     301.445 327.213 643.434  1.00  0.00     0.004 C 
ENDBRANCH  18  19
ENDBRANCH  17  18
ENDBRANCH  16  17
ENDBRANCH  15  16
ENDBRANCH  14  15
ENDBRANCH  13  14
ENDBRANCH  12  13
ENDBRANCH   1  12
TORSDOF 16
ENDMDL
MODEL 4
REMARK VINA RESULT:    -3.577      1.745      4.036
REMARK INTER + INTRA:          -9.557
REMARK INTER:                  -7.170
REMARK INTRA:                  -2.387
REMARK UNBOUND:                -2.634
REMARK SMILES CCCCCCCCCCCCCCCCCC(=O)[O-]
REMARK SMILES IDX 10 1 11 2 12 3 13 4 14 5 15 6 16 7 17 8 18 9 19 10 20 11
REMARK SMILES IDX 9 12 8 13 7 14 6 15 5 16 4 17 3 18 2 19 1 20
REMARK H PARENT
REMARK Flexibility Score: inf
ROOT
ATOM      1  C   UNL     1     304.120 324.536 644.934  1.00  0.00     0.000 C 
ENDROOT
BRANCH   1   2
ATOM      2  C   UNL     1     303.576 323.243 644.305  1.00  0.00     0.000 C 
BRANCH   2   3
ATOM      3  C   UNL     1     304.553 322.063 644.440  1.00  0.00     0.000 C 
BRANCH   3   4
ATOM      4  C   UNL     1     305.660 322.322 645.477  1.00  0.00     0.000 C 
BRANCH   4   5
ATOM      5  C   UNL     1     305.933 321.154 646.448  1.00  0.00     0.000 C 
BRANCH   5   6
ATOM      6  C   UNL     1     306.135 321.563 647.918  1.00  0.00     0.000 C 
BRANCH   6   7
ATOM      7  C   UNL     1     304.880 321.338 648.779  1.00  0.00     0.006 C 
BRANCH   7   8
ATOM      8  C   UNL     1     304.947 322.102 650.108  1.00  0.00     0.053 C 
BRANCH   8   9
ATOM      9  C   UNL     1     306.067 321.608 650.972  1.00  0.00     0.041 C 
ATOM     10  O   UNL     1     305.948 320.527 651.608  1.00  0.00    -0.550 OA
ATOM     11  O   UNL     1     307.255 322.323 651.048  1.00  0.00    -0.550 OA
ENDBRANCH   8   9
ENDBRANCH   7   8
ENDBRANCH   6   7
ENDBRANCH   5   6
ENDBRANCH   4   5
ENDBRANCH   3   4
ENDBRANCH   2   3
ENDBRANCH   1   2
BRANCH   1  12
ATOM     12  C   UNL     1     303.170 325.121 645.993  1.00  0.00     0.000 C 
BRANCH  12  13
ATOM     13  C   UNL     1     303.571 324.733 647.425  1.00  0.00    -0.000 C 
BRANCH  13  14
ATOM     14  C   UNL     1     302.447 324.007 648.179  1.00  0.00    -0.000 C 
BRANCH  14  15
ATOM     15  C   UNL     1     301.280 323.677 647.240  1.00  0.00    -0.000 C 
BRANCH  15  16
ATOM     16  C   UNL     1     299.967 324.280 647.761  1.00  0.00    -0.000 C 
BRANCH  16  17
ATOM     17  C   UNL     1     299.119 324.911 646.644  1.00  0.00    -0.000 C 
BRANCH  17  18
ATOM     18  C   UNL     1     299.501 324.394 645.247  1.00  0.00    -0.000 C 
BRANCH  18  19
ATOM     19  C   UNL     1     299.912 325.527 644.293  1.00  0.00    -0.003 C 
ATOM     20  C   UNL     1     299.891 326.902 644.960  1.00  0.00     0.004 C 
ENDBRANCH  18  19
ENDBRANCH  17  18
ENDBRANCH  16  17
ENDBRANCH  15  16
ENDBRANCH  14  15
ENDBRANCH  13  14
ENDBRANCH  12  13
ENDBRANCH   1  12
TORSDOF 16
ENDMDL
MODEL 5
REMARK VINA RESULT:    -3.570      1.717      2.822
REMARK INTER + INTRA:          -9.543
REMARK INTER:                  -7.059
REMARK INTRA:                  -2.485
REMARK UNBOUND:                -2.634
REMARK SMILES CCCCCCCCCCCCCCCCCC(=O)[O-]
REMARK SMILES IDX 10 1 11 2 12 3 13 4 14 5 15 6 16 7 17 8 18 9 19 10 20 11
REMARK SMILES IDX 9 12 8 13 7 14 6 15 5 16 4 17 3 18 2 19 1 20
REMARK H PARENT
REMARK Flexibility Score: inf
ROOT
ATOM      1  C   UNL     1     300.584 323.337 647.793  1.00  0.00     0.000 C 
ENDROOT
BRANCH   1   2
ATOM      2  C   UNL     1     302.017 323.703 647.374  1.00  0.00     0.000 C 
BRANCH   2   3
ATOM      3  C   UNL     1     302.284 325.217 647.438  1.00  0.00     0.000 C 
BRANCH   3   4
ATOM      4  C   UNL     1     303.605 325.618 646.759  1.00  0.00     0.000 C 
BRANCH   4   5
ATOM      5  C   UNL     1     304.666 324.499 646.680  1.00  0.00     0.000 C 
BRANCH   5   6
ATOM      6  C   UNL     1     305.592 324.392 647.905  1.00  0.00     0.000 C 
BRANCH   6   7
ATOM      7  C   UNL     1     305.679 322.962 648.465  1.00  0.00     0.006 C 
BRANCH   7   8
ATOM      8  C   UNL     1     304.886 322.803 649.769  1.00  0.00     0.053 C 
BRANCH   8   9
ATOM      9  C   UNL     1     305.362 321.626 650.564  1.00  0.00     0.041 C 
ATOM     10  O   UNL     1     304.937 320.470 650.302  1.00  0.00    -0.550 OA
ATOM     11  O   UNL     1     306.303 321.801 651.571  1.00  0.00    -0.550 OA
ENDBRANCH   8   9
ENDBRANCH   7   8
ENDBRANCH   6   7
ENDBRANCH   5   6
ENDBRANCH   4   5
ENDBRANCH   3   4
ENDBRANCH   2   3
ENDBRANCH   1   2
BRANCH   1  12
ATOM     12  C   UNL     1     299.597 324.500 647.594  1.00  0.00     0.000 C 
BRANCH  12  13
ATOM     13  C   UNL     1     298.875 324.437 646.238  1.00  0.00    -0.000 C 
BRANCH  13  14
ATOM     14  C   UNL     1     298.915 325.773 645.483  1.00  0.00    -0.000 C 
BRANCH  14  15
ATOM     15  C   UNL     1     300.087 325.809 644.494  1.00  0.00    -0.000 C 
BRANCH  15  16
ATOM     16  C   UNL     1     300.449 324.394 644.018  1.00  0.00    -0.000 C 
BRANCH  16  17
ATOM     17  C   UNL     1     301.751 324.357 643.201  1.00  0.00    -0.000 C 
BRANCH  17  18
ATOM     18  C   UNL     1     302.724 323.270 643.688  1.00  0.00    -0.000 C 
BRANCH  18  19
ATOM     19  C   UNL     1     304.149 323.471 643.148  1.00  0.00    -0.003 C 
ATOM     20  C   UNL     1     305.145 322.456 643.709  1.00  0.00     0.004 C 
ENDBRANCH  18  19
ENDBRANCH  17  18
ENDBRANCH  16  17
ENDBRANCH  15  16
ENDBRANCH  14  15
ENDBRANCH  13  14
ENDBRANCH  12  13
ENDBRANCH   1  12
TORSDOF 16
ENDMDL
MODEL 6
REMARK VINA RESULT:    -3.555      2.313      4.324
REMARK INTER + INTRA:          -9.514
REMARK INTER:                  -7.223
REMARK INTRA:                  -2.291
REMARK UNBOUND:                -2.634
REMARK SMILES CCCCCCCCCCCCCCCCCC(=O)[O-]
REMARK SMILES IDX 10 1 11 2 12 3 13 4 14 5 15 6 16 7 17 8 18 9 19 10 20 11
REMARK SMILES IDX 9 12 8 13 7 14 6 15 5 16 4 17 3 18 2 19 1 20
REMARK H PARENT
REMARK Flexibility Score: inf
ROOT
ATOM      1  C   UNL     1     303.653 323.675 646.347  1.00  0.00     0.000 C 
ENDROOT
BRANCH   1   2
ATOM      2  C   UNL     1     303.141 323.079 647.668  1.00  0.00     0.000 C 
BRANCH   2   3
ATOM      3  C   UNL     1     304.228 322.299 648.427  1.00  0.00     0.000 C 
BRANCH   3   4
ATOM      4  C   UNL     1     304.516 322.881 649.822  1.00  0.00     0.000 C 
BRANCH   4   5
ATOM      5  C   UNL     1     305.591 322.130 650.635  1.00  0.00     0.000 C 
BRANCH   5   6
ATOM      6  C   UNL     1     306.894 321.832 649.872  1.00  0.00     0.000 C 
BRANCH   6   7
ATOM      7  C   UNL     1     307.867 323.023 649.862  1.00  0.00     0.006 C 
BRANCH   7   8
ATOM      8  C   UNL     1     308.409 323.314 648.456  1.00  0.00     0.053 C 
BRANCH   8   9
ATOM      9  C   UNL     1     307.386 323.996 647.601  1.00  0.00     0.041 C 
ATOM     10  O   UNL     1     307.211 323.632 646.408  1.00  0.00    -0.550 OA
ATOM     11  O   UNL     1     306.601 325.012 648.132  1.00  0.00    -0.550 OA
ENDBRANCH   8   9
ENDBRANCH   7   8
ENDBRANCH   6   7
ENDBRANCH   5   6
ENDBRANCH   4   5
ENDBRANCH   3   4
ENDBRANCH   2   3
ENDBRANCH   1   2
BRANCH   1  12
ATOM     12  C   UNL     1     303.316 325.169 646.204  1.00  0.00     0.000 C 
BRANCH  12  13
ATOM     13  C   UNL     1     302.563 325.483 644.901  1.00  0.00    -0.000 C 
BRANCH  13  14
ATOM     14  C   UNL     1     302.120 324.218 644.152  1.00  0.00    -0.000 C 
BRANCH  14  15
ATOM     15  C   UNL     1     300.590 324.118 644.101  1.00  0.00    -0.000 C 
BRANCH  15  16
ATOM     16  C   UNL     1     299.939 325.468 644.438  1.00  0.00    -0.000 C 
BRANCH  16  17
ATOM     17  C   UNL     1     298.878 325.355 645.545  1.00  0.00    -0.000 C 
BRANCH  17  18
ATOM     18  C   UNL     1     299.330 326.000 646.866  1.00  0.00    -0.000 C 
BRANCH  18  19
ATOM     19  C   UNL     1     299.976 324.987 647.825  1.00  0.00    -0.003 C 
ATOM     20  C   UNL     1     299.398 323.579 647.678  1.00  0.00     0.004 C 
ENDBRANCH  18  19
ENDBRANCH  17  18
ENDBRANCH  16  17
ENDBRANCH  15  16
ENDBRANCH  14  15
ENDBRANCH  13  14
ENDBRANCH  12  13
ENDBRANCH   1  12
TORSDOF 16
ENDMDL
MODEL 7
REMARK VINA RESULT:    -3.508      1.341      3.614
REMARK INTER + INTRA:          -9.423
REMARK INTER:                  -7.125
REMARK INTRA:                  -2.299
REMARK UNBOUND:                -2.634
REMARK SMILES CCCCCCCCCCCCCCCCCC(=O)[O-]
REMARK SMILES IDX 10 1 11 2 12 3 13 4 14 5 15 6 16 7 17 8 18 9 19 10 20 11
REMARK SMILES IDX 9 12 8 13 7 14 6 15 5 16 4 17 3 18 2 19 1 20
REMARK H PARENT
REMARK Flexibility Score: inf
ROOT
ATOM      1  C   UNL     1     302.999 323.616 644.597  1.00  0.00     0.000 C 
ENDROOT
BRANCH   1   2
ATOM      2  C   UNL     1     303.911 324.841 644.773  1.00  0.00     0.000 C 
BRANCH   2   3
ATOM      3  C   UNL     1     303.268 325.939 645.637  1.00  0.00     0.000 C 
BRANCH   3   4
ATOM      4  C   UNL     1     303.446 325.692 647.145  1.00  0.00     0.000 C 
BRANCH   4   5
ATOM      5  C   UNL     1     304.626 324.770 647.522  1.00  0.00     0.000 C 
BRANCH   5   6
ATOM      6  C   UNL     1     304.250 323.549 648.380  1.00  0.00     0.000 C 
BRANCH   6   7
ATOM      7  C   UNL     1     305.477 322.827 648.962  1.00  0.00     0.006 C 
BRANCH   7   8
ATOM      8  C   UNL     1     305.239 322.350 650.400  1.00  0.00     0.053 C 
BRANCH   8   9
ATOM      9  C   UNL     1     305.278 320.855 650.500  1.00  0.00     0.041 C 
ATOM     10  O   UNL     1     304.657 320.148 649.663  1.00  0.00    -0.550 OA
ATOM     11  O   UNL     1     306.028 320.243 651.495  1.00  0.00    -0.550 OA
ENDBRANCH   8   9
ENDBRANCH   7   8
ENDBRANCH   6   7
ENDBRANCH   5   6
ENDBRANCH   4   5
ENDBRANCH   3   4
ENDBRANCH   2   3
ENDBRANCH   1   2
BRANCH   1  12
ATOM     12  C   UNL     1     302.229 323.643 643.265  1.00  0.00     0.000 C 
BRANCH  12  13
ATOM     13  C   UNL     1     300.774 324.110 643.432  1.00  0.00    -0.000 C 
BRANCH  13  14
ATOM     14  C   UNL     1     300.579 325.586 643.056  1.00  0.00    -0.000 C 
BRANCH  14  15
ATOM     15  C   UNL     1     299.412 326.202 643.840  1.00  0.00    -0.000 C 
BRANCH  15  16
ATOM     16  C   UNL     1     299.909 327.301 644.792  1.00  0.00    -0.000 C 
BRANCH  16  17
ATOM     17  C   UNL     1     299.645 326.970 646.270  1.00  0.00    -0.000 C 
BRANCH  17  18
ATOM     18  C   UNL     1     299.180 325.519 646.477  1.00  0.00    -0.000 C 
BRANCH  18  19
ATOM     19  C   UNL     1     299.768 324.889 647.750  1.00  0.00    -0.003 C 
ATOM     20  C   UNL     1     300.581 323.626 647.466  1.00  0.00     0.004 C 
ENDBRANCH  18  19
ENDBRANCH  17  18
ENDBRANCH  16  17
ENDBRANCH  15  16
ENDBRANCH  14  15
ENDBRANCH  13  14
ENDBRANCH  12  13
ENDBRANCH   1  12
TORSDOF 16
ENDMDL
MODEL 8
REMARK VINA RESULT:    -3.498      1.426      3.186
REMARK INTER + INTRA:          -9.404
REMARK INTER:                  -7.420
REMARK INTRA:                  -1.985
REMARK UNBOUND:                -2.634
REMARK SMILES CCCCCCCCCCCCCCCCCC(=O)[O-]
REMARK SMILES IDX 10 1 11 2 12 3 13 4 14 5 15 6 16 7 17 8 18 9 19 10 20 11
REMARK SMILES IDX 9 12 8 13 7 14 6 15 5 16 4 17 3 18 2 19 1 20
REMARK H PARENT
REMARK Flexibility Score: inf
ROOT
ATOM      1  C   UNL     1     300.525 324.545 647.856  1.00  0.00     0.000 C 
ENDROOT
BRANCH   1   2
ATOM      2  C   UNL     1     301.702 323.617 647.515  1.00  0.00     0.000 C 
BRANCH   2   3
ATOM      3  C   UNL     1     302.980 323.970 648.296  1.00  0.00     0.000 C 
BRANCH   3   4
ATOM      4  C   UNL     1     304.037 322.854 648.244  1.00  0.00     0.000 C 
BRANCH   4   5
ATOM      5  C   UNL     1     304.573 322.526 646.834  1.00  0.00     0.000 C 
BRANCH   5   6
ATOM      6  C   UNL     1     305.548 321.337 646.768  1.00  0.00     0.000 C 
BRANCH   6   7
ATOM      7  C   UNL     1     305.831 320.719 648.148  1.00  0.00     0.006 C 
BRANCH   7   8
ATOM      8  C   UNL     1     307.203 321.133 648.696  1.00  0.00     0.053 C 
BRANCH   8   9
ATOM      9  C   UNL     1     307.083 321.822 650.021  1.00  0.00     0.041 C 
ATOM     10  O   UNL     1     306.241 321.424 650.869  1.00  0.00    -0.550 OA
ATOM     11  O   UNL     1     307.925 322.881 650.333  1.00  0.00    -0.550 OA
ENDBRANCH   8   9
ENDBRANCH   7   8
ENDBRANCH   6   7
ENDBRANCH   5   6
ENDBRANCH   4   5
ENDBRANCH   3   4
ENDBRANCH   2   3
ENDBRANCH   1   2
BRANCH   1  12
ATOM     12  C   UNL     1     299.177 323.992 647.362  1.00  0.00     0.000 C 
BRANCH  12  13
ATOM     13  C   UNL     1     298.880 324.373 645.903  1.00  0.00    -0.000 C 
BRANCH  13  14
ATOM     14  C   UNL     1     299.045 325.877 645.639  1.00  0.00    -0.000 C 
BRANCH  14  15
ATOM     15  C   UNL     1     299.350 326.143 644.159  1.00  0.00    -0.000 C 
BRANCH  15  16
ATOM     16  C   UNL     1     300.799 326.619 643.973  1.00  0.00    -0.000 C 
BRANCH  16  17
ATOM     17  C   UNL     1     301.826 325.495 644.186  1.00  0.00    -0.000 C 
BRANCH  17  18
ATOM     18  C   UNL     1     303.092 325.979 644.913  1.00  0.00    -0.000 C 
BRANCH  18  19
ATOM     19  C   UNL     1     302.773 326.916 646.089  1.00  0.00    -0.003 C 
ATOM     20  C   UNL     1     304.006 327.657 646.608  1.00  0.00     0.004 C 
ENDBRANCH  18  19
ENDBRANCH  17  18
ENDBRANCH  16  17
ENDBRANCH  15  16
ENDBRANCH  14  15
ENDBRANCH  13  14
ENDBRANCH  12  13
ENDBRANCH   1  12
TORSDOF 16
ENDMDL
MODEL 9
REMARK VINA RESULT:    -3.487      1.271      2.583
REMARK INTER + INTRA:          -9.383
REMARK INTER:                  -7.248
REMARK INTRA:                  -2.136
REMARK UNBOUND:                -2.634
REMARK SMILES CCCCCCCCCCCCCCCCCC(=O)[O-]
REMARK SMILES IDX 10 1 11 2 12 3 13 4 14 5 15 6 16 7 17 8 18 9 19 10 20 11
REMARK SMILES IDX 9 12 8 13 7 14 6 15 5 16 4 17 3 18 2 19 1 20
REMARK H PARENT
REMARK Flexibility Score: inf
ROOT
ATOM      1  C   UNL     1     298.925 324.611 645.667  1.00  0.00     0.000 C 
ENDROOT
BRANCH   1   2
ATOM      2  C   UNL     1     299.261 324.840 647.150  1.00  0.00     0.000 C 
BRANCH   2   3
ATOM      3  C   UNL     1     300.050 323.673 647.766  1.00  0.00     0.000 C 
BRANCH   3   4
ATOM      4  C   UNL     1     301.505 323.608 647.268  1.00  0.00     0.000 C 
BRANCH   4   5
ATOM      5  C   UNL     1     302.573 323.966 648.322  1.00  0.00     0.000 C 
BRANCH   5   6
ATOM      6  C   UNL     1     303.905 323.208 648.183  1.00  0.00     0.000 C 
BRANCH   6   7
ATOM      7  C   UNL     1     304.628 323.017 649.527  1.00  0.00     0.006 C 
BRANCH   7   8
ATOM      8  C   UNL     1     305.690 321.911 649.459  1.00  0.00     0.053 C 
BRANCH   8   9
ATOM      9  C   UNL     1     305.328 320.746 650.329  1.00  0.00     0.041 C 
ATOM     10  O   UNL     1     304.478 319.903 649.940  1.00  0.00    -0.550 OA
ATOM     11  O   UNL     1     305.957 320.572 651.556  1.00  0.00    -0.550 OA
ENDBRANCH   8   9
ENDBRANCH   7   8
ENDBRANCH   6   7
ENDBRANCH   5   6
ENDBRANCH   4   5
ENDBRANCH   3   4
ENDBRANCH   2   3
ENDBRANCH   1   2
BRANCH   1  12
ATOM     12  C   UNL     1     299.317 325.807 644.783  1.00  0.00     0.000 C 
BRANCH  12  13
ATOM     13  C   UNL     1     300.156 325.392 643.564  1.00  0.00    -0.000 C 
BRANCH  13  14
ATOM     14  C   UNL     1     300.786 324.001 643.724  1.00  0.00    -0.000 C 
BRANCH  14  15
ATOM     15  C   UNL     1     301.971 323.822 642.766  1.00  0.00    -0.000 C 
BRANCH  15  16
ATOM     16  C   UNL     1     303.143 324.731 643.166  1.00  0.00    -0.000 C 
BRANCH  16  17
ATOM     17  C   UNL     1     303.498 324.621 644.658  1.00  0.00    -0.000 C 
BRANCH  17  18
ATOM     18  C   UNL     1     304.643 325.564 645.065  1.00  0.00    -0.000 C 
BRANCH  18  19
ATOM     19  C   UNL     1     304.174 326.688 646.002  1.00  0.00    -0.003 C 
ATOM     20  C   UNL     1     302.655 326.864 646.004  1.00  0.00     0.004 C 
ENDBRANCH  18  19
ENDBRANCH  17  18
ENDBRANCH  16  17
ENDBRANCH  15  16
ENDBRANCH  14  15
ENDBRANCH  13  14
ENDBRANCH  12  13
ENDBRANCH   1  12
TORSDOF 16
ENDMDL
