MODEL 1
REMARK VINA RESULT:    -1.715      0.000      0.000
REMARK INTER + INTRA:          -4.281
REMARK INTER:                  -3.119
REMARK INTRA:                  -1.163
REMARK UNBOUND:                -1.163
REMARK SMILES CCCCCCCCCCCCCCCC(=O)[O-]
REMARK SMILES IDX 9 1 10 2 11 3 12 4 13 5 14 6 15 7 16 8 17 9 18 10 8 11 7 12
REMARK SMILES IDX 6 13 5 14 4 15 3 16 2 17 1 18
REMARK H PARENT
REMARK Flexibility Score: inf
ROOT
ATOM      1  C   UNL     1       0.279  -0.957  -0.673  1.00  0.00     0.000 C 
ENDROOT
BRANCH   1   2
ATOM      2  C   UNL     1       1.321  -0.791  -1.792  1.00  0.00     0.000 C 
BRANCH   2   3
ATOM      3  C   UNL     1       1.726   0.677  -2.009  1.00  0.00     0.000 C 
BRANCH   3   4
ATOM      4  C   UNL     1       2.665   1.199  -0.909  1.00  0.00     0.000 C 
BRANCH   4   5
ATOM      5  C   UNL     1       3.148   2.633  -1.173  1.00  0.00     0.000 C 
BRANCH   5   6
ATOM      6  C   UNL     1       2.601   3.601  -0.112  1.00  0.00     0.006 C 
BRANCH   6   7
ATOM      7  C   UNL     1       2.294   4.988  -0.692  1.00  0.00     0.053 C 
BRANCH   7   8
ATOM      8  C   UNL     1       3.367   5.980  -0.361  1.00  0.00     0.041 C 
ATOM      9  O   UNL     1       3.211   7.197  -0.641  1.00  0.00    -0.550 OA
ATOM     10  O   UNL     1       4.553   5.553   0.223  1.00  0.00    -0.550 OA
ENDBRANCH   7   8
ENDBRANCH   6   7
ENDBRANCH   5   6
ENDBRANCH   4   5
ENDBRANCH   3   4
ENDBRANCH   2   3
ENDBRANCH   1   2
BRANCH   1  11
ATOM     11  C   UNL     1      -0.822   0.117  -0.729  1.00  0.00     0.000 C 
BRANCH  11  12
ATOM     12  C   UNL     1      -1.828  -0.121  -1.870  1.00  0.00    -0.000 C 
BRANCH  12  13
ATOM     13  C   UNL     1      -2.320  -1.575  -2.021  1.00  0.00    -0.000 C 
BRANCH  13  14
ATOM     14  C   UNL     1      -3.415  -2.001  -1.028  1.00  0.00    -0.000 C 
BRANCH  14  15
ATOM     15  C   UNL     1      -2.947  -3.094  -0.055  1.00  0.00    -0.000 C 
BRANCH  15  16
ATOM     16  C   UNL     1      -3.241  -4.492  -0.619  1.00  0.00    -0.000 C 
BRANCH  16  17
ATOM     17  C   UNL     1      -1.965  -5.320  -0.837  1.00  0.00    -0.003 C 
ATOM     18  C   UNL     1      -0.700  -4.586  -0.394  1.00  0.00     0.004 C 
ENDBRANCH  16  17
ENDBRANCH  15  16
ENDBRANCH  14  15
ENDBRANCH  13  14
ENDBRANCH  12  13
ENDBRANCH  11  12
ENDBRANCH   1  11
TORSDOF 14
ENDMDL
MODEL 2
REMARK VINA RESULT:    -1.648      4.675      8.909
REMARK INTER + INTRA:          -4.160
REMARK INTER:                  -3.695
REMARK INTRA:                  -0.465
REMARK UNBOUND:                -1.163
REMARK SMILES CCCCCCCCCCCCCCCC(=O)[O-]
REMARK SMILES IDX 9 1 10 2 11 3 12 4 13 5 14 6 15 7 16 8 17 9 18 10 8 11 7 12
REMARK SMILES IDX 6 13 5 14 4 15 3 16 2 17 1 18
REMARK H PARENT
REMARK Flexibility Score: inf
ROOT
ATOM      1  C   UNL     1       0.352  -0.679  -0.290  1.00  0.00     0.000 C 
ENDROOT
BRANCH   1   2
ATOM      2  C   UNL     1      -0.467   0.622  -0.348  1.00  0.00     0.000 C 
BRANCH   2   3
ATOM      3  C   UNL     1      -1.425   0.661  -1.551  1.00  0.00     0.000 C 
BRANCH   3   4
ATOM      4  C   UNL     1      -1.927  -0.736  -1.953  1.00  0.00     0.000 C 
BRANCH   4   5
ATOM      5  C   UNL     1      -3.069  -1.236  -1.056  1.00  0.00     0.000 C 
BRANCH   5   6
ATOM      6  C   UNL     1      -3.379  -2.714  -1.336  1.00  0.00     0.006 C 
BRANCH   6   7
ATOM      7  C   UNL     1      -2.638  -3.657  -0.379  1.00  0.00     0.053 C 
BRANCH   7   8
ATOM      8  C   UNL     1      -3.071  -5.081  -0.553  1.00  0.00     0.041 C 
ATOM      9  O   UNL     1      -2.337  -5.894  -1.173  1.00  0.00    -0.550 OA
ATOM     10  O   UNL     1      -4.301  -5.499  -0.061  1.00  0.00    -0.550 OA
ENDBRANCH   7   8
ENDBRANCH   6   7
ENDBRANCH   5   6
ENDBRANCH   4   5
ENDBRANCH   3   4
ENDBRANCH   2   3
ENDBRANCH   1   2
BRANCH   1  11
ATOM     11  C   UNL     1       1.285  -0.843  -1.502  1.00  0.00     0.000 C 
BRANCH  11  12
ATOM     12  C   UNL     1       1.842   0.499  -2.011  1.00  0.00    -0.000 C 
BRANCH  12  13
ATOM     13  C   UNL     1       2.845   1.196  -1.068  1.00  0.00    -0.000 C 
BRANCH  13  14
ATOM     14  C   UNL     1       3.009   2.709  -1.291  1.00  0.00    -0.000 C 
BRANCH  14  15
ATOM     15  C   UNL     1       2.546   3.544  -0.088  1.00  0.00    -0.000 C 
BRANCH  15  16
ATOM     16  C   UNL     1       1.837   4.826  -0.550  1.00  0.00    -0.000 C 
BRANCH  16  17
ATOM     17  C   UNL     1       2.808   6.002  -0.736  1.00  0.00    -0.003 C 
ATOM     18  C   UNL     1       4.112   5.823   0.041  1.00  0.00     0.004 C 
ENDBRANCH  16  17
ENDBRANCH  15  16
ENDBRANCH  14  15
ENDBRANCH  13  14
ENDBRANCH  12  13
ENDBRANCH  11  12
ENDBRANCH   1  11
TORSDOF 14
ENDMDL
MODEL 3
REMARK VINA RESULT:    -1.619      0.816      1.238
REMARK INTER + INTRA:          -4.107
REMARK INTER:                  -3.369
REMARK INTRA:                  -0.738
REMARK UNBOUND:                -1.163
REMARK SMILES CCCCCCCCCCCCCCCC(=O)[O-]
REMARK SMILES IDX 9 1 10 2 11 3 12 4 13 5 14 6 15 7 16 8 17 9 18 10 8 11 7 12
REMARK SMILES IDX 6 13 5 14 4 15 3 16 2 17 1 18
REMARK H PARENT
REMARK Flexibility Score: inf
ROOT
ATOM      1  C   UNL     1      -0.424   0.764  -0.530  1.00  0.00     0.000 C 
ENDROOT
BRANCH   1   2
ATOM      2  C   UNL     1       0.416  -0.522  -0.456  1.00  0.00     0.000 C 
BRANCH   2   3
ATOM      3  C   UNL     1       1.530  -0.561  -1.515  1.00  0.00     0.000 C 
BRANCH   3   4
ATOM      4  C   UNL     1       1.858   0.832  -2.080  1.00  0.00     0.000 C 
BRANCH   4   5
ATOM      5  C   UNL     1       2.860   1.604  -1.210  1.00  0.00     0.000 C 
BRANCH   5   6
ATOM      6  C   UNL     1       2.282   2.959  -0.775  1.00  0.00     0.006 C 
BRANCH   6   7
ATOM      7  C   UNL     1       3.305   3.812  -0.014  1.00  0.00     0.053 C 
BRANCH   7   8
ATOM      8  C   UNL     1       3.211   5.260  -0.389  1.00  0.00     0.041 C 
ATOM      9  O   UNL     1       2.190   5.694  -0.985  1.00  0.00    -0.550 OA
ATOM     10  O   UNL     1       4.265   6.121  -0.111  1.00  0.00    -0.550 OA
ENDBRANCH   7   8
ENDBRANCH   6   7
ENDBRANCH   5   6
ENDBRANCH   4   5
ENDBRANCH   3   4
ENDBRANCH   2   3
ENDBRANCH   1   2
BRANCH   1  11
ATOM     11  C   UNL     1      -1.623   0.631  -1.485  1.00  0.00     0.000 C 
BRANCH  11  12
ATOM     12  C   UNL     1      -1.938  -0.833  -1.845  1.00  0.00    -0.000 C 
BRANCH  12  13
ATOM     13  C   UNL     1      -3.075  -1.480  -1.028  1.00  0.00    -0.000 C 
BRANCH  13  14
ATOM     14  C   UNL     1      -3.417  -2.929  -1.418  1.00  0.00    -0.000 C 
BRANCH  14  15
ATOM     15  C   UNL     1      -3.177  -3.927  -0.276  1.00  0.00    -0.000 C 
BRANCH  15  16
ATOM     16  C   UNL     1      -2.518  -5.212  -0.799  1.00  0.00    -0.000 C 
BRANCH  16  17
ATOM     17  C   UNL     1      -1.029  -5.301  -0.433  1.00  0.00    -0.003 C 
ATOM     18  C   UNL     1      -0.357  -3.931  -0.345  1.00  0.00     0.004 C 
ENDBRANCH  16  17
ENDBRANCH  15  16
ENDBRANCH  14  15
ENDBRANCH  13  14
ENDBRANCH  12  13
ENDBRANCH  11  12
ENDBRANCH   1  11
TORSDOF 14
ENDMDL
MODEL 4
REMARK VINA RESULT:    -1.573      4.426      8.594
REMARK INTER + INTRA:          -4.023
REMARK INTER:                  -3.130
REMARK INTRA:                  -0.893
REMARK UNBOUND:                -1.163
REMARK SMILES CCCCCCCCCCCCCCCC(=O)[O-]
REMARK SMILES IDX 9 1 10 2 11 3 12 4 13 5 14 6 15 7 16 8 17 9 18 10 8 11 7 12
REMARK SMILES IDX 6 13 5 14 4 15 3 16 2 17 1 18
REMARK H PARENT
REMARK Flexibility Score: inf
ROOT
ATOM      1  C   UNL     1      -0.097  -0.124   0.087  1.00  0.00     0.000 C 
ENDROOT
BRANCH   1   2
ATOM      2  C   UNL     1      -0.317  -1.389  -0.759  1.00  0.00     0.000 C 
BRANCH   2   3
ATOM      3  C   UNL     1      -1.311  -1.161  -1.911  1.00  0.00     0.000 C 
BRANCH   3   4
ATOM      4  C   UNL     1      -2.655  -0.591  -1.429  1.00  0.00     0.000 C 
BRANCH   4   5
ATOM      5  C   UNL     1      -3.513  -1.632  -0.697  1.00  0.00     0.000 C 
BRANCH   5   6
ATOM      6  C   UNL     1      -3.366  -3.018  -1.343  1.00  0.00     0.006 C 
BRANCH   6   7
ATOM      7  C   UNL     1      -3.341  -4.146  -0.303  1.00  0.00     0.053 C 
BRANCH   7   8
ATOM      8  C   UNL     1      -2.344  -5.207  -0.655  1.00  0.00     0.041 C 
ATOM      9  O   UNL     1      -2.734  -6.330  -1.067  1.00  0.00    -0.550 OA
ATOM     10  O   UNL     1      -0.985  -4.965  -0.493  1.00  0.00    -0.550 OA
ENDBRANCH   7   8
ENDBRANCH   6   7
ENDBRANCH   5   6
ENDBRANCH   4   5
ENDBRANCH   3   4
ENDBRANCH   2   3
ENDBRANCH   1   2
BRANCH   1  11
ATOM     11  C   UNL     1       0.273   1.100  -0.768  1.00  0.00     0.000 C 
BRANCH  11  12
ATOM     12  C   UNL     1       1.369   0.794  -1.805  1.00  0.00    -0.000 C 
BRANCH  12  13
ATOM     13  C   UNL     1       2.774   0.541  -1.222  1.00  0.00    -0.000 C 
BRANCH  13  14
ATOM     14  C   UNL     1       3.386   1.726  -0.453  1.00  0.00    -0.000 C 
BRANCH  14  15
ATOM     15  C   UNL     1       3.174   3.071  -1.163  1.00  0.00    -0.000 C 
BRANCH  15  16
ATOM     16  C   UNL     1       2.996   4.206  -0.144  1.00  0.00    -0.000 C 
BRANCH  16  17
ATOM     17  C   UNL     1       1.797   5.109  -0.470  1.00  0.00    -0.003 C 
ATOM     18  C   UNL     1       0.455   4.442  -0.172  1.00  0.00     0.004 C 
ENDBRANCH  16  17
ENDBRANCH  15  16
ENDBRANCH  14  15
ENDBRANCH  13  14
ENDBRANCH  12  13
ENDBRANCH  11  12
ENDBRANCH   1  11
TORSDOF 14
ENDMDL
MODEL 5
REMARK VINA RESULT:    -0.611      1.866      2.676
REMARK INTER + INTRA:          -2.273
REMARK INTER:                  -1.463
REMARK INTRA:                  -0.810
REMARK UNBOUND:                -1.163
REMARK SMILES CCCCCCCCCCCCCCCC(=O)[O-]
REMARK SMILES IDX 9 1 10 2 11 3 12 4 13 5 14 6 15 7 16 8 17 9 18 10 8 11 7 12
REMARK SMILES IDX 6 13 5 14 4 15 3 16 2 17 1 18
REMARK H PARENT
REMARK Flexibility Score: inf
ROOT
ATOM      1  C   UNL     1       0.217   0.966  -1.352  1.00  0.00     0.000 C 
ENDROOT
BRANCH   1   2
ATOM      2  C   UNL     1      -0.211   1.956  -0.255  1.00  0.00     0.000 C 
BRANCH   2   3
ATOM      3  C   UNL     1      -0.261   3.408  -0.759  1.00  0.00     0.000 C 
BRANCH   3   4
ATOM      4  C   UNL     1       0.618   4.354   0.076  1.00  0.00     0.000 C 
BRANCH   4   5
ATOM      5  C   UNL     1       1.612   5.152  -0.780  1.00  0.00     0.000 C 
BRANCH   5   6
ATOM      6  C   UNL     1       3.060   4.771  -0.440  1.00  0.00     0.006 C 
BRANCH   6   7
ATOM      7  C   UNL     1       3.157   3.398   0.240  1.00  0.00     0.053 C 
BRANCH   7   8
ATOM      8  C   UNL     1       3.314   2.292  -0.759  1.00  0.00     0.041 C 
ATOM      9  O   UNL     1       3.044   2.492  -1.972  1.00  0.00    -0.550 OA
ATOM     10  O   UNL     1       3.725   1.032  -0.342  1.00  0.00    -0.550 OA
ENDBRANCH   7   8
ENDBRANCH   6   7
ENDBRANCH   5   6
ENDBRANCH   4   5
ENDBRANCH   3   4
ENDBRANCH   2   3
ENDBRANCH   1   2
BRANCH   1  11
ATOM     11  C   UNL     1       0.631  -0.402  -0.782  1.00  0.00     0.000 C 
BRANCH  11  12
ATOM     12  C   UNL     1      -0.398  -1.508  -1.081  1.00  0.00    -0.000 C 
BRANCH  12  13
ATOM     13  C   UNL     1      -1.795  -1.009  -1.505  1.00  0.00    -0.000 C 
BRANCH  13  14
ATOM     14  C   UNL     1      -2.977  -1.712  -0.816  1.00  0.00    -0.000 C 
BRANCH  14  15
ATOM     15  C   UNL     1      -3.326  -3.063  -1.458  1.00  0.00    -0.000 C 
BRANCH  15  16
ATOM     16  C   UNL     1      -3.269  -4.194  -0.421  1.00  0.00    -0.000 C 
BRANCH  16  17
ATOM     17  C   UNL     1      -2.223  -5.263  -0.771  1.00  0.00    -0.003 C 
ATOM     18  C   UNL     1      -0.801  -4.842  -0.400  1.00  0.00     0.004 C 
ENDBRANCH  16  17
ENDBRANCH  15  16
ENDBRANCH  14  15
ENDBRANCH  13  14
ENDBRANCH  12  13
ENDBRANCH  11  12
ENDBRANCH   1  11
TORSDOF 14
ENDMDL
MODEL 6
REMARK VINA RESULT:    -0.555      3.539      8.135
REMARK INTER + INTRA:          -2.173
REMARK INTER:                  -1.653
REMARK INTRA:                  -0.520
REMARK UNBOUND:                -1.163
REMARK SMILES CCCCCCCCCCCCCCCC(=O)[O-]
REMARK SMILES IDX 9 1 10 2 11 3 12 4 13 5 14 6 15 7 16 8 17 9 18 10 8 11 7 12
REMARK SMILES IDX 6 13 5 14 4 15 3 16 2 17 1 18
REMARK H PARENT
REMARK Flexibility Score: inf
ROOT
ATOM      1  C   UNL     1       0.106  -0.751   0.137  1.00  0.00     0.000 C 
ENDROOT
BRANCH   1   2
ATOM      2  C   UNL     1       0.122  -2.064  -0.664  1.00  0.00     0.000 C 
BRANCH   2   3
ATOM      3  C   UNL     1      -0.323  -3.272   0.177  1.00  0.00     0.000 C 
BRANCH   3   4
ATOM      4  C   UNL     1      -0.438  -4.561  -0.655  1.00  0.00     0.000 C 
BRANCH   4   5
ATOM      5  C   UNL     1      -1.836  -5.190  -0.584  1.00  0.00     0.000 C 
BRANCH   5   6
ATOM      6  C   UNL     1      -2.900  -4.131  -0.260  1.00  0.00     0.006 C 
BRANCH   6   7
ATOM      7  C   UNL     1      -3.351  -3.358  -1.506  1.00  0.00     0.053 C 
BRANCH   7   8
ATOM      8  C   UNL     1      -3.155  -1.881  -1.346  1.00  0.00     0.041 C 
ATOM      9  O   UNL     1      -2.464  -1.240  -2.181  1.00  0.00    -0.550 OA
ATOM     10  O   UNL     1      -3.706  -1.220  -0.255  1.00  0.00    -0.550 OA
ENDBRANCH   7   8
ENDBRANCH   6   7
ENDBRANCH   5   6
ENDBRANCH   4   5
ENDBRANCH   3   4
ENDBRANCH   2   3
ENDBRANCH   1   2
BRANCH   1  11
ATOM     11  C   UNL     1      -0.142   0.480  -0.752  1.00  0.00     0.000 C 
BRANCH  11  12
ATOM     12  C   UNL     1       0.893   0.615  -1.884  1.00  0.00    -0.000 C 
BRANCH  12  13
ATOM     13  C   UNL     1       2.356   0.354  -1.473  1.00  0.00    -0.000 C 
BRANCH  13  14
ATOM     14  C   UNL     1       2.971   1.412  -0.538  1.00  0.00    -0.000 C 
BRANCH  14  15
ATOM     15  C   UNL     1       2.953   2.824  -1.142  1.00  0.00    -0.000 C 
BRANCH  15  16
ATOM     16  C   UNL     1       2.174   3.795  -0.243  1.00  0.00    -0.000 C 
BRANCH  16  17
ATOM     17  C   UNL     1       2.312   5.256  -0.694  1.00  0.00    -0.003 C 
ATOM     18  C   UNL     1       3.661   5.867  -0.317  1.00  0.00     0.004 C 
ENDBRANCH  16  17
ENDBRANCH  15  16
ENDBRANCH  14  15
ENDBRANCH  13  14
ENDBRANCH  12  13
ENDBRANCH  11  12
ENDBRANCH   1  11
TORSDOF 14
ENDMDL
MODEL 7
REMARK VINA RESULT:    -0.475      1.201      2.869
REMARK INTER + INTRA:          -2.026
REMARK INTER:                  -1.326
REMARK INTRA:                  -0.700
REMARK UNBOUND:                -1.163
REMARK SMILES CCCCCCCCCCCCCCCC(=O)[O-]
REMARK SMILES IDX 9 1 10 2 11 3 12 4 13 5 14 6 15 7 16 8 17 9 18 10 8 11 7 12
REMARK SMILES IDX 6 13 5 14 4 15 3 16 2 17 1 18
REMARK H PARENT
REMARK Flexibility Score: inf
ROOT
ATOM      1  C   UNL     1       0.152  -2.030  -0.550  1.00  0.00     0.000 C 
ENDROOT
BRANCH   1   2
ATOM      2  C   UNL     1       0.099  -0.690   0.204  1.00  0.00     0.000 C 
BRANCH   2   3
ATOM      3  C   UNL     1       0.291   0.518  -0.729  1.00  0.00     0.000 C 
BRANCH   3   4
ATOM      4  C   UNL     1       1.544   0.391  -1.611  1.00  0.00     0.000 C 
BRANCH   4   5
ATOM      5  C   UNL     1       2.775   1.072  -0.995  1.00  0.00     0.000 C 
BRANCH   5   6
ATOM      6  C   UNL     1       2.901   2.523  -1.482  1.00  0.00     0.006 C 
BRANCH   6   7
ATOM      7  C   UNL     1       3.061   3.515  -0.322  1.00  0.00     0.053 C 
BRANCH   7   8
ATOM      8  C   UNL     1       2.204   4.730  -0.507  1.00  0.00     0.041 C 
ATOM      9  O   UNL     1       2.715   5.810  -0.905  1.00  0.00    -0.550 OA
ATOM     10  O   UNL     1       0.849   4.679  -0.204  1.00  0.00    -0.550 OA
ENDBRANCH   7   8
ENDBRANCH   6   7
ENDBRANCH   5   6
ENDBRANCH   4   5
ENDBRANCH   3   4
ENDBRANCH   2   3
ENDBRANCH   1   2
BRANCH   1  11
ATOM     11  C   UNL     1      -0.370  -3.204   0.297  1.00  0.00     0.000 C 
BRANCH  11  12
ATOM     12  C   UNL     1      -0.330  -4.546  -0.456  1.00  0.00    -0.000 C 
BRANCH  12  13
ATOM     13  C   UNL     1      -1.701  -5.085  -0.913  1.00  0.00    -0.000 C 
BRANCH  13  14
ATOM     14  C   UNL     1      -2.920  -4.339  -0.342  1.00  0.00    -0.000 C 
BRANCH  14  15
ATOM     15  C   UNL     1      -3.382  -3.180  -1.238  1.00  0.00    -0.000 C 
BRANCH  15  16
ATOM     16  C   UNL     1      -3.509  -1.880  -0.430  1.00  0.00    -0.000 C 
BRANCH  16  17
ATOM     17  C   UNL     1      -3.012  -0.652  -1.207  1.00  0.00    -0.003 C 
ATOM     18  C   UNL     1      -2.199  -1.025  -2.447  1.00  0.00     0.004 C 
ENDBRANCH  16  17
ENDBRANCH  15  16
ENDBRANCH  14  15
ENDBRANCH  13  14
ENDBRANCH  12  13
ENDBRANCH  11  12
ENDBRANCH   1  11
TORSDOF 14
ENDMDL
MODEL 8
REMARK VINA RESULT:    -0.392      4.605      8.367
REMARK INTER + INTRA:          -1.876
REMARK INTER:                  -1.549
REMARK INTRA:                  -0.326
REMARK UNBOUND:                -1.163
REMARK SMILES CCCCCCCCCCCCCCCC(=O)[O-]
REMARK SMILES IDX 9 1 10 2 11 3 12 4 13 5 14 6 15 7 16 8 17 9 18 10 8 11 7 12
REMARK SMILES IDX 6 13 5 14 4 15 3 16 2 17 1 18
REMARK H PARENT
REMARK Flexibility Score: inf
ROOT
ATOM      1  C   UNL     1      -0.215   2.113   0.034  1.00  0.00     0.000 C 
ENDROOT
BRANCH   1   2
ATOM      2  C   UNL     1      -0.709   0.944  -0.834  1.00  0.00     0.000 C 
BRANCH   2   3
ATOM      3  C   UNL     1      -0.317  -0.426  -0.255  1.00  0.00     0.000 C 
BRANCH   3   4
ATOM      4  C   UNL     1      -0.830  -1.598  -1.109  1.00  0.00     0.000 C 
BRANCH   4   5
ATOM      5  C   UNL     1      -2.166  -1.288  -1.800  1.00  0.00     0.000 C 
BRANCH   5   6
ATOM      6  C   UNL     1      -3.206  -2.377  -1.498  1.00  0.00     0.006 C 
BRANCH   6   7
ATOM      7  C   UNL     1      -2.833  -3.214  -0.268  1.00  0.00     0.053 C 
BRANCH   7   8
ATOM      8  C   UNL     1      -3.001  -4.682  -0.521  1.00  0.00     0.041 C 
ATOM      9  O   UNL     1      -2.123  -5.318  -1.161  1.00  0.00    -0.550 OA
ATOM     10  O   UNL     1      -4.144  -5.337  -0.081  1.00  0.00    -0.550 OA
ENDBRANCH   7   8
ENDBRANCH   6   7
ENDBRANCH   5   6
ENDBRANCH   4   5
ENDBRANCH   3   4
ENDBRANCH   2   3
ENDBRANCH   1   2
BRANCH   1  11
ATOM     11  C   UNL     1      -0.149   3.439  -0.744  1.00  0.00     0.000 C 
BRANCH  11  12
ATOM     12  C   UNL     1       0.580   4.550   0.033  1.00  0.00    -0.000 C 
BRANCH  12  13
ATOM     13  C   UNL     1       1.704   5.267  -0.742  1.00  0.00    -0.000 C 
BRANCH  13  14
ATOM     14  C   UNL     1       3.134   4.878  -0.330  1.00  0.00    -0.000 C 
BRANCH  14  15
ATOM     15  C   UNL     1       3.278   3.381  -0.014  1.00  0.00    -0.000 C 
BRANCH  15  16
ATOM     16  C   UNL     1       3.216   2.542  -1.299  1.00  0.00    -0.000 C 
BRANCH  16  17
ATOM     17  C   UNL     1       2.851   1.075  -1.027  1.00  0.00    -0.003 C 
ATOM     18  C   UNL     1       2.008   0.457  -2.143  1.00  0.00     0.004 C 
ENDBRANCH  16  17
ENDBRANCH  15  16
ENDBRANCH  14  15
ENDBRANCH  13  14
ENDBRANCH  12  13
ENDBRANCH  11  12
ENDBRANCH   1  11
TORSDOF 14
ENDMDL
MODEL 9
REMARK VINA RESULT:    -0.314      1.186      2.472
REMARK INTER + INTRA:          -1.733
REMARK INTER:                  -0.917
REMARK INTRA:                  -0.816
REMARK UNBOUND:                -1.163
REMARK SMILES CCCCCCCCCCCCCCCC(=O)[O-]
REMARK SMILES IDX 9 1 10 2 11 3 12 4 13 5 14 6 15 7 16 8 17 9 18 10 8 11 7 12
REMARK SMILES IDX 6 13 5 14 4 15 3 16 2 17 1 18
REMARK H PARENT
REMARK Flexibility Score: inf
ROOT
ATOM      1  C   UNL     1      -1.602   0.117  -1.801  1.00  0.00     0.000 C 
ENDROOT
BRANCH   1   2
ATOM      2  C   UNL     1      -0.721   0.153  -0.541  1.00  0.00     0.000 C 
BRANCH   2   3
ATOM      3  C   UNL     1       0.350  -0.952  -0.538  1.00  0.00     0.000 C 
BRANCH   3   4
ATOM      4  C   UNL     1       1.478  -0.685  -1.548  1.00  0.00     0.000 C 
BRANCH   4   5
ATOM      5  C   UNL     1       1.626   0.804  -1.892  1.00  0.00     0.000 C 
BRANCH   5   6
ATOM      6  C   UNL     1       2.524   1.518  -0.871  1.00  0.00     0.006 C 
BRANCH   6   7
ATOM      7  C   UNL     1       3.011   2.882  -1.376  1.00  0.00     0.053 C 
BRANCH   7   8
ATOM      8  C   UNL     1       2.667   3.985  -0.421  1.00  0.00     0.041 C 
ATOM      9  O   UNL     1       1.491   4.431  -0.368  1.00  0.00    -0.550 OA
ATOM     10  O   UNL     1       3.653   4.543   0.383  1.00  0.00    -0.550 OA
ENDBRANCH   7   8
ENDBRANCH   6   7
ENDBRANCH   5   6
ENDBRANCH   4   5
ENDBRANCH   3   4
ENDBRANCH   2   3
ENDBRANCH   1   2
BRANCH   1  11
ATOM     11  C   UNL     1      -2.170  -1.285  -2.083  1.00  0.00     0.000 C 
BRANCH  11  12
ATOM     12  C   UNL     1      -3.284  -1.685  -1.099  1.00  0.00    -0.000 C 
BRANCH  12  13
ATOM     13  C   UNL     1      -3.174  -3.113  -0.526  1.00  0.00    -0.000 C 
BRANCH  13  14
ATOM     14  C   UNL     1      -1.768  -3.520  -0.050  1.00  0.00    -0.000 C 
BRANCH  14  15
ATOM     15  C   UNL     1      -1.398  -4.958  -0.440  1.00  0.00    -0.000 C 
BRANCH  15  16
ATOM     16  C   UNL     1      -2.474  -5.574  -1.347  1.00  0.00    -0.000 C 
BRANCH  16  17
ATOM     17  C   UNL     1      -3.257  -6.699  -0.653  1.00  0.00    -0.003 C 
ATOM     18  C   UNL     1      -4.575  -6.217  -0.047  1.00  0.00     0.004 C 
ENDBRANCH  16  17
ENDBRANCH  15  16
ENDBRANCH  14  15
ENDBRANCH  13  14
ENDBRANCH  12  13
ENDBRANCH  11  12
ENDBRANCH   1  11
TORSDOF 14
ENDMDL
