MODEL 1
REMARK VINA RESULT:    -2.950      0.000      0.000
REMARK INTER + INTRA:         -13.713
REMARK INTER:                  -7.434
REMARK INTRA:                  -6.279
REMARK UNBOUND:                -6.279
REMARK SMILES CCCCCCCCCCCCCCCCCCCCCCCCCCCC(=O)[O-]
REMARK SMILES IDX 15 1 16 2 17 3 18 4 19 5 20 6 21 7 22 8 23 9 24 10 25 11
REMARK SMILES IDX 26 12 27 13 28 14 29 15 30 16 14 17 13 18 12 19 11 20 10 21
REMARK SMILES IDX 9 22 8 23 7 24 6 25 5 26 4 27 3 28 2 29 1 30
REMARK H PARENT
REMARK Flexibility Score: inf
ROOT
ATOM      1  C   UNL     1      52.009  53.001  51.463  1.00  0.00     0.000 C 
ENDROOT
BRANCH   1   2
ATOM      2  C   UNL     1      53.048  53.529  52.465  1.00  0.00     0.000 C 
BRANCH   2   3
ATOM      3  C   UNL     1      53.399  55.006  52.231  1.00  0.00     0.000 C 
BRANCH   3   4
ATOM      4  C   UNL     1      52.389  55.664  51.282  1.00  0.00     0.000 C 
BRANCH   4   5
ATOM      5  C   UNL     1      53.063  56.478  50.164  1.00  0.00     0.000 C 
BRANCH   5   6
ATOM      6  C   UNL     1      54.237  57.347  50.659  1.00  0.00     0.000 C 
BRANCH   6   7
ATOM      7  C   UNL     1      55.521  57.125  49.838  1.00  0.00     0.000 C 
BRANCH   7   8
ATOM      8  C   UNL     1      55.498  55.775  49.103  1.00  0.00     0.000 C 
BRANCH   8   9
ATOM      9  C   UNL     1      56.913  55.271  48.752  1.00  0.00     0.000 C 
BRANCH   9  10
ATOM     10  C   UNL     1      57.237  53.937  49.441  1.00  0.00     0.000 C 
BRANCH  10  11
ATOM     11  C   UNL     1      56.030  53.402  50.235  1.00  0.00     0.000 C 
BRANCH  11  12
ATOM     12  C   UNL     1      56.431  52.372  51.311  1.00  0.00     0.006 C 
BRANCH  12  13
ATOM     13  C   UNL     1      56.073  50.926  50.937  1.00  0.00     0.053 C 
BRANCH  13  14
ATOM     14  C   UNL     1      55.628  50.124  52.120  1.00  0.00     0.041 C 
ATOM     15  O   UNL     1      55.058  50.688  53.092  1.00  0.00    -0.550 OA
ATOM     16  O   UNL     1      55.832  48.750  52.147  1.00  0.00    -0.550 OA
ENDBRANCH  13  14
ENDBRANCH  12  13
ENDBRANCH  11  12
ENDBRANCH  10  11
ENDBRANCH   9  10
ENDBRANCH   8   9
ENDBRANCH   7   8
ENDBRANCH   6   7
ENDBRANCH   5   6
ENDBRANCH   4   5
ENDBRANCH   3   4
ENDBRANCH   2   3
ENDBRANCH   1   2
BRANCH   1  17
ATOM     17  C   UNL     1      52.394  51.625  50.891  1.00  0.00     0.000 C 
BRANCH  17  18
ATOM     18  C   UNL     1      52.824  51.695  49.419  1.00  0.00     0.000 C 
BRANCH  18  19
ATOM     19  C   UNL     1      52.357  52.985  48.720  1.00  0.00     0.000 C 
BRANCH  19  20
ATOM     20  C   UNL     1      53.282  53.392  47.562  1.00  0.00     0.000 C 
BRANCH  20  21
ATOM     21  C   UNL     1      54.372  52.348  47.274  1.00  0.00     0.000 C 
BRANCH  21  22
ATOM     22  C   UNL     1      55.410  52.897  46.283  1.00  0.00    -0.000 C 
BRANCH  22  23
ATOM     23  C   UNL     1      55.011  54.266  45.703  1.00  0.00    -0.000 C 
BRANCH  23  24
ATOM     24  C   UNL     1      56.160  55.040  45.026  1.00  0.00    -0.000 C 
BRANCH  24  25
ATOM     25  C   UNL     1      55.724  56.275  44.212  1.00  0.00    -0.000 C 
BRANCH  25  26
ATOM     26  C   UNL     1      55.659  57.590  45.008  1.00  0.00    -0.000 C 
BRANCH  26  27
ATOM     27  C   UNL     1      54.217  58.060  45.267  1.00  0.00    -0.000 C 
BRANCH  27  28
ATOM     28  C   UNL     1      53.663  57.562  46.612  1.00  0.00    -0.000 C 
BRANCH  28  29
ATOM     29  C   UNL     1      52.266  56.937  46.480  1.00  0.00    -0.003 C 
ATOM     30  C   UNL     1      52.070  56.315  45.100  1.00  0.00     0.004 C 
ENDBRANCH  28  29
ENDBRANCH  27  28
ENDBRANCH  26  27
ENDBRANCH  25  26
ENDBRANCH  24  25
ENDBRANCH  23  24
ENDBRANCH  22  23
ENDBRANCH  21  22
ENDBRANCH  20  21
ENDBRANCH  19  20
ENDBRANCH  18  19
ENDBRANCH  17  18
ENDBRANCH   1  17
TORSDOF 26
ENDMDL
MODEL 2
REMARK VINA RESULT:    -2.724      1.749      4.256
REMARK INTER + INTRA:         -13.143
REMARK INTER:                  -7.888
REMARK INTRA:                  -5.255
REMARK UNBOUND:                -6.279
REMARK SMILES CCCCCCCCCCCCCCCCCCCCCCCCCCCC(=O)[O-]
REMARK SMILES IDX 15 1 16 2 17 3 18 4 19 5 20 6 21 7 22 8 23 9 24 10 25 11
REMARK SMILES IDX 26 12 27 13 28 14 29 15 30 16 14 17 13 18 12 19 11 20 10 21
REMARK SMILES IDX 9 22 8 23 7 24 6 25 5 26 4 27 3 28 2 29 1 30
REMARK H PARENT
REMARK Flexibility Score: inf
ROOT
ATOM      1  C   UNL     1      52.007  53.002  51.439  1.00  0.00     0.000 C 
ENDROOT
BRANCH   1   2
ATOM      2  C   UNL     1      52.377  53.453  50.017  1.00  0.00     0.000 C 
BRANCH   2   3
ATOM      3  C   UNL     1      52.463  52.281  49.029  1.00  0.00     0.000 C 
BRANCH   3   4
ATOM      4  C   UNL     1      52.847  52.773  47.628  1.00  0.00     0.000 C 
BRANCH   4   5
ATOM      5  C   UNL     1      54.319  52.493  47.278  1.00  0.00     0.000 C 
BRANCH   5   6
ATOM      6  C   UNL     1      55.233  53.726  47.437  1.00  0.00     0.000 C 
BRANCH   6   7
ATOM      7  C   UNL     1      55.877  53.806  48.833  1.00  0.00     0.000 C 
BRANCH   7   8
ATOM      8  C   UNL     1      56.487  52.458  49.254  1.00  0.00     0.000 C 
BRANCH   8   9
ATOM      9  C   UNL     1      55.870  51.916  50.560  1.00  0.00     0.000 C 
BRANCH   9  10
ATOM     10  C   UNL     1      55.349  50.479  50.397  1.00  0.00     0.000 C 
BRANCH  10  11
ATOM     11  C   UNL     1      54.352  50.109  51.512  1.00  0.00     0.000 C 
BRANCH  11  12
ATOM     12  C   UNL     1      53.137  49.316  50.988  1.00  0.00     0.006 C 
BRANCH  12  13
ATOM     13  C   UNL     1      53.054  47.887  51.545  1.00  0.00     0.053 C 
BRANCH  13  14
ATOM     14  C   UNL     1      53.741  46.890  50.664  1.00  0.00     0.041 C 
ATOM     15  O   UNL     1      53.071  46.025  50.040  1.00  0.00    -0.550 OA
ATOM     16  O   UNL     1      55.123  46.923  50.523  1.00  0.00    -0.550 OA
ENDBRANCH  13  14
ENDBRANCH  12  13
ENDBRANCH  11  12
ENDBRANCH  10  11
ENDBRANCH   9  10
ENDBRANCH   8   9
ENDBRANCH   7   8
ENDBRANCH   6   7
ENDBRANCH   5   6
ENDBRANCH   4   5
ENDBRANCH   3   4
ENDBRANCH   2   3
ENDBRANCH   1   2
BRANCH   1  17
ATOM     17  C   UNL     1      53.069  53.407  52.477  1.00  0.00     0.000 C 
BRANCH  17  18
ATOM     18  C   UNL     1      53.926  54.593  52.014  1.00  0.00     0.000 C 
BRANCH  18  19
ATOM     19  C   UNL     1      53.810  55.816  52.943  1.00  0.00     0.000 C 
BRANCH  19  20
ATOM     20  C   UNL     1      53.587  57.123  52.167  1.00  0.00     0.000 C 
BRANCH  20  21
ATOM     21  C   UNL     1      52.659  56.947  50.955  1.00  0.00     0.000 C 
BRANCH  21  22
ATOM     22  C   UNL     1      53.278  57.569  49.695  1.00  0.00    -0.000 C 
BRANCH  22  23
ATOM     23  C   UNL     1      53.269  56.609  48.492  1.00  0.00    -0.000 C 
BRANCH  23  24
ATOM     24  C   UNL     1      52.700  57.209  47.190  1.00  0.00    -0.000 C 
BRANCH  24  25
ATOM     25  C   UNL     1      52.137  56.181  46.189  1.00  0.00    -0.000 C 
BRANCH  25  26
ATOM     26  C   UNL     1      52.742  56.249  44.776  1.00  0.00    -0.000 C 
BRANCH  26  27
ATOM     27  C   UNL     1      54.025  57.097  44.717  1.00  0.00    -0.000 C 
BRANCH  27  28
ATOM     28  C   UNL     1      55.302  56.241  44.708  1.00  0.00    -0.000 C 
BRANCH  28  29
ATOM     29  C   UNL     1      56.535  57.014  45.201  1.00  0.00    -0.003 C 
ATOM     30  C   UNL     1      56.461  57.263  46.706  1.00  0.00     0.004 C 
ENDBRANCH  28  29
ENDBRANCH  27  28
ENDBRANCH  26  27
ENDBRANCH  25  26
ENDBRANCH  24  25
ENDBRANCH  23  24
ENDBRANCH  22  23
ENDBRANCH  21  22
ENDBRANCH  20  21
ENDBRANCH  19  20
ENDBRANCH  18  19
ENDBRANCH  17  18
ENDBRANCH   1  17
TORSDOF 26
ENDMDL
MODEL 3
REMARK VINA RESULT:    -2.720      2.741      5.626
REMARK INTER + INTRA:         -13.134
REMARK INTER:                  -8.484
REMARK INTRA:                  -4.649
REMARK UNBOUND:                -6.279
REMARK SMILES CCCCCCCCCCCCCCCCCCCCCCCCCCCC(=O)[O-]
REMARK SMILES IDX 15 1 16 2 17 3 18 4 19 5 20 6 21 7 22 8 23 9 24 10 25 11
REMARK SMILES IDX 26 12 27 13 28 14 29 15 30 16 14 17 13 18 12 19 11 20 10 21
REMARK SMILES IDX 9 22 8 23 7 24 6 25 5 26 4 27 3 28 2 29 1 30
REMARK H PARENT
REMARK Flexibility Score: inf
ROOT
ATOM      1  C   UNL     1      55.844  54.350  47.076  1.00  0.00     0.000 C 
ENDROOT
BRANCH   1   2
ATOM      2  C   UNL     1      54.759  53.736  47.976  1.00  0.00     0.000 C 
BRANCH   2   3
ATOM      3  C   UNL     1      53.948  52.644  47.263  1.00  0.00     0.000 C 
BRANCH   3   4
ATOM      4  C   UNL     1      52.672  52.311  48.046  1.00  0.00     0.000 C 
BRANCH   4   5
ATOM      5  C   UNL     1      52.397  53.301  49.191  1.00  0.00     0.000 C 
BRANCH   5   6
ATOM      6  C   UNL     1      52.052  52.613  50.528  1.00  0.00     0.000 C 
BRANCH   6   7
ATOM      7  C   UNL     1      53.215  52.669  51.536  1.00  0.00     0.000 C 
BRANCH   7   8
ATOM      8  C   UNL     1      53.981  51.337  51.593  1.00  0.00     0.000 C 
BRANCH   8   9
ATOM      9  C   UNL     1      53.086  50.129  51.248  1.00  0.00     0.000 C 
BRANCH   9  10
ATOM     10  C   UNL     1      53.616  48.825  51.864  1.00  0.00     0.000 C 
BRANCH  10  11
ATOM     11  C   UNL     1      53.500  47.645  50.879  1.00  0.00     0.000 C 
BRANCH  11  12
ATOM     12  C   UNL     1      52.241  46.788  51.119  1.00  0.00     0.006 C 
BRANCH  12  13
ATOM     13  C   UNL     1      52.244  46.064  52.475  1.00  0.00     0.053 C 
BRANCH  13  14
ATOM     14  C   UNL     1      52.310  44.576  52.327  1.00  0.00     0.041 C 
ATOM     15  O   UNL     1      52.044  43.827  53.304  1.00  0.00    -0.550 OA
ATOM     16  O   UNL     1      52.655  44.013  51.104  1.00  0.00    -0.550 OA
ENDBRANCH  13  14
ENDBRANCH  12  13
ENDBRANCH  11  12
ENDBRANCH  10  11
ENDBRANCH   9  10
ENDBRANCH   8   9
ENDBRANCH   7   8
ENDBRANCH   6   7
ENDBRANCH   5   6
ENDBRANCH   4   5
ENDBRANCH   3   4
ENDBRANCH   2   3
ENDBRANCH   1   2
BRANCH   1  17
ATOM     17  C   UNL     1      55.389  54.475  45.611  1.00  0.00     0.000 C 
BRANCH  17  18
ATOM     18  C   UNL     1      55.603  55.885  45.043  1.00  0.00     0.000 C 
BRANCH  18  19
ATOM     19  C   UNL     1      54.281  56.605  44.716  1.00  0.00     0.000 C 
BRANCH  19  20
ATOM     20  C   UNL     1      53.052  55.716  44.963  1.00  0.00     0.000 C 
BRANCH  20  21
ATOM     21  C   UNL     1      52.049  56.342  45.944  1.00  0.00     0.000 C 
BRANCH  21  22
ATOM     22  C   UNL     1      52.734  56.707  47.270  1.00  0.00    -0.000 C 
BRANCH  22  23
ATOM     23  C   UNL     1      52.535  58.185  47.654  1.00  0.00    -0.000 C 
BRANCH  23  24
ATOM     24  C   UNL     1      53.751  58.845  48.332  1.00  0.00    -0.000 C 
BRANCH  24  25
ATOM     25  C   UNL     1      55.106  58.164  48.050  1.00  0.00    -0.000 C 
BRANCH  25  26
ATOM     26  C   UNL     1      55.642  57.284  49.193  1.00  0.00    -0.000 C 
BRANCH  26  27
ATOM     27  C   UNL     1      54.897  57.511  50.521  1.00  0.00    -0.000 C 
BRANCH  27  28
ATOM     28  C   UNL     1      54.186  56.246  51.027  1.00  0.00    -0.000 C 
BRANCH  28  29
ATOM     29  C   UNL     1      52.656  56.378  51.001  1.00  0.00    -0.003 C 
ATOM     30  C   UNL     1      52.199  57.620  51.761  1.00  0.00     0.004 C 
ENDBRANCH  28  29
ENDBRANCH  27  28
ENDBRANCH  26  27
ENDBRANCH  25  26
ENDBRANCH  24  25
ENDBRANCH  23  24
ENDBRANCH  22  23
ENDBRANCH  21  22
ENDBRANCH  20  21
ENDBRANCH  19  20
ENDBRANCH  18  19
ENDBRANCH  17  18
ENDBRANCH   1  17
TORSDOF 26
ENDMDL
MODEL 4
REMARK VINA RESULT:    -2.718      1.502      2.821
REMARK INTER + INTRA:         -13.128
REMARK INTER:                  -7.088
REMARK INTRA:                  -6.040
REMARK UNBOUND:                -6.279
REMARK SMILES CCCCCCCCCCCCCCCCCCCCCCCCCCCC(=O)[O-]
REMARK SMILES IDX 15 1 16 2 17 3 18 4 19 5 20 6 21 7 22 8 23 9 24 10 25 11
REMARK SMILES IDX 26 12 27 13 28 14 29 15 30 16 14 17 13 18 12 19 11 20 10 21
REMARK SMILES IDX 9 22 8 23 7 24 6 25 5 26 4 27 3 28 2 29 1 30
REMARK H PARENT
REMARK Flexibility Score: inf
ROOT
ATOM      1  C   UNL     1      52.355  53.187  49.108  1.00  0.00     0.000 C 
ENDROOT
BRANCH   1   2
ATOM      2  C   UNL     1      52.046  52.407  50.396  1.00  0.00     0.000 C 
BRANCH   2   3
ATOM      3  C   UNL     1      52.166  53.276  51.656  1.00  0.00     0.000 C 
BRANCH   3   4
ATOM      4  C   UNL     1      52.581  54.709  51.296  1.00  0.00     0.000 C 
BRANCH   4   5
ATOM      5  C   UNL     1      53.897  55.137  51.968  1.00  0.00     0.000 C 
BRANCH   5   6
ATOM      6  C   UNL     1      54.919  55.745  50.986  1.00  0.00     0.000 C 
BRANCH   6   7
ATOM      7  C   UNL     1      55.477  54.704  49.998  1.00  0.00     0.000 C 
BRANCH   7   8
ATOM      8  C   UNL     1      56.261  53.597  50.723  1.00  0.00     0.000 C 
BRANCH   8   9
ATOM      9  C   UNL     1      55.644  52.200  50.505  1.00  0.00     0.000 C 
BRANCH   9  10
ATOM     10  C   UNL     1      56.704  51.156  50.120  1.00  0.00     0.000 C 
BRANCH  10  11
ATOM     11  C   UNL     1      56.057  49.859  49.597  1.00  0.00     0.000 C 
BRANCH  11  12
ATOM     12  C   UNL     1      54.529  49.828  49.804  1.00  0.00     0.006 C 
BRANCH  12  13
ATOM     13  C   UNL     1      54.028  48.535  50.467  1.00  0.00     0.053 C 
BRANCH  13  14
ATOM     14  C   UNL     1      53.666  48.735  51.906  1.00  0.00     0.041 C 
ATOM     15  O   UNL     1      53.152  47.796  52.568  1.00  0.00    -0.550 OA
ATOM     16  O   UNL     1      53.907  49.958  52.520  1.00  0.00    -0.550 OA
ENDBRANCH  13  14
ENDBRANCH  12  13
ENDBRANCH  11  12
ENDBRANCH  10  11
ENDBRANCH   9  10
ENDBRANCH   8   9
ENDBRANCH   7   8
ENDBRANCH   6   7
ENDBRANCH   5   6
ENDBRANCH   4   5
ENDBRANCH   3   4
ENDBRANCH   2   3
ENDBRANCH   1   2
BRANCH   1  17
ATOM     17  C   UNL     1      52.855  52.273  47.975  1.00  0.00     0.000 C 
BRANCH  17  18
ATOM     18  C   UNL     1      53.852  52.975  47.043  1.00  0.00     0.000 C 
BRANCH  18  19
ATOM     19  C   UNL     1      55.146  52.167  46.830  1.00  0.00     0.000 C 
BRANCH  19  20
ATOM     20  C   UNL     1      56.399  53.056  46.824  1.00  0.00     0.000 C 
BRANCH  20  21
ATOM     21  C   UNL     1      56.323  54.187  45.787  1.00  0.00     0.000 C 
BRANCH  21  22
ATOM     22  C   UNL     1      56.425  55.562  46.465  1.00  0.00    -0.000 C 
BRANCH  22  23
ATOM     23  C   UNL     1      55.980  56.713  45.546  1.00  0.00    -0.000 C 
BRANCH  23  24
ATOM     24  C   UNL     1      55.290  56.268  44.241  1.00  0.00    -0.000 C 
BRANCH  24  25
ATOM     25  C   UNL     1      53.748  56.284  44.279  1.00  0.00    -0.000 C 
BRANCH  25  26
ATOM     26  C   UNL     1      53.134  57.147  45.396  1.00  0.00    -0.000 C 
BRANCH  26  27
ATOM     27  C   UNL     1      52.460  56.307  46.496  1.00  0.00    -0.000 C 
BRANCH  27  28
ATOM     28  C   UNL     1      53.060  56.562  47.888  1.00  0.00    -0.000 C 
BRANCH  28  29
ATOM     29  C   UNL     1      53.129  58.056  48.237  1.00  0.00    -0.003 C 
ATOM     30  C   UNL     1      54.555  58.474  48.585  1.00  0.00     0.004 C 
ENDBRANCH  28  29
ENDBRANCH  27  28
ENDBRANCH  26  27
ENDBRANCH  25  26
ENDBRANCH  24  25
ENDBRANCH  23  24
ENDBRANCH  22  23
ENDBRANCH  21  22
ENDBRANCH  20  21
ENDBRANCH  19  20
ENDBRANCH  18  19
ENDBRANCH  17  18
ENDBRANCH   1  17
TORSDOF 26
ENDMDL
MODEL 5
REMARK VINA RESULT:    -2.700      3.132      6.215
REMARK INTER + INTRA:         -13.083
REMARK INTER:                  -6.533
REMARK INTRA:                  -6.550
REMARK UNBOUND:                -6.279
REMARK SMILES CCCCCCCCCCCCCCCCCCCCCCCCCCCC(=O)[O-]
REMARK SMILES IDX 15 1 16 2 17 3 18 4 19 5 20 6 21 7 22 8 23 9 24 10 25 11
REMARK SMILES IDX 26 12 27 13 28 14 29 15 30 16 14 17 13 18 12 19 11 20 10 21
REMARK SMILES IDX 9 22 8 23 7 24 6 25 5 26 4 27 3 28 2 29 1 30
REMARK H PARENT
REMARK Flexibility Score: inf
ROOT
ATOM      1  C   UNL     1      54.120  58.414  51.690  1.00  0.00     0.000 C 
ENDROOT
BRANCH   1   2
ATOM      2  C   UNL     1      53.843  59.072  50.329  1.00  0.00     0.000 C 
BRANCH   2   3
ATOM      3  C   UNL     1      52.614  58.479  49.624  1.00  0.00     0.000 C 
BRANCH   3   4
ATOM      4  C   UNL     1      52.673  58.735  48.113  1.00  0.00     0.000 C 
BRANCH   4   5
ATOM      5  C   UNL     1      53.916  59.537  47.690  1.00  0.00     0.000 C 
BRANCH   5   6
ATOM      6  C   UNL     1      54.487  59.111  46.322  1.00  0.00     0.000 C 
BRANCH   6   7
ATOM      7  C   UNL     1      55.678  58.144  46.456  1.00  0.00     0.000 C 
BRANCH   7   8
ATOM      8  C   UNL     1      56.323  58.229  47.850  1.00  0.00     0.000 C 
BRANCH   8   9
ATOM      9  C   UNL     1      56.308  56.875  48.588  1.00  0.00     0.000 C 
BRANCH   9  10
ATOM     10  C   UNL     1      55.528  55.803  47.811  1.00  0.00     0.000 C 
BRANCH  10  11
ATOM     11  C   UNL     1      54.230  55.408  48.540  1.00  0.00     0.000 C 
BRANCH  11  12
ATOM     12  C   UNL     1      53.049  55.177  47.576  1.00  0.00     0.006 C 
BRANCH  12  13
ATOM     13  C   UNL     1      53.460  55.175  46.095  1.00  0.00     0.053 C 
BRANCH  13  14
ATOM     14  C   UNL     1      52.621  56.099  45.269  1.00  0.00     0.041 C 
ATOM     15  O   UNL     1      53.094  56.629  44.229  1.00  0.00    -0.550 OA
ATOM     16  O   UNL     1      51.309  56.367  45.641  1.00  0.00    -0.550 OA
ENDBRANCH  13  14
ENDBRANCH  12  13
ENDBRANCH  11  12
ENDBRANCH  10  11
ENDBRANCH   9  10
ENDBRANCH   8   9
ENDBRANCH   7   8
ENDBRANCH   6   7
ENDBRANCH   5   6
ENDBRANCH   4   5
ENDBRANCH   3   4
ENDBRANCH   2   3
ENDBRANCH   1   2
BRANCH   1  17
ATOM     17  C   UNL     1      53.319  57.114  51.885  1.00  0.00     0.000 C 
BRANCH  17  18
ATOM     18  C   UNL     1      54.169  55.977  52.470  1.00  0.00     0.000 C 
BRANCH  18  19
ATOM     19  C   UNL     1      53.540  54.588  52.257  1.00  0.00     0.000 C 
BRANCH  19  20
ATOM     20  C   UNL     1      52.264  54.648  51.403  1.00  0.00     0.000 C 
BRANCH  20  21
ATOM     21  C   UNL     1      51.965  53.324  50.682  1.00  0.00     0.000 C 
BRANCH  21  22
ATOM     22  C   UNL     1      52.756  52.167  51.310  1.00  0.00    -0.000 C 
BRANCH  22  23
ATOM     23  C   UNL     1      53.355  51.216  50.258  1.00  0.00    -0.000 C 
BRANCH  23  24
ATOM     24  C   UNL     1      53.376  51.773  48.821  1.00  0.00    -0.000 C 
BRANCH  24  25
ATOM     25  C   UNL     1      54.715  51.602  48.075  1.00  0.00    -0.000 C 
BRANCH  25  26
ATOM     26  C   UNL     1      55.938  51.364  48.978  1.00  0.00    -0.000 C 
BRANCH  26  27
ATOM     27  C   UNL     1      56.763  52.642  49.214  1.00  0.00    -0.000 C 
BRANCH  27  28
ATOM     28  C   UNL     1      56.389  53.355  50.524  1.00  0.00    -0.000 C 
BRANCH  28  29
ATOM     29  C   UNL     1      57.121  52.774  51.743  1.00  0.00    -0.003 C 
ATOM     30  C   UNL     1      56.162  51.997  52.641  1.00  0.00     0.004 C 
ENDBRANCH  28  29
ENDBRANCH  27  28
ENDBRANCH  26  27
ENDBRANCH  25  26
ENDBRANCH  24  25
ENDBRANCH  23  24
ENDBRANCH  22  23
ENDBRANCH  21  22
ENDBRANCH  20  21
ENDBRANCH  19  20
ENDBRANCH  18  19
ENDBRANCH  17  18
ENDBRANCH   1  17
TORSDOF 26
ENDMDL
MODEL 6
REMARK VINA RESULT:    -2.693      2.415      4.450
REMARK INTER + INTRA:         -13.066
REMARK INTER:                  -8.018
REMARK INTRA:                  -5.048
REMARK UNBOUND:                -6.279
REMARK SMILES CCCCCCCCCCCCCCCCCCCCCCCCCCCC(=O)[O-]
REMARK SMILES IDX 15 1 16 2 17 3 18 4 19 5 20 6 21 7 22 8 23 9 24 10 25 11
REMARK SMILES IDX 26 12 27 13 28 14 29 15 30 16 14 17 13 18 12 19 11 20 10 21
REMARK SMILES IDX 9 22 8 23 7 24 6 25 5 26 4 27 3 28 2 29 1 30
REMARK H PARENT
REMARK Flexibility Score: inf
ROOT
ATOM      1  C   UNL     1      51.995  52.664  50.531  1.00  0.00     0.000 C 
ENDROOT
BRANCH   1   2
ATOM      2  C   UNL     1      52.407  53.528  51.734  1.00  0.00     0.000 C 
BRANCH   2   3
ATOM      3  C   UNL     1      53.801  53.171  52.269  1.00  0.00     0.000 C 
BRANCH   3   4
ATOM      4  C   UNL     1      54.819  54.264  51.917  1.00  0.00     0.000 C 
BRANCH   4   5
ATOM      5  C   UNL     1      56.076  53.710  51.224  1.00  0.00     0.000 C 
BRANCH   5   6
ATOM      6  C   UNL     1      55.839  52.366  50.505  1.00  0.00     0.000 C 
BRANCH   6   7
ATOM      7  C   UNL     1      56.619  51.207  51.151  1.00  0.00     0.000 C 
BRANCH   7   8
ATOM      8  C   UNL     1      55.735  49.962  51.337  1.00  0.00     0.000 C 
BRANCH   8   9
ATOM      9  C   UNL     1      54.528  49.950  50.376  1.00  0.00     0.000 C 
BRANCH   9  10
ATOM     10  C   UNL     1      53.239  49.495  51.077  1.00  0.00     0.000 C 
BRANCH  10  11
ATOM     11  C   UNL     1      53.532  48.883  52.461  1.00  0.00     0.000 C 
BRANCH  11  12
ATOM     12  C   UNL     1      53.742  47.356  52.406  1.00  0.00     0.006 C 
BRANCH  12  13
ATOM     13  C   UNL     1      52.787  46.642  51.436  1.00  0.00     0.053 C 
BRANCH  13  14
ATOM     14  C   UNL     1      52.001  45.558  52.106  1.00  0.00     0.041 C 
ATOM     15  O   UNL     1      51.533  45.732  53.262  1.00  0.00    -0.550 OA
ATOM     16  O   UNL     1      51.775  44.355  51.447  1.00  0.00    -0.550 OA
ENDBRANCH  13  14
ENDBRANCH  12  13
ENDBRANCH  11  12
ENDBRANCH  10  11
ENDBRANCH   9  10
ENDBRANCH   8   9
ENDBRANCH   7   8
ENDBRANCH   6   7
ENDBRANCH   5   6
ENDBRANCH   4   5
ENDBRANCH   3   4
ENDBRANCH   2   3
ENDBRANCH   1   2
BRANCH   1  17
ATOM     17  C   UNL     1      52.403  53.298  49.188  1.00  0.00     0.000 C 
BRANCH  17  18
ATOM     18  C   UNL     1      52.716  52.250  48.111  1.00  0.00     0.000 C 
BRANCH  18  19
ATOM     19  C   UNL     1      54.047  52.518  47.384  1.00  0.00     0.000 C 
BRANCH  19  20
ATOM     20  C   UNL     1      54.450  54.001  47.427  1.00  0.00     0.000 C 
BRANCH  20  21
ATOM     21  C   UNL     1      54.222  54.721  46.089  1.00  0.00     0.000 C 
BRANCH  21  22
ATOM     22  C   UNL     1      52.908  55.516  46.112  1.00  0.00    -0.000 C 
BRANCH  22  23
ATOM     23  C   UNL     1      52.987  56.818  45.294  1.00  0.00    -0.000 C 
BRANCH  23  24
ATOM     24  C   UNL     1      53.911  57.899  45.887  1.00  0.00    -0.000 C 
BRANCH  24  25
ATOM     25  C   UNL     1      53.665  58.223  47.375  1.00  0.00    -0.000 C 
BRANCH  25  26
ATOM     26  C   UNL     1      54.890  58.048  48.290  1.00  0.00    -0.000 C 
BRANCH  26  27
ATOM     27  C   UNL     1      54.623  57.093  49.467  1.00  0.00    -0.000 C 
BRANCH  27  28
ATOM     28  C   UNL     1      53.130  56.773  49.644  1.00  0.00    -0.000 C 
BRANCH  28  29
ATOM     29  C   UNL     1      52.609  57.139  51.042  1.00  0.00    -0.003 C 
ATOM     30  C   UNL     1      52.427  58.648  51.183  1.00  0.00     0.004 C 
ENDBRANCH  28  29
ENDBRANCH  27  28
ENDBRANCH  26  27
ENDBRANCH  25  26
ENDBRANCH  24  25
ENDBRANCH  23  24
ENDBRANCH  22  23
ENDBRANCH  21  22
ENDBRANCH  20  21
ENDBRANCH  19  20
ENDBRANCH  18  19
ENDBRANCH  17  18
ENDBRANCH   1  17
TORSDOF 26
ENDMDL
MODEL 7
REMARK VINA RESULT:    -2.661      1.724      3.766
REMARK INTER + INTRA:         -12.984
REMARK INTER:                  -7.600
REMARK INTRA:                  -5.384
REMARK UNBOUND:                -6.279
REMARK SMILES CCCCCCCCCCCCCCCCCCCCCCCCCCCC(=O)[O-]
REMARK SMILES IDX 15 1 16 2 17 3 18 4 19 5 20 6 21 7 22 8 23 9 24 10 25 11
REMARK SMILES IDX 26 12 27 13 28 14 29 15 30 16 14 17 13 18 12 19 11 20 10 21
REMARK SMILES IDX 9 22 8 23 7 24 6 25 5 26 4 27 3 28 2 29 1 30
REMARK H PARENT
REMARK Flexibility Score: inf
ROOT
ATOM      1  C   UNL     1      52.285  52.690  50.435  1.00  0.00     0.000 C 
ENDROOT
BRANCH   1   2
ATOM      2  C   UNL     1      52.337  53.275  49.014  1.00  0.00     0.000 C 
BRANCH   2   3
ATOM      3  C   UNL     1      52.692  52.223  47.954  1.00  0.00     0.000 C 
BRANCH   3   4
ATOM      4  C   UNL     1      54.010  52.575  47.252  1.00  0.00     0.000 C 
BRANCH   4   5
ATOM      5  C   UNL     1      54.434  54.037  47.475  1.00  0.00     0.000 C 
BRANCH   5   6
ATOM      6  C   UNL     1      55.952  54.267  47.322  1.00  0.00     0.000 C 
BRANCH   6   7
ATOM      7  C   UNL     1      56.765  53.596  48.445  1.00  0.00     0.000 C 
BRANCH   7   8
ATOM      8  C   UNL     1      56.363  54.126  49.831  1.00  0.00     0.000 C 
BRANCH   8   9
ATOM      9  C   UNL     1      56.196  52.995  50.867  1.00  0.00     0.000 C 
BRANCH   9  10
ATOM     10  C   UNL     1      55.851  51.653  50.204  1.00  0.00     0.000 C 
BRANCH  10  11
ATOM     11  C   UNL     1      55.274  50.650  51.222  1.00  0.00     0.000 C 
BRANCH  11  12
ATOM     12  C   UNL     1      54.683  49.393  50.553  1.00  0.00     0.006 C 
BRANCH  12  13
ATOM     13  C   UNL     1      53.268  49.048  51.044  1.00  0.00     0.053 C 
BRANCH  13  14
ATOM     14  C   UNL     1      53.048  47.572  51.160  1.00  0.00     0.041 C 
ATOM     15  O   UNL     1      52.597  47.078  52.227  1.00  0.00    -0.550 OA
ATOM     16  O   UNL     1      53.333  46.739  50.084  1.00  0.00    -0.550 OA
ENDBRANCH  13  14
ENDBRANCH  12  13
ENDBRANCH  11  12
ENDBRANCH  10  11
ENDBRANCH   9  10
ENDBRANCH   8   9
ENDBRANCH   7   8
ENDBRANCH   6   7
ENDBRANCH   5   6
ENDBRANCH   4   5
ENDBRANCH   3   4
ENDBRANCH   2   3
ENDBRANCH   1   2
BRANCH   1  17
ATOM     17  C   UNL     1      52.858  53.657  51.487  1.00  0.00     0.000 C 
BRANCH  17  18
ATOM     18  C   UNL     1      52.296  55.079  51.353  1.00  0.00     0.000 C 
BRANCH  18  19
ATOM     19  C   UNL     1      53.380  56.123  51.026  1.00  0.00     0.000 C 
BRANCH  19  20
ATOM     20  C   UNL     1      53.152  56.797  49.664  1.00  0.00     0.000 C 
BRANCH  20  21
ATOM     21  C   UNL     1      54.451  57.317  49.030  1.00  0.00     0.000 C 
BRANCH  21  22
ATOM     22  C   UNL     1      54.376  58.832  48.788  1.00  0.00    -0.000 C 
BRANCH  22  23
ATOM     23  C   UNL     1      53.847  59.185  47.387  1.00  0.00    -0.000 C 
BRANCH  23  24
ATOM     24  C   UNL     1      54.922  59.662  46.391  1.00  0.00    -0.000 C 
BRANCH  24  25
ATOM     25  C   UNL     1      55.059  58.804  45.117  1.00  0.00    -0.000 C 
BRANCH  25  26
ATOM     26  C   UNL     1      55.507  57.351  45.356  1.00  0.00    -0.000 C 
BRANCH  26  27
ATOM     27  C   UNL     1      54.648  56.329  44.590  1.00  0.00    -0.000 C 
BRANCH  27  28
ATOM     28  C   UNL     1      53.261  56.879  44.219  1.00  0.00    -0.000 C 
BRANCH  28  29
ATOM     29  C   UNL     1      52.117  56.034  44.798  1.00  0.00    -0.003 C 
ATOM     30  C   UNL     1      51.834  56.412  46.250  1.00  0.00     0.004 C 
ENDBRANCH  28  29
ENDBRANCH  27  28
ENDBRANCH  26  27
ENDBRANCH  25  26
ENDBRANCH  24  25
ENDBRANCH  23  24
ENDBRANCH  22  23
ENDBRANCH  21  22
ENDBRANCH  20  21
ENDBRANCH  19  20
ENDBRANCH  18  19
ENDBRANCH  17  18
ENDBRANCH   1  17
TORSDOF 26
ENDMDL
MODEL 8
REMARK VINA RESULT:    -2.654      2.460      5.075
REMARK INTER + INTRA:         -12.966
REMARK INTER:                  -6.633
REMARK INTRA:                  -6.333
REMARK UNBOUND:                -6.279
REMARK SMILES CCCCCCCCCCCCCCCCCCCCCCCCCCCC(=O)[O-]
REMARK SMILES IDX 15 1 16 2 17 3 18 4 19 5 20 6 21 7 22 8 23 9 24 10 25 11
REMARK SMILES IDX 26 12 27 13 28 14 29 15 30 16 14 17 13 18 12 19 11 20 10 21
REMARK SMILES IDX 9 22 8 23 7 24 6 25 5 26 4 27 3 28 2 29 1 30
REMARK H PARENT
REMARK Flexibility Score: inf
ROOT
ATOM      1  C   UNL     1      55.145  53.294  48.227  1.00  0.00     0.000 C 
ENDROOT
BRANCH   1   2
ATOM      2  C   UNL     1      54.246  52.216  47.599  1.00  0.00     0.000 C 
BRANCH   2   3
ATOM      3  C   UNL     1      52.783  52.329  48.051  1.00  0.00     0.000 C 
BRANCH   3   4
ATOM      4  C   UNL     1      52.623  53.417  49.121  1.00  0.00     0.000 C 
BRANCH   4   5
ATOM      5  C   UNL     1      51.967  52.895  50.412  1.00  0.00     0.000 C 
BRANCH   5   6
ATOM      6  C   UNL     1      52.698  51.683  51.025  1.00  0.00     0.000 C 
BRANCH   6   7
ATOM      7  C   UNL     1      53.949  52.092  51.824  1.00  0.00     0.000 C 
BRANCH   7   8
ATOM      8  C   UNL     1      53.613  53.122  52.915  1.00  0.00     0.000 C 
BRANCH   8   9
ATOM      9  C   UNL     1      54.783  54.089  53.190  1.00  0.00     0.000 C 
BRANCH   9  10
ATOM     10  C   UNL     1      55.779  54.137  52.021  1.00  0.00     0.000 C 
BRANCH  10  11
ATOM     11  C   UNL     1      55.892  55.556  51.431  1.00  0.00     0.000 C 
BRANCH  11  12
ATOM     12  C   UNL     1      54.616  55.996  50.685  1.00  0.00     0.006 C 
BRANCH  12  13
ATOM     13  C   UNL     1      53.983  57.274  51.257  1.00  0.00     0.053 C 
BRANCH  13  14
ATOM     14  C   UNL     1      52.744  56.992  52.048  1.00  0.00     0.041 C 
ATOM     15  O   UNL     1      51.890  56.171  51.621  1.00  0.00    -0.550 OA
ATOM     16  O   UNL     1      52.536  57.628  53.267  1.00  0.00    -0.550 OA
ENDBRANCH  13  14
ENDBRANCH  12  13
ENDBRANCH  11  12
ENDBRANCH  10  11
ENDBRANCH   9  10
ENDBRANCH   8   9
ENDBRANCH   7   8
ENDBRANCH   6   7
ENDBRANCH   5   6
ENDBRANCH   4   5
ENDBRANCH   3   4
ENDBRANCH   2   3
ENDBRANCH   1   2
BRANCH   1  17
ATOM     17  C   UNL     1      55.988  54.038  47.176  1.00  0.00     0.000 C 
BRANCH  17  18
ATOM     18  C   UNL     1      55.323  54.061  45.793  1.00  0.00     0.000 C 
BRANCH  18  19
ATOM     19  C   UNL     1      54.587  55.384  45.504  1.00  0.00     0.000 C 
BRANCH  19  20
ATOM     20  C   UNL     1      53.096  55.317  45.872  1.00  0.00     0.000 C 
BRANCH  20  21
ATOM     21  C   UNL     1      52.637  56.511  46.723  1.00  0.00     0.000 C 
BRANCH  21  22
ATOM     22  C   UNL     1      53.836  57.205  47.386  1.00  0.00    -0.000 C 
BRANCH  22  23
ATOM     23  C   UNL     1      53.629  58.722  47.550  1.00  0.00    -0.000 C 
BRANCH  23  24
ATOM     24  C   UNL     1      54.551  59.598  46.679  1.00  0.00    -0.000 C 
BRANCH  24  25
ATOM     25  C   UNL     1      54.941  58.984  45.320  1.00  0.00    -0.000 C 
BRANCH  25  26
ATOM     26  C   UNL     1      56.450  58.755  45.118  1.00  0.00    -0.000 C 
BRANCH  26  27
ATOM     27  C   UNL     1      57.233  58.742  46.442  1.00  0.00    -0.000 C 
BRANCH  27  28
ATOM     28  C   UNL     1      57.551  57.318  46.929  1.00  0.00    -0.000 C 
BRANCH  28  29
ATOM     29  C   UNL     1      57.499  57.192  48.459  1.00  0.00    -0.003 C 
ATOM     30  C   UNL     1      57.096  58.515  49.106  1.00  0.00     0.004 C 
ENDBRANCH  28  29
ENDBRANCH  27  28
ENDBRANCH  26  27
ENDBRANCH  25  26
ENDBRANCH  24  25
ENDBRANCH  23  24
ENDBRANCH  22  23
ENDBRANCH  21  22
ENDBRANCH  20  21
ENDBRANCH  19  20
ENDBRANCH  18  19
ENDBRANCH  17  18
ENDBRANCH   1  17
TORSDOF 26
ENDMDL
MODEL 9
REMARK VINA RESULT:    -2.628      2.603      6.303
REMARK INTER + INTRA:         -12.901
REMARK INTER:                  -6.987
REMARK INTRA:                  -5.914
REMARK UNBOUND:                -6.279
REMARK SMILES CCCCCCCCCCCCCCCCCCCCCCCCCCCC(=O)[O-]
REMARK SMILES IDX 15 1 16 2 17 3 18 4 19 5 20 6 21 7 22 8 23 9 24 10 25 11
REMARK SMILES IDX 26 12 27 13 28 14 29 15 30 16 14 17 13 18 12 19 11 20 10 21
REMARK SMILES IDX 9 22 8 23 7 24 6 25 5 26 4 27 3 28 2 29 1 30
REMARK H PARENT
REMARK Flexibility Score: inf
ROOT
ATOM      1  C   UNL     1      52.391  55.658  46.314  1.00  0.00     0.000 C 
ENDROOT
BRANCH   1   2
ATOM      2  C   UNL     1      53.015  56.857  45.581  1.00  0.00     0.000 C 
BRANCH   2   3
ATOM      3  C   UNL     1      53.639  56.467  44.234  1.00  0.00     0.000 C 
BRANCH   3   4
ATOM      4  C   UNL     1      55.066  55.938  44.424  1.00  0.00     0.000 C 
BRANCH   4   5
ATOM      5  C   UNL     1      55.998  56.961  45.097  1.00  0.00     0.000 C 
BRANCH   5   6
ATOM      6  C   UNL     1      56.674  56.427  46.377  1.00  0.00     0.000 C 
BRANCH   6   7
ATOM      7  C   UNL     1      56.382  57.306  47.607  1.00  0.00     0.000 C 
BRANCH   7   8
ATOM      8  C   UNL     1      55.822  58.680  47.203  1.00  0.00     0.000 C 
BRANCH   8   9
ATOM      9  C   UNL     1      54.860  59.257  48.262  1.00  0.00     0.000 C 
BRANCH   9  10
ATOM     10  C   UNL     1      53.532  59.718  47.642  1.00  0.00     0.000 C 
BRANCH  10  11
ATOM     11  C   UNL     1      52.322  59.182  48.433  1.00  0.00     0.000 C 
BRANCH  11  12
ATOM     12  C   UNL     1      52.733  58.294  49.625  1.00  0.00     0.006 C 
BRANCH  12  13
ATOM     13  C   UNL     1      52.183  58.785  50.972  1.00  0.00     0.053 C 
BRANCH  13  14
ATOM     14  C   UNL     1      52.070  57.683  51.979  1.00  0.00     0.041 C 
ATOM     15  O   UNL     1      51.247  56.746  51.806  1.00  0.00    -0.550 OA
ATOM     16  O   UNL     1      52.884  57.683  53.105  1.00  0.00    -0.550 OA
ENDBRANCH  13  14
ENDBRANCH  12  13
ENDBRANCH  11  12
ENDBRANCH  10  11
ENDBRANCH   9  10
ENDBRANCH   8   9
ENDBRANCH   7   8
ENDBRANCH   6   7
ENDBRANCH   5   6
ENDBRANCH   4   5
ENDBRANCH   3   4
ENDBRANCH   2   3
ENDBRANCH   1   2
BRANCH   1  17
ATOM     17  C   UNL     1      53.222  55.219  47.533  1.00  0.00     0.000 C 
BRANCH  17  18
ATOM     18  C   UNL     1      52.766  53.869  48.105  1.00  0.00     0.000 C 
BRANCH  18  19
ATOM     19  C   UNL     1      53.614  52.687  47.599  1.00  0.00     0.000 C 
BRANCH  19  20
ATOM     20  C   UNL     1      54.896  53.147  46.888  1.00  0.00     0.000 C 
BRANCH  20  21
ATOM     21  C   UNL     1      56.140  53.064  47.786  1.00  0.00     0.000 C 
BRANCH  21  22
ATOM     22  C   UNL     1      55.789  52.456  49.153  1.00  0.00    -0.000 C 
BRANCH  22  23
ATOM     23  C   UNL     1      56.468  53.192  50.322  1.00  0.00    -0.000 C 
BRANCH  23  24
ATOM     24  C   UNL     1      56.358  54.729  50.270  1.00  0.00    -0.000 C 
BRANCH  24  25
ATOM     25  C   UNL     1      54.988  55.299  50.692  1.00  0.00    -0.000 C 
BRANCH  25  26
ATOM     26  C   UNL     1      54.403  54.700  51.983  1.00  0.00    -0.000 C 
BRANCH  26  27
ATOM     27  C   UNL     1      53.112  53.900  51.737  1.00  0.00    -0.000 C 
BRANCH  27  28
ATOM     28  C   UNL     1      53.327  52.381  51.835  1.00  0.00    -0.000 C 
BRANCH  28  29
ATOM     29  C   UNL     1      52.325  51.586  50.985  1.00  0.00    -0.003 C 
ATOM     30  C   UNL     1      52.737  50.121  50.875  1.00  0.00     0.004 C 
ENDBRANCH  28  29
ENDBRANCH  27  28
ENDBRANCH  26  27
ENDBRANCH  25  26
ENDBRANCH  24  25
ENDBRANCH  23  24
ENDBRANCH  22  23
ENDBRANCH  21  22
ENDBRANCH  20  21
ENDBRANCH  19  20
ENDBRANCH  18  19
ENDBRANCH  17  18
ENDBRANCH   1  17
TORSDOF 26
ENDMDL
