MODEL 1
REMARK VINA RESULT:    -3.336      0.000      0.000
REMARK INTER + INTRA:         -15.303
REMARK INTER:                  -8.797
REMARK INTRA:                  -6.506
REMARK UNBOUND:                -6.506
REMARK SMILES CCCCCCCCCCCCCCCCCCCCCCCCCCCCCC(=O)[O-]
REMARK SMILES IDX 16 1 17 2 18 3 19 4 20 5 21 6 22 7 23 8 24 9 25 10 26 11
REMARK SMILES IDX 27 12 28 13 29 14 30 15 31 16 32 17 15 18 14 19 13 20 12 21
REMARK SMILES IDX 11 22 10 23 9 24 8 25 7 26 6 27 5 28 4 29 3 30 2 31 1 32
REMARK H PARENT
REMARK Flexibility Score: inf
ROOT
ATOM      1  C   UNL     1      11.866 -10.383  16.978  1.00  0.00     0.000 C 
ENDROOT
BRANCH   1   2
ATOM      2  C   UNL     1      13.322 -10.858  16.808  1.00  0.00     0.000 C 
BRANCH   2   3
ATOM      3  C   UNL     1      14.250 -10.477  17.981  1.00  0.00     0.000 C 
BRANCH   3   4
ATOM      4  C   UNL     1      13.627  -9.443  18.930  1.00  0.00     0.000 C 
BRANCH   4   5
ATOM      5  C   UNL     1      13.887  -9.820  20.395  1.00  0.00     0.000 C 
BRANCH   5   6
ATOM      6  C   UNL     1      14.102 -11.331  20.596  1.00  0.00     0.000 C 
BRANCH   6   7
ATOM      7  C   UNL     1      13.989 -11.828  22.054  1.00  0.00     0.000 C 
BRANCH   7   8
ATOM      8  C   UNL     1      12.552 -11.988  22.590  1.00  0.00     0.000 C 
BRANCH   8   9
ATOM      9  C   UNL     1      12.030 -13.430  22.488  1.00  0.00     0.000 C 
BRANCH   9  10
ATOM     10  C   UNL     1      13.150 -14.474  22.616  1.00  0.00     0.000 C 
BRANCH  10  11
ATOM     11  C   UNL     1      13.155 -15.491  21.460  1.00  0.00     0.000 C 
BRANCH  11  12
ATOM     12  C   UNL     1      11.958 -15.309  20.512  1.00  0.00     0.000 C 
BRANCH  12  13
ATOM     13  C   UNL     1      12.066 -16.175  19.247  1.00  0.00     0.006 C 
BRANCH  13  14
ATOM     14  C   UNL     1      13.485 -16.122  18.671  1.00  0.00     0.053 C 
BRANCH  14  15
ATOM     15  C   UNL     1      13.668 -14.914  17.806  1.00  0.00     0.041 C 
ATOM     16  O   UNL     1      14.498 -14.023  18.126  1.00  0.00    -0.550 OA
ATOM     17  O   UNL     1      12.938 -14.782  16.629  1.00  0.00    -0.550 OA
ENDBRANCH  14  15
ENDBRANCH  13  14
ENDBRANCH  12  13
ENDBRANCH  11  12
ENDBRANCH  10  11
ENDBRANCH   9  10
ENDBRANCH   8   9
ENDBRANCH   7   8
ENDBRANCH   6   7
ENDBRANCH   5   6
ENDBRANCH   4   5
ENDBRANCH   3   4
ENDBRANCH   2   3
ENDBRANCH   1   2
BRANCH   1  18
ATOM     18  C   UNL     1      10.821 -11.502  17.162  1.00  0.00     0.000 C 
BRANCH  18  19
ATOM     19  C   UNL     1      11.070 -12.381  18.408  1.00  0.00     0.000 C 
BRANCH  19  20
ATOM     20  C   UNL     1      10.354 -11.849  19.663  1.00  0.00     0.000 C 
BRANCH  20  21
ATOM     21  C   UNL     1       8.923 -11.369  19.370  1.00  0.00     0.000 C 
BRANCH  21  22
ATOM     22  C   UNL     1       8.037 -11.354  20.627  1.00  0.00     0.000 C 
BRANCH  22  23
ATOM     23  C   UNL     1       8.518 -12.377  21.663  1.00  0.00     0.000 C 
BRANCH  23  24
ATOM     24  C   UNL     1       8.510 -11.765  23.072  1.00  0.00    -0.000 C 
BRANCH  24  25
ATOM     25  C   UNL     1       8.650 -10.235  23.054  1.00  0.00    -0.000 C 
BRANCH  25  26
ATOM     26  C   UNL     1       9.867  -9.750  23.860  1.00  0.00    -0.000 C 
BRANCH  26  27
ATOM     27  C   UNL     1      10.643  -8.632  23.143  1.00  0.00    -0.000 C 
BRANCH  27  28
ATOM     28  C   UNL     1      10.764  -8.873  21.628  1.00  0.00    -0.000 C 
BRANCH  28  29
ATOM     29  C   UNL     1      10.233  -7.694  20.795  1.00  0.00    -0.000 C 
BRANCH  29  30
ATOM     30  C   UNL     1      10.205  -8.002  19.290  1.00  0.00    -0.000 C 
BRANCH  30  31
ATOM     31  C   UNL     1      10.902  -6.895  18.490  1.00  0.00    -0.003 C 
ATOM     32  C   UNL     1      11.914  -6.147  19.353  1.00  0.00     0.004 C 
ENDBRANCH  30  31
ENDBRANCH  29  30
ENDBRANCH  28  29
ENDBRANCH  27  28
ENDBRANCH  26  27
ENDBRANCH  25  26
ENDBRANCH  24  25
ENDBRANCH  23  24
ENDBRANCH  22  23
ENDBRANCH  21  22
ENDBRANCH  20  21
ENDBRANCH  19  20
ENDBRANCH  18  19
ENDBRANCH   1  18
TORSDOF 28
ENDMDL
MODEL 2
REMARK VINA RESULT:    -3.328      3.159      6.642
REMARK INTER + INTRA:         -15.281
REMARK INTER:                  -9.420
REMARK INTRA:                  -5.861
REMARK UNBOUND:                -6.506
REMARK SMILES CCCCCCCCCCCCCCCCCCCCCCCCCCCCCC(=O)[O-]
REMARK SMILES IDX 16 1 17 2 18 3 19 4 20 5 21 6 22 7 23 8 24 9 25 10 26 11
REMARK SMILES IDX 27 12 28 13 29 14 30 15 31 16 32 17 15 18 14 19 13 20 12 21
REMARK SMILES IDX 11 22 10 23 9 24 8 25 7 26 6 27 5 28 4 29 3 30 2 31 1 32
REMARK H PARENT
REMARK Flexibility Score: inf
ROOT
ATOM      1  C   UNL     1      13.597 -13.931  17.048  1.00  0.00     0.000 C 
ENDROOT
BRANCH   1   2
ATOM      2  C   UNL     1      14.001 -12.483  16.713  1.00  0.00     0.000 C 
BRANCH   2   3
ATOM      3  C   UNL     1      12.806 -11.529  16.495  1.00  0.00     0.000 C 
BRANCH   3   4
ATOM      4  C   UNL     1      12.906 -10.240  17.322  1.00  0.00     0.000 C 
BRANCH   4   5
ATOM      5  C   UNL     1      14.204 -10.217  18.143  1.00  0.00     0.000 C 
BRANCH   5   6
ATOM      6  C   UNL     1      13.971 -10.498  19.639  1.00  0.00     0.000 C 
BRANCH   6   7
ATOM      7  C   UNL     1      13.551  -9.276  20.485  1.00  0.00     0.000 C 
BRANCH   7   8
ATOM      8  C   UNL     1      12.182  -9.392  21.183  1.00  0.00     0.000 C 
BRANCH   8   9
ATOM      9  C   UNL     1      11.249  -8.209  20.876  1.00  0.00     0.000 C 
BRANCH   9  10
ATOM     10  C   UNL     1      10.813  -8.167  19.403  1.00  0.00     0.000 C 
BRANCH  10  11
ATOM     11  C   UNL     1      11.410  -6.972  18.637  1.00  0.00     0.000 C 
BRANCH  11  12
ATOM     12  C   UNL     1      12.224  -6.038  19.549  1.00  0.00     0.000 C 
BRANCH  12  13
ATOM     13  C   UNL     1      12.260  -4.590  19.034  1.00  0.00     0.006 C 
BRANCH  13  14
ATOM     14  C   UNL     1      11.178  -4.364  17.973  1.00  0.00     0.053 C 
BRANCH  14  15
ATOM     15  C   UNL     1      11.694  -3.518  16.851  1.00  0.00     0.041 C 
ATOM     16  O   UNL     1      10.897  -3.014  16.016  1.00  0.00    -0.550 OA
ATOM     17  O   UNL     1      13.057  -3.265  16.739  1.00  0.00    -0.550 OA
ENDBRANCH  14  15
ENDBRANCH  13  14
ENDBRANCH  12  13
ENDBRANCH  11  12
ENDBRANCH  10  11
ENDBRANCH   9  10
ENDBRANCH   8   9
ENDBRANCH   7   8
ENDBRANCH   6   7
ENDBRANCH   5   6
ENDBRANCH   4   5
ENDBRANCH   3   4
ENDBRANCH   2   3
ENDBRANCH   1   2
BRANCH   1  18
ATOM     18  C   UNL     1      14.557 -14.687  17.988  1.00  0.00     0.000 C 
BRANCH  18  19
ATOM     19  C   UNL     1      14.615 -14.097  19.415  1.00  0.00     0.000 C 
BRANCH  19  20
ATOM     20  C   UNL     1      14.415 -15.164  20.507  1.00  0.00     0.000 C 
BRANCH  20  21
ATOM     21  C   UNL     1      14.515 -14.584  21.928  1.00  0.00     0.000 C 
BRANCH  21  22
ATOM     22  C   UNL     1      13.890 -13.184  22.040  1.00  0.00     0.000 C 
BRANCH  22  23
ATOM     23  C   UNL     1      12.885 -13.111  23.197  1.00  0.00     0.000 C 
BRANCH  23  24
ATOM     24  C   UNL     1      11.868 -14.258  23.103  1.00  0.00    -0.000 C 
BRANCH  24  25
ATOM     25  C   UNL     1      10.654 -13.904  22.229  1.00  0.00    -0.000 C 
BRANCH  25  26
ATOM     26  C   UNL     1      10.612 -14.726  20.929  1.00  0.00    -0.000 C 
BRANCH  26  27
ATOM     27  C   UNL     1      10.995 -13.895  19.692  1.00  0.00    -0.000 C 
BRANCH  27  28
ATOM     28  C   UNL     1      10.792 -12.385  19.908  1.00  0.00    -0.000 C 
BRANCH  28  29
ATOM     29  C   UNL     1       9.767 -11.779  18.934  1.00  0.00    -0.000 C 
BRANCH  29  30
ATOM     30  C   UNL     1       8.512 -11.257  19.649  1.00  0.00    -0.000 C 
BRANCH  30  31
ATOM     31  C   UNL     1       8.774 -11.064  21.148  1.00  0.00    -0.003 C 
ATOM     32  C   UNL     1       7.477 -11.150  21.948  1.00  0.00     0.004 C 
ENDBRANCH  30  31
ENDBRANCH  29  30
ENDBRANCH  28  29
ENDBRANCH  27  28
ENDBRANCH  26  27
ENDBRANCH  25  26
ENDBRANCH  24  25
ENDBRANCH  23  24
ENDBRANCH  22  23
ENDBRANCH  21  22
ENDBRANCH  20  21
ENDBRANCH  19  20
ENDBRANCH  18  19
ENDBRANCH   1  18
TORSDOF 28
ENDMDL
MODEL 3
REMARK VINA RESULT:    -3.249      2.620      6.693
REMARK INTER + INTRA:         -15.073
REMARK INTER:                  -8.768
REMARK INTRA:                  -6.304
REMARK UNBOUND:                -6.506
REMARK SMILES CCCCCCCCCCCCCCCCCCCCCCCCCCCCCC(=O)[O-]
REMARK SMILES IDX 16 1 17 2 18 3 19 4 20 5 21 6 22 7 23 8 24 9 25 10 26 11
REMARK SMILES IDX 27 12 28 13 29 14 30 15 31 16 32 17 15 18 14 19 13 20 12 21
REMARK SMILES IDX 11 22 10 23 9 24 8 25 7 26 6 27 5 28 4 29 3 30 2 31 1 32
REMARK H PARENT
REMARK Flexibility Score: inf
ROOT
ATOM      1  C   UNL     1      11.155 -11.550  16.902  1.00  0.00     0.000 C 
ENDROOT
BRANCH   1   2
ATOM      2  C   UNL     1      10.612 -11.965  18.283  1.00  0.00     0.000 C 
BRANCH   2   3
ATOM      3  C   UNL     1       9.924 -10.821  19.059  1.00  0.00     0.000 C 
BRANCH   3   4
ATOM      4  C   UNL     1       8.455 -11.117  19.391  1.00  0.00     0.000 C 
BRANCH   4   5
ATOM      5  C   UNL     1       8.330 -11.785  20.768  1.00  0.00     0.000 C 
BRANCH   5   6
ATOM      6  C   UNL     1       7.781 -10.834  21.847  1.00  0.00     0.000 C 
BRANCH   6   7
ATOM      7  C   UNL     1       8.724 -10.572  23.042  1.00  0.00     0.000 C 
BRANCH   7   8
ATOM      8  C   UNL     1       9.281  -9.139  23.144  1.00  0.00     0.000 C 
BRANCH   8   9
ATOM      9  C   UNL     1       8.962  -8.281  21.910  1.00  0.00     0.000 C 
BRANCH   9  10
ATOM     10  C   UNL     1      10.225  -7.827  21.163  1.00  0.00     0.000 C 
BRANCH  10  11
ATOM     11  C   UNL     1       9.936  -7.369  19.721  1.00  0.00     0.000 C 
BRANCH  11  12
ATOM     12  C   UNL     1      11.220  -7.176  18.897  1.00  0.00     0.000 C 
BRANCH  12  13
ATOM     13  C   UNL     1      12.005  -5.920  19.307  1.00  0.00     0.006 C 
BRANCH  13  14
ATOM     14  C   UNL     1      13.321  -6.301  19.994  1.00  0.00     0.053 C 
BRANCH  14  15
ATOM     15  C   UNL     1      14.370  -5.261  19.758  1.00  0.00     0.041 C 
ATOM     16  O   UNL     1      14.098  -4.221  19.102  1.00  0.00    -0.550 OA
ATOM     17  O   UNL     1      15.647  -5.427  20.285  1.00  0.00    -0.550 OA
ENDBRANCH  14  15
ENDBRANCH  13  14
ENDBRANCH  12  13
ENDBRANCH  11  12
ENDBRANCH  10  11
ENDBRANCH   9  10
ENDBRANCH   8   9
ENDBRANCH   7   8
ENDBRANCH   6   7
ENDBRANCH   5   6
ENDBRANCH   4   5
ENDBRANCH   3   4
ENDBRANCH   2   3
ENDBRANCH   1   2
BRANCH   1  18
ATOM     18  C   UNL     1      12.030 -10.281  16.889  1.00  0.00     0.000 C 
BRANCH  18  19
ATOM     19  C   UNL     1      13.481 -10.526  17.360  1.00  0.00     0.000 C 
BRANCH  19  20
ATOM     20  C   UNL     1      13.819  -9.775  18.660  1.00  0.00     0.000 C 
BRANCH  20  21
ATOM     21  C   UNL     1      13.579 -10.628  19.918  1.00  0.00     0.000 C 
BRANCH  21  22
ATOM     22  C   UNL     1      13.376  -9.774  21.180  1.00  0.00     0.000 C 
BRANCH  22  23
ATOM     23  C   UNL     1      12.587 -10.538  22.251  1.00  0.00     0.000 C 
BRANCH  23  24
ATOM     24  C   UNL     1      12.113 -11.895  21.710  1.00  0.00    -0.000 C 
BRANCH  24  25
ATOM     25  C   UNL     1      11.809 -12.905  22.828  1.00  0.00    -0.000 C 
BRANCH  25  26
ATOM     26  C   UNL     1      10.830 -14.002  22.373  1.00  0.00    -0.000 C 
BRANCH  26  27
ATOM     27  C   UNL     1      10.908 -14.272  20.861  1.00  0.00    -0.000 C 
BRANCH  27  28
ATOM     28  C   UNL     1      11.964 -15.333  20.503  1.00  0.00    -0.000 C 
BRANCH  28  29
ATOM     29  C   UNL     1      12.472 -15.201  19.057  1.00  0.00    -0.000 C 
BRANCH  29  30
ATOM     30  C   UNL     1      13.515 -14.084  18.899  1.00  0.00    -0.000 C 
BRANCH  30  31
ATOM     31  C   UNL     1      14.638 -14.510  17.947  1.00  0.00    -0.003 C 
ATOM     32  C   UNL     1      14.431 -13.922  16.554  1.00  0.00     0.004 C 
ENDBRANCH  30  31
ENDBRANCH  29  30
ENDBRANCH  28  29
ENDBRANCH  27  28
ENDBRANCH  26  27
ENDBRANCH  25  26
ENDBRANCH  24  25
ENDBRANCH  23  24
ENDBRANCH  22  23
ENDBRANCH  21  22
ENDBRANCH  20  21
ENDBRANCH  19  20
ENDBRANCH  18  19
ENDBRANCH   1  18
TORSDOF 28
ENDMDL
MODEL 4
REMARK VINA RESULT:    -3.219      1.421      4.196
REMARK INTER + INTRA:         -14.995
REMARK INTER:                  -9.234
REMARK INTRA:                  -5.761
REMARK UNBOUND:                -6.506
REMARK SMILES CCCCCCCCCCCCCCCCCCCCCCCCCCCCCC(=O)[O-]
REMARK SMILES IDX 16 1 17 2 18 3 19 4 20 5 21 6 22 7 23 8 24 9 25 10 26 11
REMARK SMILES IDX 27 12 28 13 29 14 30 15 31 16 32 17 15 18 14 19 13 20 12 21
REMARK SMILES IDX 11 22 10 23 9 24 8 25 7 26 6 27 5 28 4 29 3 30 2 31 1 32
REMARK H PARENT
REMARK Flexibility Score: inf
ROOT
ATOM      1  C   UNL     1       9.001 -11.376  18.860  1.00  0.00     0.000 C 
ENDROOT
BRANCH   1   2
ATOM      2  C   UNL     1       8.174 -11.135  20.137  1.00  0.00     0.000 C 
BRANCH   2   3
ATOM      3  C   UNL     1       8.433 -12.164  21.259  1.00  0.00     0.000 C 
BRANCH   3   4
ATOM      4  C   UNL     1       7.630 -11.876  22.535  1.00  0.00     0.000 C 
BRANCH   4   5
ATOM      5  C   UNL     1       8.567 -11.575  23.714  1.00  0.00     0.000 C 
BRANCH   5   6
ATOM      6  C   UNL     1       9.146 -10.149  23.669  1.00  0.00     0.000 C 
BRANCH   6   7
ATOM      7  C   UNL     1      10.688 -10.061  23.621  1.00  0.00     0.000 C 
BRANCH   7   8
ATOM      8  C   UNL     1      11.429 -11.413  23.641  1.00  0.00     0.000 C 
BRANCH   8   9
ATOM      9  C   UNL     1      11.964 -11.824  22.260  1.00  0.00     0.000 C 
BRANCH   9  10
ATOM     10  C   UNL     1      12.496 -13.266  22.239  1.00  0.00     0.000 C 
BRANCH  10  11
ATOM     11  C   UNL     1      11.372 -14.318  22.263  1.00  0.00     0.000 C 
BRANCH  11  12
ATOM     12  C   UNL     1      11.185 -15.009  20.902  1.00  0.00     0.000 C 
BRANCH  12  13
ATOM     13  C   UNL     1      12.442 -14.937  20.022  1.00  0.00     0.006 C 
BRANCH  13  14
ATOM     14  C   UNL     1      13.328 -16.169  20.238  1.00  0.00     0.053 C 
BRANCH  14  15
ATOM     15  C   UNL     1      12.953 -17.271  19.297  1.00  0.00     0.041 C 
ATOM     16  O   UNL     1      12.852 -17.046  18.063  1.00  0.00    -0.550 OA
ATOM     17  O   UNL     1      12.738 -18.557  19.782  1.00  0.00    -0.550 OA
ENDBRANCH  14  15
ENDBRANCH  13  14
ENDBRANCH  12  13
ENDBRANCH  11  12
ENDBRANCH  10  11
ENDBRANCH   9  10
ENDBRANCH   8   9
ENDBRANCH   7   8
ENDBRANCH   6   7
ENDBRANCH   5   6
ENDBRANCH   4   5
ENDBRANCH   3   4
ENDBRANCH   2   3
ENDBRANCH   1   2
BRANCH   1  18
ATOM     18  C   UNL     1      10.324 -12.142  19.062  1.00  0.00     0.000 C 
BRANCH  18  19
ATOM     19  C   UNL     1      11.233 -12.145  17.813  1.00  0.00     0.000 C 
BRANCH  19  20
ATOM     20  C   UNL     1      11.174 -10.820  17.031  1.00  0.00     0.000 C 
BRANCH  20  21
ATOM     21  C   UNL     1      12.569 -10.278  16.677  1.00  0.00     0.000 C 
BRANCH  21  22
ATOM     22  C   UNL     1      13.688 -10.958  17.481  1.00  0.00     0.000 C 
BRANCH  22  23
ATOM     23  C   UNL     1      14.318  -9.992  18.493  1.00  0.00     0.000 C 
BRANCH  23  24
ATOM     24  C   UNL     1      13.448  -9.887  19.755  1.00  0.00    -0.000 C 
BRANCH  24  25
ATOM     25  C   UNL     1      13.620  -8.543  20.481  1.00  0.00    -0.000 C 
BRANCH  25  26
ATOM     26  C   UNL     1      12.271  -7.879  20.808  1.00  0.00    -0.000 C 
BRANCH  26  27
ATOM     27  C   UNL     1      11.071  -8.726  20.349  1.00  0.00    -0.000 C 
BRANCH  27  28
ATOM     28  C   UNL     1      10.210  -8.010  19.293  1.00  0.00    -0.000 C 
BRANCH  28  29
ATOM     29  C   UNL     1      11.041  -7.111  18.361  1.00  0.00    -0.000 C 
BRANCH  29  30
ATOM     30  C   UNL     1      10.312  -5.810  17.994  1.00  0.00    -0.000 C 
BRANCH  30  31
ATOM     31  C   UNL     1      11.005  -4.595  18.623  1.00  0.00    -0.003 C 
ATOM     32  C   UNL     1      12.505  -4.836  18.775  1.00  0.00     0.004 C 
ENDBRANCH  30  31
ENDBRANCH  29  30
ENDBRANCH  28  29
ENDBRANCH  27  28
ENDBRANCH  26  27
ENDBRANCH  25  26
ENDBRANCH  24  25
ENDBRANCH  23  24
ENDBRANCH  22  23
ENDBRANCH  21  22
ENDBRANCH  20  21
ENDBRANCH  19  20
ENDBRANCH  18  19
ENDBRANCH   1  18
TORSDOF 28
ENDMDL
MODEL 5
REMARK VINA RESULT:    -3.190      3.546      7.431
REMARK INTER + INTRA:         -14.919
REMARK INTER:                  -9.108
REMARK INTRA:                  -5.811
REMARK UNBOUND:                -6.506
REMARK SMILES CCCCCCCCCCCCCCCCCCCCCCCCCCCCCC(=O)[O-]
REMARK SMILES IDX 16 1 17 2 18 3 19 4 20 5 21 6 22 7 23 8 24 9 25 10 26 11
REMARK SMILES IDX 27 12 28 13 29 14 30 15 31 16 32 17 15 18 14 19 13 20 12 21
REMARK SMILES IDX 11 22 10 23 9 24 8 25 7 26 6 27 5 28 4 29 3 30 2 31 1 32
REMARK H PARENT
REMARK Flexibility Score: inf
ROOT
ATOM      1  C   UNL     1      13.882 -11.470  18.548  1.00  0.00     0.000 C 
ENDROOT
BRANCH   1   2
ATOM      2  C   UNL     1      14.262 -11.243  20.023  1.00  0.00     0.000 C 
BRANCH   2   3
ATOM      3  C   UNL     1      13.073 -11.345  21.003  1.00  0.00     0.000 C 
BRANCH   3   4
ATOM      4  C   UNL     1      12.938 -10.117  21.914  1.00  0.00     0.000 C 
BRANCH   4   5
ATOM      5  C   UNL     1      13.506  -8.865  21.232  1.00  0.00     0.000 C 
BRANCH   5   6
ATOM      6  C   UNL     1      12.473  -7.730  21.107  1.00  0.00     0.000 C 
BRANCH   6   7
ATOM      7  C   UNL     1      12.229  -7.210  19.673  1.00  0.00     0.000 C 
BRANCH   7   8
ATOM      8  C   UNL     1      11.069  -6.207  19.520  1.00  0.00     0.000 C 
BRANCH   8   9
ATOM      9  C   UNL     1      10.318  -6.356  18.187  1.00  0.00     0.000 C 
BRANCH   9  10
ATOM     10  C   UNL     1      10.209  -5.030  17.419  1.00  0.00     0.000 C 
BRANCH  10  11
ATOM     11  C   UNL     1      11.169  -3.950  17.951  1.00  0.00     0.000 C 
BRANCH  11  12
ATOM     12  C   UNL     1      12.208  -3.519  16.902  1.00  0.00     0.000 C 
BRANCH  12  13
ATOM     13  C   UNL     1      13.455  -2.877  17.531  1.00  0.00     0.006 C 
BRANCH  13  14
ATOM     14  C   UNL     1      13.761  -3.506  18.894  1.00  0.00     0.053 C 
BRANCH  14  15
ATOM     15  C   UNL     1      14.696  -2.644  19.685  1.00  0.00     0.041 C 
ATOM     16  O   UNL     1      15.628  -3.165  20.352  1.00  0.00    -0.550 OA
ATOM     17  O   UNL     1      14.553  -1.261  19.667  1.00  0.00    -0.550 OA
ENDBRANCH  14  15
ENDBRANCH  13  14
ENDBRANCH  12  13
ENDBRANCH  11  12
ENDBRANCH  10  11
ENDBRANCH   9  10
ENDBRANCH   8   9
ENDBRANCH   7   8
ENDBRANCH   6   7
ENDBRANCH   5   6
ENDBRANCH   4   5
ENDBRANCH   3   4
ENDBRANCH   2   3
ENDBRANCH   1   2
BRANCH   1  18
ATOM     18  C   UNL     1      13.519 -10.199  17.754  1.00  0.00     0.000 C 
BRANCH  18  19
ATOM     19  C   UNL     1      12.032 -10.134  17.337  1.00  0.00     0.000 C 
BRANCH  19  20
ATOM     20  C   UNL     1      11.322 -11.495  17.455  1.00  0.00     0.000 C 
BRANCH  20  21
ATOM     21  C   UNL     1      10.077 -11.438  18.356  1.00  0.00     0.000 C 
BRANCH  21  22
ATOM     22  C   UNL     1      10.152 -10.307  19.395  1.00  0.00     0.000 C 
BRANCH  22  23
ATOM     23  C   UNL     1       8.944 -10.336  20.341  1.00  0.00     0.000 C 
BRANCH  23  24
ATOM     24  C   UNL     1       9.243  -9.549  21.625  1.00  0.00    -0.000 C 
BRANCH  24  25
ATOM     25  C   UNL     1       8.764 -10.277  22.891  1.00  0.00    -0.000 C 
BRANCH  25  26
ATOM     26  C   UNL     1       8.907 -11.805  22.774  1.00  0.00    -0.000 C 
BRANCH  26  27
ATOM     27  C   UNL     1      10.239 -12.318  23.348  1.00  0.00    -0.000 C 
BRANCH  27  28
ATOM     28  C   UNL     1      10.718 -13.612  22.665  1.00  0.00    -0.000 C 
BRANCH  28  29
ATOM     29  C   UNL     1      10.128 -13.794  21.257  1.00  0.00    -0.000 C 
BRANCH  29  30
ATOM     30  C   UNL     1      10.743 -14.986  20.510  1.00  0.00    -0.000 C 
BRANCH  30  31
ATOM     31  C   UNL     1      11.943 -14.544  19.663  1.00  0.00    -0.003 C 
ATOM     32  C   UNL     1      13.244 -15.129  20.205  1.00  0.00     0.004 C 
ENDBRANCH  30  31
ENDBRANCH  29  30
ENDBRANCH  28  29
ENDBRANCH  27  28
ENDBRANCH  26  27
ENDBRANCH  25  26
ENDBRANCH  24  25
ENDBRANCH  23  24
ENDBRANCH  22  23
ENDBRANCH  21  22
ENDBRANCH  20  21
ENDBRANCH  19  20
ENDBRANCH  18  19
ENDBRANCH   1  18
TORSDOF 28
ENDMDL
MODEL 6
REMARK VINA RESULT:    -3.177      2.859      6.229
REMARK INTER + INTRA:         -14.883
REMARK INTER:                  -8.737
REMARK INTRA:                  -6.145
REMARK UNBOUND:                -6.506
REMARK SMILES CCCCCCCCCCCCCCCCCCCCCCCCCCCCCC(=O)[O-]
REMARK SMILES IDX 16 1 17 2 18 3 19 4 20 5 21 6 22 7 23 8 24 9 25 10 26 11
REMARK SMILES IDX 27 12 28 13 29 14 30 15 31 16 32 17 15 18 14 19 13 20 12 21
REMARK SMILES IDX 11 22 10 23 9 24 8 25 7 26 6 27 5 28 4 29 3 30 2 31 1 32
REMARK H PARENT
REMARK Flexibility Score: inf
ROOT
ATOM      1  C   UNL     1      11.520 -14.376  22.313  1.00  0.00     0.000 C 
ENDROOT
BRANCH   1   2
ATOM      2  C   UNL     1      10.691 -14.503  21.020  1.00  0.00     0.000 C 
BRANCH   2   3
ATOM      3  C   UNL     1      11.530 -14.437  19.725  1.00  0.00     0.000 C 
BRANCH   3   4
ATOM      4  C   UNL     1      11.497 -13.056  19.058  1.00  0.00     0.000 C 
BRANCH   4   5
ATOM      5  C   UNL     1      12.206 -13.089  17.697  1.00  0.00     0.000 C 
BRANCH   5   6
ATOM      6  C   UNL     1      13.576 -12.387  17.718  1.00  0.00     0.000 C 
BRANCH   6   7
ATOM      7  C   UNL     1      13.548 -10.870  17.427  1.00  0.00     0.000 C 
BRANCH   7   8
ATOM      8  C   UNL     1      12.265 -10.349  16.749  1.00  0.00     0.000 C 
BRANCH   8   9
ATOM      9  C   UNL     1      11.662  -9.129  17.461  1.00  0.00     0.000 C 
BRANCH   9  10
ATOM     10  C   UNL     1      11.258  -9.432  18.913  1.00  0.00     0.000 C 
BRANCH  10  11
ATOM     11  C   UNL     1      11.761  -8.370  19.908  1.00  0.00     0.000 C 
BRANCH  11  12
ATOM     12  C   UNL     1      13.259  -8.067  19.737  1.00  0.00     0.000 C 
BRANCH  12  13
ATOM     13  C   UNL     1      13.809  -7.149  20.840  1.00  0.00     0.006 C 
BRANCH  13  14
ATOM     14  C   UNL     1      13.441  -5.687  20.564  1.00  0.00     0.053 C 
BRANCH  14  15
ATOM     15  C   UNL     1      14.635  -4.912  20.101  1.00  0.00     0.041 C 
ATOM     16  O   UNL     1      15.791  -5.397  20.215  1.00  0.00    -0.550 OA
ATOM     17  O   UNL     1      14.469  -3.659  19.519  1.00  0.00    -0.550 OA
ENDBRANCH  14  15
ENDBRANCH  13  14
ENDBRANCH  12  13
ENDBRANCH  11  12
ENDBRANCH  10  11
ENDBRANCH   9  10
ENDBRANCH   8   9
ENDBRANCH   7   8
ENDBRANCH   6   7
ENDBRANCH   5   6
ENDBRANCH   4   5
ENDBRANCH   3   4
ENDBRANCH   2   3
ENDBRANCH   1   2
BRANCH   1  18
ATOM     18  C   UNL     1      13.007 -14.761  22.187  1.00  0.00     0.000 C 
BRANCH  18  19
ATOM     19  C   UNL     1      13.976 -13.610  22.540  1.00  0.00     0.000 C 
BRANCH  19  20
ATOM     20  C   UNL     1      14.611 -12.964  21.296  1.00  0.00     0.000 C 
BRANCH  20  21
ATOM     21  C   UNL     1      14.273 -11.469  21.166  1.00  0.00     0.000 C 
BRANCH  21  22
ATOM     22  C   UNL     1      12.938 -11.105  21.836  1.00  0.00     0.000 C 
BRANCH  22  23
ATOM     23  C   UNL     1      13.140 -10.098  22.975  1.00  0.00     0.000 C 
BRANCH  23  24
ATOM     24  C   UNL     1      11.793  -9.725  23.613  1.00  0.00    -0.000 C 
BRANCH  24  25
ATOM     25  C   UNL     1      10.814 -10.909  23.662  1.00  0.00    -0.000 C 
BRANCH  25  26
ATOM     26  C   UNL     1       9.422 -10.538  23.119  1.00  0.00    -0.000 C 
BRANCH  26  27
ATOM     27  C   UNL     1       8.449 -11.728  23.128  1.00  0.00    -0.000 C 
BRANCH  27  28
ATOM     28  C   UNL     1       7.857 -12.020  21.738  1.00  0.00    -0.000 C 
BRANCH  28  29
ATOM     29  C   UNL     1       8.763 -11.534  20.593  1.00  0.00    -0.000 C 
BRANCH  29  30
ATOM     30  C   UNL     1       7.964 -10.957  19.415  1.00  0.00    -0.000 C 
BRANCH  30  31
ATOM     31  C   UNL     1       7.082  -9.788  19.868  1.00  0.00    -0.003 C 
ATOM     32  C   UNL     1       7.928  -8.577  20.252  1.00  0.00     0.004 C 
ENDBRANCH  30  31
ENDBRANCH  29  30
ENDBRANCH  28  29
ENDBRANCH  27  28
ENDBRANCH  26  27
ENDBRANCH  25  26
ENDBRANCH  24  25
ENDBRANCH  23  24
ENDBRANCH  22  23
ENDBRANCH  21  22
ENDBRANCH  20  21
ENDBRANCH  19  20
ENDBRANCH  18  19
ENDBRANCH   1  18
TORSDOF 28
ENDMDL
MODEL 7
REMARK VINA RESULT:    -3.175      3.119      7.232
REMARK INTER + INTRA:         -14.878
REMARK INTER:                  -9.262
REMARK INTRA:                  -5.616
REMARK UNBOUND:                -6.506
REMARK SMILES CCCCCCCCCCCCCCCCCCCCCCCCCCCCCC(=O)[O-]
REMARK SMILES IDX 16 1 17 2 18 3 19 4 20 5 21 6 22 7 23 8 24 9 25 10 26 11
REMARK SMILES IDX 27 12 28 13 29 14 30 15 31 16 32 17 15 18 14 19 13 20 12 21
REMARK SMILES IDX 11 22 10 23 9 24 8 25 7 26 6 27 5 28 4 29 3 30 2 31 1 32
REMARK H PARENT
REMARK Flexibility Score: inf
ROOT
ATOM      1  C   UNL     1       9.124 -11.305  19.347  1.00  0.00     0.000 C 
ENDROOT
BRANCH   1   2
ATOM      2  C   UNL     1      10.500 -11.913  19.015  1.00  0.00     0.000 C 
BRANCH   2   3
ATOM      3  C   UNL     1      10.880 -11.834  17.520  1.00  0.00     0.000 C 
BRANCH   3   4
ATOM      4  C   UNL     1      11.739 -10.608  17.182  1.00  0.00     0.000 C 
BRANCH   4   5
ATOM      5  C   UNL     1      13.230 -10.974  17.161  1.00  0.00     0.000 C 
BRANCH   5   6
ATOM      6  C   UNL     1      14.094 -10.010  17.995  1.00  0.00     0.000 C 
BRANCH   6   7
ATOM      7  C   UNL     1      13.797  -9.997  19.511  1.00  0.00     0.000 C 
BRANCH   7   8
ATOM      8  C   UNL     1      13.184  -8.691  20.054  1.00  0.00     0.000 C 
BRANCH   8   9
ATOM      9  C   UNL     1      11.734  -8.863  20.535  1.00  0.00     0.000 C 
BRANCH   9  10
ATOM     10  C   UNL     1      10.790  -7.798  19.956  1.00  0.00     0.000 C 
BRANCH  10  11
ATOM     11  C   UNL     1      11.203  -7.336  18.546  1.00  0.00     0.000 C 
BRANCH  11  12
ATOM     12  C   UNL     1      11.379  -5.811  18.455  1.00  0.00     0.000 C 
BRANCH  12  13
ATOM     13  C   UNL     1      10.216  -5.121  17.725  1.00  0.00     0.006 C 
BRANCH  13  14
ATOM     14  C   UNL     1      10.731  -3.992  16.827  1.00  0.00     0.053 C 
BRANCH  14  15
ATOM     15  C   UNL     1      11.935  -3.335  17.427  1.00  0.00     0.041 C 
ATOM     16  O   UNL     1      13.079  -3.542  16.944  1.00  0.00    -0.550 OA
ATOM     17  O   UNL     1      11.791  -2.472  18.508  1.00  0.00    -0.550 OA
ENDBRANCH  14  15
ENDBRANCH  13  14
ENDBRANCH  12  13
ENDBRANCH  11  12
ENDBRANCH  10  11
ENDBRANCH   9  10
ENDBRANCH   8   9
ENDBRANCH   7   8
ENDBRANCH   6   7
ENDBRANCH   5   6
ENDBRANCH   4   5
ENDBRANCH   3   4
ENDBRANCH   2   3
ENDBRANCH   1   2
BRANCH   1  18
ATOM     18  C   UNL     1       8.533 -11.711  20.711  1.00  0.00     0.000 C 
BRANCH  18  19
ATOM     19  C   UNL     1       8.653 -10.610  21.789  1.00  0.00     0.000 C 
BRANCH  19  20
ATOM     20  C   UNL     1       9.648 -10.978  22.905  1.00  0.00     0.000 C 
BRANCH  20  21
ATOM     21  C   UNL     1       9.801 -12.497  23.086  1.00  0.00     0.000 C 
BRANCH  21  22
ATOM     22  C   UNL     1      11.263 -12.960  22.983  1.00  0.00     0.000 C 
BRANCH  22  23
ATOM     23  C   UNL     1      12.162 -11.853  22.416  1.00  0.00     0.000 C 
BRANCH  23  24
ATOM     24  C   UNL     1      13.637 -12.278  22.460  1.00  0.00    -0.000 C 
BRANCH  24  25
ATOM     25  C   UNL     1      13.812 -13.790  22.672  1.00  0.00    -0.000 C 
BRANCH  25  26
ATOM     26  C   UNL     1      14.451 -14.481  21.454  1.00  0.00    -0.000 C 
BRANCH  26  27
ATOM     27  C   UNL     1      14.647 -13.521  20.268  1.00  0.00    -0.000 C 
BRANCH  27  28
ATOM     28  C   UNL     1      14.444 -14.211  18.908  1.00  0.00    -0.000 C 
BRANCH  28  29
ATOM     29  C   UNL     1      12.980 -14.610  18.658  1.00  0.00    -0.000 C 
BRANCH  29  30
ATOM     30  C   UNL     1      12.785 -16.133  18.609  1.00  0.00    -0.000 C 
BRANCH  30  31
ATOM     31  C   UNL     1      11.703 -16.581  19.599  1.00  0.00    -0.003 C 
ATOM     32  C   UNL     1      11.048 -15.380  20.277  1.00  0.00     0.004 C 
ENDBRANCH  30  31
ENDBRANCH  29  30
ENDBRANCH  28  29
ENDBRANCH  27  28
ENDBRANCH  26  27
ENDBRANCH  25  26
ENDBRANCH  24  25
ENDBRANCH  23  24
ENDBRANCH  22  23
ENDBRANCH  21  22
ENDBRANCH  20  21
ENDBRANCH  19  20
ENDBRANCH  18  19
ENDBRANCH   1  18
TORSDOF 28
ENDMDL
MODEL 8
REMARK VINA RESULT:    -3.158      1.516      4.271
REMARK INTER + INTRA:         -14.833
REMARK INTER:                  -8.861
REMARK INTRA:                  -5.971
REMARK UNBOUND:                -6.506
REMARK SMILES CCCCCCCCCCCCCCCCCCCCCCCCCCCCCC(=O)[O-]
REMARK SMILES IDX 16 1 17 2 18 3 19 4 20 5 21 6 22 7 23 8 24 9 25 10 26 11
REMARK SMILES IDX 27 12 28 13 29 14 30 15 31 16 32 17 15 18 14 19 13 20 12 21
REMARK SMILES IDX 11 22 10 23 9 24 8 25 7 26 6 27 5 28 4 29 3 30 2 31 1 32
REMARK H PARENT
REMARK Flexibility Score: inf
ROOT
ATOM      1  C   UNL     1      13.011 -10.212  17.390  1.00  0.00     0.000 C 
ENDROOT
BRANCH   1   2
ATOM      2  C   UNL     1      12.447 -11.137  16.295  1.00  0.00     0.000 C 
BRANCH   2   3
ATOM      3  C   UNL     1      11.270 -12.021  16.761  1.00  0.00     0.000 C 
BRANCH   3   4
ATOM      4  C   UNL     1      10.292 -11.282  17.684  1.00  0.00     0.000 C 
BRANCH   4   5
ATOM      5  C   UNL     1      10.088 -12.053  18.996  1.00  0.00     0.000 C 
BRANCH   5   6
ATOM      6  C   UNL     1      11.233 -13.039  19.294  1.00  0.00     0.000 C 
BRANCH   6   7
ATOM      7  C   UNL     1      11.560 -13.240  20.790  1.00  0.00     0.000 C 
BRANCH   7   8
ATOM      8  C   UNL     1      11.393 -14.679  21.317  1.00  0.00     0.000 C 
BRANCH   8   9
ATOM      9  C   UNL     1      11.858 -15.745  20.311  1.00  0.00     0.000 C 
BRANCH   9  10
ATOM     10  C   UNL     1      13.341 -16.110  20.483  1.00  0.00     0.000 C 
BRANCH  10  11
ATOM     11  C   UNL     1      14.122 -16.083  19.156  1.00  0.00     0.000 C 
BRANCH  11  12
ATOM     12  C   UNL     1      14.558 -14.662  18.760  1.00  0.00     0.000 C 
BRANCH  12  13
ATOM     13  C   UNL     1      14.166 -14.302  17.318  1.00  0.00     0.006 C 
BRANCH  13  14
ATOM     14  C   UNL     1      13.151 -15.307  16.763  1.00  0.00     0.053 C 
BRANCH  14  15
ATOM     15  C   UNL     1      13.643 -15.917  15.487  1.00  0.00     0.041 C 
ATOM     16  O   UNL     1      12.869 -16.608  14.774  1.00  0.00    -0.550 OA
ATOM     17  O   UNL     1      14.953 -15.702  15.072  1.00  0.00    -0.550 OA
ENDBRANCH  14  15
ENDBRANCH  13  14
ENDBRANCH  12  13
ENDBRANCH  11  12
ENDBRANCH  10  11
ENDBRANCH   9  10
ENDBRANCH   8   9
ENDBRANCH   7   8
ENDBRANCH   6   7
ENDBRANCH   5   6
ENDBRANCH   4   5
ENDBRANCH   3   4
ENDBRANCH   2   3
ENDBRANCH   1   2
BRANCH   1  18
ATOM     18  C   UNL     1      14.267 -10.734  18.116  1.00  0.00     0.000 C 
BRANCH  18  19
ATOM     19  C   UNL     1      14.170 -10.649  19.656  1.00  0.00     0.000 C 
BRANCH  19  20
ATOM     20  C   UNL     1      12.932  -9.869  20.132  1.00  0.00     0.000 C 
BRANCH  20  21
ATOM     21  C   UNL     1      13.297  -8.580  20.887  1.00  0.00     0.000 C 
BRANCH  21  22
ATOM     22  C   UNL     1      13.463  -7.374  19.950  1.00  0.00     0.000 C 
BRANCH  22  23
ATOM     23  C   UNL     1      12.149  -6.596  19.800  1.00  0.00     0.000 C 
BRANCH  23  24
ATOM     24  C   UNL     1      11.276  -7.214  18.698  1.00  0.00    -0.000 C 
BRANCH  24  25
ATOM     25  C   UNL     1       9.858  -7.551  19.186  1.00  0.00    -0.000 C 
BRANCH  25  26
ATOM     26  C   UNL     1       9.740  -7.497  20.720  1.00  0.00    -0.000 C 
BRANCH  26  27
ATOM     27  C   UNL     1       9.432  -8.871  21.337  1.00  0.00    -0.000 C 
BRANCH  27  28
ATOM     28  C   UNL     1       8.197  -9.540  20.708  1.00  0.00    -0.000 C 
BRANCH  28  29
ATOM     29  C   UNL     1       7.395 -10.376  21.719  1.00  0.00    -0.000 C 
BRANCH  29  30
ATOM     30  C   UNL     1       7.988 -11.778  21.927  1.00  0.00    -0.000 C 
BRANCH  30  31
ATOM     31  C   UNL     1       8.390 -11.993  23.390  1.00  0.00    -0.003 C 
ATOM     32  C   UNL     1       9.874 -11.706  23.601  1.00  0.00     0.004 C 
ENDBRANCH  30  31
ENDBRANCH  29  30
ENDBRANCH  28  29
ENDBRANCH  27  28
ENDBRANCH  26  27
ENDBRANCH  25  26
ENDBRANCH  24  25
ENDBRANCH  23  24
ENDBRANCH  22  23
ENDBRANCH  21  22
ENDBRANCH  20  21
ENDBRANCH  19  20
ENDBRANCH  18  19
ENDBRANCH   1  18
TORSDOF 28
ENDMDL
MODEL 9
REMARK VINA RESULT:    -3.157      1.579      2.414
REMARK INTER + INTRA:         -14.831
REMARK INTER:                  -8.172
REMARK INTRA:                  -6.659
REMARK UNBOUND:                -6.506
REMARK SMILES CCCCCCCCCCCCCCCCCCCCCCCCCCCCCC(=O)[O-]
REMARK SMILES IDX 16 1 17 2 18 3 19 4 20 5 21 6 22 7 23 8 24 9 25 10 26 11
REMARK SMILES IDX 27 12 28 13 29 14 30 15 31 16 32 17 15 18 14 19 13 20 12 21
REMARK SMILES IDX 11 22 10 23 9 24 8 25 7 26 6 27 5 28 4 29 3 30 2 31 1 32
REMARK H PARENT
REMARK Flexibility Score: inf
ROOT
ATOM      1  C   UNL     1      11.292 -11.493  16.422  1.00  0.00     0.000 C 
ENDROOT
BRANCH   1   2
ATOM      2  C   UNL     1      12.164 -10.236  16.611  1.00  0.00     0.000 C 
BRANCH   2   3
ATOM      3  C   UNL     1      11.618  -9.244  17.661  1.00  0.00     0.000 C 
BRANCH   3   4
ATOM      4  C   UNL     1      12.496  -9.154  18.917  1.00  0.00     0.000 C 
BRANCH   4   5
ATOM      5  C   UNL     1      13.843  -9.857  18.694  1.00  0.00     0.000 C 
BRANCH   5   6
ATOM      6  C   UNL     1      14.261 -10.741  19.883  1.00  0.00     0.000 C 
BRANCH   6   7
ATOM      7  C   UNL     1      13.691 -10.319  21.255  1.00  0.00     0.000 C 
BRANCH   7   8
ATOM      8  C   UNL     1      13.960 -11.299  22.414  1.00  0.00     0.000 C 
BRANCH   8   9
ATOM      9  C   UNL     1      14.691 -12.574  21.965  1.00  0.00     0.000 C 
BRANCH   9  10
ATOM     10  C   UNL     1      13.909 -13.853  22.301  1.00  0.00     0.000 C 
BRANCH  10  11
ATOM     11  C   UNL     1      14.030 -14.933  21.210  1.00  0.00     0.000 C 
BRANCH  11  12
ATOM     12  C   UNL     1      14.924 -14.488  20.040  1.00  0.00     0.000 C 
BRANCH  12  13
ATOM     13  C   UNL     1      15.222 -15.628  19.054  1.00  0.00     0.006 C 
BRANCH  13  14
ATOM     14  C   UNL     1      14.918 -15.197  17.616  1.00  0.00     0.053 C 
BRANCH  14  15
ATOM     15  C   UNL     1      13.883 -16.083  16.997  1.00  0.00     0.041 C 
ATOM     16  O   UNL     1      13.625 -15.996  15.767  1.00  0.00    -0.550 OA
ATOM     17  O   UNL     1      13.216 -17.025  17.774  1.00  0.00    -0.550 OA
ENDBRANCH  14  15
ENDBRANCH  13  14
ENDBRANCH  12  13
ENDBRANCH  11  12
ENDBRANCH  10  11
ENDBRANCH   9  10
ENDBRANCH   8   9
ENDBRANCH   7   8
ENDBRANCH   6   7
ENDBRANCH   5   6
ENDBRANCH   4   5
ENDBRANCH   3   4
ENDBRANCH   2   3
ENDBRANCH   1   2
BRANCH   1  18
ATOM     18  C   UNL     1      11.979 -12.832  16.754  1.00  0.00     0.000 C 
BRANCH  18  19
ATOM     19  C   UNL     1      12.021 -13.145  18.267  1.00  0.00     0.000 C 
BRANCH  19  20
ATOM     20  C   UNL     1      10.834 -12.535  19.034  1.00  0.00     0.000 C 
BRANCH  20  21
ATOM     21  C   UNL     1      11.026 -12.581  20.559  1.00  0.00     0.000 C 
BRANCH  21  22
ATOM     22  C   UNL     1       9.982 -13.466  21.259  1.00  0.00     0.000 C 
BRANCH  22  23
ATOM     23  C   UNL     1      10.295 -13.627  22.752  1.00  0.00     0.000 C 
BRANCH  23  24
ATOM     24  C   UNL     1      10.712 -12.282  23.366  1.00  0.00    -0.000 C 
BRANCH  24  25
ATOM     25  C   UNL     1       9.547 -11.566  24.069  1.00  0.00    -0.000 C 
BRANCH  25  26
ATOM     26  C   UNL     1       9.288 -10.165  23.489  1.00  0.00    -0.000 C 
BRANCH  26  27
ATOM     27  C   UNL     1      10.589  -9.417  23.150  1.00  0.00    -0.000 C 
BRANCH  27  28
ATOM     28  C   UNL     1      10.447  -8.513  21.913  1.00  0.00    -0.000 C 
BRANCH  28  29
ATOM     29  C   UNL     1       9.015  -8.494  21.353  1.00  0.00    -0.000 C 
BRANCH  29  30
ATOM     30  C   UNL     1       8.898  -9.230  20.009  1.00  0.00    -0.000 C 
BRANCH  30  31
ATOM     31  C   UNL     1       7.973 -10.447  20.128  1.00  0.00    -0.003 C 
ATOM     32  C   UNL     1       7.591 -10.984  18.752  1.00  0.00     0.004 C 
ENDBRANCH  30  31
ENDBRANCH  29  30
ENDBRANCH  28  29
ENDBRANCH  27  28
ENDBRANCH  26  27
ENDBRANCH  25  26
ENDBRANCH  24  25
ENDBRANCH  23  24
ENDBRANCH  22  23
ENDBRANCH  21  22
ENDBRANCH  20  21
ENDBRANCH  19  20
ENDBRANCH  18  19
ENDBRANCH   1  18
TORSDOF 28
ENDMDL
