MODEL 1
REMARK VINA RESULT:    -3.985      0.000      0.000
REMARK INTER + INTRA:          -4.819
REMARK INTER:                  -4.683
REMARK INTRA:                  -0.135
REMARK UNBOUND:                -0.135
REMARK SMILES O=C([O-])C=Cc1ccc(O)c(O)c1
REMARK SMILES IDX 6 1 13 2 7 3 11 4 8 5 9 6 5 7 4 8 2 9 1 10 3 11 12 12 10 14
REMARK H PARENT 12 13 10 15
REMARK Flexibility Score: inf
ROOT
ATOM      1  C   UNL     1      54.124  40.601 122.939  1.00  0.00    -0.022 A 
ATOM      2  C   UNL     1      54.399  41.975 123.046  1.00  0.00     0.058 A 
ATOM      3  C   UNL     1      52.781  40.179 122.884  1.00  0.00     0.012 A 
ATOM      4  C   UNL     1      53.359  42.915 123.071  1.00  0.00     0.157 A 
ATOM      5  C   UNL     1      51.744  41.116 122.910  1.00  0.00     0.051 A 
ATOM      6  C   UNL     1      52.026  42.482 123.000  1.00  0.00     0.157 A 
ENDROOT
BRANCH   1   7
ATOM      7  C   UNL     1      55.261  39.647 122.927  1.00  0.00     0.010 C 
ATOM      8  C   UNL     1      56.494  39.953 123.353  1.00  0.00     0.025 C 
BRANCH   8   9
ATOM      9  C   UNL     1      57.590  38.970 123.333  1.00  0.00     0.064 C 
ATOM     10  O   UNL     1      57.379  37.814 122.884  1.00  0.00    -0.545 OA
ATOM     11  O   UNL     1      58.856  39.299 123.803  1.00  0.00    -0.545 OA
ENDBRANCH   8   9
ENDBRANCH   1   7
BRANCH   4  12
ATOM     12  O   UNL     1      53.647  44.276 123.167  1.00  0.00    -0.504 OA
ATOM     13  H   UNL     1      53.308  44.837 123.940  1.00  0.00     0.293 HD
ENDBRANCH   4  12
BRANCH   6  14
ATOM     14  O   UNL     1      50.968  43.392 123.022  1.00  0.00    -0.504 OA
ATOM     15  H   UNL     1      50.203  43.312 123.682  1.00  0.00     0.293 HD
ENDBRANCH   6  14
TORSDOF 4
ENDMDL
MODEL 2
REMARK VINA RESULT:    -3.969      1.040      6.063
REMARK INTER + INTRA:          -4.801
REMARK INTER:                  -4.663
REMARK INTRA:                  -0.138
REMARK UNBOUND:                -0.135
REMARK SMILES O=C([O-])C=Cc1ccc(O)c(O)c1
REMARK SMILES IDX 6 1 13 2 7 3 11 4 8 5 9 6 5 7 4 8 2 9 1 10 3 11 12 12 10 14
REMARK H PARENT 12 13 10 15
REMARK Flexibility Score: inf
ROOT
ATOM      1  C   UNL     1      55.383  40.580 123.089  1.00  0.00    -0.022 A 
ATOM      2  C   UNL     1      55.718  39.227 122.908  1.00  0.00     0.058 A 
ATOM      3  C   UNL     1      56.386  41.480 123.500  1.00  0.00     0.012 A 
ATOM      4  C   UNL     1      57.033  38.780 123.107  1.00  0.00     0.157 A 
ATOM      5  C   UNL     1      57.696  41.035 123.699  1.00  0.00     0.051 A 
ATOM      6  C   UNL     1      58.026  39.691 123.503  1.00  0.00     0.157 A 
ENDROOT
BRANCH   1   7
ATOM      7  C   UNL     1      53.975  40.998 122.875  1.00  0.00     0.010 C 
ATOM      8  C   UNL     1      53.372  41.968 123.574  1.00  0.00     0.025 C 
BRANCH   8   9
ATOM      9  C   UNL     1      51.976  42.358 123.320  1.00  0.00     0.064 C 
ATOM     10  O   UNL     1      51.659  43.576 123.328  1.00  0.00    -0.545 OA
ATOM     11  O   UNL     1      50.999  41.402 123.070  1.00  0.00    -0.545 OA
ENDBRANCH   8   9
ENDBRANCH   1   7
BRANCH   4  12
ATOM     12  O   UNL     1      57.353  37.438 122.915  1.00  0.00    -0.504 OA
ATOM     13  H   UNL     1      57.539  37.063 121.992  1.00  0.00     0.293 HD
ENDBRANCH   4  12
BRANCH   6  14
ATOM     14  O   UNL     1      59.343  39.278 123.708  1.00  0.00    -0.504 OA
ATOM     15  H   UNL     1      60.092  39.938 123.879  1.00  0.00     0.293 HD
ENDBRANCH   6  14
TORSDOF 4
ENDMDL
MODEL 3
REMARK VINA RESULT:    -3.822      1.547      5.808
REMARK INTER + INTRA:          -4.628
REMARK INTER:                  -4.492
REMARK INTRA:                  -0.137
REMARK UNBOUND:                -0.135
REMARK SMILES O=C([O-])C=Cc1ccc(O)c(O)c1
REMARK SMILES IDX 6 1 13 2 7 3 11 4 8 5 9 6 5 7 4 8 2 9 1 10 3 11 12 12 10 14
REMARK H PARENT 12 13 10 15
REMARK Flexibility Score: inf
ROOT
ATOM      1  C   UNL     1      55.666  41.184 123.477  1.00  0.00    -0.022 A 
ATOM      2  C   UNL     1      57.045  40.984 123.660  1.00  0.00     0.058 A 
ATOM      3  C   UNL     1      54.869  40.097 123.069  1.00  0.00     0.012 A 
ATOM      4  C   UNL     1      57.618  39.719 123.467  1.00  0.00     0.157 A 
ATOM      5  C   UNL     1      55.440  38.836 122.876  1.00  0.00     0.051 A 
ATOM      6  C   UNL     1      56.810  38.640 123.075  1.00  0.00     0.157 A 
ENDROOT
BRANCH   1   7
ATOM      7  C   UNL     1      55.112  42.545 123.684  1.00  0.00     0.010 C 
ATOM      8  C   UNL     1      53.893  42.785 124.186  1.00  0.00     0.025 C 
BRANCH   8   9
ATOM      9  C   UNL     1      53.388  44.153 124.385  1.00  0.00     0.064 C 
ATOM     10  O   UNL     1      54.121  45.010 124.944  1.00  0.00    -0.545 OA
ATOM     11  O   UNL     1      52.114  44.515 123.966  1.00  0.00    -0.545 OA
ENDBRANCH   8   9
ENDBRANCH   1   7
BRANCH   4  12
ATOM     12  O   UNL     1      58.986  39.533 123.662  1.00  0.00    -0.504 OA
ATOM     13  H   UNL     1      59.542  40.196 124.188  1.00  0.00     0.293 HD
ENDBRANCH   4  12
BRANCH   6  14
ATOM     14  O   UNL     1      57.350  37.369 122.875  1.00  0.00    -0.504 OA
ATOM     15  H   UNL     1      58.170  37.217 122.300  1.00  0.00     0.293 HD
ENDBRANCH   6  14
TORSDOF 4
ENDMDL
MODEL 4
REMARK VINA RESULT:    -3.739      3.337      4.547
REMARK INTER + INTRA:          -4.531
REMARK INTER:                  -4.403
REMARK INTRA:                  -0.128
REMARK UNBOUND:                -0.135
REMARK SMILES O=C([O-])C=Cc1ccc(O)c(O)c1
REMARK SMILES IDX 6 1 13 2 7 3 11 4 8 5 9 6 5 7 4 8 2 9 1 10 3 11 12 12 10 14
REMARK H PARENT 12 13 10 15
REMARK Flexibility Score: inf
ROOT
ATOM      1  C   UNL     1      57.421  39.947 123.618  1.00  0.00    -0.022 A 
ATOM      2  C   UNL     1      56.397  40.904 123.517  1.00  0.00     0.058 A 
ATOM      3  C   UNL     1      58.760  40.370 123.509  1.00  0.00     0.012 A 
ATOM      4  C   UNL     1      56.699  42.261 123.337  1.00  0.00     0.157 A 
ATOM      5  C   UNL     1      59.061  41.722 123.329  1.00  0.00     0.051 A 
ATOM      6  C   UNL     1      58.038  42.671 123.245  1.00  0.00     0.157 A 
ENDROOT
BRANCH   1   7
ATOM      7  C   UNL     1      57.047  38.522 123.798  1.00  0.00     0.010 C 
ATOM      8  C   UNL     1      56.057  38.107 124.600  1.00  0.00     0.025 C 
BRANCH   8   9
ATOM      9  C   UNL     1      55.713  36.683 124.739  1.00  0.00     0.064 C 
ATOM     10  O   UNL     1      54.818  36.185 124.008  1.00  0.00    -0.545 OA
ATOM     11  O   UNL     1      56.362  35.876 125.666  1.00  0.00    -0.545 OA
ENDBRANCH   8   9
ENDBRANCH   1   7
BRANCH   4  12
ATOM     12  O   UNL     1      55.673  43.201 123.248  1.00  0.00    -0.504 OA
ATOM     13  H   UNL     1      55.205  43.395 122.370  1.00  0.00     0.293 HD
ENDBRANCH   4  12
BRANCH   6  14
ATOM     14  O   UNL     1      58.372  44.014 123.066  1.00  0.00    -0.504 OA
ATOM     15  H   UNL     1      57.917  44.755 123.586  1.00  0.00     0.293 HD
ENDBRANCH   6  14
TORSDOF 4
ENDMDL
MODEL 5
REMARK VINA RESULT:    -3.725      2.050      6.001
REMARK INTER + INTRA:          -4.514
REMARK INTER:                  -4.388
REMARK INTRA:                  -0.126
REMARK UNBOUND:                -0.135
REMARK SMILES O=C([O-])C=Cc1ccc(O)c(O)c1
REMARK SMILES IDX 6 1 13 2 7 3 11 4 8 5 9 6 5 7 4 8 2 9 1 10 3 11 12 12 10 14
REMARK H PARENT 12 13 10 15
REMARK Flexibility Score: inf
ROOT
ATOM      1  C   UNL     1      54.199  38.969 124.008  1.00  0.00    -0.022 A 
ATOM      2  C   UNL     1      55.352  38.650 123.271  1.00  0.00     0.058 A 
ATOM      3  C   UNL     1      53.905  38.225 125.166  1.00  0.00     0.012 A 
ATOM      4  C   UNL     1      56.212  37.625 123.691  1.00  0.00     0.157 A 
ATOM      5  C   UNL     1      54.762  37.203 125.586  1.00  0.00     0.051 A 
ATOM      6  C   UNL     1      55.915  36.901 124.856  1.00  0.00     0.157 A 
ENDROOT
BRANCH   1   7
ATOM      7  C   UNL     1      53.318  40.056 123.513  1.00  0.00     0.010 C 
ATOM      8  C   UNL     1      53.583  41.360 123.668  1.00  0.00     0.025 C 
BRANCH   8   9
ATOM      9  C   UNL     1      52.685  42.404 123.150  1.00  0.00     0.064 C 
ATOM     10  O   UNL     1      53.146  43.544 122.882  1.00  0.00    -0.545 OA
ATOM     11  O   UNL     1      51.332  42.152 122.951  1.00  0.00    -0.545 OA
ENDBRANCH   8   9
ENDBRANCH   1   7
BRANCH   4  12
ATOM     12  O   UNL     1      57.358  37.326 122.956  1.00  0.00    -0.504 OA
ATOM     13  H   UNL     1      58.089  38.012 122.809  1.00  0.00     0.293 HD
ENDBRANCH   4  12
BRANCH   6  14
ATOM     14  O   UNL     1      56.750  35.876 125.302  1.00  0.00    -0.504 OA
ATOM     15  H   UNL     1      57.595  35.617 124.808  1.00  0.00     0.293 HD
ENDBRANCH   6  14
TORSDOF 4
ENDMDL
MODEL 6
REMARK VINA RESULT:    -3.725      1.520      6.144
REMARK INTER + INTRA:          -4.514
REMARK INTER:                  -4.372
REMARK INTRA:                  -0.142
REMARK UNBOUND:                -0.135
REMARK SMILES O=C([O-])C=Cc1ccc(O)c(O)c1
REMARK SMILES IDX 6 1 13 2 7 3 11 4 8 5 9 6 5 7 4 8 2 9 1 10 3 11 12 12 10 14
REMARK H PARENT 12 13 10 15
REMARK Flexibility Score: inf
ROOT
ATOM      1  C   UNL     1      53.934  39.741 123.453  1.00  0.00    -0.022 A 
ATOM      2  C   UNL     1      53.852  38.371 123.753  1.00  0.00     0.058 A 
ATOM      3  C   UNL     1      55.173  40.274 123.045  1.00  0.00     0.012 A 
ATOM      4  C   UNL     1      54.974  37.539 123.626  1.00  0.00     0.157 A 
ATOM      5  C   UNL     1      56.291  39.446 122.919  1.00  0.00     0.051 A 
ATOM      6  C   UNL     1      56.199  38.081 123.205  1.00  0.00     0.157 A 
ENDROOT
BRANCH   1   7
ATOM      7  C   UNL     1      52.719  40.578 123.615  1.00  0.00     0.010 C 
ATOM      8  C   UNL     1      52.669  41.883 123.317  1.00  0.00     0.025 C 
BRANCH   8   9
ATOM      9  C   UNL     1      51.438  42.672 123.482  1.00  0.00     0.064 C 
ATOM     10  O   UNL     1      51.505  43.929 123.520  1.00  0.00    -0.545 OA
ATOM     11  O   UNL     1      50.199  42.053 123.597  1.00  0.00    -0.545 OA
ENDBRANCH   8   9
ENDBRANCH   1   7
BRANCH   4  12
ATOM     12  O   UNL     1      54.876  36.180 123.918  1.00  0.00    -0.504 OA
ATOM     13  H   UNL     1      55.682  35.567 123.871  1.00  0.00     0.293 HD
ENDBRANCH   4  12
BRANCH   6  14
ATOM     14  O   UNL     1      57.333  37.281 123.067  1.00  0.00    -0.504 OA
ATOM     15  H   UNL     1      57.382  36.346 123.453  1.00  0.00     0.293 HD
ENDBRANCH   6  14
TORSDOF 4
ENDMDL
MODEL 7
REMARK VINA RESULT:    -3.656      3.266      5.384
REMARK INTER + INTRA:          -4.432
REMARK INTER:                  -4.289
REMARK INTRA:                  -0.143
REMARK UNBOUND:                -0.135
REMARK SMILES O=C([O-])C=Cc1ccc(O)c(O)c1
REMARK SMILES IDX 6 1 13 2 7 3 11 4 8 5 9 6 5 7 4 8 2 9 1 10 3 11 12 12 10 14
REMARK H PARENT 12 13 10 15
REMARK Flexibility Score: inf
ROOT
ATOM      1  C   UNL     1      57.658  41.018 123.647  1.00  0.00    -0.022 A 
ATOM      2  C   UNL     1      58.004  39.672 123.440  1.00  0.00     0.058 A 
ATOM      3  C   UNL     1      56.302  41.391 123.568  1.00  0.00     0.012 A 
ATOM      4  C   UNL     1      57.018  38.708 123.186  1.00  0.00     0.157 A 
ATOM      5  C   UNL     1      55.318  40.431 123.315  1.00  0.00     0.051 A 
ATOM      6  C   UNL     1      55.669  39.091 123.125  1.00  0.00     0.157 A 
ENDROOT
BRANCH   1   7
ATOM      7  C   UNL     1      58.741  42.000 123.902  1.00  0.00     0.010 C 
ATOM      8  C   UNL     1      58.556  43.326 123.922  1.00  0.00     0.025 C 
BRANCH   8   9
ATOM      9  C   UNL     1      59.659  44.263 124.190  1.00  0.00     0.064 C 
ATOM     10  O   UNL     1      60.594  43.917 124.958  1.00  0.00    -0.545 OA
ATOM     11  O   UNL     1      59.685  45.525 123.610  1.00  0.00    -0.545 OA
ENDBRANCH   8   9
ENDBRANCH   1   7
BRANCH   4  12
ATOM     12  O   UNL     1      57.375  37.375 122.993  1.00  0.00    -0.504 OA
ATOM     13  H   UNL     1      57.222  36.675 123.710  1.00  0.00     0.293 HD
ENDBRANCH   4  12
BRANCH   6  14
ATOM     14  O   UNL     1      54.663  38.156 122.875  1.00  0.00    -0.504 OA
ATOM     15  H   UNL     1      54.862  37.244 122.483  1.00  0.00     0.293 HD
ENDBRANCH   6  14
TORSDOF 4
ENDMDL
MODEL 8
REMARK VINA RESULT:    -3.600     14.500     15.930
REMARK INTER + INTRA:          -4.366
REMARK INTER:                  -4.236
REMARK INTRA:                  -0.131
REMARK UNBOUND:                -0.135
REMARK SMILES O=C([O-])C=Cc1ccc(O)c(O)c1
REMARK SMILES IDX 6 1 13 2 7 3 11 4 8 5 9 6 5 7 4 8 2 9 1 10 3 11 12 12 10 14
REMARK H PARENT 12 13 10 15
REMARK Flexibility Score: inf
ROOT
ATOM      1  C   UNL     1      48.235  38.114 136.079  1.00  0.00    -0.022 A 
ATOM      2  C   UNL     1      48.399  38.103 137.474  1.00  0.00     0.058 A 
ATOM      3  C   UNL     1      49.140  37.385 135.282  1.00  0.00     0.012 A 
ATOM      4  C   UNL     1      49.429  37.359 138.070  1.00  0.00     0.157 A 
ATOM      5  C   UNL     1      50.166  36.645 135.875  1.00  0.00     0.051 A 
ATOM      6  C   UNL     1      50.314  36.626 137.265  1.00  0.00     0.157 A 
ENDROOT
BRANCH   1   7
ATOM      7  C   UNL     1      47.136  38.925 135.499  1.00  0.00     0.010 C 
ATOM      8  C   UNL     1      46.100  38.405 134.827  1.00  0.00     0.025 C 
BRANCH   8   9
ATOM      9  C   UNL     1      45.026  39.248 134.279  1.00  0.00     0.064 C 
ATOM     10  O   UNL     1      43.824  38.935 134.484  1.00  0.00    -0.545 OA
ATOM     11  O   UNL     1      45.316  40.387 133.537  1.00  0.00    -0.545 OA
ENDBRANCH   8   9
ENDBRANCH   1   7
BRANCH   4  12
ATOM     12  O   UNL     1      49.574  37.350 139.456  1.00  0.00    -0.504 OA
ATOM     13  H   UNL     1      49.706  38.206 139.982  1.00  0.00     0.293 HD
ENDBRANCH   4  12
BRANCH   6  14
ATOM     14  O   UNL     1      51.348  35.875 137.826  1.00  0.00    -0.504 OA
ATOM     15  H   UNL     1      52.321  36.137 137.722  1.00  0.00     0.293 HD
ENDBRANCH   6  14
TORSDOF 4
ENDMDL
MODEL 9
REMARK VINA RESULT:    -3.545     14.097     15.619
REMARK INTER + INTRA:          -4.302
REMARK INTER:                  -4.174
REMARK INTRA:                  -0.127
REMARK UNBOUND:                -0.135
REMARK SMILES O=C([O-])C=Cc1ccc(O)c(O)c1
REMARK SMILES IDX 6 1 13 2 7 3 11 4 8 5 9 6 5 7 4 8 2 9 1 10 3 11 12 12 10 14
REMARK H PARENT 12 13 10 15
REMARK Flexibility Score: inf
ROOT
ATOM      1  C   UNL     1      48.039  38.124 136.145  1.00  0.00    -0.022 A 
ATOM      2  C   UNL     1      48.796  37.363 135.238  1.00  0.00     0.058 A 
ATOM      3  C   UNL     1      48.392  38.107 137.508  1.00  0.00     0.012 A 
ATOM      4  C   UNL     1      49.901  36.618 135.674  1.00  0.00     0.157 A 
ATOM      5  C   UNL     1      49.493  37.364 137.943  1.00  0.00     0.051 A 
ATOM      6  C   UNL     1      50.251  36.621 137.033  1.00  0.00     0.157 A 
ENDROOT
BRANCH   1   7
ATOM      7  C   UNL     1      46.873  38.887 135.633  1.00  0.00     0.010 C 
ATOM      8  C   UNL     1      46.933  40.168 135.245  1.00  0.00     0.025 C 
BRANCH   8   9
ATOM      9  C   UNL     1      45.752  40.882 134.733  1.00  0.00     0.064 C 
ATOM     10  O   UNL     1      45.697  42.136 134.822  1.00  0.00    -0.545 OA
ATOM     11  O   UNL     1      44.695  40.193 134.150  1.00  0.00    -0.545 OA
ENDBRANCH   8   9
ENDBRANCH   1   7
BRANCH   4  12
ATOM     12  O   UNL     1      50.648  35.875 134.762  1.00  0.00    -0.504 OA
ATOM     13  H   UNL     1      50.641  34.862 134.770  1.00  0.00     0.293 HD
ENDBRANCH   4  12
BRANCH   6  14
ATOM     14  O   UNL     1      51.345  35.891 137.499  1.00  0.00    -0.504 OA
ATOM     15  H   UNL     1      52.167  35.731 136.929  1.00  0.00     0.293 HD
ENDBRANCH   6  14
TORSDOF 4
ENDMDL
