MODEL 1
REMARK VINA RESULT:    -3.961      0.000      0.000
REMARK INTER + INTRA:         -10.086
REMARK INTER:                  -7.666
REMARK INTRA:                  -2.419
REMARK UNBOUND:                -2.419
REMARK SMILES CCCCCCCCCCCCCCCCCC(=O)[O-]
REMARK SMILES IDX 10 1 11 2 12 3 13 4 14 5 15 6 16 7 17 8 18 9 19 10 20 11
REMARK SMILES IDX 9 12 8 13 7 14 6 15 5 16 4 17 3 18 2 19 1 20
REMARK H PARENT
REMARK Flexibility Score: inf
ROOT
ATOM      1  C   UNL     1      47.829  -0.687  74.685  1.00  0.00     0.000 C 
ENDROOT
BRANCH   1   2
ATOM      2  C   UNL     1      47.880   0.732  74.092  1.00  0.00     0.000 C 
BRANCH   2   3
ATOM      3  C   UNL     1      48.260   0.745  72.605  1.00  0.00     0.000 C 
BRANCH   3   4
ATOM      4  C   UNL     1      48.184  -0.668  72.008  1.00  0.00     0.000 C 
BRANCH   4   5
ATOM      5  C   UNL     1      49.563  -1.230  71.615  1.00  0.00     0.000 C 
BRANCH   5   6
ATOM      6  C   UNL     1      50.767  -0.467  72.198  1.00  0.00     0.000 C 
BRANCH   6   7
ATOM      7  C   UNL     1      52.035  -1.331  72.294  1.00  0.00     0.006 C 
BRANCH   7   8
ATOM      8  C   UNL     1      51.708  -2.825  72.436  1.00  0.00     0.053 C 
BRANCH   8   9
ATOM      9  C   UNL     1      52.813  -3.574  73.115  1.00  0.00     0.041 C 
ATOM     10  O   UNL     1      53.989  -3.512  72.670  1.00  0.00    -0.550 OA
ATOM     11  O   UNL     1      52.548  -4.318  74.257  1.00  0.00    -0.550 OA
ENDBRANCH   8   9
ENDBRANCH   7   8
ENDBRANCH   6   7
ENDBRANCH   5   6
ENDBRANCH   4   5
ENDBRANCH   3   4
ENDBRANCH   2   3
ENDBRANCH   1   2
BRANCH   1  12
ATOM     12  C   UNL     1      49.067  -1.099  75.508  1.00  0.00     0.000 C 
BRANCH  12  13
ATOM     13  C   UNL     1      49.425  -2.596  75.453  1.00  0.00    -0.000 C 
BRANCH  13  14
ATOM     14  C   UNL     1      48.358  -3.440  74.737  1.00  0.00    -0.000 C 
BRANCH  14  15
ATOM     15  C   UNL     1      48.962  -4.599  73.926  1.00  0.00    -0.000 C 
BRANCH  15  16
ATOM     16  C   UNL     1      48.474  -4.652  72.462  1.00  0.00    -0.000 C 
BRANCH  16  17
ATOM     17  C   UNL     1      47.083  -5.299  72.340  1.00  0.00    -0.000 C 
BRANCH  17  18
ATOM     18  C   UNL     1      46.833  -6.373  73.410  1.00  0.00    -0.000 C 
BRANCH  18  19
ATOM     19  C   UNL     1      45.369  -6.833  73.455  1.00  0.00    -0.003 C 
ATOM     20  C   UNL     1      44.501  -5.828  74.206  1.00  0.00     0.004 C 
ENDBRANCH  18  19
ENDBRANCH  17  18
ENDBRANCH  16  17
ENDBRANCH  15  16
ENDBRANCH  14  15
ENDBRANCH  13  14
ENDBRANCH  12  13
ENDBRANCH   1  12
TORSDOF 16
ENDMDL
MODEL 2
REMARK VINA RESULT:    -3.952      3.257      6.317
REMARK INTER + INTRA:         -10.069
REMARK INTER:                  -7.708
REMARK INTRA:                  -2.361
REMARK UNBOUND:                -2.419
REMARK SMILES CCCCCCCCCCCCCCCCCC(=O)[O-]
REMARK SMILES IDX 10 1 11 2 12 3 13 4 14 5 15 6 16 7 17 8 18 9 19 10 20 11
REMARK SMILES IDX 9 12 8 13 7 14 6 15 5 16 4 17 3 18 2 19 1 20
REMARK H PARENT
REMARK Flexibility Score: inf
ROOT
ATOM      1  C   UNL     1      47.658  -4.180  74.816  1.00  0.00     0.000 C 
ENDROOT
BRANCH   1   2
ATOM      2  C   UNL     1      47.829  -2.763  75.389  1.00  0.00     0.000 C 
BRANCH   2   3
ATOM      3  C   UNL     1      49.159  -2.577  76.134  1.00  0.00     0.000 C 
BRANCH   3   4
ATOM      4  C   UNL     1      49.678  -3.918  76.672  1.00  0.00     0.000 C 
BRANCH   4   5
ATOM      5  C   UNL     1      49.474  -4.076  78.191  1.00  0.00     0.000 C 
BRANCH   5   6
ATOM      6  C   UNL     1      48.309  -4.997  78.599  1.00  0.00     0.000 C 
BRANCH   6   7
ATOM      7  C   UNL     1      48.616  -6.486  78.375  1.00  0.00     0.006 C 
BRANCH   7   8
ATOM      8  C   UNL     1      47.344  -7.346  78.375  1.00  0.00     0.053 C 
BRANCH   8   9
ATOM      9  C   UNL     1      47.021  -7.861  77.006  1.00  0.00     0.041 C 
ATOM     10  O   UNL     1      47.690  -7.479  76.010  1.00  0.00    -0.550 OA
ATOM     11  O   UNL     1      45.999  -8.786  76.835  1.00  0.00    -0.550 OA
ENDBRANCH   8   9
ENDBRANCH   7   8
ENDBRANCH   6   7
ENDBRANCH   5   6
ENDBRANCH   4   5
ENDBRANCH   3   4
ENDBRANCH   2   3
ENDBRANCH   1   2
BRANCH   1  12
ATOM     12  C   UNL     1      47.509  -4.254  73.282  1.00  0.00     0.000 C 
BRANCH  12  13
ATOM     13  C   UNL     1      48.543  -5.140  72.562  1.00  0.00    -0.000 C 
BRANCH  13  14
ATOM     14  C   UNL     1      49.988  -4.654  72.760  1.00  0.00    -0.000 C 
BRANCH  14  15
ATOM     15  C   UNL     1      50.307  -3.390  71.945  1.00  0.00    -0.000 C 
BRANCH  15  16
ATOM     16  C   UNL     1      50.744  -2.188  72.811  1.00  0.00    -0.000 C 
BRANCH  16  17
ATOM     17  C   UNL     1      50.270  -0.848  72.220  1.00  0.00    -0.000 C 
BRANCH  17  18
ATOM     18  C   UNL     1      48.779  -0.859  71.850  1.00  0.00    -0.000 C 
BRANCH  18  19
ATOM     19  C   UNL     1      48.019   0.347  72.422  1.00  0.00    -0.003 C 
ATOM     20  C   UNL     1      48.333   0.541  73.903  1.00  0.00     0.004 C 
ENDBRANCH  18  19
ENDBRANCH  17  18
ENDBRANCH  16  17
ENDBRANCH  15  16
ENDBRANCH  14  15
ENDBRANCH  13  14
ENDBRANCH  12  13
ENDBRANCH   1  12
TORSDOF 16
ENDMDL
MODEL 3
REMARK VINA RESULT:    -3.932      2.941      5.805
REMARK INTER + INTRA:         -10.029
REMARK INTER:                  -7.556
REMARK INTRA:                  -2.473
REMARK UNBOUND:                -2.419
REMARK SMILES CCCCCCCCCCCCCCCCCC(=O)[O-]
REMARK SMILES IDX 10 1 11 2 12 3 13 4 14 5 15 6 16 7 17 8 18 9 19 10 20 11
REMARK SMILES IDX 9 12 8 13 7 14 6 15 5 16 4 17 3 18 2 19 1 20
REMARK H PARENT
REMARK Flexibility Score: inf
ROOT
ATOM      1  C   UNL     1      48.636  -0.028  75.522  1.00  0.00     0.000 C 
ENDROOT
BRANCH   1   2
ATOM      2  C   UNL     1      48.980  -1.523  75.642  1.00  0.00     0.000 C 
BRANCH   2   3
ATOM      3  C   UNL     1      47.736  -2.423  75.649  1.00  0.00     0.000 C 
BRANCH   3   4
ATOM      4  C   UNL     1      48.001  -3.730  74.887  1.00  0.00     0.000 C 
BRANCH   4   5
ATOM      5  C   UNL     1      47.852  -3.577  73.362  1.00  0.00     0.000 C 
BRANCH   5   6
ATOM      6  C   UNL     1      48.271  -4.811  72.540  1.00  0.00     0.000 C 
BRANCH   6   7
ATOM      7  C   UNL     1      47.076  -5.671  72.100  1.00  0.00     0.006 C 
BRANCH   7   8
ATOM      8  C   UNL     1      47.134  -7.088  72.690  1.00  0.00     0.053 C 
BRANCH   8   9
ATOM      9  C   UNL     1      46.277  -8.045  71.921  1.00  0.00     0.041 C 
ATOM     10  O   UNL     1      46.429  -8.178  70.679  1.00  0.00    -0.550 OA
ATOM     11  O   UNL     1      45.328  -8.813  72.583  1.00  0.00    -0.550 OA
ENDBRANCH   8   9
ENDBRANCH   7   8
ENDBRANCH   6   7
ENDBRANCH   5   6
ENDBRANCH   4   5
ENDBRANCH   3   4
ENDBRANCH   2   3
ENDBRANCH   1   2
BRANCH   1  12
ATOM     12  C   UNL     1      47.215   0.279  75.004  1.00  0.00     0.000 C 
BRANCH  12  13
ATOM     13  C   UNL     1      47.152   1.032  73.662  1.00  0.00    -0.000 C 
BRANCH  13  14
ATOM     14  C   UNL     1      48.407   0.821  72.799  1.00  0.00    -0.000 C 
BRANCH  14  15
ATOM     15  C   UNL     1      48.244  -0.322  71.783  1.00  0.00    -0.000 C 
BRANCH  15  16
ATOM     16  C   UNL     1      49.516  -1.179  71.605  1.00  0.00    -0.000 C 
BRANCH  16  17
ATOM     17  C   UNL     1      50.718  -0.594  72.367  1.00  0.00    -0.000 C 
BRANCH  17  18
ATOM     18  C   UNL     1      51.948  -1.515  72.330  1.00  0.00    -0.000 C 
BRANCH  18  19
ATOM     19  C   UNL     1      51.590  -2.988  72.575  1.00  0.00    -0.003 C 
ATOM     20  C   UNL     1      51.692  -3.339  74.057  1.00  0.00     0.004 C 
ENDBRANCH  18  19
ENDBRANCH  17  18
ENDBRANCH  16  17
ENDBRANCH  15  16
ENDBRANCH  14  15
ENDBRANCH  13  14
ENDBRANCH  12  13
ENDBRANCH   1  12
TORSDOF 16
ENDMDL
MODEL 4
REMARK VINA RESULT:    -3.931     11.718     14.536
REMARK INTER + INTRA:         -10.028
REMARK INTER:                  -8.950
REMARK INTRA:                  -1.078
REMARK UNBOUND:                -2.419
REMARK SMILES CCCCCCCCCCCCCCCCCC(=O)[O-]
REMARK SMILES IDX 10 1 11 2 12 3 13 4 14 5 15 6 16 7 17 8 18 9 19 10 20 11
REMARK SMILES IDX 9 12 8 13 7 14 6 15 5 16 4 17 3 18 2 19 1 20
REMARK H PARENT
REMARK Flexibility Score: inf
ROOT
ATOM      1  C   UNL     1      59.477  -4.280  82.387  1.00  0.00     0.000 C 
ENDROOT
BRANCH   1   2
ATOM      2  C   UNL     1      58.874  -5.633  82.802  1.00  0.00     0.000 C 
BRANCH   2   3
ATOM      3  C   UNL     1      59.822  -6.467  83.675  1.00  0.00     0.000 C 
BRANCH   3   4
ATOM      4  C   UNL     1      60.880  -7.174  82.815  1.00  0.00     0.000 C 
BRANCH   4   5
ATOM      5  C   UNL     1      60.268  -7.983  81.655  1.00  0.00     0.000 C 
BRANCH   5   6
ATOM      6  C   UNL     1      61.251  -8.347  80.526  1.00  0.00     0.000 C 
BRANCH   6   7
ATOM      7  C   UNL     1      61.269  -9.851  80.210  1.00  0.00     0.006 C 
BRANCH   7   8
ATOM      8  C   UNL     1      61.318 -10.710  81.482  1.00  0.00     0.053 C 
BRANCH   8   9
ATOM      9  C   UNL     1      60.210 -11.717  81.516  1.00  0.00     0.041 C 
ATOM     10  O   UNL     1      60.306 -12.789  80.864  1.00  0.00    -0.550 OA
ATOM     11  O   UNL     1      59.083 -11.482  82.293  1.00  0.00    -0.550 OA
ENDBRANCH   8   9
ENDBRANCH   7   8
ENDBRANCH   6   7
ENDBRANCH   5   6
ENDBRANCH   4   5
ENDBRANCH   3   4
ENDBRANCH   2   3
ENDBRANCH   1   2
BRANCH   1  12
ATOM     12  C   UNL     1      58.509  -3.328  81.654  1.00  0.00     0.000 C 
BRANCH  12  13
ATOM     13  C   UNL     1      57.020  -3.508  82.000  1.00  0.00    -0.000 C 
BRANCH  13  14
ATOM     14  C   UNL     1      56.462  -2.360  82.858  1.00  0.00    -0.000 C 
BRANCH  14  15
ATOM     15  C   UNL     1      57.526  -1.303  83.200  1.00  0.00    -0.000 C 
BRANCH  15  16
ATOM     16  C   UNL     1      57.000  -0.162  84.097  1.00  0.00    -0.000 C 
BRANCH  16  17
ATOM     17  C   UNL     1      55.586  -0.451  84.630  1.00  0.00    -0.000 C 
BRANCH  17  18
ATOM     18  C   UNL     1      54.589   0.672  84.304  1.00  0.00    -0.000 C 
BRANCH  18  19
ATOM     19  C   UNL     1      53.650   0.311  83.144  1.00  0.00    -0.003 C 
ATOM     20  C   UNL     1      52.988   1.558  82.565  1.00  0.00     0.004 C 
ENDBRANCH  18  19
ENDBRANCH  17  18
ENDBRANCH  16  17
ENDBRANCH  15  16
ENDBRANCH  14  15
ENDBRANCH  13  14
ENDBRANCH  12  13
ENDBRANCH   1  12
TORSDOF 16
ENDMDL
MODEL 5
REMARK VINA RESULT:    -3.931      3.230      5.331
REMARK INTER + INTRA:         -10.027
REMARK INTER:                  -7.735
REMARK INTRA:                  -2.291
REMARK UNBOUND:                -2.419
REMARK SMILES CCCCCCCCCCCCCCCCCC(=O)[O-]
REMARK SMILES IDX 10 1 11 2 12 3 13 4 14 5 15 6 16 7 17 8 18 9 19 10 20 11
REMARK SMILES IDX 9 12 8 13 7 14 6 15 5 16 4 17 3 18 2 19 1 20
REMARK H PARENT
REMARK Flexibility Score: inf
ROOT
ATOM      1  C   UNL     1      51.935  -3.492  72.682  1.00  0.00     0.000 C 
ENDROOT
BRANCH   1   2
ATOM      2  C   UNL     1      52.283  -2.058  73.116  1.00  0.00     0.000 C 
BRANCH   2   3
ATOM      3  C   UNL     1      52.029  -1.021  72.012  1.00  0.00     0.000 C 
BRANCH   3   4
ATOM      4  C   UNL     1      50.803  -0.157  72.343  1.00  0.00     0.000 C 
BRANCH   4   5
ATOM      5  C   UNL     1      49.529  -0.616  71.610  1.00  0.00     0.000 C 
BRANCH   5   6
ATOM      6  C   UNL     1      48.219   0.007  72.129  1.00  0.00     0.000 C 
BRANCH   6   7
ATOM      7  C   UNL     1      48.455   1.173  73.102  1.00  0.00     0.006 C 
BRANCH   7   8
ATOM      8  C   UNL     1      47.464   2.324  72.877  1.00  0.00     0.053 C 
BRANCH   8   9
ATOM      9  C   UNL     1      46.409   2.365  73.939  1.00  0.00     0.041 C 
ATOM     10  O   UNL     1      46.123   1.326  74.590  1.00  0.00    -0.550 OA
ATOM     11  O   UNL     1      45.762   3.558  74.230  1.00  0.00    -0.550 OA
ENDBRANCH   8   9
ENDBRANCH   7   8
ENDBRANCH   6   7
ENDBRANCH   5   6
ENDBRANCH   4   5
ENDBRANCH   3   4
ENDBRANCH   2   3
ENDBRANCH   1   2
BRANCH   1  12
ATOM     12  C   UNL     1      50.549  -3.997  73.134  1.00  0.00     0.000 C 
BRANCH  12  13
ATOM     13  C   UNL     1      49.547  -4.275  71.998  1.00  0.00    -0.000 C 
BRANCH  13  14
ATOM     14  C   UNL     1      48.102  -3.906  72.372  1.00  0.00    -0.000 C 
BRANCH  14  15
ATOM     15  C   UNL     1      47.212  -5.141  72.594  1.00  0.00    -0.000 C 
BRANCH  15  16
ATOM     16  C   UNL     1      46.440  -5.116  73.931  1.00  0.00    -0.000 C 
BRANCH  16  17
ATOM     17  C   UNL     1      47.363  -4.824  75.126  1.00  0.00    -0.000 C 
BRANCH  17  18
ATOM     18  C   UNL     1      47.060  -3.472  75.793  1.00  0.00    -0.000 C 
BRANCH  18  19
ATOM     19  C   UNL     1      48.321  -2.784  76.333  1.00  0.00    -0.003 C 
ATOM     20  C   UNL     1      48.810  -1.702  75.374  1.00  0.00     0.004 C 
ENDBRANCH  18  19
ENDBRANCH  17  18
ENDBRANCH  16  17
ENDBRANCH  15  16
ENDBRANCH  14  15
ENDBRANCH  13  14
ENDBRANCH  12  13
ENDBRANCH   1  12
TORSDOF 16
ENDMDL
MODEL 6
REMARK VINA RESULT:    -3.918      2.787      5.939
REMARK INTER + INTRA:         -10.002
REMARK INTER:                  -7.147
REMARK INTRA:                  -2.854
REMARK UNBOUND:                -2.419
REMARK SMILES CCCCCCCCCCCCCCCCCC(=O)[O-]
REMARK SMILES IDX 10 1 11 2 12 3 13 4 14 5 15 6 16 7 17 8 18 9 19 10 20 11
REMARK SMILES IDX 9 12 8 13 7 14 6 15 5 16 4 17 3 18 2 19 1 20
REMARK H PARENT
REMARK Flexibility Score: inf
ROOT
ATOM      1  C   UNL     1      51.359  -2.774  73.698  1.00  0.00     0.000 C 
ENDROOT
BRANCH   1   2
ATOM      2  C   UNL     1      50.221  -2.425  74.672  1.00  0.00     0.000 C 
BRANCH   2   3
ATOM      3  C   UNL     1      49.181  -3.547  74.802  1.00  0.00     0.000 C 
BRANCH   3   4
ATOM      4  C   UNL     1      47.928  -3.232  73.971  1.00  0.00     0.000 C 
BRANCH   4   5
ATOM      5  C   UNL     1      47.903  -3.968  72.618  1.00  0.00     0.000 C 
BRANCH   5   6
ATOM      6  C   UNL     1      48.752  -5.251  72.559  1.00  0.00     0.000 C 
BRANCH   6   7
ATOM      7  C   UNL     1      47.908  -6.533  72.657  1.00  0.00     0.006 C 
BRANCH   7   8
ATOM      8  C   UNL     1      46.428  -6.277  72.342  1.00  0.00     0.053 C 
BRANCH   8   9
ATOM      9  C   UNL     1      45.547  -6.600  73.509  1.00  0.00     0.041 C 
ATOM     10  O   UNL     1      45.462  -5.804  74.480  1.00  0.00    -0.550 OA
ATOM     11  O   UNL     1      44.797  -7.769  73.511  1.00  0.00    -0.550 OA
ENDBRANCH   8   9
ENDBRANCH   7   8
ENDBRANCH   6   7
ENDBRANCH   5   6
ENDBRANCH   4   5
ENDBRANCH   3   4
ENDBRANCH   2   3
ENDBRANCH   1   2
BRANCH   1  12
ATOM     12  C   UNL     1      51.279  -2.083  72.321  1.00  0.00     0.000 C 
BRANCH  12  13
ATOM     13  C   UNL     1      50.636  -0.684  72.323  1.00  0.00    -0.000 C 
BRANCH  13  14
ATOM     14  C   UNL     1      49.272  -0.652  71.614  1.00  0.00    -0.000 C 
BRANCH  14  15
ATOM     15  C   UNL     1      48.236   0.208  72.357  1.00  0.00    -0.000 C 
BRANCH  15  16
ATOM     16  C   UNL     1      48.854   1.390  73.134  1.00  0.00    -0.000 C 
BRANCH  16  17
ATOM     17  C   UNL     1      48.528   1.328  74.637  1.00  0.00    -0.000 C 
BRANCH  17  18
ATOM     18  C   UNL     1      47.478   0.257  74.971  1.00  0.00    -0.000 C 
BRANCH  18  19
ATOM     19  C   UNL     1      47.632  -0.299  76.394  1.00  0.00    -0.003 C 
ATOM     20  C   UNL     1      46.449  -1.187  76.768  1.00  0.00     0.004 C 
ENDBRANCH  18  19
ENDBRANCH  17  18
ENDBRANCH  16  17
ENDBRANCH  15  16
ENDBRANCH  14  15
ENDBRANCH  13  14
ENDBRANCH  12  13
ENDBRANCH   1  12
TORSDOF 16
ENDMDL
MODEL 7
REMARK VINA RESULT:    -3.908      3.102      4.554
REMARK INTER + INTRA:          -9.982
REMARK INTER:                  -7.101
REMARK INTRA:                  -2.882
REMARK UNBOUND:                -2.419
REMARK SMILES CCCCCCCCCCCCCCCCCC(=O)[O-]
REMARK SMILES IDX 10 1 11 2 12 3 13 4 14 5 15 6 16 7 17 8 18 9 19 10 20 11
REMARK SMILES IDX 9 12 8 13 7 14 6 15 5 16 4 17 3 18 2 19 1 20
REMARK H PARENT
REMARK Flexibility Score: inf
ROOT
ATOM      1  C   UNL     1      46.859  -4.741  75.244  1.00  0.00     0.000 C 
ENDROOT
BRANCH   1   2
ATOM      2  C   UNL     1      46.397  -5.079  73.816  1.00  0.00     0.000 C 
BRANCH   2   3
ATOM      3  C   UNL     1      47.411  -4.653  72.744  1.00  0.00     0.000 C 
BRANCH   3   4
ATOM      4  C   UNL     1      48.572  -5.655  72.658  1.00  0.00     0.000 C 
BRANCH   4   5
ATOM      5  C   UNL     1      49.944  -5.012  72.934  1.00  0.00     0.000 C 
BRANCH   5   6
ATOM      6  C   UNL     1      50.313  -3.843  72.001  1.00  0.00     0.000 C 
BRANCH   6   7
ATOM      7  C   UNL     1      50.822  -2.608  72.762  1.00  0.00     0.006 C 
BRANCH   7   8
ATOM      8  C   UNL     1      49.683  -1.650  73.140  1.00  0.00     0.053 C 
BRANCH   8   9
ATOM      9  C   UNL     1      49.565  -0.516  72.169  1.00  0.00     0.041 C 
ATOM     10  O   UNL     1      50.499   0.319  72.050  1.00  0.00    -0.550 OA
ATOM     11  O   UNL     1      48.433  -0.399  71.372  1.00  0.00    -0.550 OA
ENDBRANCH   8   9
ENDBRANCH   7   8
ENDBRANCH   6   7
ENDBRANCH   5   6
ENDBRANCH   4   5
ENDBRANCH   3   4
ENDBRANCH   2   3
ENDBRANCH   1   2
BRANCH   1  12
ATOM     12  C   UNL     1      47.202  -3.257  75.489  1.00  0.00     0.000 C 
BRANCH  12  13
ATOM     13  C   UNL     1      48.324  -3.001  76.512  1.00  0.00    -0.000 C 
BRANCH  13  14
ATOM     14  C   UNL     1      49.466  -4.026  76.416  1.00  0.00    -0.000 C 
BRANCH  14  15
ATOM     15  C   UNL     1      49.698  -4.782  77.735  1.00  0.00    -0.000 C 
BRANCH  15  16
ATOM     16  C   UNL     1      48.459  -4.821  78.654  1.00  0.00    -0.000 C 
BRANCH  16  17
ATOM     17  C   UNL     1      47.776  -6.200  78.645  1.00  0.00    -0.000 C 
BRANCH  17  18
ATOM     18  C   UNL     1      48.644  -7.286  77.991  1.00  0.00    -0.000 C 
BRANCH  18  19
ATOM     19  C   UNL     1      48.006  -7.869  76.722  1.00  0.00    -0.003 C 
ATOM     20  C   UNL     1      49.011  -7.920  75.575  1.00  0.00     0.004 C 
ENDBRANCH  18  19
ENDBRANCH  17  18
ENDBRANCH  16  17
ENDBRANCH  15  16
ENDBRANCH  14  15
ENDBRANCH  13  14
ENDBRANCH  12  13
ENDBRANCH   1  12
TORSDOF 16
ENDMDL
MODEL 8
REMARK VINA RESULT:    -3.904      3.015      6.618
REMARK INTER + INTRA:          -9.974
REMARK INTER:                  -7.789
REMARK INTRA:                  -2.186
REMARK UNBOUND:                -2.419
REMARK SMILES CCCCCCCCCCCCCCCCCC(=O)[O-]
REMARK SMILES IDX 10 1 11 2 12 3 13 4 14 5 15 6 16 7 17 8 18 9 19 10 20 11
REMARK SMILES IDX 9 12 8 13 7 14 6 15 5 16 4 17 3 18 2 19 1 20
REMARK H PARENT
REMARK Flexibility Score: inf
ROOT
ATOM      1  C   UNL     1      47.887  -2.388  75.120  1.00  0.00     0.000 C 
ENDROOT
BRANCH   1   2
ATOM      2  C   UNL     1      48.398  -3.642  74.390  1.00  0.00     0.000 C 
BRANCH   2   3
ATOM      3  C   UNL     1      48.020  -3.662  72.902  1.00  0.00     0.000 C 
BRANCH   3   4
ATOM      4  C   UNL     1      48.075  -5.091  72.341  1.00  0.00     0.000 C 
BRANCH   4   5
ATOM      5  C   UNL     1      46.691  -5.762  72.269  1.00  0.00     0.000 C 
BRANCH   5   6
ATOM      6  C   UNL     1      46.379  -6.737  73.419  1.00  0.00     0.000 C 
BRANCH   6   7
ATOM      7  C   UNL     1      45.450  -6.131  74.483  1.00  0.00     0.006 C 
BRANCH   7   8
ATOM      8  C   UNL     1      44.359  -7.115  74.929  1.00  0.00     0.053 C 
BRANCH   8   9
ATOM      9  C   UNL     1      44.935  -8.285  75.666  1.00  0.00     0.041 C 
ATOM     10  O   UNL     1      44.638  -9.460  75.322  1.00  0.00    -0.550 OA
ATOM     11  O   UNL     1      45.821  -8.079  76.714  1.00  0.00    -0.550 OA
ENDBRANCH   8   9
ENDBRANCH   7   8
ENDBRANCH   6   7
ENDBRANCH   5   6
ENDBRANCH   4   5
ENDBRANCH   3   4
ENDBRANCH   2   3
ENDBRANCH   1   2
BRANCH   1  12
ATOM     12  C   UNL     1      48.977  -1.371  75.518  1.00  0.00     0.000 C 
BRANCH  12  13
ATOM     13  C   UNL     1      48.537   0.105  75.505  1.00  0.00    -0.000 C 
BRANCH  13  14
ATOM     14  C   UNL     1      47.605   0.440  74.329  1.00  0.00    -0.000 C 
BRANCH  14  15
ATOM     15  C   UNL     1      48.373   0.836  73.056  1.00  0.00    -0.000 C 
BRANCH  15  16
ATOM     16  C   UNL     1      48.136  -0.119  71.867  1.00  0.00    -0.000 C 
BRANCH  16  17
ATOM     17  C   UNL     1      49.391  -0.942  71.527  1.00  0.00    -0.000 C 
BRANCH  17  18
ATOM     18  C   UNL     1      50.640  -0.453  72.278  1.00  0.00    -0.000 C 
BRANCH  18  19
ATOM     19  C   UNL     1      51.808  -1.446  72.191  1.00  0.00    -0.003 C 
ATOM     20  C   UNL     1      51.787  -2.424  73.363  1.00  0.00     0.004 C 
ENDBRANCH  18  19
ENDBRANCH  17  18
ENDBRANCH  16  17
ENDBRANCH  15  16
ENDBRANCH  14  15
ENDBRANCH  13  14
ENDBRANCH  12  13
ENDBRANCH   1  12
TORSDOF 16
ENDMDL
MODEL 9
REMARK VINA RESULT:    -3.890      2.265      3.376
REMARK INTER + INTRA:          -9.948
REMARK INTER:                  -7.600
REMARK INTRA:                  -2.348
REMARK UNBOUND:                -2.419
REMARK SMILES CCCCCCCCCCCCCCCCCC(=O)[O-]
REMARK SMILES IDX 10 1 11 2 12 3 13 4 14 5 15 6 16 7 17 8 18 9 19 10 20 11
REMARK SMILES IDX 9 12 8 13 7 14 6 15 5 16 4 17 3 18 2 19 1 20
REMARK H PARENT
REMARK Flexibility Score: inf
ROOT
ATOM      1  C   UNL     1      49.224  -1.663  76.046  1.00  0.00     0.000 C 
ENDROOT
BRANCH   1   2
ATOM      2  C   UNL     1      48.124  -0.589  75.966  1.00  0.00     0.000 C 
BRANCH   2   3
ATOM      3  C   UNL     1      48.471   0.550  74.997  1.00  0.00     0.000 C 
BRANCH   3   4
ATOM      4  C   UNL     1      47.513   0.560  73.797  1.00  0.00     0.000 C 
BRANCH   4   5
ATOM      5  C   UNL     1      48.244   0.528  72.442  1.00  0.00     0.000 C 
BRANCH   5   6
ATOM      6  C   UNL     1      48.231  -0.836  71.727  1.00  0.00     0.000 C 
BRANCH   6   7
ATOM      7  C   UNL     1      49.525  -1.637  71.940  1.00  0.00     0.006 C 
BRANCH   7   8
ATOM      8  C   UNL     1      50.714  -0.733  72.296  1.00  0.00     0.053 C 
BRANCH   8   9
ATOM      9  C   UNL     1      52.011  -1.482  72.263  1.00  0.00     0.041 C 
ATOM     10  O   UNL     1      53.047  -0.937  71.799  1.00  0.00    -0.550 OA
ATOM     11  O   UNL     1      52.081  -2.772  72.772  1.00  0.00    -0.550 OA
ENDBRANCH   8   9
ENDBRANCH   7   8
ENDBRANCH   6   7
ENDBRANCH   5   6
ENDBRANCH   4   5
ENDBRANCH   3   4
ENDBRANCH   2   3
ENDBRANCH   1   2
BRANCH   1  12
ATOM     12  C   UNL     1      48.937  -2.956  75.255  1.00  0.00     0.000 C 
BRANCH  12  13
ATOM     13  C   UNL     1      47.469  -3.422  75.266  1.00  0.00    -0.000 C 
BRANCH  13  14
ATOM     14  C   UNL     1      47.210  -4.603  74.316  1.00  0.00    -0.000 C 
BRANCH  14  15
ATOM     15  C   UNL     1      47.970  -5.875  74.729  1.00  0.00    -0.000 C 
BRANCH  15  16
ATOM     16  C   UNL     1      47.653  -6.349  76.164  1.00  0.00    -0.000 C 
BRANCH  16  17
ATOM     17  C   UNL     1      48.893  -6.924  76.870  1.00  0.00    -0.000 C 
BRANCH  17  18
ATOM     18  C   UNL     1      49.089  -6.350  78.283  1.00  0.00    -0.000 C 
BRANCH  18  19
ATOM     19  C   UNL     1      47.945  -5.418  78.706  1.00  0.00    -0.003 C 
ATOM     20  C   UNL     1      48.443  -3.988  78.896  1.00  0.00     0.004 C 
ENDBRANCH  18  19
ENDBRANCH  17  18
ENDBRANCH  16  17
ENDBRANCH  15  16
ENDBRANCH  14  15
ENDBRANCH  13  14
ENDBRANCH  12  13
ENDBRANCH   1  12
TORSDOF 16
ENDMDL
