MODEL 1
REMARK VINA RESULT:    -3.910      0.000      0.000
REMARK INTER + INTRA:          -9.886
REMARK INTER:                  -7.567
REMARK INTRA:                  -2.319
REMARK UNBOUND:                -2.319
REMARK SMILES CCCCCCCCCCCCCCCCCC(=O)[O-]
REMARK SMILES IDX 10 1 11 2 12 3 13 4 14 5 15 6 16 7 17 8 18 9 19 10 20 11
REMARK SMILES IDX 9 12 8 13 7 14 6 15 5 16 4 17 3 18 2 19 1 20
REMARK H PARENT
REMARK Flexibility Score: inf
ROOT
ATOM      1  C   UNL     1      -5.247  26.398 -13.046  1.00  0.00     0.000 C 
ENDROOT
BRANCH   1   2
ATOM      2  C   UNL     1      -4.452  25.307 -12.299  1.00  0.00     0.000 C 
BRANCH   2   3
ATOM      3  C   UNL     1      -4.511  23.905 -12.930  1.00  0.00     0.000 C 
BRANCH   3   4
ATOM      4  C   UNL     1      -4.621  22.784 -11.881  1.00  0.00     0.000 C 
BRANCH   4   5
ATOM      5  C   UNL     1      -5.879  21.921 -12.074  1.00  0.00     0.000 C 
BRANCH   5   6
ATOM      6  C   UNL     1      -5.802  20.593 -11.301  1.00  0.00     0.000 C 
BRANCH   6   7
ATOM      7  C   UNL     1      -7.013  20.372 -10.381  1.00  0.00     0.006 C 
BRANCH   7   8
ATOM      8  C   UNL     1      -6.625  20.306  -8.898  1.00  0.00     0.053 C 
BRANCH   8   9
ATOM      9  C   UNL     1      -7.356  19.193  -8.215  1.00  0.00     0.041 C 
ATOM     10  O   UNL     1      -7.414  18.053  -8.744  1.00  0.00    -0.550 OA
ATOM     11  O   UNL     1      -7.937  19.405  -6.970  1.00  0.00    -0.550 OA
ENDBRANCH   8   9
ENDBRANCH   7   8
ENDBRANCH   6   7
ENDBRANCH   5   6
ENDBRANCH   4   5
ENDBRANCH   3   4
ENDBRANCH   2   3
ENDBRANCH   1   2
BRANCH   1  12
ATOM     12  C   UNL     1      -6.415  25.884 -13.906  1.00  0.00     0.000 C 
BRANCH  12  13
ATOM     13  C   UNL     1      -7.655  26.789 -13.831  1.00  0.00    -0.000 C 
BRANCH  13  14
ATOM     14  C   UNL     1      -8.593  26.406 -12.674  1.00  0.00    -0.000 C 
BRANCH  14  15
ATOM     15  C   UNL     1      -8.521  24.907 -12.331  1.00  0.00    -0.000 C 
BRANCH  15  16
ATOM     16  C   UNL     1      -7.899  24.646 -10.950  1.00  0.00    -0.000 C 
BRANCH  16  17
ATOM     17  C   UNL     1      -8.143  25.794  -9.960  1.00  0.00    -0.000 C 
BRANCH  17  18
ATOM     18  C   UNL     1      -6.812  26.394  -9.479  1.00  0.00    -0.000 C 
BRANCH  18  19
ATOM     19  C   UNL     1      -6.628  27.855  -9.921  1.00  0.00    -0.003 C 
ATOM     20  C   UNL     1      -7.852  28.721  -9.629  1.00  0.00     0.004 C 
ENDBRANCH  18  19
ENDBRANCH  17  18
ENDBRANCH  16  17
ENDBRANCH  15  16
ENDBRANCH  14  15
ENDBRANCH  13  14
ENDBRANCH  12  13
ENDBRANCH   1  12
TORSDOF 16
ENDMDL
MODEL 2
REMARK VINA RESULT:    -3.796      1.818      3.444
REMARK INTER + INTRA:          -9.666
REMARK INTER:                  -6.985
REMARK INTRA:                  -2.681
REMARK UNBOUND:                -2.319
REMARK SMILES CCCCCCCCCCCCCCCCCC(=O)[O-]
REMARK SMILES IDX 10 1 11 2 12 3 13 4 14 5 15 6 16 7 17 8 18 9 19 10 20 11
REMARK SMILES IDX 9 12 8 13 7 14 6 15 5 16 4 17 3 18 2 19 1 20
REMARK H PARENT
REMARK Flexibility Score: inf
ROOT
ATOM      1  C   UNL     1      -7.410  26.857 -11.826  1.00  0.00     0.000 C 
ENDROOT
BRANCH   1   2
ATOM      2  C   UNL     1      -6.701  26.361 -13.103  1.00  0.00     0.000 C 
BRANCH   2   3
ATOM      3  C   UNL     1      -5.187  26.628 -13.159  1.00  0.00     0.000 C 
BRANCH   3   4
ATOM      4  C   UNL     1      -4.367  25.354 -13.426  1.00  0.00     0.000 C 
BRANCH   4   5
ATOM      5  C   UNL     1      -3.885  24.684 -12.129  1.00  0.00     0.000 C 
BRANCH   5   6
ATOM      6  C   UNL     1      -4.626  23.367 -11.839  1.00  0.00     0.000 C 
BRANCH   6   7
ATOM      7  C   UNL     1      -5.696  23.517 -10.747  1.00  0.00     0.006 C 
BRANCH   7   8
ATOM      8  C   UNL     1      -7.036  22.881 -11.139  1.00  0.00     0.053 C 
BRANCH   8   9
ATOM      9  C   UNL     1      -7.113  21.473 -10.636  1.00  0.00     0.041 C 
ATOM     10  O   UNL     1      -7.781  20.611 -11.264  1.00  0.00    -0.550 OA
ATOM     11  O   UNL     1      -6.410  21.104  -9.495  1.00  0.00    -0.550 OA
ENDBRANCH   8   9
ENDBRANCH   7   8
ENDBRANCH   6   7
ENDBRANCH   5   6
ENDBRANCH   4   5
ENDBRANCH   3   4
ENDBRANCH   2   3
ENDBRANCH   1   2
BRANCH   1  12
ATOM     12  C   UNL     1      -6.494  27.049 -10.603  1.00  0.00     0.000 C 
BRANCH  12  13
ATOM     13  C   UNL     1      -7.139  26.567  -9.293  1.00  0.00    -0.000 C 
BRANCH  13  14
ATOM     14  C   UNL     1      -8.521  25.931  -9.518  1.00  0.00    -0.000 C 
BRANCH  14  15
ATOM     15  C   UNL     1      -9.659  26.770  -8.908  1.00  0.00    -0.000 C 
BRANCH  15  16
ATOM     16  C   UNL     1      -9.159  28.090  -8.298  1.00  0.00    -0.000 C 
BRANCH  16  17
ATOM     17  C   UNL     1      -9.547  29.317  -9.136  1.00  0.00    -0.000 C 
BRANCH  17  18
ATOM     18  C   UNL     1      -8.297  30.100  -9.569  1.00  0.00    -0.000 C 
BRANCH  18  19
ATOM     19  C   UNL     1      -7.215  30.137  -8.478  1.00  0.00    -0.003 C 
ATOM     20  C   UNL     1      -5.844  30.540  -9.017  1.00  0.00     0.004 C 
ENDBRANCH  18  19
ENDBRANCH  17  18
ENDBRANCH  16  17
ENDBRANCH  15  16
ENDBRANCH  14  15
ENDBRANCH  13  14
ENDBRANCH  12  13
ENDBRANCH   1  12
TORSDOF 16
ENDMDL
MODEL 3
REMARK VINA RESULT:    -3.765      2.497      6.033
REMARK INTER + INTRA:          -9.606
REMARK INTER:                  -7.994
REMARK INTRA:                  -1.611
REMARK UNBOUND:                -2.319
REMARK SMILES CCCCCCCCCCCCCCCCCC(=O)[O-]
REMARK SMILES IDX 10 1 11 2 12 3 13 4 14 5 15 6 16 7 17 8 18 9 19 10 20 11
REMARK SMILES IDX 9 12 8 13 7 14 6 15 5 16 4 17 3 18 2 19 1 20
REMARK H PARENT
REMARK Flexibility Score: inf
ROOT
ATOM      1  C   UNL     1      -4.021  24.953 -12.292  1.00  0.00     0.000 C 
ENDROOT
BRANCH   1   2
ATOM      2  C   UNL     1      -4.462  25.938 -13.395  1.00  0.00     0.000 C 
BRANCH   2   3
ATOM      3  C   UNL     1      -5.624  26.872 -13.014  1.00  0.00     0.000 C 
BRANCH   3   4
ATOM      4  C   UNL     1      -6.992  26.340 -13.476  1.00  0.00     0.000 C 
BRANCH   4   5
ATOM      5  C   UNL     1      -7.885  25.915 -12.299  1.00  0.00     0.000 C 
BRANCH   5   6
ATOM      6  C   UNL     1      -7.467  26.580 -10.976  1.00  0.00     0.000 C 
BRANCH   6   7
ATOM      7  C   UNL     1      -7.102  25.558  -9.888  1.00  0.00     0.006 C 
BRANCH   7   8
ATOM      8  C   UNL     1      -7.529  26.008  -8.485  1.00  0.00     0.053 C 
BRANCH   8   9
ATOM      9  C   UNL     1      -6.329  26.221  -7.616  1.00  0.00     0.041 C 
ATOM     10  O   UNL     1      -6.148  27.327  -7.043  1.00  0.00    -0.550 OA
ATOM     11  O   UNL     1      -5.433  25.180  -7.403  1.00  0.00    -0.550 OA
ENDBRANCH   8   9
ENDBRANCH   7   8
ENDBRANCH   6   7
ENDBRANCH   5   6
ENDBRANCH   4   5
ENDBRANCH   3   4
ENDBRANCH   2   3
ENDBRANCH   1   2
BRANCH   1  12
ATOM     12  C   UNL     1      -4.289  23.468 -12.596  1.00  0.00     0.000 C 
BRANCH  12  13
ATOM     13  C   UNL     1      -5.473  22.899 -11.797  1.00  0.00    -0.000 C 
BRANCH  13  14
ATOM     14  C   UNL     1      -6.199  21.770 -12.546  1.00  0.00    -0.000 C 
BRANCH  14  15
ATOM     15  C   UNL     1      -6.040  20.406 -11.850  1.00  0.00    -0.000 C 
BRANCH  15  16
ATOM     16  C   UNL     1      -7.154  20.130 -10.828  1.00  0.00    -0.000 C 
BRANCH  16  17
ATOM     17  C   UNL     1      -6.671  20.247  -9.375  1.00  0.00    -0.000 C 
BRANCH  17  18
ATOM     18  C   UNL     1      -6.104  18.908  -8.877  1.00  0.00    -0.000 C 
BRANCH  18  19
ATOM     19  C   UNL     1      -6.873  18.353  -7.668  1.00  0.00    -0.003 C 
ATOM     20  C   UNL     1      -7.867  19.356  -7.086  1.00  0.00     0.004 C 
ENDBRANCH  18  19
ENDBRANCH  17  18
ENDBRANCH  16  17
ENDBRANCH  15  16
ENDBRANCH  14  15
ENDBRANCH  13  14
ENDBRANCH  12  13
ENDBRANCH   1  12
TORSDOF 16
ENDMDL
MODEL 4
REMARK VINA RESULT:    -3.761      1.699      3.451
REMARK INTER + INTRA:          -9.597
REMARK INTER:                  -7.284
REMARK INTRA:                  -2.313
REMARK UNBOUND:                -2.319
REMARK SMILES CCCCCCCCCCCCCCCCCC(=O)[O-]
REMARK SMILES IDX 10 1 11 2 12 3 13 4 14 5 15 6 16 7 17 8 18 9 19 10 20 11
REMARK SMILES IDX 9 12 8 13 7 14 6 15 5 16 4 17 3 18 2 19 1 20
REMARK H PARENT
REMARK Flexibility Score: inf
ROOT
ATOM      1  C   UNL     1      -4.074  24.771 -14.283  1.00  0.00     0.000 C 
ENDROOT
BRANCH   1   2
ATOM      2  C   UNL     1      -4.185  23.257 -14.010  1.00  0.00     0.000 C 
BRANCH   2   3
ATOM      3  C   UNL     1      -4.400  22.870 -12.536  1.00  0.00     0.000 C 
BRANCH   3   4
ATOM      4  C   UNL     1      -5.393  21.708 -12.364  1.00  0.00     0.000 C 
BRANCH   4   5
ATOM      5  C   UNL     1      -6.822  22.194 -12.071  1.00  0.00     0.000 C 
BRANCH   5   6
ATOM      6  C   UNL     1      -7.348  21.688 -10.717  1.00  0.00     0.000 C 
BRANCH   6   7
ATOM      7  C   UNL     1      -6.756  20.326 -10.323  1.00  0.00     0.006 C 
BRANCH   7   8
ATOM      8  C   UNL     1      -6.468  20.218  -8.820  1.00  0.00     0.053 C 
BRANCH   8   9
ATOM      9  C   UNL     1      -7.309  19.144  -8.202  1.00  0.00     0.041 C 
ATOM     10  O   UNL     1      -7.442  18.033  -8.778  1.00  0.00    -0.550 OA
ATOM     11  O   UNL     1      -7.909  19.358  -6.967  1.00  0.00    -0.550 OA
ENDBRANCH   8   9
ENDBRANCH   7   8
ENDBRANCH   6   7
ENDBRANCH   5   6
ENDBRANCH   4   5
ENDBRANCH   3   4
ENDBRANCH   2   3
ENDBRANCH   1   2
BRANCH   1  12
ATOM     12  C   UNL     1      -4.159  25.668 -13.035  1.00  0.00     0.000 C 
BRANCH  12  13
ATOM     13  C   UNL     1      -5.393  26.586 -13.042  1.00  0.00    -0.000 C 
BRANCH  13  14
ATOM     14  C   UNL     1      -6.610  25.939 -12.362  1.00  0.00    -0.000 C 
BRANCH  14  15
ATOM     15  C   UNL     1      -7.939  26.580 -12.802  1.00  0.00    -0.000 C 
BRANCH  15  16
ATOM     16  C   UNL     1      -7.948  26.958 -14.292  1.00  0.00    -0.000 C 
BRANCH  16  17
ATOM     17  C   UNL     1      -8.562  25.865 -15.179  1.00  0.00    -0.000 C 
BRANCH  17  18
ATOM     18  C   UNL     1      -7.464  25.019 -15.843  1.00  0.00    -0.000 C 
BRANCH  18  19
ATOM     19  C   UNL     1      -7.532  23.538 -15.435  1.00  0.00    -0.003 C 
ATOM     20  C   UNL     1      -8.926  23.112 -14.980  1.00  0.00     0.004 C 
ENDBRANCH  18  19
ENDBRANCH  17  18
ENDBRANCH  16  17
ENDBRANCH  15  16
ENDBRANCH  14  15
ENDBRANCH  13  14
ENDBRANCH  12  13
ENDBRANCH   1  12
TORSDOF 16
ENDMDL
MODEL 5
REMARK VINA RESULT:    -3.747      1.465      2.609
REMARK INTER + INTRA:          -9.572
REMARK INTER:                  -6.747
REMARK INTRA:                  -2.825
REMARK UNBOUND:                -2.319
REMARK SMILES CCCCCCCCCCCCCCCCCC(=O)[O-]
REMARK SMILES IDX 10 1 11 2 12 3 13 4 14 5 15 6 16 7 17 8 18 9 19 10 20 11
REMARK SMILES IDX 9 12 8 13 7 14 6 15 5 16 4 17 3 18 2 19 1 20
REMARK H PARENT
REMARK Flexibility Score: inf
ROOT
ATOM      1  C   UNL     1      -6.939  25.713 -14.251  1.00  0.00     0.000 C 
ENDROOT
BRANCH   1   2
ATOM      2  C   UNL     1      -8.237  25.148 -13.640  1.00  0.00     0.000 C 
BRANCH   2   3
ATOM      3  C   UNL     1      -8.572  23.699 -14.035  1.00  0.00     0.000 C 
BRANCH   3   4
ATOM      4  C   UNL     1      -7.897  22.661 -13.122  1.00  0.00     0.000 C 
BRANCH   4   5
ATOM      5  C   UNL     1      -8.809  22.211 -11.968  1.00  0.00     0.000 C 
BRANCH   5   6
ATOM      6  C   UNL     1      -8.332  20.899 -11.321  1.00  0.00     0.000 C 
BRANCH   6   7
ATOM      7  C   UNL     1      -6.807  20.850 -11.137  1.00  0.00     0.006 C 
BRANCH   7   8
ATOM      8  C   UNL     1      -6.382  21.018  -9.672  1.00  0.00     0.053 C 
BRANCH   8   9
ATOM      9  C   UNL     1      -6.596  19.745  -8.916  1.00  0.00     0.041 C 
ATOM     10  O   UNL     1      -7.517  19.661  -8.062  1.00  0.00    -0.550 OA
ATOM     11  O   UNL     1      -5.804  18.635  -9.187  1.00  0.00    -0.550 OA
ENDBRANCH   8   9
ENDBRANCH   7   8
ENDBRANCH   6   7
ENDBRANCH   5   6
ENDBRANCH   4   5
ENDBRANCH   3   4
ENDBRANCH   2   3
ENDBRANCH   1   2
BRANCH   1  12
ATOM     12  C   UNL     1      -6.253  26.815 -13.425  1.00  0.00     0.000 C 
BRANCH  12  13
ATOM     13  C   UNL     1      -4.943  26.344 -12.773  1.00  0.00    -0.000 C 
BRANCH  13  14
ATOM     14  C   UNL     1      -4.717  24.832 -12.934  1.00  0.00    -0.000 C 
BRANCH  14  15
ATOM     15  C   UNL     1      -4.979  24.058 -11.629  1.00  0.00    -0.000 C 
BRANCH  15  16
ATOM     16  C   UNL     1      -5.470  24.966 -10.490  1.00  0.00    -0.000 C 
BRANCH  16  17
ATOM     17  C   UNL     1      -6.926  24.686 -10.092  1.00  0.00    -0.000 C 
BRANCH  17  18
ATOM     18  C   UNL     1      -7.494  25.839  -9.248  1.00  0.00    -0.000 C 
BRANCH  18  19
ATOM     19  C   UNL     1      -7.144  27.221  -9.824  1.00  0.00    -0.003 C 
ATOM     20  C   UNL     1      -8.302  27.853 -10.594  1.00  0.00     0.004 C 
ENDBRANCH  18  19
ENDBRANCH  17  18
ENDBRANCH  16  17
ENDBRANCH  15  16
ENDBRANCH  14  15
ENDBRANCH  13  14
ENDBRANCH  12  13
ENDBRANCH   1  12
TORSDOF 16
ENDMDL
MODEL 6
REMARK VINA RESULT:    -3.735      3.007      5.603
REMARK INTER + INTRA:          -9.547
REMARK INTER:                  -6.810
REMARK INTRA:                  -2.737
REMARK UNBOUND:                -2.319
REMARK SMILES CCCCCCCCCCCCCCCCCC(=O)[O-]
REMARK SMILES IDX 10 1 11 2 12 3 13 4 14 5 15 6 16 7 17 8 18 9 19 10 20 11
REMARK SMILES IDX 9 12 8 13 7 14 6 15 5 16 4 17 3 18 2 19 1 20
REMARK H PARENT
REMARK Flexibility Score: inf
ROOT
ATOM      1  C   UNL     1      -6.467  24.693 -14.315  1.00  0.00     0.000 C 
ENDROOT
BRANCH   1   2
ATOM      2  C   UNL     1      -6.191  26.040 -13.615  1.00  0.00     0.000 C 
BRANCH   2   3
ATOM      3  C   UNL     1      -4.809  26.162 -12.949  1.00  0.00     0.000 C 
BRANCH   3   4
ATOM      4  C   UNL     1      -4.137  24.797 -12.717  1.00  0.00     0.000 C 
BRANCH   4   5
ATOM      5  C   UNL     1      -4.148  24.381 -11.236  1.00  0.00     0.000 C 
BRANCH   5   6
ATOM      6  C   UNL     1      -5.354  23.491 -10.886  1.00  0.00     0.000 C 
BRANCH   6   7
ATOM      7  C   UNL     1      -6.242  24.101  -9.791  1.00  0.00     0.006 C 
BRANCH   7   8
ATOM      8  C   UNL     1      -7.479  24.810 -10.358  1.00  0.00     0.053 C 
BRANCH   8   9
ATOM      9  C   UNL     1      -7.457  26.264 -10.003  1.00  0.00     0.041 C 
ATOM     10  O   UNL     1      -6.361  26.863  -9.846  1.00  0.00    -0.550 OA
ATOM     11  O   UNL     1      -8.650  26.969  -9.890  1.00  0.00    -0.550 OA
ENDBRANCH   8   9
ENDBRANCH   7   8
ENDBRANCH   6   7
ENDBRANCH   5   6
ENDBRANCH   4   5
ENDBRANCH   3   4
ENDBRANCH   2   3
ENDBRANCH   1   2
BRANCH   1  12
ATOM     12  C   UNL     1      -7.838  24.064 -14.007  1.00  0.00     0.000 C 
BRANCH  12  13
ATOM     13  C   UNL     1      -7.735  22.592 -13.576  1.00  0.00    -0.000 C 
BRANCH  13  14
ATOM     14  C   UNL     1      -6.404  21.947 -13.996  1.00  0.00    -0.000 C 
BRANCH  14  15
ATOM     15  C   UNL     1      -6.086  20.676 -13.189  1.00  0.00    -0.000 C 
BRANCH  15  16
ATOM     16  C   UNL     1      -6.976  20.529 -11.944  1.00  0.00    -0.000 C 
BRANCH  16  17
ATOM     17  C   UNL     1      -6.245  19.867 -10.766  1.00  0.00    -0.000 C 
BRANCH  17  18
ATOM     18  C   UNL     1      -6.984  20.134  -9.444  1.00  0.00    -0.000 C 
BRANCH  18  19
ATOM     19  C   UNL     1      -6.804  18.996  -8.427  1.00  0.00    -0.003 C 
ATOM     20  C   UNL     1      -7.766  19.101  -7.244  1.00  0.00     0.004 C 
ENDBRANCH  18  19
ENDBRANCH  17  18
ENDBRANCH  16  17
ENDBRANCH  15  16
ENDBRANCH  14  15
ENDBRANCH  13  14
ENDBRANCH  12  13
ENDBRANCH   1  12
TORSDOF 16
ENDMDL
MODEL 7
REMARK VINA RESULT:    -3.715      2.523      5.989
REMARK INTER + INTRA:          -9.510
REMARK INTER:                  -7.443
REMARK INTRA:                  -2.067
REMARK UNBOUND:                -2.319
REMARK SMILES CCCCCCCCCCCCCCCCCC(=O)[O-]
REMARK SMILES IDX 10 1 11 2 12 3 13 4 14 5 15 6 16 7 17 8 18 9 19 10 20 11
REMARK SMILES IDX 9 12 8 13 7 14 6 15 5 16 4 17 3 18 2 19 1 20
REMARK H PARENT
REMARK Flexibility Score: inf
ROOT
ATOM      1  C   UNL     1      -6.595  23.217 -14.895  1.00  0.00     0.000 C 
ENDROOT
BRANCH   1   2
ATOM      2  C   UNL     1      -7.023  24.674 -15.163  1.00  0.00     0.000 C 
BRANCH   2   3
ATOM      3  C   UNL     1      -7.953  25.290 -14.102  1.00  0.00     0.000 C 
BRANCH   3   4
ATOM      4  C   UNL     1      -7.459  26.658 -13.600  1.00  0.00     0.000 C 
BRANCH   4   5
ATOM      5  C   UNL     1      -5.935  26.697 -13.403  1.00  0.00     0.000 C 
BRANCH   5   6
ATOM      6  C   UNL     1      -5.516  26.252 -11.990  1.00  0.00     0.000 C 
BRANCH   6   7
ATOM      7  C   UNL     1      -6.470  26.766 -10.900  1.00  0.00     0.006 C 
BRANCH   7   8
ATOM      8  C   UNL     1      -6.960  25.649  -9.970  1.00  0.00     0.053 C 
BRANCH   8   9
ATOM      9  C   UNL     1      -6.227  25.694  -8.666  1.00  0.00     0.041 C 
ATOM     10  O   UNL     1      -5.399  24.793  -8.371  1.00  0.00    -0.550 OA
ATOM     11  O   UNL     1      -6.427  26.758  -7.794  1.00  0.00    -0.550 OA
ENDBRANCH   8   9
ENDBRANCH   7   8
ENDBRANCH   6   7
ENDBRANCH   5   6
ENDBRANCH   4   5
ENDBRANCH   3   4
ENDBRANCH   2   3
ENDBRANCH   1   2
BRANCH   1  12
ATOM     12  C   UNL     1      -5.270  23.055 -14.127  1.00  0.00     0.000 C 
BRANCH  12  13
ATOM     13  C   UNL     1      -5.357  22.014 -13.000  1.00  0.00    -0.000 C 
BRANCH  13  14
ATOM     14  C   UNL     1      -5.921  22.605 -11.696  1.00  0.00    -0.000 C 
BRANCH  14  15
ATOM     15  C   UNL     1      -7.373  22.166 -11.433  1.00  0.00    -0.000 C 
BRANCH  15  16
ATOM     16  C   UNL     1      -7.460  20.806 -10.721  1.00  0.00    -0.000 C 
BRANCH  16  17
ATOM     17  C   UNL     1      -6.435  20.663  -9.586  1.00  0.00    -0.000 C 
BRANCH  17  18
ATOM     18  C   UNL     1      -6.051  19.189  -9.379  1.00  0.00    -0.000 C 
BRANCH  18  19
ATOM     19  C   UNL     1      -7.200  18.357  -8.787  1.00  0.00    -0.003 C 
ATOM     20  C   UNL     1      -7.411  18.615  -7.296  1.00  0.00     0.004 C 
ENDBRANCH  18  19
ENDBRANCH  17  18
ENDBRANCH  16  17
ENDBRANCH  15  16
ENDBRANCH  14  15
ENDBRANCH  13  14
ENDBRANCH  12  13
ENDBRANCH   1  12
TORSDOF 16
ENDMDL
MODEL 8
REMARK VINA RESULT:    -3.692      3.304      6.339
REMARK INTER + INTRA:          -9.465
REMARK INTER:                  -7.347
REMARK INTRA:                  -2.118
REMARK UNBOUND:                -2.319
REMARK SMILES CCCCCCCCCCCCCCCCCC(=O)[O-]
REMARK SMILES IDX 10 1 11 2 12 3 13 4 14 5 15 6 16 7 17 8 18 9 19 10 20 11
REMARK SMILES IDX 9 12 8 13 7 14 6 15 5 16 4 17 3 18 2 19 1 20
REMARK H PARENT
REMARK Flexibility Score: inf
ROOT
ATOM      1  C   UNL     1      -4.488  24.567 -13.473  1.00  0.00     0.000 C 
ENDROOT
BRANCH   1   2
ATOM      2  C   UNL     1      -5.456  25.741 -13.726  1.00  0.00     0.000 C 
BRANCH   2   3
ATOM      3  C   UNL     1      -5.403  26.871 -12.683  1.00  0.00     0.000 C 
BRANCH   3   4
ATOM      4  C   UNL     1      -6.121  26.505 -11.372  1.00  0.00     0.000 C 
BRANCH   4   5
ATOM      5  C   UNL     1      -7.627  26.812 -11.421  1.00  0.00     0.000 C 
BRANCH   5   6
ATOM      6  C   UNL     1      -8.489  25.545 -11.284  1.00  0.00     0.000 C 
BRANCH   6   7
ATOM      7  C   UNL     1      -9.402  25.316 -12.499  1.00  0.00     0.006 C 
BRANCH   7   8
ATOM      8  C   UNL     1      -8.789  24.356 -13.528  1.00  0.00     0.053 C 
BRANCH   8   9
ATOM      9  C   UNL     1      -9.585  24.371 -14.795  1.00  0.00     0.041 C 
ATOM     10  O   UNL     1     -10.842  24.336 -14.756  1.00  0.00    -0.550 OA
ATOM     11  O   UNL     1      -8.936  24.468 -16.021  1.00  0.00    -0.550 OA
ENDBRANCH   8   9
ENDBRANCH   7   8
ENDBRANCH   6   7
ENDBRANCH   5   6
ENDBRANCH   4   5
ENDBRANCH   3   4
ENDBRANCH   2   3
ENDBRANCH   1   2
BRANCH   1  12
ATOM     12  C   UNL     1      -5.151  23.264 -12.993  1.00  0.00     0.000 C 
BRANCH  12  13
ATOM     13  C   UNL     1      -4.858  22.954 -11.516  1.00  0.00    -0.000 C 
BRANCH  13  14
ATOM     14  C   UNL     1      -6.142  22.778 -10.687  1.00  0.00    -0.000 C 
BRANCH  14  15
ATOM     15  C   UNL     1      -7.197  21.925 -11.413  1.00  0.00    -0.000 C 
BRANCH  15  16
ATOM     16  C   UNL     1      -7.310  20.505 -10.836  1.00  0.00    -0.000 C 
BRANCH  16  17
ATOM     17  C   UNL     1      -6.836  20.417  -9.377  1.00  0.00    -0.000 C 
BRANCH  17  18
ATOM     18  C   UNL     1      -6.269  19.022  -9.070  1.00  0.00    -0.000 C 
BRANCH  18  19
ATOM     19  C   UNL     1      -6.853  18.416  -7.784  1.00  0.00    -0.003 C 
ATOM     20  C   UNL     1      -7.834  19.353  -7.080  1.00  0.00     0.004 C 
ENDBRANCH  18  19
ENDBRANCH  17  18
ENDBRANCH  16  17
ENDBRANCH  15  16
ENDBRANCH  14  15
ENDBRANCH  13  14
ENDBRANCH  12  13
ENDBRANCH   1  12
TORSDOF 16
ENDMDL
MODEL 9
REMARK VINA RESULT:    -3.651      1.443      2.922
REMARK INTER + INTRA:          -9.385
REMARK INTER:                  -6.659
REMARK INTRA:                  -2.726
REMARK UNBOUND:                -2.319
REMARK SMILES CCCCCCCCCCCCCCCCCC(=O)[O-]
REMARK SMILES IDX 10 1 11 2 12 3 13 4 14 5 15 6 16 7 17 8 18 9 19 10 20 11
REMARK SMILES IDX 9 12 8 13 7 14 6 15 5 16 4 17 3 18 2 19 1 20
REMARK H PARENT
REMARK Flexibility Score: inf
ROOT
ATOM      1  C   UNL     1      -5.354  26.642 -12.744  1.00  0.00     0.000 C 
ENDROOT
BRANCH   1   2
ATOM      2  C   UNL     1      -4.516  25.369 -12.507  1.00  0.00     0.000 C 
BRANCH   2   3
ATOM      3  C   UNL     1      -4.949  24.137 -13.322  1.00  0.00     0.000 C 
BRANCH   3   4
ATOM      4  C   UNL     1      -4.705  22.813 -12.576  1.00  0.00     0.000 C 
BRANCH   4   5
ATOM      5  C   UNL     1      -5.705  21.718 -12.981  1.00  0.00     0.000 C 
BRANCH   5   6
ATOM      6  C   UNL     1      -5.748  20.560 -11.968  1.00  0.00     0.000 C 
BRANCH   6   7
ATOM      7  C   UNL     1      -6.072  21.033 -10.542  1.00  0.00     0.006 C 
BRANCH   7   8
ATOM      8  C   UNL     1      -7.267  20.290  -9.930  1.00  0.00     0.053 C 
BRANCH   8   9
ATOM      9  C   UNL     1      -6.830  19.477  -8.751  1.00  0.00     0.041 C 
ATOM     10  O   UNL     1      -5.751  18.830  -8.792  1.00  0.00    -0.550 OA
ATOM     11  O   UNL     1      -7.594  19.471  -7.590  1.00  0.00    -0.550 OA
ENDBRANCH   8   9
ENDBRANCH   7   8
ENDBRANCH   6   7
ENDBRANCH   5   6
ENDBRANCH   4   5
ENDBRANCH   3   4
ENDBRANCH   2   3
ENDBRANCH   1   2
BRANCH   1  12
ATOM     12  C   UNL     1      -6.511  26.485 -13.747  1.00  0.00     0.000 C 
BRANCH  12  13
ATOM     13  C   UNL     1      -7.887  26.765 -13.120  1.00  0.00    -0.000 C 
BRANCH  13  14
ATOM     14  C   UNL     1      -7.848  26.740 -11.583  1.00  0.00    -0.000 C 
BRANCH  14  15
ATOM     15  C   UNL     1      -8.614  25.541 -10.996  1.00  0.00    -0.000 C 
BRANCH  15  16
ATOM     16  C   UNL     1      -8.010  24.191 -11.414  1.00  0.00    -0.000 C 
BRANCH  16  17
ATOM     17  C   UNL     1      -9.071  23.096 -11.596  1.00  0.00    -0.000 C 
BRANCH  17  18
ATOM     18  C   UNL     1      -9.730  23.197 -12.981  1.00  0.00    -0.000 C 
BRANCH  18  19
ATOM     19  C   UNL     1      -8.709  23.431 -14.106  1.00  0.00    -0.003 C 
ATOM     20  C   UNL     1      -8.702  22.309 -15.143  1.00  0.00     0.004 C 
ENDBRANCH  18  19
ENDBRANCH  17  18
ENDBRANCH  16  17
ENDBRANCH  15  16
ENDBRANCH  14  15
ENDBRANCH  13  14
ENDBRANCH  12  13
ENDBRANCH   1  12
TORSDOF 16
ENDMDL
