MODEL 1
REMARK VINA RESULT:    -5.003      0.000      0.000
REMARK INTER + INTRA:         -11.687
REMARK INTER:                  -9.682
REMARK INTRA:                  -2.005
REMARK UNBOUND:                -2.005
REMARK SMILES CCCCCCCCCCCCCCCCCC(=O)[O-]
REMARK SMILES IDX 10 1 11 2 12 3 13 4 14 5 15 6 16 7 17 8 18 9 19 10 20 11
REMARK SMILES IDX 9 12 8 13 7 14 6 15 5 16 4 17 3 18 2 19 1 20
REMARK H PARENT
REMARK Flexibility Score: inf
ROOT
ATOM      1  C   UNL     1       1.403 -35.879  20.158  1.00  0.00     0.000 C 
ENDROOT
BRANCH   1   2
ATOM      2  C   UNL     1       1.312 -37.294  20.754  1.00  0.00     0.000 C 
BRANCH   2   3
ATOM      3  C   UNL     1      -0.134 -37.721  21.066  1.00  0.00     0.000 C 
BRANCH   3   4
ATOM      4  C   UNL     1      -1.215 -36.688  20.697  1.00  0.00     0.000 C 
BRANCH   4   5
ATOM      5  C   UNL     1      -2.486 -36.818  21.552  1.00  0.00     0.000 C 
BRANCH   5   6
ATOM      6  C   UNL     1      -2.915 -35.484  22.188  1.00  0.00     0.000 C 
BRANCH   6   7
ATOM      7  C   UNL     1      -1.729 -34.566  22.556  1.00  0.00     0.006 C 
BRANCH   7   8
ATOM      8  C   UNL     1      -2.198 -33.209  23.097  1.00  0.00     0.053 C 
BRANCH   8   9
ATOM      9  C   UNL     1      -1.381 -32.804  24.282  1.00  0.00     0.041 C 
ATOM     10  O   UNL     1      -1.708 -33.186  25.437  1.00  0.00    -0.550 OA
ATOM     11  O   UNL     1      -0.284 -31.967  24.117  1.00  0.00    -0.550 OA
ENDBRANCH   8   9
ENDBRANCH   7   8
ENDBRANCH   6   7
ENDBRANCH   5   6
ENDBRANCH   4   5
ENDBRANCH   3   4
ENDBRANCH   2   3
ENDBRANCH   1   2
BRANCH   1  12
ATOM     12  C   UNL     1       2.413 -35.788  19.002  1.00  0.00     0.000 C 
BRANCH  12  13
ATOM     13  C   UNL     1       2.406 -37.046  18.117  1.00  0.00    -0.000 C 
BRANCH  13  14
ATOM     14  C   UNL     1       3.786 -37.716  18.031  1.00  0.00    -0.000 C 
BRANCH  14  15
ATOM     15  C   UNL     1       4.936 -36.760  18.399  1.00  0.00    -0.000 C 
BRANCH  15  16
ATOM     16  C   UNL     1       5.830 -37.314  19.517  1.00  0.00    -0.000 C 
BRANCH  16  17
ATOM     17  C   UNL     1       5.023 -37.943  20.667  1.00  0.00    -0.000 C 
BRANCH  17  18
ATOM     18  C   UNL     1       5.425 -37.368  22.042  1.00  0.00    -0.000 C 
BRANCH  18  19
ATOM     19  C   UNL     1       5.154 -35.860  22.184  1.00  0.00    -0.003 C 
ATOM     20  C   UNL     1       3.832 -35.551  22.883  1.00  0.00     0.004 C 
ENDBRANCH  18  19
ENDBRANCH  17  18
ENDBRANCH  16  17
ENDBRANCH  15  16
ENDBRANCH  14  15
ENDBRANCH  13  14
ENDBRANCH  12  13
ENDBRANCH   1  12
TORSDOF 16
ENDMDL
MODEL 2
REMARK VINA RESULT:    -4.283      1.108      1.280
REMARK INTER + INTRA:         -10.294
REMARK INTER:                  -8.505
REMARK INTRA:                  -1.788
REMARK UNBOUND:                -2.005
REMARK SMILES CCCCCCCCCCCCCCCCCC(=O)[O-]
REMARK SMILES IDX 10 1 11 2 12 3 13 4 14 5 15 6 16 7 17 8 18 9 19 10 20 11
REMARK SMILES IDX 9 12 8 13 7 14 6 15 5 16 4 17 3 18 2 19 1 20
REMARK H PARENT
REMARK Flexibility Score: inf
ROOT
ATOM      1  C   UNL     1       1.972 -38.005  19.903  1.00  0.00     0.000 C 
ENDROOT
BRANCH   1   2
ATOM      2  C   UNL     1       0.752 -37.741  20.803  1.00  0.00     0.000 C 
BRANCH   2   3
ATOM      3  C   UNL     1       0.701 -36.296  21.334  1.00  0.00     0.000 C 
BRANCH   3   4
ATOM      4  C   UNL     1      -0.544 -35.490  20.917  1.00  0.00     0.000 C 
BRANCH   4   5
ATOM      5  C   UNL     1      -1.852 -36.078  21.468  1.00  0.00     0.000 C 
BRANCH   5   6
ATOM      6  C   UNL     1      -2.574 -35.124  22.434  1.00  0.00     0.000 C 
BRANCH   6   7
ATOM      7  C   UNL     1      -1.869 -33.760  22.598  1.00  0.00     0.006 C 
BRANCH   7   8
ATOM      8  C   UNL     1      -1.435 -33.507  24.048  1.00  0.00     0.053 C 
BRANCH   8   9
ATOM      9  C   UNL     1      -0.963 -32.098  24.216  1.00  0.00     0.041 C 
ATOM     10  O   UNL     1      -1.788 -31.146  24.185  1.00  0.00    -0.550 OA
ATOM     11  O   UNL     1       0.393 -31.831  24.361  1.00  0.00    -0.550 OA
ENDBRANCH   8   9
ENDBRANCH   7   8
ENDBRANCH   6   7
ENDBRANCH   5   6
ENDBRANCH   4   5
ENDBRANCH   3   4
ENDBRANCH   2   3
ENDBRANCH   1   2
BRANCH   1  12
ATOM     12  C   UNL     1       1.810 -37.403  18.497  1.00  0.00     0.000 C 
BRANCH  12  13
ATOM     13  C   UNL     1       3.135 -37.377  17.716  1.00  0.00    -0.000 C 
BRANCH  13  14
ATOM     14  C   UNL     1       4.069 -36.245  18.174  1.00  0.00    -0.000 C 
BRANCH  14  15
ATOM     15  C   UNL     1       5.514 -36.724  18.407  1.00  0.00    -0.000 C 
BRANCH  15  16
ATOM     16  C   UNL     1       5.578 -38.125  19.033  1.00  0.00    -0.000 C 
BRANCH  16  17
ATOM     17  C   UNL     1       5.688 -38.085  20.568  1.00  0.00    -0.000 C 
BRANCH  17  18
ATOM     18  C   UNL     1       6.001 -36.667  21.092  1.00  0.00    -0.000 C 
BRANCH  18  19
ATOM     19  C   UNL     1       4.832 -36.019  21.855  1.00  0.00    -0.003 C 
ATOM     20  C   UNL     1       4.171 -36.965  22.855  1.00  0.00     0.004 C 
ENDBRANCH  18  19
ENDBRANCH  17  18
ENDBRANCH  16  17
ENDBRANCH  15  16
ENDBRANCH  14  15
ENDBRANCH  13  14
ENDBRANCH  12  13
ENDBRANCH   1  12
TORSDOF 16
ENDMDL
MODEL 3
REMARK VINA RESULT:    -4.246      1.079      2.687
REMARK INTER + INTRA:         -10.222
REMARK INTER:                  -8.563
REMARK INTRA:                  -1.660
REMARK UNBOUND:                -2.005
REMARK SMILES CCCCCCCCCCCCCCCCCC(=O)[O-]
REMARK SMILES IDX 10 1 11 2 12 3 13 4 14 5 15 6 16 7 17 8 18 9 19 10 20 11
REMARK SMILES IDX 9 12 8 13 7 14 6 15 5 16 4 17 3 18 2 19 1 20
REMARK H PARENT
REMARK Flexibility Score: inf
ROOT
ATOM      1  C   UNL     1       0.200 -37.653  21.125  1.00  0.00     0.000 C 
ENDROOT
BRANCH   1   2
ATOM      2  C   UNL     1      -1.086 -38.124  20.425  1.00  0.00     0.000 C 
BRANCH   2   3
ATOM      3  C   UNL     1      -2.110 -36.991  20.227  1.00  0.00     0.000 C 
BRANCH   3   4
ATOM      4  C   UNL     1      -3.315 -37.024  21.186  1.00  0.00     0.000 C 
BRANCH   4   5
ATOM      5  C   UNL     1      -3.337 -35.839  22.164  1.00  0.00     0.000 C 
BRANCH   5   6
ATOM      6  C   UNL     1      -2.044 -35.007  22.121  1.00  0.00     0.000 C 
BRANCH   6   7
ATOM      7  C   UNL     1      -1.990 -33.894  23.189  1.00  0.00     0.006 C 
BRANCH   7   8
ATOM      8  C   UNL     1      -0.577 -33.315  23.347  1.00  0.00     0.053 C 
BRANCH   8   9
ATOM      9  C   UNL     1      -0.623 -32.006  24.068  1.00  0.00     0.041 C 
ATOM     10  O   UNL     1       0.445 -31.440  24.423  1.00  0.00    -0.550 OA
ATOM     11  O   UNL     1      -1.847 -31.432  24.390  1.00  0.00    -0.550 OA
ENDBRANCH   8   9
ENDBRANCH   7   8
ENDBRANCH   6   7
ENDBRANCH   5   6
ENDBRANCH   4   5
ENDBRANCH   3   4
ENDBRANCH   2   3
ENDBRANCH   1   2
BRANCH   1  12
ATOM     12  C   UNL     1       1.427 -37.697  20.200  1.00  0.00     0.000 C 
BRANCH  12  13
ATOM     13  C   UNL     1       2.224 -36.382  20.221  1.00  0.00    -0.000 C 
BRANCH  13  14
ATOM     14  C   UNL     1       2.057 -35.610  21.540  1.00  0.00    -0.000 C 
BRANCH  14  15
ATOM     15  C   UNL     1       3.383 -35.446  22.304  1.00  0.00    -0.000 C 
BRANCH  15  16
ATOM     16  C   UNL     1       4.135 -36.774  22.475  1.00  0.00    -0.000 C 
BRANCH  16  17
ATOM     17  C   UNL     1       5.575 -36.715  21.933  1.00  0.00    -0.000 C 
BRANCH  17  18
ATOM     18  C   UNL     1       5.832 -37.783  20.849  1.00  0.00    -0.000 C 
BRANCH  18  19
ATOM     19  C   UNL     1       6.125 -37.193  19.458  1.00  0.00    -0.003 C 
ATOM     20  C   UNL     1       5.080 -37.576  18.413  1.00  0.00     0.004 C 
ENDBRANCH  18  19
ENDBRANCH  17  18
ENDBRANCH  16  17
ENDBRANCH  15  16
ENDBRANCH  14  15
ENDBRANCH  13  14
ENDBRANCH  12  13
ENDBRANCH   1  12
TORSDOF 16
ENDMDL
MODEL 4
REMARK VINA RESULT:    -4.198      0.868      2.956
REMARK INTER + INTRA:         -10.130
REMARK INTER:                  -8.836
REMARK INTRA:                  -1.293
REMARK UNBOUND:                -2.005
REMARK SMILES CCCCCCCCCCCCCCCCCC(=O)[O-]
REMARK SMILES IDX 10 1 11 2 12 3 13 4 14 5 15 6 16 7 17 8 18 9 19 10 20 11
REMARK SMILES IDX 9 12 8 13 7 14 6 15 5 16 4 17 3 18 2 19 1 20
REMARK H PARENT
REMARK Flexibility Score: inf
ROOT
ATOM      1  C   UNL     1       2.484 -35.284  22.204  1.00  0.00     0.000 C 
ENDROOT
BRANCH   1   2
ATOM      2  C   UNL     1       2.143 -36.108  20.950  1.00  0.00     0.000 C 
BRANCH   2   3
ATOM      3  C   UNL     1       0.709 -35.865  20.444  1.00  0.00     0.000 C 
BRANCH   3   4
ATOM      4  C   UNL     1      -0.338 -36.884  20.932  1.00  0.00     0.000 C 
BRANCH   4   5
ATOM      5  C   UNL     1      -1.777 -36.347  20.861  1.00  0.00     0.000 C 
BRANCH   5   6
ATOM      6  C   UNL     1      -2.185 -35.567  22.123  1.00  0.00     0.000 C 
BRANCH   6   7
ATOM      7  C   UNL     1      -1.435 -34.228  22.291  1.00  0.00     0.006 C 
BRANCH   7   8
ATOM      8  C   UNL     1      -2.230 -33.226  23.139  1.00  0.00     0.053 C 
BRANCH   8   9
ATOM      9  C   UNL     1      -1.414 -32.760  24.303  1.00  0.00     0.041 C 
ATOM     10  O   UNL     1      -1.681 -33.166  25.466  1.00  0.00    -0.550 OA
ATOM     11  O   UNL     1      -0.390 -31.841  24.111  1.00  0.00    -0.550 OA
ENDBRANCH   8   9
ENDBRANCH   7   8
ENDBRANCH   6   7
ENDBRANCH   5   6
ENDBRANCH   4   5
ENDBRANCH   3   4
ENDBRANCH   2   3
ENDBRANCH   1   2
BRANCH   1  12
ATOM     12  C   UNL     1       3.998 -35.112  22.405  1.00  0.00     0.000 C 
BRANCH  12  13
ATOM     13  C   UNL     1       4.620 -36.277  23.193  1.00  0.00    -0.000 C 
BRANCH  13  14
ATOM     14  C   UNL     1       5.966 -36.734  22.608  1.00  0.00    -0.000 C 
BRANCH  14  15
ATOM     15  C   UNL     1       5.887 -38.125  21.952  1.00  0.00    -0.000 C 
BRANCH  15  16
ATOM     16  C   UNL     1       5.954 -38.059  20.419  1.00  0.00    -0.000 C 
BRANCH  16  17
ATOM     17  C   UNL     1       5.689 -36.644  19.873  1.00  0.00    -0.000 C 
BRANCH  17  18
ATOM     18  C   UNL     1       5.098 -36.672  18.447  1.00  0.00    -0.000 C 
BRANCH  18  19
ATOM     19  C   UNL     1       3.929 -37.660  18.284  1.00  0.00    -0.003 C 
ATOM     20  C   UNL     1       2.829 -37.140  17.360  1.00  0.00     0.004 C 
ENDBRANCH  18  19
ENDBRANCH  17  18
ENDBRANCH  16  17
ENDBRANCH  15  16
ENDBRANCH  14  15
ENDBRANCH  13  14
ENDBRANCH  12  13
ENDBRANCH   1  12
TORSDOF 16
ENDMDL
MODEL 5
REMARK VINA RESULT:    -4.140      3.138      7.423
REMARK INTER + INTRA:         -10.018
REMARK INTER:                  -8.555
REMARK INTRA:                  -1.463
REMARK UNBOUND:                -2.005
REMARK SMILES CCCCCCCCCCCCCCCCCC(=O)[O-]
REMARK SMILES IDX 10 1 11 2 12 3 13 4 14 5 15 6 16 7 17 8 18 9 19 10 20 11
REMARK SMILES IDX 9 12 8 13 7 14 6 15 5 16 4 17 3 18 2 19 1 20
REMARK H PARENT
REMARK Flexibility Score: inf
ROOT
ATOM      1  C   UNL     1      -1.296 -32.686  24.439  1.00  0.00     0.000 C 
ENDROOT
BRANCH   1   2
ATOM      2  C   UNL     1       0.014 -32.003  24.011  1.00  0.00     0.000 C 
BRANCH   2   3
ATOM      3  C   UNL     1       1.262 -32.657  24.632  1.00  0.00     0.000 C 
BRANCH   3   4
ATOM      4  C   UNL     1       2.374 -33.025  23.632  1.00  0.00     0.000 C 
BRANCH   4   5
ATOM      5  C   UNL     1       2.169 -34.405  22.988  1.00  0.00     0.000 C 
BRANCH   5   6
ATOM      6  C   UNL     1       3.471 -35.219  22.895  1.00  0.00     0.000 C 
BRANCH   6   7
ATOM      7  C   UNL     1       3.480 -36.240  21.737  1.00  0.00     0.006 C 
BRANCH   7   8
ATOM      8  C   UNL     1       2.205 -36.160  20.888  1.00  0.00     0.053 C 
BRANCH   8   9
ATOM      9  C   UNL     1       2.416 -36.812  19.559  1.00  0.00     0.041 C 
ATOM     10  O   UNL     1       2.334 -38.064  19.447  1.00  0.00    -0.550 OA
ATOM     11  O   UNL     1       2.752 -36.041  18.452  1.00  0.00    -0.550 OA
ENDBRANCH   8   9
ENDBRANCH   7   8
ENDBRANCH   6   7
ENDBRANCH   5   6
ENDBRANCH   4   5
ENDBRANCH   3   4
ENDBRANCH   2   3
ENDBRANCH   1   2
BRANCH   1  12
ATOM     12  C   UNL     1      -2.228 -32.976  23.251  1.00  0.00     0.000 C 
BRANCH  12  13
ATOM     13  C   UNL     1      -2.247 -34.467  22.872  1.00  0.00    -0.000 C 
BRANCH  13  14
ATOM     14  C   UNL     1      -1.211 -34.815  21.792  1.00  0.00    -0.000 C 
BRANCH  14  15
ATOM     15  C   UNL     1      -1.589 -36.073  20.988  1.00  0.00    -0.000 C 
BRANCH  15  16
ATOM     16  C   UNL     1      -2.890 -36.721  21.483  1.00  0.00    -0.000 C 
BRANCH  16  17
ATOM     17  C   UNL     1      -3.290 -37.956  20.656  1.00  0.00    -0.000 C 
BRANCH  17  18
ATOM     18  C   UNL     1      -3.083 -37.735  19.143  1.00  0.00    -0.000 C 
BRANCH  18  19
ATOM     19  C   UNL     1      -4.388 -37.460  18.375  1.00  0.00    -0.003 C 
ATOM     20  C   UNL     1      -4.381 -36.121  17.641  1.00  0.00     0.004 C 
ENDBRANCH  18  19
ENDBRANCH  17  18
ENDBRANCH  16  17
ENDBRANCH  15  16
ENDBRANCH  14  15
ENDBRANCH  13  14
ENDBRANCH  12  13
ENDBRANCH   1  12
TORSDOF 16
ENDMDL
MODEL 6
REMARK VINA RESULT:    -4.104      1.991      6.618
REMARK INTER + INTRA:          -9.948
REMARK INTER:                  -8.844
REMARK INTRA:                  -1.104
REMARK UNBOUND:                -2.005
REMARK SMILES CCCCCCCCCCCCCCCCCC(=O)[O-]
REMARK SMILES IDX 10 1 11 2 12 3 13 4 14 5 15 6 16 7 17 8 18 9 19 10 20 11
REMARK SMILES IDX 9 12 8 13 7 14 6 15 5 16 4 17 3 18 2 19 1 20
REMARK H PARENT
REMARK Flexibility Score: inf
ROOT
ATOM      1  C   UNL     1       1.528 -36.193  19.781  1.00  0.00     0.000 C 
ENDROOT
BRANCH   1   2
ATOM      2  C   UNL     1       2.029 -37.301  18.839  1.00  0.00     0.000 C 
BRANCH   2   3
ATOM      3  C   UNL     1       2.978 -36.775  17.746  1.00  0.00     0.000 C 
BRANCH   3   4
ATOM      4  C   UNL     1       4.449 -36.623  18.174  1.00  0.00     0.000 C 
BRANCH   4   5
ATOM      5  C   UNL     1       4.904 -37.714  19.157  1.00  0.00     0.000 C 
BRANCH   5   6
ATOM      6  C   UNL     1       6.122 -37.290  19.996  1.00  0.00     0.000 C 
BRANCH   6   7
ATOM      7  C   UNL     1       5.800 -37.083  21.491  1.00  0.00     0.006 C 
BRANCH   7   8
ATOM      8  C   UNL     1       4.345 -36.648  21.712  1.00  0.00     0.053 C 
BRANCH   8   9
ATOM      9  C   UNL     1       4.242 -35.738  22.894  1.00  0.00     0.041 C 
ATOM     10  O   UNL     1       5.206 -35.633  23.699  1.00  0.00    -0.550 OA
ATOM     11  O   UNL     1       3.064 -35.040  23.135  1.00  0.00    -0.550 OA
ENDBRANCH   8   9
ENDBRANCH   7   8
ENDBRANCH   6   7
ENDBRANCH   5   6
ENDBRANCH   4   5
ENDBRANCH   3   4
ENDBRANCH   2   3
ENDBRANCH   1   2
BRANCH   1  12
ATOM     12  C   UNL     1       0.732 -36.746  20.975  1.00  0.00     0.000 C 
BRANCH  12  13
ATOM     13  C   UNL     1       0.113 -38.122  20.678  1.00  0.00    -0.000 C 
BRANCH  13  14
ATOM     14  C   UNL     1      -1.318 -38.020  20.126  1.00  0.00    -0.000 C 
BRANCH  14  15
ATOM     15  C   UNL     1      -2.360 -37.733  21.223  1.00  0.00    -0.000 C 
BRANCH  15  16
ATOM     16  C   UNL     1      -2.949 -36.319  21.121  1.00  0.00    -0.000 C 
BRANCH  16  17
ATOM     17  C   UNL     1      -1.959 -35.229  21.570  1.00  0.00    -0.000 C 
BRANCH  17  18
ATOM     18  C   UNL     1      -2.479 -34.437  22.789  1.00  0.00    -0.000 C 
BRANCH  18  19
ATOM     19  C   UNL     1      -1.425 -33.506  23.414  1.00  0.00    -0.003 C 
ATOM     20  C   UNL     1      -2.028 -32.245  24.029  1.00  0.00     0.004 C 
ENDBRANCH  18  19
ENDBRANCH  17  18
ENDBRANCH  16  17
ENDBRANCH  15  16
ENDBRANCH  14  15
ENDBRANCH  13  14
ENDBRANCH  12  13
ENDBRANCH   1  12
TORSDOF 16
ENDMDL
MODEL 7
REMARK VINA RESULT:    -3.955      1.402      4.022
REMARK INTER + INTRA:          -9.659
REMARK INTER:                  -7.616
REMARK INTRA:                  -2.043
REMARK UNBOUND:                -2.005
REMARK SMILES CCCCCCCCCCCCCCCCCC(=O)[O-]
REMARK SMILES IDX 10 1 11 2 12 3 13 4 14 5 15 6 16 7 17 8 18 9 19 10 20 11
REMARK SMILES IDX 9 12 8 13 7 14 6 15 5 16 4 17 3 18 2 19 1 20
REMARK H PARENT
REMARK Flexibility Score: inf
ROOT
ATOM      1  C   UNL     1       5.599 -37.026  20.670  1.00  0.00     0.000 C 
ENDROOT
BRANCH   1   2
ATOM      2  C   UNL     1       4.483 -37.355  21.676  1.00  0.00     0.000 C 
BRANCH   2   3
ATOM      3  C   UNL     1       4.248 -36.229  22.700  1.00  0.00     0.000 C 
BRANCH   3   4
ATOM      4  C   UNL     1       3.136 -35.230  22.330  1.00  0.00     0.000 C 
BRANCH   4   5
ATOM      5  C   UNL     1       2.848 -34.212  23.445  1.00  0.00     0.000 C 
BRANCH   5   6
ATOM      6  C   UNL     1       1.435 -33.612  23.355  1.00  0.00     0.000 C 
BRANCH   6   7
ATOM      7  C   UNL     1       1.164 -32.508  24.398  1.00  0.00     0.006 C 
BRANCH   7   8
ATOM      8  C   UNL     1      -0.065 -31.662  24.037  1.00  0.00     0.053 C 
BRANCH   8   9
ATOM      9  C   UNL     1      -1.324 -32.403  24.352  1.00  0.00     0.041 C 
ATOM     10  O   UNL     1      -1.386 -33.143  25.370  1.00  0.00    -0.550 OA
ATOM     11  O   UNL     1      -2.416 -32.316  23.496  1.00  0.00    -0.550 OA
ENDBRANCH   8   9
ENDBRANCH   7   8
ENDBRANCH   6   7
ENDBRANCH   5   6
ENDBRANCH   4   5
ENDBRANCH   3   4
ENDBRANCH   2   3
ENDBRANCH   1   2
BRANCH   1  12
ATOM     12  C   UNL     1       5.206 -37.359  19.221  1.00  0.00     0.000 C 
BRANCH  12  13
ATOM     13  C   UNL     1       4.450 -36.206  18.540  1.00  0.00    -0.000 C 
BRANCH  13  14
ATOM     14  C   UNL     1       3.367 -36.701  17.568  1.00  0.00    -0.000 C 
BRANCH  14  15
ATOM     15  C   UNL     1       2.313 -37.590  18.254  1.00  0.00    -0.000 C 
BRANCH  15  16
ATOM     16  C   UNL     1       1.635 -36.892  19.442  1.00  0.00    -0.000 C 
BRANCH  16  17
ATOM     17  C   UNL     1       0.979 -37.885  20.419  1.00  0.00    -0.000 C 
BRANCH  17  18
ATOM     18  C   UNL     1      -0.149 -37.231  21.244  1.00  0.00    -0.000 C 
BRANCH  18  19
ATOM     19  C   UNL     1      -0.374 -35.745  20.911  1.00  0.00    -0.003 C 
ATOM     20  C   UNL     1      -1.607 -35.157  21.595  1.00  0.00     0.004 C 
ENDBRANCH  18  19
ENDBRANCH  17  18
ENDBRANCH  16  17
ENDBRANCH  15  16
ENDBRANCH  14  15
ENDBRANCH  13  14
ENDBRANCH  12  13
ENDBRANCH   1  12
TORSDOF 16
ENDMDL
MODEL 8
REMARK VINA RESULT:    -3.917      2.710      4.997
REMARK INTER + INTRA:          -9.586
REMARK INTER:                  -7.906
REMARK INTRA:                  -1.679
REMARK UNBOUND:                -2.005
REMARK SMILES CCCCCCCCCCCCCCCCCC(=O)[O-]
REMARK SMILES IDX 10 1 11 2 12 3 13 4 14 5 15 6 16 7 17 8 18 9 19 10 20 11
REMARK SMILES IDX 9 12 8 13 7 14 6 15 5 16 4 17 3 18 2 19 1 20
REMARK H PARENT
REMARK Flexibility Score: inf
ROOT
ATOM      1  C   UNL     1       2.312 -32.930  23.978  1.00  0.00     0.000 C 
ENDROOT
BRANCH   1   2
ATOM      2  C   UNL     1       1.003 -32.424  24.608  1.00  0.00     0.000 C 
BRANCH   2   3
ATOM      3  C   UNL     1      -0.157 -32.344  23.597  1.00  0.00     0.000 C 
BRANCH   3   4
ATOM      4  C   UNL     1      -1.509 -32.872  24.110  1.00  0.00     0.000 C 
BRANCH   4   5
ATOM      5  C   UNL     1      -2.186 -33.843  23.129  1.00  0.00     0.000 C 
BRANCH   5   6
ATOM      6  C   UNL     1      -1.175 -34.658  22.304  1.00  0.00     0.000 C 
BRANCH   6   7
ATOM      7  C   UNL     1      -1.819 -35.459  21.153  1.00  0.00     0.006 C 
BRANCH   7   8
ATOM      8  C   UNL     1      -2.653 -36.640  21.670  1.00  0.00     0.053 C 
BRANCH   8   9
ATOM      9  C   UNL     1      -2.807 -37.680  20.605  1.00  0.00     0.041 C 
ATOM     10  O   UNL     1      -1.794 -38.124  20.003  1.00  0.00    -0.550 OA
ATOM     11  O   UNL     1      -4.074 -38.124  20.245  1.00  0.00    -0.550 OA
ENDBRANCH   8   9
ENDBRANCH   7   8
ENDBRANCH   6   7
ENDBRANCH   5   6
ENDBRANCH   4   5
ENDBRANCH   3   4
ENDBRANCH   2   3
ENDBRANCH   1   2
BRANCH   1  12
ATOM     12  C   UNL     1       2.118 -34.224  23.170  1.00  0.00     0.000 C 
BRANCH  12  13
ATOM     13  C   UNL     1       3.455 -34.867  22.766  1.00  0.00    -0.000 C 
BRANCH  13  14
ATOM     14  C   UNL     1       3.271 -36.090  21.854  1.00  0.00    -0.000 C 
BRANCH  14  15
ATOM     15  C   UNL     1       1.903 -36.105  21.147  1.00  0.00    -0.000 C 
BRANCH  15  16
ATOM     16  C   UNL     1       1.537 -37.491  20.596  1.00  0.00    -0.000 C 
BRANCH  16  17
ATOM     17  C   UNL     1       2.373 -37.879  19.363  1.00  0.00    -0.000 C 
BRANCH  17  18
ATOM     18  C   UNL     1       2.184 -36.886  18.196  1.00  0.00    -0.000 C 
BRANCH  18  19
ATOM     19  C   UNL     1       3.503 -36.471  17.520  1.00  0.00    -0.003 C 
ATOM     20  C   UNL     1       4.717 -36.614  18.436  1.00  0.00     0.004 C 
ENDBRANCH  18  19
ENDBRANCH  17  18
ENDBRANCH  16  17
ENDBRANCH  15  16
ENDBRANCH  14  15
ENDBRANCH  13  14
ENDBRANCH  12  13
ENDBRANCH   1  12
TORSDOF 16
ENDMDL
MODEL 9
REMARK VINA RESULT:    -3.900      2.828      6.345
REMARK INTER + INTRA:          -9.553
REMARK INTER:                  -7.777
REMARK INTRA:                  -1.776
REMARK UNBOUND:                -2.005
REMARK SMILES CCCCCCCCCCCCCCCCCC(=O)[O-]
REMARK SMILES IDX 10 1 11 2 12 3 13 4 14 5 15 6 16 7 17 8 18 9 19 10 20 11
REMARK SMILES IDX 9 12 8 13 7 14 6 15 5 16 4 17 3 18 2 19 1 20
REMARK H PARENT
REMARK Flexibility Score: inf
ROOT
ATOM      1  C   UNL     1      -2.216 -33.194  23.249  1.00  0.00     0.000 C 
ENDROOT
BRANCH   1   2
ATOM      2  C   UNL     1      -1.376 -32.683  24.432  1.00  0.00     0.000 C 
BRANCH   2   3
ATOM      3  C   UNL     1      -0.000 -32.141  24.000  1.00  0.00     0.000 C 
BRANCH   3   4
ATOM      4  C   UNL     1       1.210 -32.869  24.614  1.00  0.00     0.000 C 
BRANCH   4   5
ATOM      5  C   UNL     1       2.375 -33.035  23.625  1.00  0.00     0.000 C 
BRANCH   5   6
ATOM      6  C   UNL     1       2.334 -34.378  22.876  1.00  0.00     0.000 C 
BRANCH   6   7
ATOM      7  C   UNL     1       3.500 -35.323  23.235  1.00  0.00     0.006 C 
BRANCH   7   8
ATOM      8  C   UNL     1       4.479 -35.500  22.066  1.00  0.00     0.053 C 
BRANCH   8   9
ATOM      9  C   UNL     1       4.825 -36.944  21.885  1.00  0.00     0.041 C 
ATOM     10  O   UNL     1       5.420 -37.327  20.843  1.00  0.00    -0.550 OA
ATOM     11  O   UNL     1       4.448 -37.875  22.846  1.00  0.00    -0.550 OA
ENDBRANCH   8   9
ENDBRANCH   7   8
ENDBRANCH   6   7
ENDBRANCH   5   6
ENDBRANCH   4   5
ENDBRANCH   3   4
ENDBRANCH   2   3
ENDBRANCH   1   2
BRANCH   1  12
ATOM     12  C   UNL     1      -1.567 -34.392  22.537  1.00  0.00     0.000 C 
BRANCH  12  13
ATOM     13  C   UNL     1      -2.597 -35.458  22.125  1.00  0.00    -0.000 C 
BRANCH  13  14
ATOM     14  C   UNL     1      -2.175 -36.235  20.868  1.00  0.00    -0.000 C 
BRANCH  14  15
ATOM     15  C   UNL     1      -1.828 -37.705  21.166  1.00  0.00    -0.000 C 
BRANCH  15  16
ATOM     16  C   UNL     1      -0.350 -38.029  20.899  1.00  0.00    -0.000 C 
BRANCH  16  17
ATOM     17  C   UNL     1       0.472 -36.783  20.523  1.00  0.00    -0.000 C 
BRANCH  17  18
ATOM     18  C   UNL     1       1.844 -37.153  19.919  1.00  0.00    -0.000 C 
BRANCH  18  19
ATOM     19  C   UNL     1       2.459 -36.036  19.057  1.00  0.00    -0.003 C 
ATOM     20  C   UNL     1       3.259 -36.566  17.870  1.00  0.00     0.004 C 
ENDBRANCH  18  19
ENDBRANCH  17  18
ENDBRANCH  16  17
ENDBRANCH  15  16
ENDBRANCH  14  15
ENDBRANCH  13  14
ENDBRANCH  12  13
ENDBRANCH   1  12
TORSDOF 16
ENDMDL
