MODEL 1
REMARK VINA RESULT:    -6.424      0.000      0.000
REMARK INTER + INTRA:          -7.993
REMARK INTER:                  -7.738
REMARK INTRA:                  -0.255
REMARK UNBOUND:                -0.255
REMARK SMILES O=c1c(O)c(-c2ccc(O)c(O)c2)oc2cc(O)cc(O)c12
REMARK SMILES IDX 5 1 3 2 2 3 1 4 22 5 20 6 19 7 17 8 16 9 15 10 14 11 6 12
REMARK SMILES IDX 7 13 8 14 9 15 13 16 11 17 10 18 12 20 4 22 21 24 18 26
REMARK H PARENT 10 19 12 21 4 23 21 25 18 27
REMARK Flexibility Score: inf
ROOT
ATOM      1  C   UNL     1       2.199 -11.473 -32.722  1.00  0.00     0.180 A 
ATOM      2  C   UNL     1       1.114 -10.588 -32.605  1.00  0.00     0.208 A 
ATOM      3  C   UNL     1       0.407 -10.532 -31.393  1.00  0.00     0.238 A 
ATOM      4  O   UNL     1      -0.515  -9.684 -31.271  1.00  0.00    -0.285 OA
ATOM      5  C   UNL     1       0.757 -11.402 -30.332  1.00  0.00     0.111 A 
ATOM      6  C   UNL     1       0.083 -11.463 -29.075  1.00  0.00     0.134 A 
ATOM      7  C   UNL     1       0.586 -12.288 -28.061  1.00  0.00     0.093 A 
ATOM      8  C   UNL     1       1.699 -13.101 -28.279  1.00  0.00     0.123 A 
ATOM      9  C   UNL     1       2.332 -13.089 -29.520  1.00  0.00     0.094 A 
ATOM     10  C   UNL     1       1.878 -12.248 -30.539  1.00  0.00     0.146 A 
ATOM     11  O   UNL     1       2.525 -12.253 -31.699  1.00  0.00    -0.452 OA
ENDROOT
BRANCH   1  12
ATOM     12  C   UNL     1       3.001 -11.578 -33.963  1.00  0.00     0.025 A 
ATOM     13  C   UNL     1       4.309 -11.068 -34.034  1.00  0.00     0.016 A 
ATOM     14  C   UNL     1       5.056 -11.202 -35.208  1.00  0.00     0.051 A 
ATOM     15  C   UNL     1       4.512 -11.858 -36.320  1.00  0.00     0.157 A 
ATOM     16  C   UNL     1       2.469 -12.254 -35.073  1.00  0.00     0.062 A 
ATOM     17  C   UNL     1       3.217 -12.387 -36.252  1.00  0.00     0.158 A 
BRANCH  15  18
ATOM     18  O   UNL     1       5.253 -11.992 -37.493  1.00  0.00    -0.504 OA
ATOM     19  H   UNL     1       6.263 -12.072 -37.475  1.00  0.00     0.293 HD
ENDBRANCH  15  18
BRANCH  17  20
ATOM     20  O   UNL     1       2.681 -13.046 -37.357  1.00  0.00    -0.504 OA
ATOM     21  H   UNL     1       2.889 -12.749 -38.303  1.00  0.00     0.293 HD
ENDBRANCH  17  20
ENDBRANCH   1  12
BRANCH   2  22
ATOM     22  O   UNL     1       0.735  -9.791 -33.690  1.00  0.00    -0.502 OA
ATOM     23  H   UNL     1       1.410  -9.344 -34.298  1.00  0.00     0.293 HD
ENDBRANCH   2  22
BRANCH   6  24
ATOM     24  O   UNL     1      -1.090 -10.761 -28.781  1.00  0.00    -0.507 OA
ATOM     25  H   UNL     1      -1.489 -10.035 -29.356  1.00  0.00     0.293 HD
ENDBRANCH   6  24
BRANCH   8  26
ATOM     26  O   UNL     1       2.182 -13.932 -27.270  1.00  0.00    -0.508 OA
ATOM     27  H   UNL     1       1.587 -14.615 -26.816  1.00  0.00     0.293 HD
ENDBRANCH   8  26
TORSDOF 6
ENDMDL
MODEL 2
REMARK VINA RESULT:    -6.265      1.497      7.073
REMARK INTER + INTRA:          -7.802
REMARK INTER:                  -7.533
REMARK INTRA:                  -0.270
REMARK UNBOUND:                -0.255
REMARK SMILES O=c1c(O)c(-c2ccc(O)c(O)c2)oc2cc(O)cc(O)c12
REMARK SMILES IDX 5 1 3 2 2 3 1 4 22 5 20 6 19 7 17 8 16 9 15 10 14 11 6 12
REMARK SMILES IDX 7 13 8 14 9 15 13 16 11 17 10 18 12 20 4 22 21 24 18 26
REMARK H PARENT 10 19 12 21 4 23 21 25 18 27
REMARK Flexibility Score: inf
ROOT
ATOM      1  C   UNL     1       2.737 -11.575 -31.885  1.00  0.00     0.180 A 
ATOM      2  C   UNL     1       3.866 -10.740 -31.939  1.00  0.00     0.208 A 
ATOM      3  C   UNL     1       4.518 -10.553 -33.169  1.00  0.00     0.238 A 
ATOM      4  O   UNL     1       5.481  -9.746 -33.224  1.00  0.00    -0.285 OA
ATOM      5  C   UNL     1       4.069 -11.249 -34.317  1.00  0.00     0.111 A 
ATOM      6  C   UNL     1       4.680 -11.171 -35.605  1.00  0.00     0.134 A 
ATOM      7  C   UNL     1       4.084 -11.821 -36.693  1.00  0.00     0.093 A 
ATOM      8  C   UNL     1       2.936 -12.598 -36.527  1.00  0.00     0.123 A 
ATOM      9  C   UNL     1       2.363 -12.725 -35.264  1.00  0.00     0.094 A 
ATOM     10  C   UNL     1       2.911 -12.058 -34.166  1.00  0.00     0.146 A 
ATOM     11  O   UNL     1       2.319 -12.189 -32.986  1.00  0.00    -0.452 OA
ENDROOT
BRANCH   1  12
ATOM     12  C   UNL     1       1.988 -11.810 -30.629  1.00  0.00     0.025 A 
ATOM     13  C   UNL     1       0.735 -11.216 -30.402  1.00  0.00     0.016 A 
ATOM     14  C   UNL     1       0.036 -11.471 -29.220  1.00  0.00     0.051 A 
ATOM     15  C   UNL     1       0.572 -12.334 -28.255  1.00  0.00     0.157 A 
ATOM     16  C   UNL     1       2.511 -12.691 -29.668  1.00  0.00     0.062 A 
ATOM     17  C   UNL     1       1.810 -12.947 -28.480  1.00  0.00     0.158 A 
BRANCH  15  18
ATOM     18  O   UNL     1      -0.122 -12.591 -27.074  1.00  0.00    -0.504 OA
ATOM     19  H   UNL     1      -0.918 -13.218 -27.052  1.00  0.00     0.293 HD
ENDBRANCH  15  18
BRANCH  17  20
ATOM     20  O   UNL     1       2.338 -13.811 -27.523  1.00  0.00    -0.504 OA
ATOM     21  H   UNL     1       2.720 -13.465 -26.650  1.00  0.00     0.293 HD
ENDBRANCH  17  20
ENDBRANCH   1  12
BRANCH   2  22
ATOM     22  O   UNL     1       4.340 -10.121 -30.778  1.00  0.00    -0.502 OA
ATOM     23  H   UNL     1       3.830 -10.143 -29.904  1.00  0.00     0.293 HD
ENDBRANCH   2  22
BRANCH   6  24
ATOM     24  O   UNL     1       5.877 -10.496 -35.864  1.00  0.00    -0.507 OA
ATOM     25  H   UNL     1       6.075  -9.972 -36.702  1.00  0.00     0.293 HD
ENDBRANCH   6  24
BRANCH   8  26
ATOM     26  O   UNL     1       2.360 -13.256 -37.612  1.00  0.00    -0.508 OA
ATOM     27  H   UNL     1       2.823 -14.034 -38.067  1.00  0.00     0.293 HD
ENDBRANCH   8  26
TORSDOF 6
ENDMDL
MODEL 3
REMARK VINA RESULT:    -6.080      1.468      7.034
REMARK INTER + INTRA:          -7.579
REMARK INTER:                  -7.302
REMARK INTRA:                  -0.277
REMARK UNBOUND:                -0.255
REMARK SMILES O=c1c(O)c(-c2ccc(O)c(O)c2)oc2cc(O)cc(O)c12
REMARK SMILES IDX 5 1 3 2 2 3 1 4 22 5 20 6 19 7 17 8 16 9 15 10 14 11 6 12
REMARK SMILES IDX 7 13 8 14 9 15 13 16 11 17 10 18 12 20 4 22 21 24 18 26
REMARK H PARENT 10 19 12 21 4 23 21 25 18 27
REMARK Flexibility Score: inf
ROOT
ATOM      1  C   UNL     1       2.743 -11.683 -31.872  1.00  0.00     0.180 A 
ATOM      2  C   UNL     1       3.879 -10.856 -31.908  1.00  0.00     0.208 A 
ATOM      3  C   UNL     1       4.529 -10.644 -33.135  1.00  0.00     0.238 A 
ATOM      4  O   UNL     1       5.500  -9.844 -33.171  1.00  0.00    -0.285 OA
ATOM      5  C   UNL     1       4.071 -11.306 -34.299  1.00  0.00     0.111 A 
ATOM      6  C   UNL     1       4.679 -11.200 -35.586  1.00  0.00     0.134 A 
ATOM      7  C   UNL     1       4.075 -11.817 -36.689  1.00  0.00     0.093 A 
ATOM      8  C   UNL     1       2.921 -12.588 -36.540  1.00  0.00     0.123 A 
ATOM      9  C   UNL     1       2.350 -12.742 -35.279  1.00  0.00     0.094 A 
ATOM     10  C   UNL     1       2.907 -12.108 -34.166  1.00  0.00     0.146 A 
ATOM     11  O   UNL     1       2.317 -12.265 -32.987  1.00  0.00    -0.452 OA
ENDROOT
BRANCH   1  12
ATOM     12  C   UNL     1       1.996 -11.944 -30.620  1.00  0.00     0.025 A 
ATOM     13  C   UNL     1       2.484 -12.836 -29.650  1.00  0.00     0.016 A 
ATOM     14  C   UNL     1       1.773 -13.047 -28.465  1.00  0.00     0.051 A 
ATOM     15  C   UNL     1       0.576 -12.360 -28.228  1.00  0.00     0.157 A 
ATOM     16  C   UNL     1       0.806 -11.242 -30.368  1.00  0.00     0.062 A 
ATOM     17  C   UNL     1       0.092 -11.455 -29.179  1.00  0.00     0.158 A 
BRANCH  15  18
ATOM     18  O   UNL     1      -0.136 -12.569 -27.047  1.00  0.00    -0.504 OA
ATOM     19  H   UNL     1       0.246 -13.123 -26.289  1.00  0.00     0.293 HD
ENDBRANCH  15  18
BRANCH  17  20
ATOM     20  O   UNL     1      -1.096 -10.767 -28.937  1.00  0.00    -0.504 OA
ATOM     21  H   UNL     1      -1.097  -9.835 -28.539  1.00  0.00     0.293 HD
ENDBRANCH  17  20
ENDBRANCH   1  12
BRANCH   2  22
ATOM     22  O   UNL     1       4.362 -10.272 -30.733  1.00  0.00    -0.502 OA
ATOM     23  H   UNL     1       5.126 -10.670 -30.202  1.00  0.00     0.293 HD
ENDBRANCH   2  22
BRANCH   6  24
ATOM     24  O   UNL     1       5.882 -10.530 -35.831  1.00  0.00    -0.507 OA
ATOM     25  H   UNL     1       6.483 -10.143 -35.121  1.00  0.00     0.293 HD
ENDBRANCH   6  24
BRANCH   8  26
ATOM     26  O   UNL     1       2.336 -13.212 -37.640  1.00  0.00    -0.508 OA
ATOM     27  H   UNL     1       2.749 -13.154 -38.563  1.00  0.00     0.293 HD
ENDBRANCH   8  26
TORSDOF 6
ENDMDL
MODEL 4
REMARK VINA RESULT:    -6.068      1.225      2.879
REMARK INTER + INTRA:          -7.564
REMARK INTER:                  -7.308
REMARK INTRA:                  -0.256
REMARK UNBOUND:                -0.255
REMARK SMILES O=c1c(O)c(-c2ccc(O)c(O)c2)oc2cc(O)cc(O)c12
REMARK SMILES IDX 5 1 3 2 2 3 1 4 22 5 20 6 19 7 17 8 16 9 15 10 14 11 6 12
REMARK SMILES IDX 7 13 8 14 9 15 13 16 11 17 10 18 12 20 4 22 21 24 18 26
REMARK H PARENT 10 19 12 21 4 23 21 25 18 27
REMARK Flexibility Score: inf
ROOT
ATOM      1  C   UNL     1       2.386 -11.638 -32.660  1.00  0.00     0.180 A 
ATOM      2  C   UNL     1       2.850 -12.415 -31.585  1.00  0.00     0.208 A 
ATOM      3  C   UNL     1       2.118 -12.427 -30.386  1.00  0.00     0.238 A 
ATOM      4  O   UNL     1       2.499 -13.183 -29.455  1.00  0.00    -0.285 OA
ATOM      5  C   UNL     1       0.964 -11.617 -30.257  1.00  0.00     0.111 A 
ATOM      6  C   UNL     1       0.171 -11.515 -29.074  1.00  0.00     0.134 A 
ATOM      7  C   UNL     1      -1.011 -10.764 -29.097  1.00  0.00     0.093 A 
ATOM      8  C   UNL     1      -1.394 -10.059 -30.239  1.00  0.00     0.123 A 
ATOM      9  C   UNL     1      -0.598 -10.107 -31.382  1.00  0.00     0.094 A 
ATOM     10  C   UNL     1       0.566 -10.879 -31.403  1.00  0.00     0.146 A 
ATOM     11  O   UNL     1       1.282 -10.914 -32.520  1.00  0.00    -0.452 OA
ENDROOT
BRANCH   1  12
ATOM     12  C   UNL     1       3.094 -11.586 -33.959  1.00  0.00     0.025 A 
ATOM     13  C   UNL     1       4.301 -10.880 -34.107  1.00  0.00     0.016 A 
ATOM     14  C   UNL     1       4.964 -10.865 -35.337  1.00  0.00     0.051 A 
ATOM     15  C   UNL     1       4.440 -11.566 -36.430  1.00  0.00     0.157 A 
ATOM     16  C   UNL     1       2.584 -12.304 -35.053  1.00  0.00     0.062 A 
ATOM     17  C   UNL     1       3.250 -12.289 -36.288  1.00  0.00     0.158 A 
BRANCH  15  18
ATOM     18  O   UNL     1       5.098 -11.553 -37.659  1.00  0.00    -0.504 OA
ATOM     19  H   UNL     1       4.591 -11.462 -38.531  1.00  0.00     0.293 HD
ENDBRANCH  15  18
BRANCH  17  20
ATOM     20  O   UNL     1       2.734 -12.992 -37.375  1.00  0.00    -0.504 OA
ATOM     21  H   UNL     1       1.736 -13.089 -37.518  1.00  0.00     0.293 HD
ENDBRANCH  17  20
ENDBRANCH   1  12
BRANCH   2  22
ATOM     22  O   UNL     1       4.034 -13.149 -31.706  1.00  0.00    -0.502 OA
ATOM     23  H   UNL     1       4.366 -13.502 -32.595  1.00  0.00     0.293 HD
ENDBRANCH   2  22
BRANCH   6  24
ATOM     24  O   UNL     1       0.508 -12.106 -27.852  1.00  0.00    -0.507 OA
ATOM     25  H   UNL     1       0.829 -13.055 -27.737  1.00  0.00     0.293 HD
ENDBRANCH   6  24
BRANCH   8  26
ATOM     26  O   UNL     1      -2.562  -9.299 -30.247  1.00  0.00    -0.508 OA
ATOM     27  H   UNL     1      -2.736  -8.601 -30.961  1.00  0.00     0.293 HD
ENDBRANCH   8  26
TORSDOF 6
ENDMDL
MODEL 5
REMARK VINA RESULT:    -6.024      2.511      3.682
REMARK INTER + INTRA:          -7.512
REMARK INTER:                  -7.429
REMARK INTRA:                  -0.083
REMARK UNBOUND:                -0.255
REMARK SMILES O=c1c(O)c(-c2ccc(O)c(O)c2)oc2cc(O)cc(O)c12
REMARK SMILES IDX 5 1 3 2 2 3 1 4 22 5 20 6 19 7 17 8 16 9 15 10 14 11 6 12
REMARK SMILES IDX 7 13 8 14 9 15 13 16 11 17 10 18 12 20 4 22 21 24 18 26
REMARK H PARENT 10 19 12 21 4 23 21 25 18 27
REMARK Flexibility Score: inf
ROOT
ATOM      1  C   UNL     1       3.012 -11.776 -31.202  1.00  0.00     0.180 A 
ATOM      2  C   UNL     1       2.623 -12.828 -30.355  1.00  0.00     0.208 A 
ATOM      3  C   UNL     1       2.534 -12.594 -28.973  1.00  0.00     0.238 A 
ATOM      4  O   UNL     1       2.114 -13.519 -28.231  1.00  0.00    -0.285 OA
ATOM      5  C   UNL     1       2.891 -11.329 -28.448  1.00  0.00     0.111 A 
ATOM      6  C   UNL     1       2.881 -10.993 -27.061  1.00  0.00     0.134 A 
ATOM      7  C   UNL     1       3.151  -9.676 -26.666  1.00  0.00     0.093 A 
ATOM      8  C   UNL     1       3.491  -8.699 -27.604  1.00  0.00     0.123 A 
ATOM      9  C   UNL     1       3.556  -9.030 -28.956  1.00  0.00     0.094 A 
ATOM     10  C   UNL     1       3.255 -10.325 -29.384  1.00  0.00     0.146 A 
ATOM     11  O   UNL     1       3.308 -10.590 -30.684  1.00  0.00    -0.452 OA
ENDROOT
BRANCH   1  12
ATOM     12  C   UNL     1       3.115 -11.941 -32.669  1.00  0.00     0.025 A 
ATOM     13  C   UNL     1       2.027 -12.402 -33.432  1.00  0.00     0.016 A 
ATOM     14  C   UNL     1       2.140 -12.527 -34.819  1.00  0.00     0.051 A 
ATOM     15  C   UNL     1       3.334 -12.180 -35.464  1.00  0.00     0.157 A 
ATOM     16  C   UNL     1       4.302 -11.575 -33.324  1.00  0.00     0.062 A 
ATOM     17  C   UNL     1       4.416 -11.701 -34.716  1.00  0.00     0.158 A 
BRANCH  15  18
ATOM     18  O   UNL     1       3.451 -12.304 -36.848  1.00  0.00    -0.504 OA
ATOM     19  H   UNL     1       2.837 -12.910 -37.379  1.00  0.00     0.293 HD
ENDBRANCH  15  18
BRANCH  17  20
ATOM     20  O   UNL     1       5.600 -11.349 -35.361  1.00  0.00    -0.504 OA
ATOM     21  H   UNL     1       6.487 -11.338 -34.872  1.00  0.00     0.293 HD
ENDBRANCH  17  20
ENDBRANCH   1  12
BRANCH   2  22
ATOM     22  O   UNL     1       2.349 -14.093 -30.884  1.00  0.00    -0.502 OA
ATOM     23  H   UNL     1       3.059 -14.808 -30.980  1.00  0.00     0.293 HD
ENDBRANCH   2  22
BRANCH   6  24
ATOM     24  O   UNL     1       2.643 -11.912 -26.034  1.00  0.00    -0.507 OA
ATOM     25  H   UNL     1       1.754 -12.349 -25.844  1.00  0.00     0.293 HD
ENDBRANCH   6  24
BRANCH   8  26
ATOM     26  O   UNL     1       3.775  -7.396 -27.201  1.00  0.00    -0.508 OA
ATOM     27  H   UNL     1       3.601  -6.604 -27.808  1.00  0.00     0.293 HD
ENDBRANCH   8  26
TORSDOF 6
ENDMDL
MODEL 6
REMARK VINA RESULT:    -5.822      2.486      3.152
REMARK INTER + INTRA:          -7.268
REMARK INTER:                  -6.961
REMARK INTRA:                  -0.307
REMARK UNBOUND:                -0.255
REMARK SMILES O=c1c(O)c(-c2ccc(O)c(O)c2)oc2cc(O)cc(O)c12
REMARK SMILES IDX 5 1 3 2 2 3 1 4 22 5 20 6 19 7 17 8 16 9 15 10 14 11 6 12
REMARK SMILES IDX 7 13 8 14 9 15 13 16 11 17 10 18 12 20 4 22 21 24 18 26
REMARK H PARENT 10 19 12 21 4 23 21 25 18 27
REMARK Flexibility Score: inf
ROOT
ATOM      1  C   UNL     1       3.385 -11.009 -32.018  1.00  0.00     0.180 A 
ATOM      2  C   UNL     1       2.622 -12.188 -31.964  1.00  0.00     0.208 A 
ATOM      3  C   UNL     1       2.286 -12.726 -30.711  1.00  0.00     0.238 A 
ATOM      4  O   UNL     1       1.540 -13.739 -30.671  1.00  0.00    -0.285 OA
ATOM      5  C   UNL     1       2.766 -12.113 -29.529  1.00  0.00     0.111 A 
ATOM      6  C   UNL     1       2.525 -12.596 -28.207  1.00  0.00     0.134 A 
ATOM      7  C   UNL     1       2.960 -11.847 -27.107  1.00  0.00     0.093 A 
ATOM      8  C   UNL     1       3.682 -10.665 -27.281  1.00  0.00     0.123 A 
ATOM      9  C   UNL     1       3.970 -10.212 -28.567  1.00  0.00     0.094 A 
ATOM     10  C   UNL     1       3.516 -10.917 -29.685  1.00  0.00     0.146 A 
ATOM     11  O   UNL     1       3.794 -10.438 -30.891  1.00  0.00    -0.452 OA
ENDROOT
BRANCH   1  12
ATOM     12  C   UNL     1       3.767 -10.374 -33.300  1.00  0.00     0.025 A 
ATOM     13  C   UNL     1       3.062  -9.269 -33.807  1.00  0.00     0.016 A 
ATOM     14  C   UNL     1       3.456  -8.670 -35.007  1.00  0.00     0.051 A 
ATOM     15  C   UNL     1       4.566  -9.159 -35.708  1.00  0.00     0.157 A 
ATOM     16  C   UNL     1       4.892 -10.846 -33.996  1.00  0.00     0.062 A 
ATOM     17  C   UNL     1       5.287 -10.247 -35.201  1.00  0.00     0.158 A 
BRANCH  15  18
ATOM     18  O   UNL     1       4.962  -8.565 -36.906  1.00  0.00    -0.504 OA
ATOM     19  H   UNL     1       4.338  -7.962 -37.429  1.00  0.00     0.293 HD
ENDBRANCH  15  18
BRANCH  17  20
ATOM     20  O   UNL     1       6.396 -10.726 -35.897  1.00  0.00    -0.504 OA
ATOM     21  H   UNL     1       6.962 -10.117 -36.475  1.00  0.00     0.293 HD
ENDBRANCH  17  20
ENDBRANCH   1  12
BRANCH   2  22
ATOM     22  O   UNL     1       2.222 -12.822 -33.144  1.00  0.00    -0.502 OA
ATOM     23  H   UNL     1       2.341 -12.399 -34.056  1.00  0.00     0.293 HD
ENDBRANCH   2  22
BRANCH   6  24
ATOM     24  O   UNL     1       1.892 -13.810 -27.921  1.00  0.00    -0.507 OA
ATOM     25  H   UNL     1       1.662 -14.138 -26.995  1.00  0.00     0.293 HD
ENDBRANCH   6  24
BRANCH   8  26
ATOM     26  O   UNL     1       4.126  -9.934 -26.181  1.00  0.00    -0.508 OA
ATOM     27  H   UNL     1       4.956 -10.203 -25.667  1.00  0.00     0.293 HD
ENDBRANCH   8  26
TORSDOF 6
ENDMDL
MODEL 7
REMARK VINA RESULT:    -5.788      2.814      4.454
REMARK INTER + INTRA:          -7.227
REMARK INTER:                  -6.911
REMARK INTRA:                  -0.315
REMARK UNBOUND:                -0.255
REMARK SMILES O=c1c(O)c(-c2ccc(O)c(O)c2)oc2cc(O)cc(O)c12
REMARK SMILES IDX 5 1 3 2 2 3 1 4 22 5 20 6 19 7 17 8 16 9 15 10 14 11 6 12
REMARK SMILES IDX 7 13 8 14 9 15 13 16 11 17 10 18 12 20 4 22 21 24 18 26
REMARK H PARENT 10 19 12 21 4 23 21 25 18 27
REMARK Flexibility Score: inf
ROOT
ATOM      1  C   UNL     1       1.991 -12.158 -28.664  1.00  0.00     0.180 A 
ATOM      2  C   UNL     1       0.618 -11.859 -28.672  1.00  0.00     0.208 A 
ATOM      3  C   UNL     1      -0.089 -11.872 -27.459  1.00  0.00     0.238 A 
ATOM      4  O   UNL     1      -1.300 -11.529 -27.464  1.00  0.00    -0.285 OA
ATOM      5  C   UNL     1       0.570 -12.242 -26.262  1.00  0.00     0.111 A 
ATOM      6  C   UNL     1      -0.058 -12.333 -24.983  1.00  0.00     0.134 A 
ATOM      7  C   UNL     1       0.719 -12.605 -23.849  1.00  0.00     0.093 A 
ATOM      8  C   UNL     1       2.089 -12.851 -23.957  1.00  0.00     0.123 A 
ATOM      9  C   UNL     1       2.701 -12.818 -25.208  1.00  0.00     0.094 A 
ATOM     10  C   UNL     1       1.961 -12.512 -26.353  1.00  0.00     0.146 A 
ATOM     11  O   UNL     1       2.590 -12.470 -27.521  1.00  0.00    -0.452 OA
ENDROOT
BRANCH   1  12
ATOM     12  C   UNL     1       2.808 -12.151 -29.899  1.00  0.00     0.025 A 
ATOM     13  C   UNL     1       2.862 -13.271 -30.747  1.00  0.00     0.016 A 
ATOM     14  C   UNL     1       3.620 -13.232 -31.921  1.00  0.00     0.051 A 
ATOM     15  C   UNL     1       4.321 -12.071 -32.270  1.00  0.00     0.157 A 
ATOM     16  C   UNL     1       3.496 -10.982 -30.265  1.00  0.00     0.062 A 
ATOM     17  C   UNL     1       4.257 -10.943 -31.442  1.00  0.00     0.158 A 
BRANCH  15  18
ATOM     18  O   UNL     1       5.079 -12.028 -33.439  1.00  0.00    -0.504 OA
ATOM     19  H   UNL     1       4.684 -11.708 -34.315  1.00  0.00     0.293 HD
ENDBRANCH  15  18
BRANCH  17  20
ATOM     20  O   UNL     1       4.950  -9.787 -31.796  1.00  0.00    -0.504 OA
ATOM     21  H   UNL     1       5.180  -9.581 -32.761  1.00  0.00     0.293 HD
ENDBRANCH  17  20
ENDBRANCH   1  12
BRANCH   2  22
ATOM     22  O   UNL     1      -0.032 -11.570 -29.875  1.00  0.00    -0.502 OA
ATOM     23  H   UNL     1      -0.332 -12.293 -30.518  1.00  0.00     0.293 HD
ENDBRANCH   2  22
BRANCH   6  24
ATOM     24  O   UNL     1      -1.434 -12.193 -24.774  1.00  0.00    -0.507 OA
ATOM     25  H   UNL     1      -1.980 -11.389 -25.041  1.00  0.00     0.293 HD
ENDBRANCH   6  24
BRANCH   8  26
ATOM     26  O   UNL     1       2.851 -13.138 -22.827  1.00  0.00    -0.508 OA
ATOM     27  H   UNL     1       3.529 -13.891 -22.821  1.00  0.00     0.293 HD
ENDBRANCH   8  26
TORSDOF 6
ENDMDL
MODEL 8
REMARK VINA RESULT:    -5.780      2.508      7.212
REMARK INTER + INTRA:          -7.218
REMARK INTER:                  -7.019
REMARK INTRA:                  -0.199
REMARK UNBOUND:                -0.255
REMARK SMILES O=c1c(O)c(-c2ccc(O)c(O)c2)oc2cc(O)cc(O)c12
REMARK SMILES IDX 5 1 3 2 2 3 1 4 22 5 20 6 19 7 17 8 16 9 15 10 14 11 6 12
REMARK SMILES IDX 7 13 8 14 9 15 13 16 11 17 10 18 12 20 4 22 21 24 18 26
REMARK H PARENT 10 19 12 21 4 23 21 25 18 27
REMARK Flexibility Score: inf
ROOT
ATOM      1  C   UNL     1       2.285 -11.814 -29.065  1.00  0.00     0.180 A 
ATOM      2  C   UNL     1       0.954 -11.768 -29.515  1.00  0.00     0.208 A 
ATOM      3  C   UNL     1       0.702 -11.752 -30.897  1.00  0.00     0.238 A 
ATOM      4  O   UNL     1      -0.492 -11.787 -31.291  1.00  0.00    -0.285 OA
ATOM      5  C   UNL     1       1.783 -11.723 -31.810  1.00  0.00     0.111 A 
ATOM      6  C   UNL     1       1.646 -11.660 -33.230  1.00  0.00     0.134 A 
ATOM      7  C   UNL     1       2.786 -11.744 -34.039  1.00  0.00     0.093 A 
ATOM      8  C   UNL     1       4.062 -11.825 -33.479  1.00  0.00     0.123 A 
ATOM      9  C   UNL     1       4.211 -11.831 -32.094  1.00  0.00     0.094 A 
ATOM     10  C   UNL     1       3.091 -11.788 -31.260  1.00  0.00     0.146 A 
ATOM     11  O   UNL     1       3.278 -11.819 -29.946  1.00  0.00    -0.452 OA
ENDROOT
BRANCH   1  12
ATOM     12  C   UNL     1       2.630 -11.848 -27.625  1.00  0.00     0.025 A 
ATOM     13  C   UNL     1       2.296 -12.950 -26.819  1.00  0.00     0.016 A 
ATOM     14  C   UNL     1       2.654 -12.970 -25.468  1.00  0.00     0.051 A 
ATOM     15  C   UNL     1       3.362 -11.898 -24.909  1.00  0.00     0.157 A 
ATOM     16  C   UNL     1       3.358 -10.786 -27.065  1.00  0.00     0.062 A 
ATOM     17  C   UNL     1       3.716 -10.805 -25.709  1.00  0.00     0.158 A 
BRANCH  15  18
ATOM     18  O   UNL     1       3.720 -11.914 -23.562  1.00  0.00    -0.504 OA
ATOM     19  H   UNL     1       4.022 -11.073 -23.084  1.00  0.00     0.293 HD
ENDBRANCH  15  18
BRANCH  17  20
ATOM     20  O   UNL     1       4.427  -9.743 -25.152  1.00  0.00    -0.504 OA
ATOM     21  H   UNL     1       5.002  -9.134 -25.722  1.00  0.00     0.293 HD
ENDBRANCH  17  20
ENDBRANCH   1  12
BRANCH   2  22
ATOM     22  O   UNL     1      -0.098 -11.720 -28.596  1.00  0.00    -0.502 OA
ATOM     23  H   UNL     1      -0.897 -12.341 -28.651  1.00  0.00     0.293 HD
ENDBRANCH   2  22
BRANCH   6  24
ATOM     24  O   UNL     1       0.425 -11.490 -33.892  1.00  0.00    -0.507 OA
ATOM     25  H   UNL     1      -0.482 -11.640 -33.479  1.00  0.00     0.293 HD
ENDBRANCH   6  24
BRANCH   8  26
ATOM     26  O   UNL     1       5.192 -11.890 -34.291  1.00  0.00    -0.508 OA
ATOM     27  H   UNL     1       5.297 -12.610 -34.996  1.00  0.00     0.293 HD
ENDBRANCH   8  26
TORSDOF 6
ENDMDL
MODEL 9
REMARK VINA RESULT:    -5.743      3.932      6.325
REMARK INTER + INTRA:          -7.173
REMARK INTER:                  -7.035
REMARK INTRA:                  -0.138
REMARK UNBOUND:                -0.255
REMARK SMILES O=c1c(O)c(-c2ccc(O)c(O)c2)oc2cc(O)cc(O)c12
REMARK SMILES IDX 5 1 3 2 2 3 1 4 22 5 20 6 19 7 17 8 16 9 15 10 14 11 6 12
REMARK SMILES IDX 7 13 8 14 9 15 13 16 11 17 10 18 12 20 4 22 21 24 18 26
REMARK H PARENT 10 19 12 21 4 23 21 25 18 27
REMARK Flexibility Score: inf
ROOT
ATOM      1  C   UNL     1       2.516 -11.781 -27.008  1.00  0.00     0.180 A 
ATOM      2  C   UNL     1       1.436 -12.282 -26.260  1.00  0.00     0.208 A 
ATOM      3  C   UNL     1       1.499 -12.236 -24.858  1.00  0.00     0.238 A 
ATOM      4  O   UNL     1       0.497 -12.617 -24.198  1.00  0.00    -0.285 OA
ATOM      5  C   UNL     1       2.662 -11.744 -24.220  1.00  0.00     0.111 A 
ATOM      6  C   UNL     1       2.853 -11.693 -22.806  1.00  0.00     0.134 A 
ATOM      7  C   UNL     1       4.004 -11.086 -22.285  1.00  0.00     0.093 A 
ATOM      8  C   UNL     1       4.998 -10.587 -23.128  1.00  0.00     0.123 A 
ATOM      9  C   UNL     1       4.847 -10.681 -24.509  1.00  0.00     0.094 A 
ATOM     10  C   UNL     1       3.693 -11.246 -25.059  1.00  0.00     0.146 A 
ATOM     11  O   UNL     1       3.581 -11.295 -26.381  1.00  0.00    -0.452 OA
ENDROOT
BRANCH   1  12
ATOM     12  C   UNL     1       2.518 -11.781 -28.489  1.00  0.00     0.025 A 
ATOM     13  C   UNL     1       2.602 -10.584 -29.220  1.00  0.00     0.016 A 
ATOM     14  C   UNL     1       2.627 -10.610 -30.618  1.00  0.00     0.051 A 
ATOM     15  C   UNL     1       2.584 -11.832 -31.301  1.00  0.00     0.157 A 
ATOM     16  C   UNL     1       2.496 -13.004 -29.179  1.00  0.00     0.062 A 
ATOM     17  C   UNL     1       2.521 -13.031 -30.581  1.00  0.00     0.158 A 
BRANCH  15  18
ATOM     18  O   UNL     1       2.608 -11.863 -32.694  1.00  0.00    -0.504 OA
ATOM     19  H   UNL     1       1.783 -11.650 -33.243  1.00  0.00     0.293 HD
ENDBRANCH  15  18
BRANCH  17  20
ATOM     20  O   UNL     1       2.485 -14.246 -31.263  1.00  0.00    -0.504 OA
ATOM     21  H   UNL     1       1.815 -14.968 -31.026  1.00  0.00     0.293 HD
ENDBRANCH  17  20
ENDBRANCH   1  12
BRANCH   2  22
ATOM     22  O   UNL     1       0.327 -12.834 -26.909  1.00  0.00    -0.502 OA
ATOM     23  H   UNL     1       0.302 -13.797 -27.219  1.00  0.00     0.293 HD
ENDBRANCH   2  22
BRANCH   6  24
ATOM     24  O   UNL     1       1.965 -12.241 -21.875  1.00  0.00    -0.507 OA
ATOM     25  H   UNL     1       2.066 -12.179 -20.874  1.00  0.00     0.293 HD
ENDBRANCH   6  24
BRANCH   8  26
ATOM     26  O   UNL     1       6.148 -10.001 -22.602  1.00  0.00    -0.508 OA
ATOM     27  H   UNL     1       7.071 -10.261 -22.925  1.00  0.00     0.293 HD
ENDBRANCH   8  26
TORSDOF 6
ENDMDL
