MODEL 1
REMARK VINA RESULT:    -5.126      0.000      0.000
REMARK INTER + INTRA:          -9.520
REMARK INTER:                  -8.123
REMARK INTRA:                  -1.397
REMARK UNBOUND:                -1.397
REMARK SMILES CCCCCCCCCCCC(=O)[O-]
REMARK SMILES IDX 7 1 8 2 9 3 10 4 11 5 12 6 13 7 14 8 6 9 5 10 4 11 3 12 2 13
REMARK SMILES IDX 1 14
REMARK H PARENT
REMARK Flexibility Score: inf
ROOT
ATOM      1  C   UNL     1      53.166  16.752   1.895  1.00  0.00     0.000 C 
ENDROOT
BRANCH   1   2
ATOM      2  C   UNL     1      54.667  16.851   2.207  1.00  0.00     0.000 C 
BRANCH   2   3
ATOM      3  C   UNL     1      55.411  17.792   1.246  1.00  0.00     0.000 C 
BRANCH   3   4
ATOM      4  C   UNL     1      56.281  17.034   0.231  1.00  0.00     0.006 C 
BRANCH   4   5
ATOM      5  C   UNL     1      57.599  16.584   0.870  1.00  0.00     0.053 C 
BRANCH   5   6
ATOM      6  C   UNL     1      58.109  15.346   0.201  1.00  0.00     0.041 C 
ATOM      7  O   UNL     1      57.545  14.238   0.402  1.00  0.00    -0.550 OA
ATOM      8  O   UNL     1      59.178  15.425  -0.684  1.00  0.00    -0.550 OA
ENDBRANCH   5   6
ENDBRANCH   4   5
ENDBRANCH   3   4
ENDBRANCH   2   3
ENDBRANCH   1   2
BRANCH   1   9
ATOM      9  C   UNL     1      52.765  15.305   1.582  1.00  0.00     0.000 C 
BRANCH   9  10
ATOM     10  C   UNL     1      54.002  14.416   1.404  1.00  0.00    -0.000 C 
BRANCH  10  11
ATOM     11  C   UNL     1      54.145  13.957  -0.052  1.00  0.00    -0.000 C 
BRANCH  11  12
ATOM     12  C   UNL     1      53.013  14.524  -0.920  1.00  0.00    -0.000 C 
BRANCH  12  13
ATOM     13  C   UNL     1      53.500  15.615  -1.887  1.00  0.00    -0.003 C 
ATOM     14  C   UNL     1      52.582  16.836  -1.912  1.00  0.00     0.004 C 
ENDBRANCH  12  13
ENDBRANCH  11  12
ENDBRANCH  10  11
ENDBRANCH   9  10
ENDBRANCH   1   9
TORSDOF 10
ENDMDL
MODEL 2
REMARK VINA RESULT:    -5.123      0.917      2.441
REMARK INTER + INTRA:          -9.515
REMARK INTER:                  -7.866
REMARK INTRA:                  -1.649
REMARK UNBOUND:                -1.397
REMARK SMILES CCCCCCCCCCCC(=O)[O-]
REMARK SMILES IDX 7 1 8 2 9 3 10 4 11 5 12 6 13 7 14 8 6 9 5 10 4 11 3 12 2 13
REMARK SMILES IDX 1 14
REMARK H PARENT
REMARK Flexibility Score: inf
ROOT
ATOM      1  C   UNL     1      53.329  17.840  -1.030  1.00  0.00     0.000 C 
ENDROOT
BRANCH   1   2
ATOM      2  C   UNL     1      54.804  17.534  -0.729  1.00  0.00     0.000 C 
BRANCH   2   3
ATOM      3  C   UNL     1      55.183  17.824   0.732  1.00  0.00     0.000 C 
BRANCH   3   4
ATOM      4  C   UNL     1      56.482  17.121   1.157  1.00  0.00     0.006 C 
BRANCH   4   5
ATOM      5  C   UNL     1      57.030  16.252   0.021  1.00  0.00     0.053 C 
BRANCH   5   6
ATOM      6  C   UNL     1      58.119  15.357   0.524  1.00  0.00     0.041 C 
ATOM      7  O   UNL     1      57.941  14.111   0.577  1.00  0.00    -0.550 OA
ATOM      8  O   UNL     1      59.348  15.894   0.886  1.00  0.00    -0.550 OA
ENDBRANCH   5   6
ENDBRANCH   4   5
ENDBRANCH   3   4
ENDBRANCH   2   3
ENDBRANCH   1   2
BRANCH   1   9
ATOM      9  C   UNL     1      52.694  16.717  -1.858  1.00  0.00     0.000 C 
BRANCH   9  10
ATOM     10  C   UNL     1      53.606  15.485  -1.909  1.00  0.00    -0.000 C 
BRANCH  10  11
ATOM     11  C   UNL     1      53.098  14.385  -0.968  1.00  0.00    -0.000 C 
BRANCH  11  12
ATOM     12  C   UNL     1      54.231  13.863  -0.072  1.00  0.00    -0.000 C 
BRANCH  12  13
ATOM     13  C   UNL     1      54.093  14.330   1.386  1.00  0.00    -0.003 C 
ATOM     14  C   UNL     1      52.813  15.127   1.633  1.00  0.00     0.004 C 
ENDBRANCH  12  13
ENDBRANCH  11  12
ENDBRANCH  10  11
ENDBRANCH   9  10
ENDBRANCH   1   9
TORSDOF 10
ENDMDL
MODEL 3
REMARK VINA RESULT:    -5.121      1.310      3.875
REMARK INTER + INTRA:          -9.512
REMARK INTER:                  -8.057
REMARK INTRA:                  -1.454
REMARK UNBOUND:                -1.397
REMARK SMILES CCCCCCCCCCCC(=O)[O-]
REMARK SMILES IDX 7 1 8 2 9 3 10 4 11 5 12 6 13 7 14 8 6 9 5 10 4 11 3 12 2 13
REMARK SMILES IDX 1 14
REMARK H PARENT
REMARK Flexibility Score: inf
ROOT
ATOM      1  C   UNL     1      53.323  16.967  -1.413  1.00  0.00     0.000 C 
ENDROOT
BRANCH   1   2
ATOM      2  C   UNL     1      53.819  15.533  -1.654  1.00  0.00     0.000 C 
BRANCH   2   3
ATOM      3  C   UNL     1      53.208  14.521  -0.672  1.00  0.00     0.000 C 
BRANCH   3   4
ATOM      4  C   UNL     1      54.226  14.007   0.359  1.00  0.00     0.006 C 
BRANCH   4   5
ATOM      5  C   UNL     1      55.244  13.072  -0.299  1.00  0.00     0.053 C 
BRANCH   5   6
ATOM      6  C   UNL     1      56.528  13.071   0.469  1.00  0.00     0.041 C 
ATOM      7  O   UNL     1      56.671  12.313   1.465  1.00  0.00    -0.550 OA
ATOM      8  O   UNL     1      57.586  13.872   0.057  1.00  0.00    -0.550 OA
ENDBRANCH   5   6
ENDBRANCH   4   5
ENDBRANCH   3   4
ENDBRANCH   2   3
ENDBRANCH   1   2
BRANCH   1   9
ATOM      9  C   UNL     1      54.477  17.884  -0.990  1.00  0.00     0.000 C 
BRANCH   9  10
ATOM     10  C   UNL     1      55.782  17.093  -0.837  1.00  0.00    -0.000 C 
BRANCH  10  11
ATOM     11  C   UNL     1      56.234  17.056   0.628  1.00  0.00    -0.000 C 
BRANCH  11  12
ATOM     12  C   UNL     1      55.334  17.942   1.503  1.00  0.00    -0.000 C 
BRANCH  12  13
ATOM     13  C   UNL     1      54.507  17.129   2.511  1.00  0.00    -0.003 C 
ATOM     14  C   UNL     1      53.014  17.451   2.446  1.00  0.00     0.004 C 
ENDBRANCH  12  13
ENDBRANCH  11  12
ENDBRANCH  10  11
ENDBRANCH   9  10
ENDBRANCH   1   9
TORSDOF 10
ENDMDL
MODEL 4
REMARK VINA RESULT:    -5.069      3.340      5.264
REMARK INTER + INTRA:          -9.429
REMARK INTER:                  -7.994
REMARK INTRA:                  -1.436
REMARK UNBOUND:                -1.397
REMARK SMILES CCCCCCCCCCCC(=O)[O-]
REMARK SMILES IDX 7 1 8 2 9 3 10 4 11 5 12 6 13 7 14 8 6 9 5 10 4 11 3 12 2 13
REMARK SMILES IDX 1 14
REMARK H PARENT
REMARK Flexibility Score: inf
ROOT
ATOM      1  C   UNL     1      54.133  14.220   0.264  1.00  0.00     0.000 C 
ENDROOT
BRANCH   1   2
ATOM      2  C   UNL     1      53.077  14.667  -0.759  1.00  0.00     0.000 C 
BRANCH   2   3
ATOM      3  C   UNL     1      53.640  15.641  -1.806  1.00  0.00     0.000 C 
BRANCH   3   4
ATOM      4  C   UNL     1      52.635  16.734  -2.198  1.00  0.00     0.006 C 
BRANCH   4   5
ATOM      5  C   UNL     1      52.609  17.854  -1.154  1.00  0.00     0.053 C 
BRANCH   5   6
ATOM      6  C   UNL     1      51.203  18.292  -0.889  1.00  0.00     0.041 C 
ATOM      7  O   UNL     1      50.340  18.244  -1.806  1.00  0.00    -0.550 OA
ATOM      8  O   UNL     1      50.831  18.705   0.385  1.00  0.00    -0.550 OA
ENDBRANCH   5   6
ENDBRANCH   4   5
ENDBRANCH   3   4
ENDBRANCH   2   3
ENDBRANCH   1   2
BRANCH   1   9
ATOM      9  C   UNL     1      53.738  14.648   1.683  1.00  0.00     0.000 C 
BRANCH   9  10
ATOM     10  C   UNL     1      52.640  15.718   1.651  1.00  0.00    -0.000 C 
BRANCH  10  11
ATOM     11  C   UNL     1      53.072  16.974   2.417  1.00  0.00    -0.000 C 
BRANCH  11  12
ATOM     12  C   UNL     1      54.602  17.056   2.517  1.00  0.00    -0.000 C 
BRANCH  12  13
ATOM     13  C   UNL     1      55.228  17.850   1.359  1.00  0.00    -0.003 C 
ATOM     14  C   UNL     1      56.459  17.164   0.769  1.00  0.00     0.004 C 
ENDBRANCH  12  13
ENDBRANCH  11  12
ENDBRANCH  10  11
ENDBRANCH   9  10
ENDBRANCH   1   9
TORSDOF 10
ENDMDL
MODEL 5
REMARK VINA RESULT:    -4.912      1.743      3.526
REMARK INTER + INTRA:          -9.181
REMARK INTER:                  -7.726
REMARK INTRA:                  -1.455
REMARK UNBOUND:                -1.397
REMARK SMILES CCCCCCCCCCCC(=O)[O-]
REMARK SMILES IDX 7 1 8 2 9 3 10 4 11 5 12 6 13 7 14 8 6 9 5 10 4 11 3 12 2 13
REMARK SMILES IDX 1 14
REMARK H PARENT
REMARK Flexibility Score: inf
ROOT
ATOM      1  C   UNL     1      55.244  17.965   1.427  1.00  0.00     0.000 C 
ENDROOT
BRANCH   1   2
ATOM      2  C   UNL     1      54.673  17.053   2.523  1.00  0.00     0.000 C 
BRANCH   2   3
ATOM      3  C   UNL     1      53.169  16.790   2.352  1.00  0.00     0.000 C 
BRANCH   3   4
ATOM      4  C   UNL     1      52.877  15.572   1.463  1.00  0.00     0.006 C 
BRANCH   4   5
ATOM      5  C   UNL     1      53.916  14.469   1.689  1.00  0.00     0.053 C 
BRANCH   5   6
ATOM      6  C   UNL     1      54.369  13.899   0.382  1.00  0.00     0.041 C 
ATOM      7  O   UNL     1      55.488  13.328   0.292  1.00  0.00    -0.550 OA
ATOM      8  O   UNL     1      53.533  13.954  -0.727  1.00  0.00    -0.550 OA
ENDBRANCH   5   6
ENDBRANCH   4   5
ENDBRANCH   3   4
ENDBRANCH   2   3
ENDBRANCH   1   2
BRANCH   1   9
ATOM      9  C   UNL     1      56.158  17.180   0.478  1.00  0.00     0.000 C 
BRANCH   9  10
ATOM     10  C   UNL     1      55.539  17.074  -0.921  1.00  0.00    -0.000 C 
BRANCH  10  11
ATOM     11  C   UNL     1      54.366  18.050  -1.080  1.00  0.00    -0.000 C 
BRANCH  11  12
ATOM     12  C   UNL     1      53.119  17.327  -1.610  1.00  0.00    -0.000 C 
BRANCH  12  13
ATOM     13  C   UNL     1      51.812  17.998  -1.158  1.00  0.00    -0.003 C 
ATOM     14  C   UNL     1      50.831  18.217  -2.310  1.00  0.00     0.004 C 
ENDBRANCH  12  13
ENDBRANCH  11  12
ENDBRANCH  10  11
ENDBRANCH   9  10
ENDBRANCH   1   9
TORSDOF 10
ENDMDL
MODEL 6
REMARK VINA RESULT:    -4.887      2.590      3.804
REMARK INTER + INTRA:          -9.142
REMARK INTER:                  -7.668
REMARK INTRA:                  -1.474
REMARK UNBOUND:                -1.397
REMARK SMILES CCCCCCCCCCCC(=O)[O-]
REMARK SMILES IDX 7 1 8 2 9 3 10 4 11 5 12 6 13 7 14 8 6 9 5 10 4 11 3 12 2 13
REMARK SMILES IDX 1 14
REMARK H PARENT
REMARK Flexibility Score: inf
ROOT
ATOM      1  C   UNL     1      54.672  16.854   2.473  1.00  0.00     0.000 C 
ENDROOT
BRANCH   1   2
ATOM      2  C   UNL     1      55.264  17.883   1.499  1.00  0.00     0.000 C 
BRANCH   2   3
ATOM      3  C   UNL     1      56.153  17.238   0.423  1.00  0.00     0.000 C 
BRANCH   3   4
ATOM      4  C   UNL     1      55.438  17.097  -0.929  1.00  0.00     0.006 C 
BRANCH   4   5
ATOM      5  C   UNL     1      54.303  18.117  -1.056  1.00  0.00     0.053 C 
BRANCH   5   6
ATOM      6  C   UNL     1      53.007  17.426  -1.341  1.00  0.00     0.041 C 
ATOM      7  O   UNL     1      51.928  17.887  -0.881  1.00  0.00    -0.550 OA
ATOM      8  O   UNL     1      52.983  16.301  -2.156  1.00  0.00    -0.550 OA
ENDBRANCH   5   6
ENDBRANCH   4   5
ENDBRANCH   3   4
ENDBRANCH   2   3
ENDBRANCH   1   2
BRANCH   1   9
ATOM      9  C   UNL     1      53.153  16.741   2.297  1.00  0.00     0.000 C 
BRANCH   9  10
ATOM     10  C   UNL     1      52.775  15.434   1.589  1.00  0.00    -0.000 C 
BRANCH  10  11
ATOM     11  C   UNL     1      53.967  14.470   1.541  1.00  0.00    -0.000 C 
BRANCH  11  12
ATOM     12  C   UNL     1      54.249  14.018   0.101  1.00  0.00    -0.000 C 
BRANCH  12  13
ATOM     13  C   UNL     1      55.413  13.017   0.014  1.00  0.00    -0.003 C 
ATOM     14  C   UNL     1      56.778  13.680   0.197  1.00  0.00     0.004 C 
ENDBRANCH  12  13
ENDBRANCH  11  12
ENDBRANCH  10  11
ENDBRANCH   9  10
ENDBRANCH   1   9
TORSDOF 10
ENDMDL
MODEL 7
REMARK VINA RESULT:    -4.861      2.427      4.903
REMARK INTER + INTRA:          -9.099
REMARK INTER:                  -7.674
REMARK INTRA:                  -1.426
REMARK UNBOUND:                -1.397
REMARK SMILES CCCCCCCCCCCC(=O)[O-]
REMARK SMILES IDX 7 1 8 2 9 3 10 4 11 5 12 6 13 7 14 8 6 9 5 10 4 11 3 12 2 13
REMARK SMILES IDX 1 14
REMARK H PARENT
REMARK Flexibility Score: inf
ROOT
ATOM      1  C   UNL     1      53.732  15.618  -1.885  1.00  0.00     0.000 C 
ENDROOT
BRANCH   1   2
ATOM      2  C   UNL     1      53.086  14.548  -0.992  1.00  0.00     0.000 C 
BRANCH   2   3
ATOM      3  C   UNL     1      54.072  13.950   0.024  1.00  0.00     0.000 C 
BRANCH   3   4
ATOM      4  C   UNL     1      53.980  14.620   1.403  1.00  0.00     0.006 C 
BRANCH   4   5
ATOM      5  C   UNL     1      52.579  15.192   1.640  1.00  0.00     0.053 C 
BRANCH   5   6
ATOM      6  C   UNL     1      52.659  16.641   2.004  1.00  0.00     0.041 C 
ATOM      7  O   UNL     1      51.747  17.435   1.651  1.00  0.00    -0.550 OA
ATOM      8  O   UNL     1      53.717  17.107   2.776  1.00  0.00    -0.550 OA
ENDBRANCH   5   6
ENDBRANCH   4   5
ENDBRANCH   3   4
ENDBRANCH   2   3
ENDBRANCH   1   2
BRANCH   1   9
ATOM      9  C   UNL     1      53.221  17.018  -1.521  1.00  0.00     0.000 C 
BRANCH   9  10
ATOM     10  C   UNL     1      54.373  17.925  -1.072  1.00  0.00    -0.000 C 
BRANCH  10  11
ATOM     11  C   UNL     1      55.681  17.133  -0.945  1.00  0.00    -0.000 C 
BRANCH  11  12
ATOM     12  C   UNL     1      56.173  17.116   0.509  1.00  0.00    -0.000 C 
BRANCH  12  13
ATOM     13  C   UNL     1      57.552  16.454   0.658  1.00  0.00    -0.003 C 
ATOM     14  C   UNL     1      57.551  14.986   0.233  1.00  0.00     0.004 C 
ENDBRANCH  12  13
ENDBRANCH  11  12
ENDBRANCH  10  11
ENDBRANCH   9  10
ENDBRANCH   1   9
TORSDOF 10
ENDMDL
MODEL 8
REMARK VINA RESULT:    -4.830      1.528      3.287
REMARK INTER + INTRA:          -9.050
REMARK INTER:                  -7.711
REMARK INTRA:                  -1.339
REMARK UNBOUND:                -1.397
REMARK SMILES CCCCCCCCCCCC(=O)[O-]
REMARK SMILES IDX 7 1 8 2 9 3 10 4 11 5 12 6 13 7 14 8 6 9 5 10 4 11 3 12 2 13
REMARK SMILES IDX 1 14
REMARK H PARENT
REMARK Flexibility Score: inf
ROOT
ATOM      1  C   UNL     1      53.130  14.936   1.502  1.00  0.00     0.000 C 
ENDROOT
BRANCH   1   2
ATOM      2  C   UNL     1      53.251  14.760  -0.019  1.00  0.00     0.000 C 
BRANCH   2   3
ATOM      3  C   UNL     1      54.190  13.608  -0.411  1.00  0.00     0.000 C 
BRANCH   3   4
ATOM      4  C   UNL     1      55.503  13.618   0.389  1.00  0.00     0.006 C 
BRANCH   4   5
ATOM      5  C   UNL     1      56.425  12.482  -0.063  1.00  0.00     0.053 C 
BRANCH   5   6
ATOM      6  C   UNL     1      57.856  12.833   0.201  1.00  0.00     0.041 C 
ATOM      7  O   UNL     1      58.162  13.986   0.605  1.00  0.00    -0.550 OA
ATOM      8  O   UNL     1      58.847  11.871   0.050  1.00  0.00    -0.550 OA
ENDBRANCH   5   6
ENDBRANCH   4   5
ENDBRANCH   3   4
ENDBRANCH   2   3
ENDBRANCH   1   2
BRANCH   1   9
ATOM      9  C   UNL     1      53.065  16.421   1.880  1.00  0.00     0.000 C 
BRANCH   9  10
ATOM     10  C   UNL     1      54.385  16.889   2.506  1.00  0.00    -0.000 C 
BRANCH  10  11
ATOM     11  C   UNL     1      55.094  17.903   1.600  1.00  0.00    -0.000 C 
BRANCH  11  12
ATOM     12  C   UNL     1      56.190  17.222   0.767  1.00  0.00    -0.000 C 
BRANCH  12  13
ATOM     13  C   UNL     1      55.821  17.117  -0.721  1.00  0.00    -0.003 C 
ATOM     14  C   UNL     1      54.589  17.946  -1.085  1.00  0.00     0.004 C 
ENDBRANCH  12  13
ENDBRANCH  11  12
ENDBRANCH  10  11
ENDBRANCH   9  10
ENDBRANCH   1   9
TORSDOF 10
ENDMDL
MODEL 9
REMARK VINA RESULT:    -4.824      3.759      5.174
REMARK INTER + INTRA:          -9.041
REMARK INTER:                  -7.542
REMARK INTRA:                  -1.499
REMARK UNBOUND:                -1.397
REMARK SMILES CCCCCCCCCCCC(=O)[O-]
REMARK SMILES IDX 7 1 8 2 9 3 10 4 11 5 12 6 13 7 14 8 6 9 5 10 4 11 3 12 2 13
REMARK SMILES IDX 1 14
REMARK H PARENT
REMARK Flexibility Score: inf
ROOT
ATOM      1  C   UNL     1      56.102  17.161   0.742  1.00  0.00     0.000 C 
ENDROOT
BRANCH   1   2
ATOM      2  C   UNL     1      54.937  17.870   1.449  1.00  0.00     0.000 C 
BRANCH   2   3
ATOM      3  C   UNL     1      54.374  17.056   2.625  1.00  0.00     0.000 C 
BRANCH   3   4
ATOM      4  C   UNL     1      52.954  17.492   3.020  1.00  0.00     0.006 C 
BRANCH   4   5
ATOM      5  C   UNL     1      52.099  17.757   1.778  1.00  0.00     0.053 C 
BRANCH   5   6
ATOM      6  C   UNL     1      50.917  18.606   2.127  1.00  0.00     0.041 C 
ATOM      7  O   UNL     1      50.477  18.627   3.308  1.00  0.00    -0.550 OA
ATOM      8  O   UNL     1      50.332  19.415   1.161  1.00  0.00    -0.550 OA
ENDBRANCH   5   6
ENDBRANCH   4   5
ENDBRANCH   3   4
ENDBRANCH   2   3
ENDBRANCH   1   2
BRANCH   1   9
ATOM      9  C   UNL     1      55.856  17.074  -0.769  1.00  0.00     0.000 C 
BRANCH   9  10
ATOM     10  C   UNL     1      54.356  17.007  -1.080  1.00  0.00    -0.000 C 
BRANCH  10  11
ATOM     11  C   UNL     1      53.946  15.593  -1.509  1.00  0.00    -0.000 C 
BRANCH  11  12
ATOM     12  C   UNL     1      53.131  14.900  -0.406  1.00  0.00    -0.000 C 
BRANCH  12  13
ATOM     13  C   UNL     1      54.012  14.099   0.564  1.00  0.00    -0.003 C 
ATOM     14  C   UNL     1      55.190  13.417  -0.132  1.00  0.00     0.004 C 
ENDBRANCH  12  13
ENDBRANCH  11  12
ENDBRANCH  10  11
ENDBRANCH   9  10
ENDBRANCH   1   9
TORSDOF 10
ENDMDL
