MODEL 1
REMARK VINA RESULT:    -7.087      0.000      0.000
REMARK INTER + INTRA:         -12.588
REMARK INTER:                 -11.645
REMARK INTRA:                  -0.943
REMARK UNBOUND:                -0.943
REMARK SMILES C[C@H]1O[C@H](OC[C@@H]2O[C@@H](Oc3c(-c4ccc(O)c(O)c4)oc4cc(O)cc(O)c4c3=O)[C@@H](O)[C@@H](O)[C@@H]2O)[C@@H](O)[C@@H](O)[C@@H]1O
REMARK SMILES IDX 7 1 36 2 34 3 32 4 9 5 8 6 6 7 5 8 4 9 1 10 2 11 42 12 3 13
REMARK SMILES IDX 40 14 38 15 43 16 41 18 39 20 37 22 35 24 10 26 11 27 12 28
REMARK SMILES IDX 30 29 21 30 29 31 31 32 22 33 27 34 23 35 26 36 24 37 13 38
REMARK SMILES IDX 20 39 14 40 18 41 15 42 16 43 19 44 17 46 28 48 25 50 33 52
REMARK H PARENT 43 17 41 19 39 21 37 23 35 25 19 45 17 47 28 49 25 51 33 53
REMARK Flexibility Score: inf
ROOT
ATOM      1  C   UNL     1      72.084  48.059   8.126  1.00  0.00     0.180 C 
ATOM      2  C   UNL     1      72.152  49.605   8.010  1.00  0.00     0.177 C 
ATOM      3  C   UNL     1      70.731  50.205   8.138  1.00  0.00     0.180 C 
ATOM      4  C   UNL     1      69.737  49.380   7.249  1.00  0.00     0.214 C 
ATOM      5  C   UNL     1      69.901  47.823   7.246  1.00  0.00     0.339 C 
ATOM      6  O   UNL     1      71.289  47.448   7.120  1.00  0.00    -0.332 OA
ENDROOT
BRANCH   1   7
ATOM      7  C   UNL     1      73.512  47.418   8.121  1.00  0.00     0.198 C 
BRANCH   7   8
ATOM      8  O   UNL     1      73.473  46.057   7.697  1.00  0.00    -0.347 OA
BRANCH   8   9
ATOM      9  C   UNL     1      74.279  45.829   6.547  1.00  0.00     0.281 C 
ATOM     10  C   UNL     1      75.019  42.248   6.722  1.00  0.00     0.041 C 
ATOM     11  C   UNL     1      74.109  43.465   6.628  1.00  0.00     0.150 C 
ATOM     12  C   UNL     1      73.254  43.408   5.327  1.00  0.00     0.174 C 
ATOM     13  O   UNL     1      74.972  44.608   6.651  1.00  0.00    -0.344 OA
ATOM     14  C   UNL     1      72.449  44.714   5.164  1.00  0.00     0.179 C 
ATOM     15  C   UNL     1      73.431  45.900   5.241  1.00  0.00     0.202 C 
BRANCH  12  16
ATOM     16  O   UNL     1      72.395  42.288   5.311  1.00  0.00    -0.388 OA
ATOM     17  H   UNL     1      72.967  41.462   5.378  1.00  0.00     0.211 HD
ENDBRANCH  12  16
BRANCH  14  18
ATOM     18  O   UNL     1      71.692  44.720   3.964  1.00  0.00    -0.387 OA
ATOM     19  H   UNL     1      70.781  45.085   4.162  1.00  0.00     0.211 HD
ENDBRANCH  14  18
BRANCH  15  20
ATOM     20  O   UNL     1      74.321  45.819   4.149  1.00  0.00    -0.385 OA
ATOM     21  H   UNL     1      74.070  45.015   3.617  1.00  0.00     0.211 HD
ENDBRANCH  15  20
ENDBRANCH   8   9
ENDBRANCH   7   8
ENDBRANCH   1   7
BRANCH   2  22
ATOM     22  O   UNL     1      72.832  50.029   6.843  1.00  0.00    -0.387 OA
ATOM     23  H   UNL     1      72.552  49.463   6.058  1.00  0.00     0.211 HD
ENDBRANCH   2  22
BRANCH   3  24
ATOM     24  O   UNL     1      70.255  50.293   9.490  1.00  0.00    -0.387 OA
ATOM     25  H   UNL     1      70.699  51.052   9.949  1.00  0.00     0.211 HD
ENDBRANCH   3  24
BRANCH   5  26
ATOM     26  O   UNL     1      69.363  47.188   8.416  1.00  0.00    -0.454 OA
BRANCH  26  27
ATOM     27  C   UNL     1      68.974  45.845   8.629  1.00  0.00     0.214 A 
ATOM     28  C   UNL     1      67.599  45.513   8.646  1.00  0.00     0.180 A 
ATOM     29  C   UNL     1      69.871  44.739   8.744  1.00  0.00     0.239 A 
ATOM     30  O   UNL     1      67.237  44.257   8.385  1.00  0.00    -0.452 OA
ATOM     31  C   UNL     1      69.364  43.458   8.961  1.00  0.00     0.111 A 
ATOM     32  O   UNL     1      71.044  44.840   8.376  1.00  0.00    -0.285 OA
ATOM     33  C   UNL     1      68.086  43.234   8.441  1.00  0.00     0.146 A 
ATOM     34  C   UNL     1      70.168  42.368   9.291  1.00  0.00     0.134 A 
ATOM     35  C   UNL     1      67.740  42.003   7.882  1.00  0.00     0.094 A 
ATOM     36  C   UNL     1      69.841  41.102   8.805  1.00  0.00     0.093 A 
ATOM     37  C   UNL     1      68.637  40.923   8.047  1.00  0.00     0.123 A 
BRANCH  28  38
ATOM     38  C   UNL     1      66.552  46.455   9.081  1.00  0.00     0.025 A 
ATOM     39  C   UNL     1      66.561  47.733   8.469  1.00  0.00     0.062 A 
ATOM     40  C   UNL     1      65.469  46.092   9.910  1.00  0.00     0.016 A 
ATOM     41  C   UNL     1      65.524  48.635   8.669  1.00  0.00     0.158 A 
ATOM     42  C   UNL     1      64.436  47.003  10.122  1.00  0.00     0.051 A 
ATOM     43  C   UNL     1      64.449  48.272   9.495  1.00  0.00     0.157 A 
BRANCH  41  44
ATOM     44  O   UNL     1      65.564  49.859   8.028  1.00  0.00    -0.504 OA
ATOM     45  H   UNL     1      66.403  50.200   7.578  1.00  0.00     0.293 HD
ENDBRANCH  41  44
BRANCH  43  46
ATOM     46  O   UNL     1      63.400  49.153   9.705  1.00  0.00    -0.504 OA
ATOM     47  H   UNL     1      62.441  48.852   9.932  1.00  0.00     0.293 HD
ENDBRANCH  43  46
ENDBRANCH  28  38
BRANCH  34  48
ATOM     48  O   UNL     1      71.268  42.582  10.125  1.00  0.00    -0.507 OA
ATOM     49  H   UNL     1      72.001  43.235   9.808  1.00  0.00     0.293 HD
ENDBRANCH  34  48
BRANCH  37  50
ATOM     50  O   UNL     1      68.292  39.679   7.485  1.00  0.00    -0.508 OA
ATOM     51  H   UNL     1      67.776  39.592   6.594  1.00  0.00     0.293 HD
ENDBRANCH  37  50
ENDBRANCH  26  27
ENDBRANCH   5  26
BRANCH   4  52
ATOM     52  O   UNL     1      68.403  49.665   7.523  1.00  0.00    -0.384 OA
ATOM     53  H   UNL     1      68.310  50.556   7.932  1.00  0.00     0.211 HD
ENDBRANCH   4  52
TORSDOF 16
ENDMDL
MODEL 2
REMARK VINA RESULT:    -6.923      1.928      8.505
REMARK INTER + INTRA:         -12.317
REMARK INTER:                 -10.274
REMARK INTRA:                  -2.042
REMARK UNBOUND:                -0.943
REMARK SMILES C[C@H]1O[C@H](OC[C@@H]2O[C@@H](Oc3c(-c4ccc(O)c(O)c4)oc4cc(O)cc(O)c4c3=O)[C@@H](O)[C@@H](O)[C@@H]2O)[C@@H](O)[C@@H](O)[C@@H]1O
REMARK SMILES IDX 7 1 36 2 34 3 32 4 9 5 8 6 6 7 5 8 4 9 1 10 2 11 42 12 3 13
REMARK SMILES IDX 40 14 38 15 43 16 41 18 39 20 37 22 35 24 10 26 11 27 12 28
REMARK SMILES IDX 30 29 21 30 29 31 31 32 22 33 27 34 23 35 26 36 24 37 13 38
REMARK SMILES IDX 20 39 14 40 18 41 15 42 16 43 19 44 17 46 28 48 25 50 33 52
REMARK H PARENT 43 17 41 19 39 21 37 23 35 25 19 45 17 47 28 49 25 51 33 53
REMARK Flexibility Score: inf
ROOT
ATOM      1  C   UNL     1      68.499  44.024   8.607  1.00  0.00     0.180 C 
ATOM      2  C   UNL     1      67.702  42.767   9.045  1.00  0.00     0.177 C 
ATOM      3  C   UNL     1      68.577  41.502   8.871  1.00  0.00     0.180 C 
ATOM      4  C   UNL     1      69.290  41.551   7.475  1.00  0.00     0.214 C 
ATOM      5  C   UNL     1      69.860  42.932   7.009  1.00  0.00     0.339 C 
ATOM      6  O   UNL     1      68.910  43.992   7.248  1.00  0.00    -0.332 OA
ENDROOT
BRANCH   1   7
ATOM      7  C   UNL     1      67.695  45.339   8.877  1.00  0.00     0.198 C 
BRANCH   7   8
ATOM      8  O   UNL     1      68.506  46.327   9.511  1.00  0.00    -0.347 OA
BRANCH   8   9
ATOM      9  C   UNL     1      67.842  47.581   9.614  1.00  0.00     0.281 C 
ATOM     10  C   UNL     1      70.443  49.998   8.722  1.00  0.00     0.041 C 
ATOM     11  C   UNL     1      69.522  48.810   8.478  1.00  0.00     0.150 C 
ATOM     12  C   UNL     1      68.601  49.077   7.252  1.00  0.00     0.174 C 
ATOM     13  O   UNL     1      68.769  48.639   9.685  1.00  0.00    -0.344 OA
ATOM     14  C   UNL     1      67.570  47.939   7.104  1.00  0.00     0.179 C 
ATOM     15  C   UNL     1      66.829  47.780   8.447  1.00  0.00     0.202 C 
BRANCH  12  16
ATOM     16  O   UNL     1      69.343  49.234   6.061  1.00  0.00    -0.388 OA
ATOM     17  H   UNL     1      68.689  49.275   5.295  1.00  0.00     0.211 HD
ENDBRANCH  12  16
BRANCH  14  18
ATOM     18  O   UNL     1      66.681  48.169   6.023  1.00  0.00    -0.387 OA
ATOM     19  H   UNL     1      66.095  48.947   6.251  1.00  0.00     0.211 HD
ENDBRANCH  14  18
BRANCH  15  20
ATOM     20  O   UNL     1      66.108  48.966   8.705  1.00  0.00    -0.385 OA
ATOM     21  H   UNL     1      66.045  49.470   7.848  1.00  0.00     0.211 HD
ENDBRANCH  15  20
ENDBRANCH   8   9
ENDBRANCH   7   8
ENDBRANCH   1   7
BRANCH   2  22
ATOM     22  O   UNL     1      66.449  42.669   8.393  1.00  0.00    -0.387 OA
ATOM     23  H   UNL     1      66.296  41.724   8.082  1.00  0.00     0.211 HD
ENDBRANCH   2  22
BRANCH   3  24
ATOM     24  O   UNL     1      69.532  41.305   9.926  1.00  0.00    -0.387 OA
ATOM     25  H   UNL     1      70.449  41.308   9.548  1.00  0.00     0.211 HD
ENDBRANCH   3  24
BRANCH   5  26
ATOM     26  O   UNL     1      71.101  43.282   7.641  1.00  0.00    -0.454 OA
BRANCH  26  27
ATOM     27  C   UNL     1      72.120  44.169   7.222  1.00  0.00     0.214 A 
ATOM     28  C   UNL     1      73.123  43.707   6.338  1.00  0.00     0.180 A 
ATOM     29  C   UNL     1      72.186  45.558   7.548  1.00  0.00     0.239 A 
ATOM     30  O   UNL     1      73.785  44.594   5.595  1.00  0.00    -0.452 OA
ATOM     31  C   UNL     1      73.249  46.328   7.080  1.00  0.00     0.111 A 
ATOM     32  O   UNL     1      71.194  46.149   7.985  1.00  0.00    -0.285 OA
ATOM     33  C   UNL     1      73.802  45.896   5.870  1.00  0.00     0.146 A 
ATOM     34  C   UNL     1      73.499  47.628   7.520  1.00  0.00     0.134 A 
ATOM     35  C   UNL     1      74.253  46.809   4.917  1.00  0.00     0.094 A 
ATOM     36  C   UNL     1      74.002  48.570   6.623  1.00  0.00     0.093 A 
ATOM     37  C   UNL     1      74.338  48.171   5.287  1.00  0.00     0.123 A 
BRANCH  28  38
ATOM     38  C   UNL     1      73.576  42.304   6.300  1.00  0.00     0.025 A 
ATOM     39  C   UNL     1      72.993  41.480   5.306  1.00  0.00     0.062 A 
ATOM     40  C   UNL     1      74.660  41.812   7.060  1.00  0.00     0.016 A 
ATOM     41  C   UNL     1      73.467  40.198   5.064  1.00  0.00     0.158 A 
ATOM     42  C   UNL     1      75.125  40.520   6.826  1.00  0.00     0.051 A 
ATOM     43  C   UNL     1      74.543  39.710   5.821  1.00  0.00     0.157 A 
BRANCH  41  44
ATOM     44  O   UNL     1      72.882  39.442   4.064  1.00  0.00    -0.504 OA
ATOM     45  H   UNL     1      72.190  38.733   4.265  1.00  0.00     0.293 HD
ENDBRANCH  41  44
BRANCH  43  46
ATOM     46  O   UNL     1      75.038  38.436   5.593  1.00  0.00    -0.504 OA
ATOM     47  H   UNL     1      76.032  38.185   5.692  1.00  0.00     0.293 HD
ENDBRANCH  43  46
ENDBRANCH  28  38
BRANCH  34  48
ATOM     48  O   UNL     1      73.258  47.932   8.860  1.00  0.00    -0.507 OA
ATOM     49  H   UNL     1      73.022  47.159   9.502  1.00  0.00     0.293 HD
ENDBRANCH  34  48
BRANCH  37  50
ATOM     50  O   UNL     1      74.792  49.096   4.328  1.00  0.00    -0.508 OA
ATOM     51  H   UNL     1      75.231  49.995   4.583  1.00  0.00     0.293 HD
ENDBRANCH  37  50
ENDBRANCH  26  27
ENDBRANCH   5  26
BRANCH   4  52
ATOM     52  O   UNL     1      70.307  40.610   7.355  1.00  0.00    -0.384 OA
ATOM     53  H   UNL     1      70.981  40.727   8.063  1.00  0.00     0.211 HD
ENDBRANCH   4  52
TORSDOF 16
ENDMDL
MODEL 3
REMARK VINA RESULT:    -6.743      1.896      7.404
REMARK INTER + INTRA:         -12.021
REMARK INTER:                 -10.335
REMARK INTRA:                  -1.686
REMARK UNBOUND:                -0.943
REMARK SMILES C[C@H]1O[C@H](OC[C@@H]2O[C@@H](Oc3c(-c4ccc(O)c(O)c4)oc4cc(O)cc(O)c4c3=O)[C@@H](O)[C@@H](O)[C@@H]2O)[C@@H](O)[C@@H](O)[C@@H]1O
REMARK SMILES IDX 7 1 36 2 34 3 32 4 9 5 8 6 6 7 5 8 4 9 1 10 2 11 42 12 3 13
REMARK SMILES IDX 40 14 38 15 43 16 41 18 39 20 37 22 35 24 10 26 11 27 12 28
REMARK SMILES IDX 30 29 21 30 29 31 31 32 22 33 27 34 23 35 26 36 24 37 13 38
REMARK SMILES IDX 20 39 14 40 18 41 15 42 16 43 19 44 17 46 28 48 25 50 33 52
REMARK H PARENT 43 17 41 19 39 21 37 23 35 25 19 45 17 47 28 49 25 51 33 53
REMARK Flexibility Score: inf
ROOT
ATOM      1  C   UNL     1      67.854  47.338   9.105  1.00  0.00     0.180 C 
ATOM      2  C   UNL     1      67.729  48.840   8.734  1.00  0.00     0.177 C 
ATOM      3  C   UNL     1      68.841  49.228   7.730  1.00  0.00     0.180 C 
ATOM      4  C   UNL     1      70.209  48.635   8.216  1.00  0.00     0.214 C 
ATOM      5  C   UNL     1      70.195  47.184   8.801  1.00  0.00     0.339 C 
ATOM      6  O   UNL     1      69.092  47.004   9.715  1.00  0.00    -0.332 OA
ENDROOT
BRANCH   1   7
ATOM      7  C   UNL     1      66.677  46.872  10.027  1.00  0.00     0.198 C 
BRANCH   7   8
ATOM      8  O   UNL     1      66.006  45.737   9.484  1.00  0.00    -0.347 OA
BRANCH   8   9
ATOM      9  C   UNL     1      65.269  46.060   8.311  1.00  0.00     0.281 C 
ATOM     10  C   UNL     1      62.349  43.860   8.509  1.00  0.00     0.041 C 
ATOM     11  C   UNL     1      63.281  44.961   8.995  1.00  0.00     0.150 C 
ATOM     12  C   UNL     1      62.507  46.303   9.153  1.00  0.00     0.174 C 
ATOM     13  O   UNL     1      64.324  45.058   8.017  1.00  0.00    -0.344 OA
ATOM     14  C   UNL     1      63.485  47.444   9.498  1.00  0.00     0.179 C 
ATOM     15  C   UNL     1      64.601  47.463   8.433  1.00  0.00     0.202 C 
BRANCH  12  16
ATOM     16  O   UNL     1      61.487  46.210  10.125  1.00  0.00    -0.388 OA
ATOM     17  H   UNL     1      61.831  46.635  10.971  1.00  0.00     0.211 HD
ENDBRANCH  12  16
BRANCH  14  18
ATOM     18  O   UNL     1      62.822  48.693   9.604  1.00  0.00    -0.387 OA
ATOM     19  H   UNL     1      62.392  48.752  10.505  1.00  0.00     0.211 HD
ENDBRANCH  14  18
BRANCH  15  20
ATOM     20  O   UNL     1      64.023  47.771   7.182  1.00  0.00    -0.385 OA
ATOM     21  H   UNL     1      64.077  48.758   7.063  1.00  0.00     0.211 HD
ENDBRANCH  15  20
ENDBRANCH   8   9
ENDBRANCH   7   8
ENDBRANCH   1   7
BRANCH   2  22
ATOM     22  O   UNL     1      67.695  49.676   9.876  1.00  0.00    -0.387 OA
ATOM     23  H   UNL     1      67.630  49.115  10.710  1.00  0.00     0.211 HD
ENDBRANCH   2  22
BRANCH   3  24
ATOM     24  O   UNL     1      68.566  48.836   6.376  1.00  0.00    -0.387 OA
ATOM     25  H   UNL     1      69.219  48.147   6.091  1.00  0.00     0.211 HD
ENDBRANCH   3  24
BRANCH   5  26
ATOM     26  O   UNL     1      70.123  46.162   7.795  1.00  0.00    -0.454 OA
BRANCH  26  27
ATOM     27  C   UNL     1      70.577  44.822   7.821  1.00  0.00     0.214 A 
ATOM     28  C   UNL     1      71.962  44.555   7.715  1.00  0.00     0.180 A 
ATOM     29  C   UNL     1      69.750  43.678   8.039  1.00  0.00     0.239 A 
ATOM     30  O   UNL     1      72.433  43.401   8.186  1.00  0.00    -0.452 OA
ATOM     31  C   UNL     1      70.316  42.404   8.034  1.00  0.00     0.111 A 
ATOM     32  O   UNL     1      68.616  43.803   8.511  1.00  0.00    -0.285 OA
ATOM     33  C   UNL     1      71.654  42.353   8.440  1.00  0.00     0.146 A 
ATOM     34  C   UNL     1      69.558  41.234   8.030  1.00  0.00     0.134 A 
ATOM     35  C   UNL     1      72.137  41.285   9.196  1.00  0.00     0.094 A 
ATOM     36  C   UNL     1      70.018  40.116   8.726  1.00  0.00     0.093 A 
ATOM     37  C   UNL     1      71.303  40.156   9.362  1.00  0.00     0.123 A 
BRANCH  28  38
ATOM     38  C   UNL     1      72.893  45.429   6.978  1.00  0.00     0.025 A 
ATOM     39  C   UNL     1      72.873  45.323   5.565  1.00  0.00     0.062 A 
ATOM     40  C   UNL     1      73.643  46.461   7.583  1.00  0.00     0.016 A 
ATOM     41  C   UNL     1      73.574  46.215   4.765  1.00  0.00     0.158 A 
ATOM     42  C   UNL     1      74.358  47.346   6.780  1.00  0.00     0.051 A 
ATOM     43  C   UNL     1      74.319  47.239   5.369  1.00  0.00     0.157 A 
BRANCH  41  44
ATOM     44  O   UNL     1      73.500  46.087   3.390  1.00  0.00    -0.504 OA
ATOM     45  H   UNL     1      74.313  45.870   2.829  1.00  0.00     0.293 HD
ENDBRANCH  41  44
BRANCH  43  46
ATOM     46  O   UNL     1      75.023  48.145   4.592  1.00  0.00    -0.504 OA
ATOM     47  H   UNL     1      74.742  48.416   3.638  1.00  0.00     0.293 HD
ENDBRANCH  43  46
ENDBRANCH  28  38
BRANCH  34  48
ATOM     48  O   UNL     1      68.367  41.218   7.302  1.00  0.00    -0.507 OA
ATOM     49  H   UNL     1      67.479  41.335   7.816  1.00  0.00     0.293 HD
ENDBRANCH  34  48
BRANCH  37  50
ATOM     50  O   UNL     1      71.786  39.076  10.125  1.00  0.00    -0.508 OA
ATOM     51  H   UNL     1      72.648  38.562   9.882  1.00  0.00     0.293 HD
ENDBRANCH  37  50
ENDBRANCH  26  27
ENDBRANCH   5  26
BRANCH   4  52
ATOM     52  O   UNL     1      71.198  48.689   7.239  1.00  0.00    -0.384 OA
ATOM     53  H   UNL     1      71.898  49.339   7.480  1.00  0.00     0.211 HD
ENDBRANCH   4  52
TORSDOF 16
ENDMDL
MODEL 4
REMARK VINA RESULT:    -6.736      1.885      5.903
REMARK INTER + INTRA:         -12.011
REMARK INTER:                 -10.598
REMARK INTRA:                  -1.413
REMARK UNBOUND:                -0.943
REMARK SMILES C[C@H]1O[C@H](OC[C@@H]2O[C@@H](Oc3c(-c4ccc(O)c(O)c4)oc4cc(O)cc(O)c4c3=O)[C@@H](O)[C@@H](O)[C@@H]2O)[C@@H](O)[C@@H](O)[C@@H]1O
REMARK SMILES IDX 7 1 36 2 34 3 32 4 9 5 8 6 6 7 5 8 4 9 1 10 2 11 42 12 3 13
REMARK SMILES IDX 40 14 38 15 43 16 41 18 39 20 37 22 35 24 10 26 11 27 12 28
REMARK SMILES IDX 30 29 21 30 29 31 31 32 22 33 27 34 23 35 26 36 24 37 13 38
REMARK SMILES IDX 20 39 14 40 18 41 15 42 16 43 19 44 17 46 28 48 25 50 33 52
REMARK H PARENT 43 17 41 19 39 21 37 23 35 25 19 45 17 47 28 49 25 51 33 53
REMARK Flexibility Score: inf
ROOT
ATOM      1  C   UNL     1      73.128  43.586   7.474  1.00  0.00     0.180 C 
ATOM      2  C   UNL     1      74.308  44.064   6.586  1.00  0.00     0.177 C 
ATOM      3  C   UNL     1      74.025  45.491   6.058  1.00  0.00     0.180 C 
ATOM      4  C   UNL     1      72.549  45.567   5.535  1.00  0.00     0.214 C 
ATOM      5  C   UNL     1      71.448  44.845   6.382  1.00  0.00     0.339 C 
ATOM      6  O   UNL     1      71.886  43.531   6.787  1.00  0.00    -0.332 OA
ENDROOT
BRANCH   1   7
ATOM      7  C   UNL     1      73.425  42.195   8.127  1.00  0.00     0.198 C 
BRANCH   7   8
ATOM      8  O   UNL     1      72.272  41.669   8.783  1.00  0.00    -0.347 OA
BRANCH   8   9
ATOM      9  C   UNL     1      72.054  40.299   8.468  1.00  0.00     0.281 C 
ATOM     10  C   UNL     1      68.506  40.188   7.570  1.00  0.00     0.041 C 
ATOM     11  C   UNL     1      69.950  40.649   7.429  1.00  0.00     0.150 C 
ATOM     12  C   UNL     1      70.505  40.286   6.019  1.00  0.00     0.174 C 
ATOM     13  O   UNL     1      70.679  39.993   8.474  1.00  0.00    -0.344 OA
ATOM     14  C   UNL     1      72.009  40.618   5.938  1.00  0.00     0.179 C 
ATOM     15  C   UNL     1      72.722  39.918   7.112  1.00  0.00     0.202 C 
BRANCH  12  16
ATOM     16  O   UNL     1      69.794  40.942   4.990  1.00  0.00    -0.388 OA
ATOM     17  H   UNL     1      70.140  40.595   4.110  1.00  0.00     0.211 HD
ENDBRANCH  12  16
BRANCH  14  18
ATOM     18  O   UNL     1      72.561  40.258   4.682  1.00  0.00    -0.387 OA
ATOM     19  H   UNL     1      71.831  40.262   3.998  1.00  0.00     0.211 HD
ENDBRANCH  14  18
BRANCH  15  20
ATOM     20  O   UNL     1      72.593  38.522   6.949  1.00  0.00    -0.385 OA
ATOM     21  H   UNL     1      73.301  38.089   7.501  1.00  0.00     0.211 HD
ENDBRANCH  15  20
ENDBRANCH   8   9
ENDBRANCH   7   8
ENDBRANCH   1   7
BRANCH   2  22
ATOM     22  O   UNL     1      74.617  43.142   5.558  1.00  0.00    -0.387 OA
ATOM     23  H   UNL     1      73.804  42.980   4.986  1.00  0.00     0.211 HD
ENDBRANCH   2  22
BRANCH   3  24
ATOM     24  O   UNL     1      74.282  46.529   7.017  1.00  0.00    -0.387 OA
ATOM     25  H   UNL     1      73.769  47.341   6.771  1.00  0.00     0.211 HD
ENDBRANCH   3  24
BRANCH   5  26
ATOM     26  O   UNL     1      71.058  45.576   7.555  1.00  0.00    -0.454 OA
BRANCH  26  27
ATOM     27  C   UNL     1      69.816  46.162   7.893  1.00  0.00     0.214 A 
ATOM     28  C   UNL     1      69.678  47.570   7.853  1.00  0.00     0.180 A 
ATOM     29  C   UNL     1      68.622  45.441   8.197  1.00  0.00     0.239 A 
ATOM     30  O   UNL     1      68.460  48.094   7.713  1.00  0.00    -0.452 OA
ATOM     31  C   UNL     1      67.458  46.135   8.524  1.00  0.00     0.111 A 
ATOM     32  O   UNL     1      68.516  44.247   7.902  1.00  0.00    -0.285 OA
ATOM     33  C   UNL     1      67.346  47.403   7.946  1.00  0.00     0.146 A 
ATOM     34  C   UNL     1      66.318  45.514   9.033  1.00  0.00     0.134 A 
ATOM     35  C   UNL     1      66.114  47.891   7.510  1.00  0.00     0.094 A 
ATOM     36  C   UNL     1      65.058  45.993   8.674  1.00  0.00     0.093 A 
ATOM     37  C   UNL     1      64.951  47.168   7.860  1.00  0.00     0.123 A 
BRANCH  28  38
ATOM     38  C   UNL     1      70.800  48.493   8.103  1.00  0.00     0.025 A 
ATOM     39  C   UNL     1      71.773  48.063   9.038  1.00  0.00     0.062 A 
ATOM     40  C   UNL     1      71.037  49.659   7.342  1.00  0.00     0.016 A 
ATOM     41  C   UNL     1      72.957  48.766   9.220  1.00  0.00     0.158 A 
ATOM     42  C   UNL     1      72.218  50.371   7.537  1.00  0.00     0.051 A 
ATOM     43  C   UNL     1      73.190  49.925   8.465  1.00  0.00     0.157 A 
BRANCH  41  44
ATOM     44  O   UNL     1      73.889  48.291  10.125  1.00  0.00    -0.504 OA
ATOM     45  H   UNL     1      73.640  48.062  11.077  1.00  0.00     0.293 HD
ENDBRANCH  41  44
BRANCH  43  46
ATOM     46  O   UNL     1      74.366  50.640   8.625  1.00  0.00    -0.504 OA
ATOM     47  H   UNL     1      74.447  51.651   8.443  1.00  0.00     0.293 HD
ENDBRANCH  43  46
ENDBRANCH  28  38
BRANCH  34  48
ATOM     48  O   UNL     1      66.483  44.441   9.911  1.00  0.00    -0.507 OA
ATOM     49  H   UNL     1      65.707  43.767  10.010  1.00  0.00     0.293 HD
ENDBRANCH  34  48
BRANCH  37  50
ATOM     50  O   UNL     1      63.706  47.656   7.422  1.00  0.00    -0.508 OA
ATOM     51  H   UNL     1      62.831  47.510   7.951  1.00  0.00     0.293 HD
ENDBRANCH  37  50
ENDBRANCH  26  27
ENDBRANCH   5  26
BRANCH   4  52
ATOM     52  O   UNL     1      72.122  46.873   5.311  1.00  0.00    -0.384 OA
ATOM     53  H   UNL     1      72.507  47.489   5.976  1.00  0.00     0.211 HD
ENDBRANCH   4  52
TORSDOF 16
ENDMDL
MODEL 5
REMARK VINA RESULT:    -6.694      1.841      5.862
REMARK INTER + INTRA:         -11.942
REMARK INTER:                 -10.728
REMARK INTRA:                  -1.214
REMARK UNBOUND:                -0.943
REMARK SMILES C[C@H]1O[C@H](OC[C@@H]2O[C@@H](Oc3c(-c4ccc(O)c(O)c4)oc4cc(O)cc(O)c4c3=O)[C@@H](O)[C@@H](O)[C@@H]2O)[C@@H](O)[C@@H](O)[C@@H]1O
REMARK SMILES IDX 7 1 36 2 34 3 32 4 9 5 8 6 6 7 5 8 4 9 1 10 2 11 42 12 3 13
REMARK SMILES IDX 40 14 38 15 43 16 41 18 39 20 37 22 35 24 10 26 11 27 12 28
REMARK SMILES IDX 30 29 21 30 29 31 31 32 22 33 27 34 23 35 26 36 24 37 13 38
REMARK SMILES IDX 20 39 14 40 18 41 15 42 16 43 19 44 17 46 28 48 25 50 33 52
REMARK H PARENT 43 17 41 19 39 21 37 23 35 25 19 45 17 47 28 49 25 51 33 53
REMARK Flexibility Score: inf
ROOT
ATOM      1  C   UNL     1      73.290  45.535   8.522  1.00  0.00     0.180 C 
ATOM      2  C   UNL     1      74.216  44.366   8.948  1.00  0.00     0.177 C 
ATOM      3  C   UNL     1      73.372  43.097   9.217  1.00  0.00     0.180 C 
ATOM      4  C   UNL     1      72.119  43.480  10.079  1.00  0.00     0.214 C 
ATOM      5  C   UNL     1      71.382  44.814   9.721  1.00  0.00     0.339 C 
ATOM      6  O   UNL     1      72.326  45.885   9.505  1.00  0.00    -0.332 OA
ENDROOT
BRANCH   1   7
ATOM      7  C   UNL     1      74.112  46.807   8.125  1.00  0.00     0.198 C 
BRANCH   7   8
ATOM      8  O   UNL     1      73.849  47.201   6.780  1.00  0.00    -0.347 OA
BRANCH   8   9
ATOM      9  C   UNL     1      72.537  46.842   6.363  1.00  0.00     0.281 C 
ATOM     10  C   UNL     1      72.362  48.101   2.929  1.00  0.00     0.041 C 
ATOM     11  C   UNL     1      72.925  47.248   4.058  1.00  0.00     0.150 C 
ATOM     12  C   UNL     1      72.827  45.735   3.700  1.00  0.00     0.174 C 
ATOM     13  O   UNL     1      72.153  47.573   5.221  1.00  0.00    -0.344 OA
ATOM     14  C   UNL     1      73.256  44.876   4.907  1.00  0.00     0.179 C 
ATOM     15  C   UNL     1      72.420  45.306   6.129  1.00  0.00     0.202 C 
BRANCH  12  16
ATOM     16  O   UNL     1      73.596  45.414   2.561  1.00  0.00    -0.388 OA
ATOM     17  H   UNL     1      74.525  45.779   2.705  1.00  0.00     0.211 HD
ENDBRANCH  12  16
BRANCH  14  18
ATOM     18  O   UNL     1      73.136  43.488   4.636  1.00  0.00    -0.387 OA
ATOM     19  H   UNL     1      73.997  43.164   4.241  1.00  0.00     0.211 HD
ENDBRANCH  14  18
BRANCH  15  20
ATOM     20  O   UNL     1      71.063  45.016   5.870  1.00  0.00    -0.385 OA
ATOM     21  H   UNL     1      70.516  45.531   6.524  1.00  0.00     0.211 HD
ENDBRANCH  15  20
ENDBRANCH   8   9
ENDBRANCH   7   8
ENDBRANCH   1   7
BRANCH   2  22
ATOM     22  O   UNL     1      75.058  44.713  10.032  1.00  0.00    -0.387 OA
ATOM     23  H   UNL     1      75.910  45.125   9.686  1.00  0.00     0.211 HD
ENDBRANCH   2  22
BRANCH   3  24
ATOM     24  O   UNL     1      72.978  42.396   8.026  1.00  0.00    -0.387 OA
ATOM     25  H   UNL     1      72.397  42.980   7.475  1.00  0.00     0.211 HD
ENDBRANCH   3  24
BRANCH   5  26
ATOM     26  O   UNL     1      70.539  44.710   8.564  1.00  0.00    -0.454 OA
BRANCH  26  27
ATOM     27  C   UNL     1      69.215  45.164   8.356  1.00  0.00     0.214 A 
ATOM     28  C   UNL     1      68.134  44.280   8.581  1.00  0.00     0.180 A 
ATOM     29  C   UNL     1      68.849  46.501   8.012  1.00  0.00     0.239 A 
ATOM     30  O   UNL     1      66.929  44.789   8.837  1.00  0.00    -0.452 OA
ATOM     31  C   UNL     1      67.506  46.824   7.825  1.00  0.00     0.111 A 
ATOM     32  O   UNL     1      69.651  47.428   8.157  1.00  0.00    -0.285 OA
ATOM     33  C   UNL     1      66.606  46.051   8.565  1.00  0.00     0.146 A 
ATOM     34  C   UNL     1      67.084  48.040   7.289  1.00  0.00     0.134 A 
ATOM     35  C   UNL     1      65.452  46.614   9.110  1.00  0.00     0.094 A 
ATOM     36  C   UNL     1      65.907  48.624   7.759  1.00  0.00     0.093 A 
ATOM     37  C   UNL     1      65.103  47.927   8.720  1.00  0.00     0.123 A 
BRANCH  28  38
ATOM     38  C   UNL     1      68.241  42.820   8.405  1.00  0.00     0.025 A 
ATOM     39  C   UNL     1      68.926  42.374   7.248  1.00  0.00     0.062 A 
ATOM     40  C   UNL     1      67.869  41.883   9.393  1.00  0.00     0.016 A 
ATOM     41  C   UNL     1      69.240  41.033   7.068  1.00  0.00     0.158 A 
ATOM     42  C   UNL     1      68.171  40.537   9.205  1.00  0.00     0.051 A 
ATOM     43  C   UNL     1      68.868  40.104   8.051  1.00  0.00     0.157 A 
BRANCH  41  44
ATOM     44  O   UNL     1      69.934  40.650   5.935  1.00  0.00    -0.504 OA
ATOM     45  H   UNL     1      70.832  40.188   5.989  1.00  0.00     0.293 HD
ENDBRANCH  41  44
BRANCH  43  46
ATOM     46  O   UNL     1      69.175  38.761   7.898  1.00  0.00    -0.504 OA
ATOM     47  H   UNL     1      70.124  38.377   8.017  1.00  0.00     0.293 HD
ENDBRANCH  43  46
ENDBRANCH  28  38
BRANCH  34  48
ATOM     48  O   UNL     1      67.848  48.620   6.276  1.00  0.00    -0.507 OA
ATOM     49  H   UNL     1      68.402  47.999   5.665  1.00  0.00     0.293 HD
ENDBRANCH  34  48
BRANCH  37  50
ATOM     50  O   UNL     1      63.939  48.498   9.268  1.00  0.00    -0.508 OA
ATOM     51  H   UNL     1      63.644  48.336  10.244  1.00  0.00     0.293 HD
ENDBRANCH  37  50
ENDBRANCH  26  27
ENDBRANCH   5  26
BRANCH   4  52
ATOM     52  O   UNL     1      71.165  42.468  10.125  1.00  0.00    -0.384 OA
ATOM     53  H   UNL     1      70.420  42.658   9.510  1.00  0.00     0.211 HD
ENDBRANCH   4  52
TORSDOF 16
ENDMDL
MODEL 6
REMARK VINA RESULT:    -6.622      2.039      6.957
REMARK INTER + INTRA:         -11.822
REMARK INTER:                 -10.178
REMARK INTRA:                  -1.644
REMARK UNBOUND:                -0.943
REMARK SMILES C[C@H]1O[C@H](OC[C@@H]2O[C@@H](Oc3c(-c4ccc(O)c(O)c4)oc4cc(O)cc(O)c4c3=O)[C@@H](O)[C@@H](O)[C@@H]2O)[C@@H](O)[C@@H](O)[C@@H]1O
REMARK SMILES IDX 7 1 36 2 34 3 32 4 9 5 8 6 6 7 5 8 4 9 1 10 2 11 42 12 3 13
REMARK SMILES IDX 40 14 38 15 43 16 41 18 39 20 37 22 35 24 10 26 11 27 12 28
REMARK SMILES IDX 30 29 21 30 29 31 31 32 22 33 27 34 23 35 26 36 24 37 13 38
REMARK SMILES IDX 20 39 14 40 18 41 15 42 16 43 19 44 17 46 28 48 25 50 33 52
REMARK H PARENT 43 17 41 19 39 21 37 23 35 25 19 45 17 47 28 49 25 51 33 53
REMARK Flexibility Score: inf
ROOT
ATOM      1  C   UNL     1      68.368  48.947   8.397  1.00  0.00     0.180 C 
ATOM      2  C   UNL     1      68.931  50.374   8.631  1.00  0.00     0.177 C 
ATOM      3  C   UNL     1      70.476  50.324   8.709  1.00  0.00     0.180 C 
ATOM      4  C   UNL     1      70.910  49.131   9.630  1.00  0.00     0.214 C 
ATOM      5  C   UNL     1      70.119  47.789   9.488  1.00  0.00     0.339 C 
ATOM      6  O   UNL     1      68.697  48.029   9.429  1.00  0.00    -0.332 OA
ENDROOT
BRANCH   1   7
ATOM      7  C   UNL     1      66.816  48.966   8.192  1.00  0.00     0.198 C 
BRANCH   7   8
ATOM      8  O   UNL     1      66.316  47.671   7.866  1.00  0.00    -0.347 OA
BRANCH   8   9
ATOM      9  C   UNL     1      66.217  46.830   9.009  1.00  0.00     0.281 C 
ATOM     10  C   UNL     1      62.763  47.313  10.125  1.00  0.00     0.041 C 
ATOM     11  C   UNL     1      63.850  46.914   9.135  1.00  0.00     0.150 C 
ATOM     12  C   UNL     1      63.703  45.415   8.738  1.00  0.00     0.174 C 
ATOM     13  O   UNL     1      65.097  47.172   9.792  1.00  0.00    -0.344 OA
ATOM     14  C   UNL     1      64.893  44.980   7.858  1.00  0.00     0.179 C 
ATOM     15  C   UNL     1      66.198  45.326   8.603  1.00  0.00     0.202 C 
BRANCH  12  16
ATOM     16  O   UNL     1      62.479  45.163   8.081  1.00  0.00    -0.388 OA
ATOM     17  H   UNL     1      61.742  45.556   8.644  1.00  0.00     0.211 HD
ENDBRANCH  12  16
BRANCH  14  18
ATOM     18  O   UNL     1      64.818  43.606   7.513  1.00  0.00    -0.387 OA
ATOM     19  H   UNL     1      63.948  43.438   7.048  1.00  0.00     0.211 HD
ENDBRANCH  14  18
BRANCH  15  20
ATOM     20  O   UNL     1      66.253  44.562   9.789  1.00  0.00    -0.385 OA
ATOM     21  H   UNL     1      67.110  44.784  10.248  1.00  0.00     0.211 HD
ENDBRANCH  15  20
ENDBRANCH   8   9
ENDBRANCH   7   8
ENDBRANCH   1   7
BRANCH   2  22
ATOM     22  O   UNL     1      68.338  51.010   9.748  1.00  0.00    -0.387 OA
ATOM     23  H   UNL     1      68.219  50.348  10.497  1.00  0.00     0.211 HD
ENDBRANCH   2  22
BRANCH   3  24
ATOM     24  O   UNL     1      71.122  50.243   7.429  1.00  0.00    -0.387 OA
ATOM     25  H   UNL     1      70.657  49.572   6.865  1.00  0.00     0.211 HD
ENDBRANCH   3  24
BRANCH   5  26
ATOM     26  O   UNL     1      70.498  47.021   8.335  1.00  0.00    -0.454 OA
BRANCH  26  27
ATOM     27  C   UNL     1      70.949  45.684   8.237  1.00  0.00     0.214 A 
ATOM     28  C   UNL     1      72.271  45.426   7.803  1.00  0.00     0.180 A 
ATOM     29  C   UNL     1      70.202  44.533   8.633  1.00  0.00     0.239 A 
ATOM     30  O   UNL     1      72.844  44.270   8.136  1.00  0.00    -0.452 OA
ATOM     31  C   UNL     1      70.755  43.263   8.480  1.00  0.00     0.111 A 
ATOM     32  O   UNL     1      69.212  44.646   9.362  1.00  0.00    -0.285 OA
ATOM     33  C   UNL     1      72.151  43.215   8.555  1.00  0.00     0.146 A 
ATOM     34  C   UNL     1      70.021  42.088   8.642  1.00  0.00     0.134 A 
ATOM     35  C   UNL     1      72.803  42.142   9.164  1.00  0.00     0.094 A 
ATOM     36  C   UNL     1      70.637  40.966   9.197  1.00  0.00     0.093 A 
ATOM     37  C   UNL     1      72.036  41.006   9.510  1.00  0.00     0.123 A 
BRANCH  28  38
ATOM     38  C   UNL     1      72.998  46.313   6.876  1.00  0.00     0.025 A 
ATOM     39  C   UNL     1      72.538  46.336   5.536  1.00  0.00     0.062 A 
ATOM     40  C   UNL     1      73.974  47.245   7.289  1.00  0.00     0.016 A 
ATOM     41  C   UNL     1      73.029  47.259   4.621  1.00  0.00     0.158 A 
ATOM     42  C   UNL     1      74.476  48.161   6.367  1.00  0.00     0.051 A 
ATOM     43  C   UNL     1      74.000  48.183   5.034  1.00  0.00     0.157 A 
BRANCH  41  44
ATOM     44  O   UNL     1      72.529  47.260   3.332  1.00  0.00    -0.504 OA
ATOM     45  H   UNL     1      71.688  46.756   3.085  1.00  0.00     0.293 HD
ENDBRANCH  41  44
BRANCH  43  46
ATOM     46  O   UNL     1      74.501  49.118   4.142  1.00  0.00    -0.504 OA
ATOM     47  H   UNL     1      75.074  49.926   4.425  1.00  0.00     0.293 HD
ENDBRANCH  43  46
ENDBRANCH  28  38
BRANCH  34  48
ATOM     48  O   UNL     1      68.692  42.072   8.218  1.00  0.00    -0.507 OA
ATOM     49  H   UNL     1      67.950  42.160   8.930  1.00  0.00     0.293 HD
ENDBRANCH  34  48
BRANCH  37  50
ATOM     50  O   UNL     1      72.690  39.922  10.124  1.00  0.00    -0.508 OA
ATOM     51  H   UNL     1      72.329  38.955  10.085  1.00  0.00     0.293 HD
ENDBRANCH  37  50
ENDBRANCH  26  27
ENDBRANCH   5  26
BRANCH   4  52
ATOM     52  O   UNL     1      72.266  48.837   9.529  1.00  0.00    -0.384 OA
ATOM     53  H   UNL     1      72.728  49.005  10.382  1.00  0.00     0.211 HD
ENDBRANCH   4  52
TORSDOF 16
ENDMDL
MODEL 7
REMARK VINA RESULT:    -6.436      1.991      7.118
REMARK INTER + INTRA:         -11.517
REMARK INTER:                 -10.508
REMARK INTRA:                  -1.009
REMARK UNBOUND:                -0.943
REMARK SMILES C[C@H]1O[C@H](OC[C@@H]2O[C@@H](Oc3c(-c4ccc(O)c(O)c4)oc4cc(O)cc(O)c4c3=O)[C@@H](O)[C@@H](O)[C@@H]2O)[C@@H](O)[C@@H](O)[C@@H]1O
REMARK SMILES IDX 7 1 36 2 34 3 32 4 9 5 8 6 6 7 5 8 4 9 1 10 2 11 42 12 3 13
REMARK SMILES IDX 40 14 38 15 43 16 41 18 39 20 37 22 35 24 10 26 11 27 12 28
REMARK SMILES IDX 30 29 21 30 29 31 31 32 22 33 27 34 23 35 26 36 24 37 13 38
REMARK SMILES IDX 20 39 14 40 18 41 15 42 16 43 19 44 17 46 28 48 25 50 33 52
REMARK H PARENT 43 17 41 19 39 21 37 23 35 25 19 45 17 47 28 49 25 51 33 53
REMARK Flexibility Score: inf
ROOT
ATOM      1  C   UNL     1      70.548  45.989   8.670  1.00  0.00     0.180 C 
ATOM      2  C   UNL     1      70.621  47.498   9.024  1.00  0.00     0.177 C 
ATOM      3  C   UNL     1      72.096  47.919   9.232  1.00  0.00     0.180 C 
ATOM      4  C   UNL     1      72.819  46.851  10.125  1.00  0.00     0.214 C 
ATOM      5  C   UNL     1      72.497  45.345   9.846  1.00  0.00     0.339 C 
ATOM      6  O   UNL     1      71.078  45.142   9.679  1.00  0.00    -0.332 OA
ENDROOT
BRANCH   1   7
ATOM      7  C   UNL     1      69.084  45.546   8.334  1.00  0.00     0.198 C 
BRANCH   7   8
ATOM      8  O   UNL     1      68.138  46.552   8.692  1.00  0.00    -0.347 OA
BRANCH   8   9
ATOM      9  C   UNL     1      67.199  46.799   7.653  1.00  0.00     0.281 C 
ATOM     10  C   UNL     1      64.012  45.752   9.121  1.00  0.00     0.041 C 
ATOM     11  C   UNL     1      65.284  46.584   9.037  1.00  0.00     0.150 C 
ATOM     12  C   UNL     1      64.940  48.099   8.919  1.00  0.00     0.174 C 
ATOM     13  O   UNL     1      65.994  46.108   7.887  1.00  0.00    -0.344 OA
ATOM     14  C   UNL     1      66.224  48.919   8.682  1.00  0.00     0.179 C 
ATOM     15  C   UNL     1      66.958  48.326   7.462  1.00  0.00     0.202 C 
BRANCH  12  16
ATOM     16  O   UNL     1      64.251  48.571  10.058  1.00  0.00    -0.388 OA
ATOM     17  H   UNL     1      64.574  49.506  10.246  1.00  0.00     0.211 HD
ENDBRANCH  12  16
BRANCH  14  18
ATOM     18  O   UNL     1      65.946  50.301   8.523  1.00  0.00    -0.387 OA
ATOM     19  H   UNL     1      66.777  50.820   8.726  1.00  0.00     0.211 HD
ENDBRANCH  14  18
BRANCH  15  20
ATOM     20  O   UNL     1      66.140  48.491   6.323  1.00  0.00    -0.385 OA
ATOM     21  H   UNL     1      66.153  47.632   5.818  1.00  0.00     0.211 HD
ENDBRANCH  15  20
ENDBRANCH   8   9
ENDBRANCH   7   8
ENDBRANCH   1   7
BRANCH   2  22
ATOM     22  O   UNL     1      69.787  47.836  10.117  1.00  0.00    -0.387 OA
ATOM     23  H   UNL     1      70.194  47.502  10.975  1.00  0.00     0.211 HD
ENDBRANCH   2  22
BRANCH   3  24
ATOM     24  O   UNL     1      72.818  48.136   8.009  1.00  0.00    -0.387 OA
ATOM     25  H   UNL     1      73.173  49.062   7.994  1.00  0.00     0.211 HD
ENDBRANCH   3  24
BRANCH   5  26
ATOM     26  O   UNL     1      73.171  44.820   8.693  1.00  0.00    -0.454 OA
BRANCH  26  27
ATOM     27  C   UNL     1      72.913  43.651   7.939  1.00  0.00     0.214 A 
ATOM     28  C   UNL     1      73.388  43.561   6.609  1.00  0.00     0.180 A 
ATOM     29  C   UNL     1      72.272  42.476   8.438  1.00  0.00     0.239 A 
ATOM     30  O   UNL     1      73.562  42.356   6.067  1.00  0.00    -0.452 OA
ATOM     31  C   UNL     1      72.067  41.388   7.591  1.00  0.00     0.111 A 
ATOM     32  O   UNL     1      72.156  42.291   9.652  1.00  0.00    -0.285 OA
ATOM     33  C   UNL     1      73.007  41.254   6.565  1.00  0.00     0.146 A 
ATOM     34  C   UNL     1      71.271  40.296   7.935  1.00  0.00     0.134 A 
ATOM     35  C   UNL     1      73.446  39.997   6.149  1.00  0.00     0.094 A 
ATOM     36  C   UNL     1      71.632  39.020   7.501  1.00  0.00     0.093 A 
ATOM     37  C   UNL     1      72.765  38.859   6.637  1.00  0.00     0.123 A 
BRANCH  28  38
ATOM     38  C   UNL     1      73.565  44.739   5.740  1.00  0.00     0.025 A 
ATOM     39  C   UNL     1      72.760  44.790   4.576  1.00  0.00     0.062 A 
ATOM     40  C   UNL     1      74.336  45.867   6.098  1.00  0.00     0.016 A 
ATOM     41  C   UNL     1      72.714  45.927   3.780  1.00  0.00     0.158 A 
ATOM     42  C   UNL     1      74.300  47.002   5.291  1.00  0.00     0.051 A 
ATOM     43  C   UNL     1      73.481  47.045   4.137  1.00  0.00     0.157 A 
BRANCH  41  44
ATOM     44  O   UNL     1      71.891  45.938   2.669  1.00  0.00    -0.504 OA
ATOM     45  H   UNL     1      72.261  45.889   1.729  1.00  0.00     0.293 HD
ENDBRANCH  41  44
BRANCH  43  46
ATOM     46  O   UNL     1      73.447  48.194   3.363  1.00  0.00    -0.504 OA
ATOM     47  H   UNL     1      73.067  49.093   3.693  1.00  0.00     0.293 HD
ENDBRANCH  43  46
ENDBRANCH  28  38
BRANCH  34  48
ATOM     48  O   UNL     1      70.117  40.525   8.686  1.00  0.00    -0.507 OA
ATOM     49  H   UNL     1      70.132  40.285   9.690  1.00  0.00     0.293 HD
ENDBRANCH  34  48
BRANCH  37  50
ATOM     50  O   UNL     1      73.205  37.589   6.220  1.00  0.00    -0.508 OA
ATOM     51  H   UNL     1      73.972  37.458   5.540  1.00  0.00     0.293 HD
ENDBRANCH  37  50
ENDBRANCH  26  27
ENDBRANCH   5  26
BRANCH   4  52
ATOM     52  O   UNL     1      74.203  46.996  10.125  1.00  0.00    -0.384 OA
ATOM     53  H   UNL     1      74.648  46.129  10.272  1.00  0.00     0.211 HD
ENDBRANCH   4  52
TORSDOF 16
ENDMDL
