MODEL 1
REMARK VINA RESULT:    -5.119      0.000      0.000
REMARK INTER + INTRA:         -14.017
REMARK INTER:                 -11.703
REMARK INTRA:                  -2.314
REMARK UNBOUND:                -2.314
REMARK SMILES CCCCCCCCCCCCCCCCCCCCCCCC(=O)[O-]
REMARK SMILES IDX 13 1 14 2 15 3 16 4 17 5 18 6 19 7 20 8 21 9 22 10 23 11
REMARK SMILES IDX 24 12 25 13 26 14 12 15 11 16 10 17 9 18 8 19 7 20 6 21 5 22
REMARK SMILES IDX 4 23 3 24 2 25 1 26
REMARK H PARENT
REMARK Flexibility Score: inf
ROOT
ATOM      1  C   UNL     1      22.181  12.125  49.827  1.00  0.00     0.000 C 
ENDROOT
BRANCH   1   2
ATOM      2  C   UNL     1      23.566  12.049  49.150  1.00  0.00     0.000 C 
BRANCH   2   3
ATOM      3  C   UNL     1      23.681  12.890  47.864  1.00  0.00     0.000 C 
BRANCH   3   4
ATOM      4  C   UNL     1      25.057  13.534  47.622  1.00  0.00     0.000 C 
BRANCH   4   5
ATOM      5  C   UNL     1      26.222  12.624  48.047  1.00  0.00     0.000 C 
BRANCH   5   6
ATOM      6  C   UNL     1      27.329  13.381  48.803  1.00  0.00     0.000 C 
BRANCH   6   7
ATOM      7  C   UNL     1      26.866  14.648  49.545  1.00  0.00     0.000 C 
BRANCH   7   8
ATOM      8  C   UNL     1      26.574  14.399  51.033  1.00  0.00     0.000 C 
BRANCH   8   9
ATOM      9  C   UNL     1      25.115  14.744  51.373  1.00  0.00     0.000 C 
BRANCH   9  10
ATOM     10  C   UNL     1      24.450  13.688  52.270  1.00  0.00     0.006 C 
BRANCH  10  11
ATOM     11  C   UNL     1      25.268  13.379  53.531  1.00  0.00     0.053 C 
BRANCH  11  12
ATOM     12  C   UNL     1      24.904  14.318  54.637  1.00  0.00     0.041 C 
ATOM     13  O   UNL     1      23.802  14.193  55.236  1.00  0.00    -0.550 OA
ATOM     14  O   UNL     1      25.762  15.354  54.985  1.00  0.00    -0.550 OA
ENDBRANCH  11  12
ENDBRANCH  10  11
ENDBRANCH   9  10
ENDBRANCH   8   9
ENDBRANCH   7   8
ENDBRANCH   6   7
ENDBRANCH   5   6
ENDBRANCH   4   5
ENDBRANCH   3   4
ENDBRANCH   2   3
ENDBRANCH   1   2
BRANCH   1  15
ATOM     15  C   UNL     1      21.090  11.405  49.014  1.00  0.00     0.000 C 
BRANCH  15  16
ATOM     16  C   UNL     1      20.685  10.055  49.629  1.00  0.00     0.000 C 
BRANCH  16  17
ATOM     17  C   UNL     1      19.424  10.159  50.506  1.00  0.00     0.000 C 
BRANCH  17  18
ATOM     18  C   UNL     1      18.133  10.180  49.669  1.00  0.00    -0.000 C 
BRANCH  18  19
ATOM     19  C   UNL     1      17.069   9.215  50.210  1.00  0.00    -0.000 C 
BRANCH  19  20
ATOM     20  C   UNL     1      17.620   7.783  50.294  1.00  0.00    -0.000 C 
BRANCH  20  21
ATOM     21  C   UNL     1      16.680   6.741  49.662  1.00  0.00    -0.000 C 
BRANCH  21  22
ATOM     22  C   UNL     1      15.207   7.200  49.605  1.00  0.00    -0.000 C 
BRANCH  22  23
ATOM     23  C   UNL     1      14.629   7.117  48.181  1.00  0.00    -0.000 C 
BRANCH  23  24
ATOM     24  C   UNL     1      15.017   8.321  47.310  1.00  0.00    -0.000 C 
BRANCH  24  25
ATOM     25  C   UNL     1      15.825   7.920  46.068  1.00  0.00    -0.003 C 
ATOM     26  C   UNL     1      17.267   7.584  46.435  1.00  0.00     0.004 C 
ENDBRANCH  24  25
ENDBRANCH  23  24
ENDBRANCH  22  23
ENDBRANCH  21  22
ENDBRANCH  20  21
ENDBRANCH  19  20
ENDBRANCH  18  19
ENDBRANCH  17  18
ENDBRANCH  16  17
ENDBRANCH  15  16
ENDBRANCH   1  15
TORSDOF 22
ENDMDL
MODEL 2
REMARK VINA RESULT:    -4.995      4.505     10.503
REMARK INTER + INTRA:         -13.734
REMARK INTER:                 -11.976
REMARK INTRA:                  -1.758
REMARK UNBOUND:                -2.314
REMARK SMILES CCCCCCCCCCCCCCCCCCCCCCCC(=O)[O-]
REMARK SMILES IDX 13 1 14 2 15 3 16 4 17 5 18 6 19 7 20 8 21 9 22 10 23 11
REMARK SMILES IDX 24 12 25 13 26 14 12 15 11 16 10 17 9 18 8 19 7 20 6 21 5 22
REMARK SMILES IDX 4 23 3 24 2 25 1 26
REMARK H PARENT
REMARK Flexibility Score: inf
ROOT
ATOM      1  C   UNL     1      22.110  12.782  49.852  1.00  0.00     0.000 C 
ENDROOT
BRANCH   1   2
ATOM      2  C   UNL     1      21.731  11.461  49.150  1.00  0.00     0.000 C 
BRANCH   2   3
ATOM      3  C   UNL     1      20.467  10.788  49.721  1.00  0.00     0.000 C 
BRANCH   3   4
ATOM      4  C   UNL     1      20.326   9.288  49.411  1.00  0.00     0.000 C 
BRANCH   4   5
ATOM      5  C   UNL     1      19.870   8.469  50.630  1.00  0.00     0.000 C 
BRANCH   5   6
ATOM      6  C   UNL     1      18.966   9.268  51.586  1.00  0.00     0.000 C 
BRANCH   6   7
ATOM      7  C   UNL     1      17.584   9.643  51.020  1.00  0.00     0.000 C 
BRANCH   7   8
ATOM      8  C   UNL     1      17.175   8.782  49.815  1.00  0.00     0.000 C 
BRANCH   8   9
ATOM      9  C   UNL     1      16.157   7.707  50.226  1.00  0.00     0.000 C 
BRANCH   9  10
ATOM     10  C   UNL     1      16.016   6.592  49.178  1.00  0.00     0.006 C 
BRANCH  10  11
ATOM     11  C   UNL     1      14.705   6.683  48.386  1.00  0.00     0.053 C 
BRANCH  11  12
ATOM     12  C   UNL     1      14.874   7.570  47.193  1.00  0.00     0.041 C 
ATOM     13  O   UNL     1      13.911   8.275  46.787  1.00  0.00    -0.550 OA
ATOM     14  O   UNL     1      16.082   7.596  46.506  1.00  0.00    -0.550 OA
ENDBRANCH  11  12
ENDBRANCH  10  11
ENDBRANCH   9  10
ENDBRANCH   8   9
ENDBRANCH   7   8
ENDBRANCH   6   7
ENDBRANCH   5   6
ENDBRANCH   4   5
ENDBRANCH   3   4
ENDBRANCH   2   3
ENDBRANCH   1   2
BRANCH   1  15
ATOM     15  C   UNL     1      22.963  13.699  48.957  1.00  0.00     0.000 C 
BRANCH  15  16
ATOM     16  C   UNL     1      23.941  12.914  48.067  1.00  0.00     0.000 C 
BRANCH  16  17
ATOM     17  C   UNL     1      24.907  13.832  47.296  1.00  0.00     0.000 C 
BRANCH  17  18
ATOM     18  C   UNL     1      26.379  13.555  47.650  1.00  0.00    -0.000 C 
BRANCH  18  19
ATOM     19  C   UNL     1      27.337  13.958  46.520  1.00  0.00    -0.000 C 
BRANCH  19  20
ATOM     20  C   UNL     1      26.559  14.454  45.293  1.00  0.00    -0.000 C 
BRANCH  20  21
ATOM     21  C   UNL     1      26.847  13.628  44.026  1.00  0.00    -0.000 C 
BRANCH  21  22
ATOM     22  C   UNL     1      27.007  12.117  44.303  1.00  0.00    -0.000 C 
BRANCH  22  23
ATOM     23  C   UNL     1      25.655  11.432  44.573  1.00  0.00    -0.000 C 
BRANCH  23  24
ATOM     24  C   UNL     1      25.809   9.989  45.075  1.00  0.00    -0.000 C 
BRANCH  24  25
ATOM     25  C   UNL     1      26.998   9.817  46.032  1.00  0.00    -0.003 C 
ATOM     26  C   UNL     1      26.572  10.030  47.481  1.00  0.00     0.004 C 
ENDBRANCH  24  25
ENDBRANCH  23  24
ENDBRANCH  22  23
ENDBRANCH  21  22
ENDBRANCH  20  21
ENDBRANCH  19  20
ENDBRANCH  18  19
ENDBRANCH  17  18
ENDBRANCH  16  17
ENDBRANCH  15  16
ENDBRANCH   1  15
TORSDOF 22
ENDMDL
MODEL 3
REMARK VINA RESULT:    -4.991     10.137     12.939
REMARK INTER + INTRA:         -13.725
REMARK INTER:                  -9.576
REMARK INTRA:                  -4.149
REMARK UNBOUND:                -2.314
REMARK SMILES CCCCCCCCCCCCCCCCCCCCCCCC(=O)[O-]
REMARK SMILES IDX 13 1 14 2 15 3 16 4 17 5 18 6 19 7 20 8 21 9 22 10 23 11
REMARK SMILES IDX 24 12 25 13 26 14 12 15 11 16 10 17 9 18 8 19 7 20 6 21 5 22
REMARK SMILES IDX 4 23 3 24 2 25 1 26
REMARK H PARENT
REMARK Flexibility Score: inf
ROOT
ATOM      1  C   UNL     1      22.912   3.212  45.941  1.00  0.00     0.000 C 
ENDROOT
BRANCH   1   2
ATOM      2  C   UNL     1      23.932   4.371  45.901  1.00  0.00     0.000 C 
BRANCH   2   3
ATOM      3  C   UNL     1      25.240   4.080  46.662  1.00  0.00     0.000 C 
BRANCH   3   4
ATOM      4  C   UNL     1      25.140   2.994  47.747  1.00  0.00     0.000 C 
BRANCH   4   5
ATOM      5  C   UNL     1      26.372   2.073  47.782  1.00  0.00     0.000 C 
BRANCH   5   6
ATOM      6  C   UNL     1      26.038   0.643  48.247  1.00  0.00     0.000 C 
BRANCH   6   7
ATOM      7  C   UNL     1      24.751   0.509  49.081  1.00  0.00     0.000 C 
BRANCH   7   8
ATOM      8  C   UNL     1      23.633  -0.243  48.342  1.00  0.00     0.000 C 
BRANCH   8   9
ATOM      9  C   UNL     1      22.310   0.538  48.404  1.00  0.00     0.000 C 
BRANCH   9  10
ATOM     10  C   UNL     1      21.255  -0.006  47.428  1.00  0.00     0.006 C 
BRANCH  10  11
ATOM     11  C   UNL     1      19.839   0.495  47.743  1.00  0.00     0.053 C 
BRANCH  11  12
ATOM     12  C   UNL     1      18.818  -0.502  47.295  1.00  0.00     0.041 C 
ATOM     13  O   UNL     1      18.496  -1.460  48.047  1.00  0.00    -0.550 OA
ATOM     14  O   UNL     1      18.244  -0.395  46.033  1.00  0.00    -0.550 OA
ENDBRANCH  11  12
ENDBRANCH  10  11
ENDBRANCH   9  10
ENDBRANCH   8   9
ENDBRANCH   7   8
ENDBRANCH   6   7
ENDBRANCH   5   6
ENDBRANCH   4   5
ENDBRANCH   3   4
ENDBRANCH   2   3
ENDBRANCH   1   2
BRANCH   1  15
ATOM     15  C   UNL     1      22.963   2.343  44.671  1.00  0.00     0.000 C 
BRANCH  15  16
ATOM     16  C   UNL     1      23.672   0.998  44.901  1.00  0.00     0.000 C 
BRANCH  16  17
ATOM     17  C   UNL     1      25.145   1.020  44.452  1.00  0.00     0.000 C 
BRANCH  17  18
ATOM     18  C   UNL     1      25.368   1.932  43.233  1.00  0.00    -0.000 C 
BRANCH  18  19
ATOM     19  C   UNL     1      26.578   2.860  43.412  1.00  0.00    -0.000 C 
BRANCH  19  20
ATOM     20  C   UNL     1      26.235   4.296  42.988  1.00  0.00    -0.000 C 
BRANCH  20  21
ATOM     21  C   UNL     1      25.104   4.360  41.945  1.00  0.00    -0.000 C 
BRANCH  21  22
ATOM     22  C   UNL     1      23.950   5.301  42.350  1.00  0.00    -0.000 C 
BRANCH  22  23
ATOM     23  C   UNL     1      24.463   6.635  42.921  1.00  0.00    -0.000 C 
BRANCH  23  24
ATOM     24  C   UNL     1      24.481   7.761  41.878  1.00  0.00    -0.000 C 
BRANCH  24  25
ATOM     25  C   UNL     1      25.864   7.959  41.240  1.00  0.00    -0.003 C 
ATOM     26  C   UNL     1      26.776   8.776  42.149  1.00  0.00     0.004 C 
ENDBRANCH  24  25
ENDBRANCH  23  24
ENDBRANCH  22  23
ENDBRANCH  21  22
ENDBRANCH  20  21
ENDBRANCH  19  20
ENDBRANCH  18  19
ENDBRANCH  17  18
ENDBRANCH  16  17
ENDBRANCH  15  16
ENDBRANCH   1  15
TORSDOF 22
ENDMDL
MODEL 4
REMARK VINA RESULT:    -4.909      8.970     11.441
REMARK INTER + INTRA:         -13.538
REMARK INTER:                 -11.175
REMARK INTRA:                  -2.362
REMARK UNBOUND:                -2.314
REMARK SMILES CCCCCCCCCCCCCCCCCCCCCCCC(=O)[O-]
REMARK SMILES IDX 13 1 14 2 15 3 16 4 17 5 18 6 19 7 20 8 21 9 22 10 23 11
REMARK SMILES IDX 24 12 25 13 26 14 12 15 11 16 10 17 9 18 8 19 7 20 6 21 5 22
REMARK SMILES IDX 4 23 3 24 2 25 1 26
REMARK H PARENT
REMARK Flexibility Score: inf
ROOT
ATOM      1  C   UNL     1      21.565   1.203  46.694  1.00  0.00     0.000 C 
ENDROOT
BRANCH   1   2
ATOM      2  C   UNL     1      22.583   0.239  46.047  1.00  0.00     0.000 C 
BRANCH   2   3
ATOM      3  C   UNL     1      22.814  -1.057  46.849  1.00  0.00     0.000 C 
BRANCH   3   4
ATOM      4  C   UNL     1      24.272  -1.322  47.262  1.00  0.00     0.000 C 
BRANCH   4   5
ATOM      5  C   UNL     1      24.501  -1.157  48.774  1.00  0.00     0.000 C 
BRANCH   5   6
ATOM      6  C   UNL     1      24.477   0.314  49.227  1.00  0.00     0.000 C 
BRANCH   6   7
ATOM      7  C   UNL     1      25.338   1.273  48.385  1.00  0.00     0.000 C 
BRANCH   7   8
ATOM      8  C   UNL     1      24.649   2.620  48.116  1.00  0.00     0.000 C 
BRANCH   8   9
ATOM      9  C   UNL     1      24.850   3.060  46.657  1.00  0.00     0.000 C 
BRANCH   9  10
ATOM     10  C   UNL     1      24.093   4.353  46.318  1.00  0.00     0.006 C 
BRANCH  10  11
ATOM     11  C   UNL     1      25.031   5.531  46.023  1.00  0.00     0.053 C 
BRANCH  11  12
ATOM     12  C   UNL     1      25.117   5.777  44.549  1.00  0.00     0.041 C 
ATOM     13  O   UNL     1      24.569   4.979  43.742  1.00  0.00    -0.550 OA
ATOM     14  O   UNL     1      25.831   6.865  44.063  1.00  0.00    -0.550 OA
ENDBRANCH  11  12
ENDBRANCH  10  11
ENDBRANCH   9  10
ENDBRANCH   8   9
ENDBRANCH   7   8
ENDBRANCH   6   7
ENDBRANCH   5   6
ENDBRANCH   4   5
ENDBRANCH   3   4
ENDBRANCH   2   3
ENDBRANCH   1   2
BRANCH   1  15
ATOM     15  C   UNL     1      20.981   0.646  48.005  1.00  0.00     0.000 C 
BRANCH  15  16
ATOM     16  C   UNL     1      19.468   0.385  47.917  1.00  0.00     0.000 C 
BRANCH  16  17
ATOM     17  C   UNL     1      19.135  -0.919  47.170  1.00  0.00     0.000 C 
BRANCH  17  18
ATOM     18  C   UNL     1      18.052  -1.741  47.890  1.00  0.00    -0.000 C 
BRANCH  18  19
ATOM     19  C   UNL     1      16.739  -1.800  47.097  1.00  0.00    -0.000 C 
BRANCH  19  20
ATOM     20  C   UNL     1      15.581  -1.201  47.909  1.00  0.00    -0.000 C 
BRANCH  20  21
ATOM     21  C   UNL     1      15.599   0.338  47.933  1.00  0.00    -0.000 C 
BRANCH  21  22
ATOM     22  C   UNL     1      14.320   0.956  48.539  1.00  0.00    -0.000 C 
BRANCH  22  23
ATOM     23  C   UNL     1      13.519   1.763  47.502  1.00  0.00    -0.000 C 
BRANCH  23  24
ATOM     24  C   UNL     1      12.859   0.874  46.438  1.00  0.00    -0.000 C 
BRANCH  24  25
ATOM     25  C   UNL     1      12.657   1.599  45.099  1.00  0.00    -0.003 C 
ATOM     26  C   UNL     1      11.175   1.806  44.804  1.00  0.00     0.004 C 
ENDBRANCH  24  25
ENDBRANCH  23  24
ENDBRANCH  22  23
ENDBRANCH  21  22
ENDBRANCH  20  21
ENDBRANCH  19  20
ENDBRANCH  18  19
ENDBRANCH  17  18
ENDBRANCH  16  17
ENDBRANCH  15  16
ENDBRANCH   1  15
TORSDOF 22
ENDMDL
MODEL 5
REMARK VINA RESULT:    -4.908     10.855     15.034
REMARK INTER + INTRA:         -13.535
REMARK INTER:                 -11.026
REMARK INTRA:                  -2.509
REMARK UNBOUND:                -2.314
REMARK SMILES CCCCCCCCCCCCCCCCCCCCCCCC(=O)[O-]
REMARK SMILES IDX 13 1 14 2 15 3 16 4 17 5 18 6 19 7 20 8 21 9 22 10 23 11
REMARK SMILES IDX 24 12 25 13 26 14 12 15 11 16 10 17 9 18 8 19 7 20 6 21 5 22
REMARK SMILES IDX 4 23 3 24 2 25 1 26
REMARK H PARENT
REMARK Flexibility Score: inf
ROOT
ATOM      1  C   UNL     1      21.109   0.395  47.260  1.00  0.00     0.000 C 
ENDROOT
BRANCH   1   2
ATOM      2  C   UNL     1      19.709   0.316  47.906  1.00  0.00     0.000 C 
BRANCH   2   3
ATOM      3  C   UNL     1      18.872  -0.891  47.439  1.00  0.00     0.000 C 
BRANCH   3   4
ATOM      4  C   UNL     1      17.539  -0.541  46.756  1.00  0.00     0.000 C 
BRANCH   4   5
ATOM      5  C   UNL     1      16.356  -1.356  47.307  1.00  0.00     0.000 C 
BRANCH   5   6
ATOM      6  C   UNL     1      15.321  -0.488  48.044  1.00  0.00     0.000 C 
BRANCH   6   7
ATOM      7  C   UNL     1      15.641   1.018  48.088  1.00  0.00     0.000 C 
BRANCH   7   8
ATOM      8  C   UNL     1      14.388   1.893  48.245  1.00  0.00     0.000 C 
BRANCH   8   9
ATOM      9  C   UNL     1      13.176   1.250  47.552  1.00  0.00     0.000 C 
BRANCH   9  10
ATOM     10  C   UNL     1      13.025   1.694  46.089  1.00  0.00     0.006 C 
BRANCH  10  11
ATOM     11  C   UNL     1      12.418   0.603  45.196  1.00  0.00     0.053 C 
BRANCH  11  12
ATOM     12  C   UNL     1      11.410   1.192  44.261  1.00  0.00     0.041 C 
ATOM     13  O   UNL     1      10.445   0.493  43.848  1.00  0.00    -0.550 OA
ATOM     14  O   UNL     1      11.551   2.501  43.815  1.00  0.00    -0.550 OA
ENDBRANCH  11  12
ENDBRANCH  10  11
ENDBRANCH   9  10
ENDBRANCH   8   9
ENDBRANCH   7   8
ENDBRANCH   6   7
ENDBRANCH   5   6
ENDBRANCH   4   5
ENDBRANCH   3   4
ENDBRANCH   2   3
ENDBRANCH   1   2
BRANCH   1  15
ATOM     15  C   UNL     1      22.191   0.844  48.259  1.00  0.00     0.000 C 
BRANCH  15  16
ATOM     16  C   UNL     1      23.437  -0.056  48.229  1.00  0.00     0.000 C 
BRANCH  16  17
ATOM     17  C   UNL     1      24.592   0.501  49.079  1.00  0.00     0.000 C 
BRANCH  17  18
ATOM     18  C   UNL     1      25.688   1.152  48.217  1.00  0.00    -0.000 C 
BRANCH  18  19
ATOM     19  C   UNL     1      25.335   2.589  47.810  1.00  0.00    -0.000 C 
BRANCH  19  20
ATOM     20  C   UNL     1      24.936   2.656  46.328  1.00  0.00    -0.000 C 
BRANCH  20  21
ATOM     21  C   UNL     1      23.667   3.493  46.086  1.00  0.00    -0.000 C 
BRANCH  21  22
ATOM     22  C   UNL     1      22.730   2.891  45.017  1.00  0.00    -0.000 C 
BRANCH  22  23
ATOM     23  C   UNL     1      23.420   2.765  43.646  1.00  0.00    -0.000 C 
BRANCH  23  24
ATOM     24  C   UNL     1      23.353   1.341  43.076  1.00  0.00    -0.000 C 
BRANCH  24  25
ATOM     25  C   UNL     1      22.955   0.297  44.129  1.00  0.00    -0.003 C 
ATOM     26  C   UNL     1      24.161  -0.530  44.566  1.00  0.00     0.004 C 
ENDBRANCH  24  25
ENDBRANCH  23  24
ENDBRANCH  22  23
ENDBRANCH  21  22
ENDBRANCH  20  21
ENDBRANCH  19  20
ENDBRANCH  18  19
ENDBRANCH  17  18
ENDBRANCH  16  17
ENDBRANCH  15  16
ENDBRANCH   1  15
TORSDOF 22
ENDMDL
MODEL 6
REMARK VINA RESULT:    -4.903     11.658     14.131
REMARK INTER + INTRA:         -13.524
REMARK INTER:                 -10.097
REMARK INTRA:                  -3.426
REMARK UNBOUND:                -2.314
REMARK SMILES CCCCCCCCCCCCCCCCCCCCCCCC(=O)[O-]
REMARK SMILES IDX 13 1 14 2 15 3 16 4 17 5 18 6 19 7 20 8 21 9 22 10 23 11
REMARK SMILES IDX 24 12 25 13 26 14 12 15 11 16 10 17 9 18 8 19 7 20 6 21 5 22
REMARK SMILES IDX 4 23 3 24 2 25 1 26
REMARK H PARENT
REMARK Flexibility Score: inf
ROOT
ATOM      1  C   UNL     1      14.594   1.881  48.124  1.00  0.00     0.000 C 
ENDROOT
BRANCH   1   2
ATOM      2  C   UNL     1      15.648   0.764  48.276  1.00  0.00     0.000 C 
BRANCH   2   3
ATOM      3  C   UNL     1      16.640   0.674  47.100  1.00  0.00     0.000 C 
BRANCH   3   4
ATOM      4  C   UNL     1      17.993   0.021  47.431  1.00  0.00     0.000 C 
BRANCH   4   5
ATOM      5  C   UNL     1      17.859  -1.461  47.821  1.00  0.00     0.000 C 
BRANCH   5   6
ATOM      6  C   UNL     1      18.405  -2.417  46.745  1.00  0.00     0.000 C 
BRANCH   6   7
ATOM      7  C   UNL     1      18.836  -1.743  45.429  1.00  0.00     0.000 C 
BRANCH   7   8
ATOM      8  C   UNL     1      20.317  -1.980  45.092  1.00  0.00     0.000 C 
BRANCH   8   9
ATOM      9  C   UNL     1      21.002  -0.669  44.671  1.00  0.00     0.000 C 
BRANCH   9  10
ATOM     10  C   UNL     1      21.326   0.240  45.867  1.00  0.00     0.006 C 
BRANCH  10  11
ATOM     11  C   UNL     1      22.434  -0.329  46.763  1.00  0.00     0.053 C 
BRANCH  11  12
ATOM     12  C   UNL     1      22.427   0.346  48.098  1.00  0.00     0.041 C 
ATOM     13  O   UNL     1      21.421   1.009  48.467  1.00  0.00    -0.550 OA
ATOM     14  O   UNL     1      23.543   0.274  48.924  1.00  0.00    -0.550 OA
ENDBRANCH  11  12
ENDBRANCH  10  11
ENDBRANCH   9  10
ENDBRANCH   8   9
ENDBRANCH   7   8
ENDBRANCH   6   7
ENDBRANCH   5   6
ENDBRANCH   4   5
ENDBRANCH   3   4
ENDBRANCH   2   3
ENDBRANCH   1   2
BRANCH   1  15
ATOM     15  C   UNL     1      13.154   1.343  48.198  1.00  0.00     0.000 C 
BRANCH  15  16
ATOM     16  C   UNL     1      12.720   0.630  46.907  1.00  0.00     0.000 C 
BRANCH  16  17
ATOM     17  C   UNL     1      13.189   1.364  45.638  1.00  0.00     0.000 C 
BRANCH  17  18
ATOM     18  C   UNL     1      12.012   1.944  44.833  1.00  0.00    -0.000 C 
BRANCH  18  19
ATOM     19  C   UNL     1      11.813   1.227  43.491  1.00  0.00    -0.000 C 
BRANCH  19  20
ATOM     20  C   UNL     1      10.911  -0.005  43.658  1.00  0.00    -0.000 C 
BRANCH  20  21
ATOM     21  C   UNL     1      11.490  -1.267  42.992  1.00  0.00    -0.000 C 
BRANCH  21  22
ATOM     22  C   UNL     1      11.416  -2.521  43.889  1.00  0.00    -0.000 C 
BRANCH  22  23
ATOM     23  C   UNL     1      12.496  -2.513  44.986  1.00  0.00    -0.000 C 
BRANCH  23  24
ATOM     24  C   UNL     1      13.893  -2.181  44.443  1.00  0.00    -0.000 C 
BRANCH  24  25
ATOM     25  C   UNL     1      14.949  -2.062  45.551  1.00  0.00    -0.003 C 
ATOM     26  C   UNL     1      14.452  -2.685  46.852  1.00  0.00     0.004 C 
ENDBRANCH  24  25
ENDBRANCH  23  24
ENDBRANCH  22  23
ENDBRANCH  21  22
ENDBRANCH  20  21
ENDBRANCH  19  20
ENDBRANCH  18  19
ENDBRANCH  17  18
ENDBRANCH  16  17
ENDBRANCH  15  16
ENDBRANCH   1  15
TORSDOF 22
ENDMDL
MODEL 7
REMARK VINA RESULT:    -4.897     11.984     16.416
REMARK INTER + INTRA:         -13.511
REMARK INTER:                 -11.062
REMARK INTRA:                  -2.449
REMARK UNBOUND:                -2.314
REMARK SMILES CCCCCCCCCCCCCCCCCCCCCCCC(=O)[O-]
REMARK SMILES IDX 13 1 14 2 15 3 16 4 17 5 18 6 19 7 20 8 21 9 22 10 23 11
REMARK SMILES IDX 24 12 25 13 26 14 12 15 11 16 10 17 9 18 8 19 7 20 6 21 5 22
REMARK SMILES IDX 4 23 3 24 2 25 1 26
REMARK H PARENT
REMARK Flexibility Score: inf
ROOT
ATOM      1  C   UNL     1      16.528  -2.103  45.616  1.00  0.00     0.000 C 
ENDROOT
BRANCH   1   2
ATOM      2  C   UNL     1      16.589  -2.233  47.153  1.00  0.00     0.000 C 
BRANCH   2   3
ATOM      3  C   UNL     1      15.657  -1.260  47.902  1.00  0.00     0.000 C 
BRANCH   3   4
ATOM      4  C   UNL     1      16.098   0.213  47.887  1.00  0.00     0.000 C 
BRANCH   4   5
ATOM      5  C   UNL     1      14.916   1.187  47.738  1.00  0.00     0.000 C 
BRANCH   5   6
ATOM      6  C   UNL     1      14.120   0.969  46.438  1.00  0.00     0.000 C 
BRANCH   6   7
ATOM      7  C   UNL     1      12.737   0.317  46.620  1.00  0.00     0.000 C 
BRANCH   7   8
ATOM      8  C   UNL     1      12.627  -1.057  45.941  1.00  0.00     0.000 C 
BRANCH   8   9
ATOM      9  C   UNL     1      13.185  -1.010  44.509  1.00  0.00     0.000 C 
BRANCH   9  10
ATOM     10  C   UNL     1      12.155  -0.502  43.488  1.00  0.00     0.006 C 
BRANCH  10  11
ATOM     11  C   UNL     1      12.462   0.916  42.989  1.00  0.00     0.053 C 
BRANCH  11  12
ATOM     12  C   UNL     1      11.499   1.899  43.577  1.00  0.00     0.041 C 
ATOM     13  O   UNL     1      11.674   3.135  43.407  1.00  0.00    -0.550 OA
ATOM     14  O   UNL     1      10.427   1.454  44.341  1.00  0.00    -0.550 OA
ENDBRANCH  11  12
ENDBRANCH  10  11
ENDBRANCH   9  10
ENDBRANCH   8   9
ENDBRANCH   7   8
ENDBRANCH   6   7
ENDBRANCH   5   6
ENDBRANCH   4   5
ENDBRANCH   3   4
ENDBRANCH   2   3
ENDBRANCH   1   2
BRANCH   1  15
ATOM     15  C   UNL     1      17.927  -2.067  44.975  1.00  0.00     0.000 C 
BRANCH  15  16
ATOM     16  C   UNL     1      19.057  -2.152  46.013  1.00  0.00     0.000 C 
BRANCH  16  17
ATOM     17  C   UNL     1      19.879  -0.853  46.101  1.00  0.00     0.000 C 
BRANCH  17  18
ATOM     18  C   UNL     1      19.769  -0.188  47.485  1.00  0.00    -0.000 C 
BRANCH  18  19
ATOM     19  C   UNL     1      20.732   0.997  47.641  1.00  0.00    -0.000 C 
BRANCH  19  20
ATOM     20  C   UNL     1      22.037   0.557  48.320  1.00  0.00    -0.000 C 
BRANCH  20  21
ATOM     21  C   UNL     1      23.293   1.082  47.603  1.00  0.00    -0.000 C 
BRANCH  21  22
ATOM     22  C   UNL     1      24.391   0.011  47.427  1.00  0.00    -0.000 C 
BRANCH  22  23
ATOM     23  C   UNL     1      24.108  -1.252  48.262  1.00  0.00    -0.000 C 
BRANCH  23  24
ATOM     24  C   UNL     1      25.084  -1.421  49.434  1.00  0.00    -0.000 C 
BRANCH  24  25
ATOM     25  C   UNL     1      26.105  -2.544  49.201  1.00  0.00    -0.003 C 
ATOM     26  C   UNL     1      27.532  -2.035  49.381  1.00  0.00     0.004 C 
ENDBRANCH  24  25
ENDBRANCH  23  24
ENDBRANCH  22  23
ENDBRANCH  21  22
ENDBRANCH  20  21
ENDBRANCH  19  20
ENDBRANCH  18  19
ENDBRANCH  17  18
ENDBRANCH  16  17
ENDBRANCH  15  16
ENDBRANCH   1  15
TORSDOF 22
ENDMDL
MODEL 8
REMARK VINA RESULT:    -4.831     10.733     14.988
REMARK INTER + INTRA:         -13.358
REMARK INTER:                 -10.340
REMARK INTRA:                  -3.018
REMARK UNBOUND:                -2.314
REMARK SMILES CCCCCCCCCCCCCCCCCCCCCCCC(=O)[O-]
REMARK SMILES IDX 13 1 14 2 15 3 16 4 17 5 18 6 19 7 20 8 21 9 22 10 23 11
REMARK SMILES IDX 24 12 25 13 26 14 12 15 11 16 10 17 9 18 8 19 7 20 6 21 5 22
REMARK SMILES IDX 4 23 3 24 2 25 1 26
REMARK H PARENT
REMARK Flexibility Score: inf
ROOT
ATOM      1  C   UNL     1      23.802   0.270  48.785  1.00  0.00     0.000 C 
ENDROOT
BRANCH   1   2
ATOM      2  C   UNL     1      23.371  -0.702  47.665  1.00  0.00     0.000 C 
BRANCH   2   3
ATOM      3  C   UNL     1      22.143  -0.228  46.862  1.00  0.00     0.000 C 
BRANCH   3   4
ATOM      4  C   UNL     1      21.369   0.949  47.482  1.00  0.00     0.000 C 
BRANCH   4   5
ATOM      5  C   UNL     1      19.937   0.567  47.894  1.00  0.00     0.000 C 
BRANCH   5   6
ATOM      6  C   UNL     1      19.456  -0.744  47.247  1.00  0.00     0.000 C 
BRANCH   6   7
ATOM      7  C   UNL     1      18.176  -1.345  47.858  1.00  0.00     0.000 C 
BRANCH   7   8
ATOM      8  C   UNL     1      16.901  -0.929  47.108  1.00  0.00     0.000 C 
BRANCH   8   9
ATOM      9  C   UNL     1      16.160   0.188  47.860  1.00  0.00     0.000 C 
BRANCH   9  10
ATOM     10  C   UNL     1      14.642  -0.043  47.918  1.00  0.00     0.006 C 
BRANCH  10  11
ATOM     11  C   UNL     1      14.080  -0.636  46.619  1.00  0.00     0.053 C 
BRANCH  11  12
ATOM     12  C   UNL     1      13.134   0.324  45.970  1.00  0.00     0.041 C 
ATOM     13  O   UNL     1      12.213  -0.102  45.222  1.00  0.00    -0.550 OA
ATOM     14  O   UNL     1      13.287   1.692  46.161  1.00  0.00    -0.550 OA
ENDBRANCH  11  12
ENDBRANCH  10  11
ENDBRANCH   9  10
ENDBRANCH   8   9
ENDBRANCH   7   8
ENDBRANCH   6   7
ENDBRANCH   5   6
ENDBRANCH   4   5
ENDBRANCH   3   4
ENDBRANCH   2   3
ENDBRANCH   1   2
BRANCH   1  15
ATOM     15  C   UNL     1      24.791  -0.376  49.772  1.00  0.00     0.000 C 
BRANCH  15  16
ATOM     16  C   UNL     1      25.137  -1.827  49.402  1.00  0.00     0.000 C 
BRANCH  16  17
ATOM     17  C   UNL     1      26.640  -2.030  49.143  1.00  0.00     0.000 C 
BRANCH  17  18
ATOM     18  C   UNL     1      27.273  -0.830  48.416  1.00  0.00    -0.000 C 
BRANCH  18  19
ATOM     19  C   UNL     1      27.089  -0.906  46.894  1.00  0.00    -0.000 C 
BRANCH  19  20
ATOM     20  C   UNL     1      26.832   0.487  46.303  1.00  0.00    -0.000 C 
BRANCH  20  21
ATOM     21  C   UNL     1      26.776   1.592  47.373  1.00  0.00    -0.000 C 
BRANCH  21  22
ATOM     22  C   UNL     1      27.256   2.967  46.860  1.00  0.00    -0.000 C 
BRANCH  22  23
ATOM     23  C   UNL     1      26.091   3.959  46.687  1.00  0.00    -0.000 C 
BRANCH  23  24
ATOM     24  C   UNL     1      24.737   3.362  47.095  1.00  0.00    -0.000 C 
BRANCH  24  25
ATOM     25  C   UNL     1      23.675   3.491  45.994  1.00  0.00    -0.003 C 
ATOM     26  C   UNL     1      23.836   2.397  44.944  1.00  0.00     0.004 C 
ENDBRANCH  24  25
ENDBRANCH  23  24
ENDBRANCH  22  23
ENDBRANCH  21  22
ENDBRANCH  20  21
ENDBRANCH  19  20
ENDBRANCH  18  19
ENDBRANCH  17  18
ENDBRANCH  16  17
ENDBRANCH  15  16
ENDBRANCH   1  15
TORSDOF 22
ENDMDL
MODEL 9
REMARK VINA RESULT:    -4.818     10.233     14.598
REMARK INTER + INTRA:         -13.328
REMARK INTER:                 -10.425
REMARK INTRA:                  -2.904
REMARK UNBOUND:                -2.314
REMARK SMILES CCCCCCCCCCCCCCCCCCCCCCCC(=O)[O-]
REMARK SMILES IDX 13 1 14 2 15 3 16 4 17 5 18 6 19 7 20 8 21 9 22 10 23 11
REMARK SMILES IDX 24 12 25 13 26 14 12 15 11 16 10 17 9 18 8 19 7 20 6 21 5 22
REMARK SMILES IDX 4 23 3 24 2 25 1 26
REMARK H PARENT
REMARK Flexibility Score: inf
ROOT
ATOM      1  C   UNL     1      21.982   0.968  48.264  1.00  0.00     0.000 C 
ENDROOT
BRANCH   1   2
ATOM      2  C   UNL     1      20.751   0.886  47.336  1.00  0.00     0.000 C 
BRANCH   2   3
ATOM      3  C   UNL     1      19.517   0.231  47.988  1.00  0.00     0.000 C 
BRANCH   3   4
ATOM      4  C   UNL     1      18.734  -0.736  47.085  1.00  0.00     0.000 C 
BRANCH   4   5
ATOM      5  C   UNL     1      18.388  -2.060  47.789  1.00  0.00     0.000 C 
BRANCH   5   6
ATOM      6  C   UNL     1      17.322  -2.878  47.038  1.00  0.00     0.000 C 
BRANCH   6   7
ATOM      7  C   UNL     1      16.568  -2.114  45.933  1.00  0.00     0.000 C 
BRANCH   7   8
ATOM      8  C   UNL     1      15.132  -1.743  46.333  1.00  0.00     0.000 C 
BRANCH   8   9
ATOM      9  C   UNL     1      15.049  -1.397  47.829  1.00  0.00     0.000 C 
BRANCH   9  10
ATOM     10  C   UNL     1      15.299   0.094  48.107  1.00  0.00     0.006 C 
BRANCH  10  11
ATOM     11  C   UNL     1      14.954   0.988  46.909  1.00  0.00     0.053 C 
BRANCH  11  12
ATOM     12  C   UNL     1      13.518   1.403  46.961  1.00  0.00     0.041 C 
ATOM     13  O   UNL     1      12.936   1.799  45.915  1.00  0.00    -0.550 OA
ATOM     14  O   UNL     1      12.828   1.385  48.167  1.00  0.00    -0.550 OA
ENDBRANCH  11  12
ENDBRANCH  10  11
ENDBRANCH   9  10
ENDBRANCH   8   9
ENDBRANCH   7   8
ENDBRANCH   6   7
ENDBRANCH   5   6
ENDBRANCH   4   5
ENDBRANCH   3   4
ENDBRANCH   2   3
ENDBRANCH   1   2
BRANCH   1  15
ATOM     15  C   UNL     1      23.025  -0.120  47.952  1.00  0.00     0.000 C 
BRANCH  15  16
ATOM     16  C   UNL     1      24.385   0.155  48.616  1.00  0.00     0.000 C 
BRANCH  16  17
ATOM     17  C   UNL     1      24.770   1.645  48.583  1.00  0.00     0.000 C 
BRANCH  17  18
ATOM     18  C   UNL     1      26.118   1.881  47.879  1.00  0.00    -0.000 C 
BRANCH  18  19
ATOM     19  C   UNL     1      25.990   2.818  46.670  1.00  0.00    -0.000 C 
BRANCH  19  20
ATOM     20  C   UNL     1      25.136   4.047  47.017  1.00  0.00    -0.000 C 
BRANCH  20  21
ATOM     21  C   UNL     1      24.136   4.415  45.907  1.00  0.00    -0.000 C 
BRANCH  21  22
ATOM     22  C   UNL     1      23.027   3.360  45.706  1.00  0.00    -0.000 C 
BRANCH  22  23
ATOM     23  C   UNL     1      23.169   2.619  44.364  1.00  0.00    -0.000 C 
BRANCH  23  24
ATOM     24  C   UNL     1      22.194   1.440  44.230  1.00  0.00    -0.000 C 
BRANCH  24  25
ATOM     25  C   UNL     1      22.910   0.092  44.069  1.00  0.00    -0.003 C 
ATOM     26  C   UNL     1      24.334   0.158  44.612  1.00  0.00     0.004 C 
ENDBRANCH  24  25
ENDBRANCH  23  24
ENDBRANCH  22  23
ENDBRANCH  21  22
ENDBRANCH  20  21
ENDBRANCH  19  20
ENDBRANCH  18  19
ENDBRANCH  17  18
ENDBRANCH  16  17
ENDBRANCH  15  16
ENDBRANCH   1  15
TORSDOF 22
ENDMDL
