MODEL 1
REMARK VINA RESULT:    -5.339      0.000      0.000
REMARK INTER + INTRA:          -9.246
REMARK INTER:                  -8.461
REMARK INTRA:                  -0.786
REMARK UNBOUND:                -0.786
REMARK SMILES CCCCCCCCCCCC(=O)[O-]
REMARK SMILES IDX 7 1 8 2 9 3 10 4 11 5 12 6 13 7 14 8 6 9 5 10 4 11 3 12 2 13
REMARK SMILES IDX 1 14
REMARK H PARENT
REMARK Flexibility Score: inf
ROOT
ATOM      1  C   UNL     1      88.718 324.919 196.778  1.00  0.00     0.000 C 
ENDROOT
BRANCH   1   2
ATOM      2  C   UNL     1      88.808 326.455 196.836  1.00  0.00     0.000 C 
BRANCH   2   3
ATOM      3  C   UNL     1      88.797 326.991 198.275  1.00  0.00     0.000 C 
BRANCH   3   4
ATOM      4  C   UNL     1      89.158 325.904 199.301  1.00  0.00     0.006 C 
BRANCH   4   5
ATOM      5  C   UNL     1      89.798 326.519 200.549  1.00  0.00     0.053 C 
BRANCH   5   6
ATOM      6  C   UNL     1      88.950 326.254 201.754  1.00  0.00     0.041 C 
ATOM      7  O   UNL     1      88.001 325.430 201.692  1.00  0.00    -0.550 OA
ATOM      8  O   UNL     1      89.177 326.956 202.931  1.00  0.00    -0.550 OA
ENDBRANCH   5   6
ENDBRANCH   4   5
ENDBRANCH   3   4
ENDBRANCH   2   3
ENDBRANCH   1   2
BRANCH   1   9
ATOM      9  C   UNL     1      87.591 324.437 195.841  1.00  0.00     0.000 C 
BRANCH   9  10
ATOM     10  C   UNL     1      86.626 325.560 195.420  1.00  0.00    -0.000 C 
BRANCH  10  11
ATOM     11  C   UNL     1      86.455 325.662 193.898  1.00  0.00    -0.000 C 
BRANCH  11  12
ATOM     12  C   UNL     1      87.816 325.696 193.189  1.00  0.00    -0.000 C 
BRANCH  12  13
ATOM     13  C   UNL     1      87.960 324.584 192.138  1.00  0.00    -0.003 C 
ATOM     14  C   UNL     1      86.635 323.886 191.829  1.00  0.00     0.004 C 
ENDBRANCH  12  13
ENDBRANCH  11  12
ENDBRANCH  10  11
ENDBRANCH   9  10
ENDBRANCH   1   9
TORSDOF 10
ENDMDL
MODEL 2
REMARK VINA RESULT:    -5.327     20.329     21.711
REMARK INTER + INTRA:          -9.227
REMARK INTER:                  -8.031
REMARK INTRA:                  -1.196
REMARK UNBOUND:                -0.786
REMARK SMILES CCCCCCCCCCCC(=O)[O-]
REMARK SMILES IDX 7 1 8 2 9 3 10 4 11 5 12 6 13 7 14 8 6 9 5 10 4 11 3 12 2 13
REMARK SMILES IDX 1 14
REMARK H PARENT
REMARK Flexibility Score: inf
ROOT
ATOM      1  C   UNL     1     104.230 311.746 192.578  1.00  0.00     0.000 C 
ENDROOT
BRANCH   1   2
ATOM      2  C   UNL     1     104.053 312.968 191.657  1.00  0.00     0.000 C 
BRANCH   2   3
ATOM      3  C   UNL     1     105.382 313.684 191.370  1.00  0.00     0.000 C 
BRANCH   3   4
ATOM      4  C   UNL     1     105.255 314.702 190.225  1.00  0.00     0.006 C 
BRANCH   4   5
ATOM      5  C   UNL     1     103.796 315.118 190.019  1.00  0.00     0.053 C 
BRANCH   5   6
ATOM      6  C   UNL     1     103.431 315.044 188.570  1.00  0.00     0.041 C 
ATOM      7  O   UNL     1     102.383 314.447 188.210  1.00  0.00    -0.550 OA
ATOM      8  O   UNL     1     104.274 315.592 187.612  1.00  0.00    -0.550 OA
ENDBRANCH   5   6
ENDBRANCH   4   5
ENDBRANCH   3   4
ENDBRANCH   2   3
ENDBRANCH   1   2
BRANCH   1   9
ATOM      9  C   UNL     1     105.627 311.709 193.231  1.00  0.00     0.000 C 
BRANCH   9  10
ATOM     10  C   UNL     1     105.597 311.952 194.751  1.00  0.00    -0.000 C 
BRANCH  10  11
ATOM     11  C   UNL     1     104.178 311.917 195.335  1.00  0.00    -0.000 C 
BRANCH  11  12
ATOM     12  C   UNL     1     103.798 313.272 195.946  1.00  0.00    -0.000 C 
BRANCH  12  13
ATOM     13  C   UNL     1     104.479 314.451 195.233  1.00  0.00    -0.003 C 
ATOM     14  C   UNL     1     103.503 315.283 194.399  1.00  0.00     0.004 C 
ENDBRANCH  12  13
ENDBRANCH  11  12
ENDBRANCH  10  11
ENDBRANCH   9  10
ENDBRANCH   1   9
TORSDOF 10
ENDMDL
MODEL 3
REMARK VINA RESULT:    -5.253      5.333      7.867
REMARK INTER + INTRA:          -9.109
REMARK INTER:                  -8.007
REMARK INTRA:                  -1.101
REMARK UNBOUND:                -0.786
REMARK SMILES CCCCCCCCCCCC(=O)[O-]
REMARK SMILES IDX 7 1 8 2 9 3 10 4 11 5 12 6 13 7 14 8 6 9 5 10 4 11 3 12 2 13
REMARK SMILES IDX 1 14
REMARK H PARENT
REMARK Flexibility Score: inf
ROOT
ATOM      1  C   UNL     1      86.229 325.892 193.974  1.00  0.00     0.000 C 
ENDROOT
BRANCH   1   2
ATOM      2  C   UNL     1      86.475 324.720 193.007  1.00  0.00     0.000 C 
BRANCH   2   3
ATOM      3  C   UNL     1      87.790 324.868 192.226  1.00  0.00     0.000 C 
BRANCH   3   4
ATOM      4  C   UNL     1      88.357 323.510 191.782  1.00  0.00     0.006 C 
BRANCH   4   5
ATOM      5  C   UNL     1      88.513 323.451 190.260  1.00  0.00     0.053 C 
BRANCH   5   6
ATOM      6  C   UNL     1      87.408 322.646 189.652  1.00  0.00     0.041 C 
ATOM      7  O   UNL     1      87.391 322.428 188.412  1.00  0.00    -0.550 OA
ATOM      8  O   UNL     1      86.370 322.178 190.448  1.00  0.00    -0.550 OA
ENDBRANCH   5   6
ENDBRANCH   4   5
ENDBRANCH   3   4
ENDBRANCH   2   3
ENDBRANCH   1   2
BRANCH   1   9
ATOM      9  C   UNL     1      87.401 326.895 193.981  1.00  0.00     0.000 C 
BRANCH   9  10
ATOM     10  C   UNL     1      88.474 326.574 195.037  1.00  0.00    -0.000 C 
BRANCH  10  11
ATOM     11  C   UNL     1      87.892 325.936 196.307  1.00  0.00    -0.000 C 
BRANCH  11  12
ATOM     12  C   UNL     1      88.643 324.650 196.674  1.00  0.00    -0.000 C 
BRANCH  12  13
ATOM     13  C   UNL     1      87.960 323.390 196.118  1.00  0.00    -0.003 C 
ATOM     14  C   UNL     1      88.908 322.513 195.300  1.00  0.00     0.004 C 
ENDBRANCH  12  13
ENDBRANCH  11  12
ENDBRANCH  10  11
ENDBRANCH   9  10
ENDBRANCH   1   9
TORSDOF 10
ENDMDL
MODEL 4
REMARK VINA RESULT:    -5.220     19.914     20.643
REMARK INTER + INTRA:          -9.057
REMARK INTER:                  -8.344
REMARK INTRA:                  -0.713
REMARK UNBOUND:                -0.786
REMARK SMILES CCCCCCCCCCCC(=O)[O-]
REMARK SMILES IDX 7 1 8 2 9 3 10 4 11 5 12 6 13 7 14 8 6 9 5 10 4 11 3 12 2 13
REMARK SMILES IDX 1 14
REMARK H PARENT
REMARK Flexibility Score: inf
ROOT
ATOM      1  C   UNL     1     103.869 313.211 195.911  1.00  0.00     0.000 C 
ENDROOT
BRANCH   1   2
ATOM      2  C   UNL     1     103.856 311.672 195.952  1.00  0.00     0.000 C 
BRANCH   2   3
ATOM      3  C   UNL     1     103.775 311.123 197.385  1.00  0.00     0.000 C 
BRANCH   3   4
ATOM      4  C   UNL     1     103.444 312.221 198.408  1.00  0.00     0.006 C 
BRANCH   4   5
ATOM      5  C   UNL     1     103.505 311.676 199.837  1.00  0.00     0.053 C 
BRANCH   5   6
ATOM      6  C   UNL     1     102.202 311.898 200.538  1.00  0.00     0.041 C 
ATOM      7  O   UNL     1     101.643 313.026 200.493  1.00  0.00    -0.550 OA
ATOM      8  O   UNL     1     101.629 310.875 201.282  1.00  0.00    -0.550 OA
ENDBRANCH   5   6
ENDBRANCH   4   5
ENDBRANCH   3   4
ENDBRANCH   2   3
ENDBRANCH   1   2
BRANCH   1   9
ATOM      9  C   UNL     1     104.684 313.753 194.718  1.00  0.00     0.000 C 
BRANCH   9  10
ATOM     10  C   UNL     1     105.685 312.732 194.148  1.00  0.00    -0.000 C 
BRANCH  10  11
ATOM     11  C   UNL     1     105.641 312.642 192.616  1.00  0.00    -0.000 C 
BRANCH  11  12
ATOM     12  C   UNL     1     104.197 312.521 192.110  1.00  0.00    -0.000 C 
BRANCH  12  13
ATOM     13  C   UNL     1     103.894 313.496 190.961  1.00  0.00    -0.003 C 
ATOM     14  C   UNL     1     105.129 314.267 190.495  1.00  0.00     0.004 C 
ENDBRANCH  12  13
ENDBRANCH  11  12
ENDBRANCH  10  11
ENDBRANCH   9  10
ENDBRANCH   1   9
TORSDOF 10
ENDMDL
MODEL 5
REMARK VINA RESULT:    -5.210     20.488     21.143
REMARK INTER + INTRA:          -9.041
REMARK INTER:                  -8.668
REMARK INTRA:                  -0.373
REMARK UNBOUND:                -0.786
REMARK SMILES CCCCCCCCCCCC(=O)[O-]
REMARK SMILES IDX 7 1 8 2 9 3 10 4 11 5 12 6 13 7 14 8 6 9 5 10 4 11 3 12 2 13
REMARK SMILES IDX 1 14
REMARK H PARENT
REMARK Flexibility Score: inf
ROOT
ATOM      1  C   UNL     1     103.901 312.407 195.882  1.00  0.00     0.000 C 
ENDROOT
BRANCH   1   2
ATOM      2  C   UNL     1     103.852 311.522 197.142  1.00  0.00     0.000 C 
BRANCH   2   3
ATOM      3  C   UNL     1     103.552 312.328 198.415  1.00  0.00     0.000 C 
BRANCH   3   4
ATOM      4  C   UNL     1     103.178 311.422 199.599  1.00  0.00     0.006 C 
BRANCH   4   5
ATOM      5  C   UNL     1     104.074 311.704 200.809  1.00  0.00     0.053 C 
BRANCH   5   6
ATOM      6  C   UNL     1     103.478 311.113 202.048  1.00  0.00     0.041 C 
ATOM      7  O   UNL     1     102.229 311.101 202.208  1.00  0.00    -0.550 OA
ATOM      8  O   UNL     1     104.305 310.621 203.050  1.00  0.00    -0.550 OA
ENDBRANCH   5   6
ENDBRANCH   4   5
ENDBRANCH   3   4
ENDBRANCH   2   3
ENDBRANCH   1   2
BRANCH   1   9
ATOM      9  C   UNL     1     104.210 311.591 194.610  1.00  0.00     0.000 C 
BRANCH   9  10
ATOM     10  C   UNL     1     105.637 311.807 194.077  1.00  0.00    -0.000 C 
BRANCH  10  11
ATOM     11  C   UNL     1     105.665 312.463 192.690  1.00  0.00    -0.000 C 
BRANCH  11  12
ATOM     12  C   UNL     1     104.254 312.554 192.092  1.00  0.00    -0.000 C 
BRANCH  12  13
ATOM     13  C   UNL     1     104.127 313.677 191.051  1.00  0.00    -0.003 C 
ATOM     14  C   UNL     1     105.481 314.258 190.638  1.00  0.00     0.004 C 
ENDBRANCH  12  13
ENDBRANCH  11  12
ENDBRANCH  10  11
ENDBRANCH   9  10
ENDBRANCH   1   9
TORSDOF 10
ENDMDL
MODEL 6
REMARK VINA RESULT:    -5.196     20.461     21.899
REMARK INTER + INTRA:          -9.020
REMARK INTER:                  -8.441
REMARK INTRA:                  -0.579
REMARK UNBOUND:                -0.786
REMARK SMILES CCCCCCCCCCCC(=O)[O-]
REMARK SMILES IDX 7 1 8 2 9 3 10 4 11 5 12 6 13 7 14 8 6 9 5 10 4 11 3 12 2 13
REMARK SMILES IDX 1 14
REMARK H PARENT
REMARK Flexibility Score: inf
ROOT
ATOM      1  C   UNL     1     104.166 311.537 192.911  1.00  0.00     0.000 C 
ENDROOT
BRANCH   1   2
ATOM      2  C   UNL     1     104.187 312.657 191.854  1.00  0.00     0.000 C 
BRANCH   2   3
ATOM      3  C   UNL     1     103.894 314.039 192.457  1.00  0.00     0.000 C 
BRANCH   3   4
ATOM      4  C   UNL     1     103.455 315.055 191.389  1.00  0.00     0.006 C 
BRANCH   4   5
ATOM      5  C   UNL     1     103.598 314.467 189.982  1.00  0.00     0.053 C 
BRANCH   5   6
ATOM      6  C   UNL     1     104.462 315.348 189.134  1.00  0.00     0.041 C 
ATOM      7  O   UNL     1     105.448 315.945 189.640  1.00  0.00    -0.550 OA
ATOM      8  O   UNL     1     104.147 315.549 187.797  1.00  0.00    -0.550 OA
ENDBRANCH   5   6
ENDBRANCH   4   5
ENDBRANCH   3   4
ENDBRANCH   2   3
ENDBRANCH   1   2
BRANCH   1   9
ATOM      9  C   UNL     1     105.488 311.460 193.702  1.00  0.00     0.000 C 
BRANCH   9  10
ATOM     10  C   UNL     1     105.368 311.984 195.145  1.00  0.00    -0.000 C 
BRANCH  10  11
ATOM     11  C   UNL     1     103.927 311.964 195.671  1.00  0.00    -0.000 C 
BRANCH  11  12
ATOM     12  C   UNL     1     103.845 311.263 197.034  1.00  0.00    -0.000 C 
BRANCH  12  13
ATOM     13  C   UNL     1     103.609 312.250 198.189  1.00  0.00    -0.003 C 
ATOM     14  C   UNL     1     103.265 311.550 199.505  1.00  0.00     0.004 C 
ENDBRANCH  12  13
ENDBRANCH  11  12
ENDBRANCH  10  11
ENDBRANCH   9  10
ENDBRANCH   1   9
TORSDOF 10
ENDMDL
MODEL 7
REMARK VINA RESULT:    -5.177      5.551      8.591
REMARK INTER + INTRA:          -8.990
REMARK INTER:                  -8.108
REMARK INTRA:                  -0.881
REMARK UNBOUND:                -0.786
REMARK SMILES CCCCCCCCCCCC(=O)[O-]
REMARK SMILES IDX 7 1 8 2 9 3 10 4 11 5 12 6 13 7 14 8 6 9 5 10 4 11 3 12 2 13
REMARK SMILES IDX 1 14
REMARK H PARENT
REMARK Flexibility Score: inf
ROOT
ATOM      1  C   UNL     1      88.173 324.018 192.884  1.00  0.00     0.000 C 
ENDROOT
BRANCH   1   2
ATOM      2  C   UNL     1      88.148 324.273 191.366  1.00  0.00     0.000 C 
BRANCH   2   3
ATOM      3  C   UNL     1      87.477 323.131 190.589  1.00  0.00     0.000 C 
BRANCH   3   4
ATOM      4  C   UNL     1      88.068 322.963 189.179  1.00  0.00     0.006 C 
BRANCH   4   5
ATOM      5  C   UNL     1      89.485 323.539 189.107  1.00  0.00     0.053 C 
BRANCH   5   6
ATOM      6  C   UNL     1      90.493 322.436 189.028  1.00  0.00     0.041 C 
ATOM      7  O   UNL     1      90.575 321.584 189.951  1.00  0.00    -0.550 OA
ATOM      8  O   UNL     1      91.378 322.379 187.959  1.00  0.00    -0.550 OA
ENDBRANCH   5   6
ENDBRANCH   4   5
ENDBRANCH   3   4
ENDBRANCH   2   3
ENDBRANCH   1   2
BRANCH   1   9
ATOM      9  C   UNL     1      86.756 324.019 193.496  1.00  0.00     0.000 C 
BRANCH   9  10
ATOM     10  C   UNL     1      86.044 325.379 193.386  1.00  0.00    -0.000 C 
BRANCH  10  11
ATOM     11  C   UNL     1      86.772 326.499 194.142  1.00  0.00    -0.000 C 
BRANCH  11  12
ATOM     12  C   UNL     1      86.791 326.225 195.652  1.00  0.00    -0.000 C 
BRANCH  12  13
ATOM     13  C   UNL     1      88.218 326.157 196.219  1.00  0.00    -0.003 C 
ATOM     14  C   UNL     1      88.635 324.738 196.607  1.00  0.00     0.004 C 
ENDBRANCH  12  13
ENDBRANCH  11  12
ENDBRANCH  10  11
ENDBRANCH   9  10
ENDBRANCH   1   9
TORSDOF 10
ENDMDL
MODEL 8
REMARK VINA RESULT:    -5.119     20.212     21.395
REMARK INTER + INTRA:          -8.897
REMARK INTER:                  -7.433
REMARK INTRA:                  -1.463
REMARK UNBOUND:                -0.786
REMARK SMILES CCCCCCCCCCCC(=O)[O-]
REMARK SMILES IDX 7 1 8 2 9 3 10 4 11 5 12 6 13 7 14 8 6 9 5 10 4 11 3 12 2 13
REMARK SMILES IDX 1 14
REMARK H PARENT
REMARK Flexibility Score: inf
ROOT
ATOM      1  C   UNL     1     105.486 311.856 194.699  1.00  0.00     0.000 C 
ENDROOT
BRANCH   1   2
ATOM      2  C   UNL     1     105.622 312.219 193.209  1.00  0.00     0.000 C 
BRANCH   2   3
ATOM      3  C   UNL     1     104.265 312.275 192.491  1.00  0.00     0.000 C 
BRANCH   3   4
ATOM      4  C   UNL     1     104.255 313.306 191.351  1.00  0.00     0.006 C 
BRANCH   4   5
ATOM      5  C   UNL     1     105.677 313.758 191.008  1.00  0.00     0.053 C 
BRANCH   5   6
ATOM      6  C   UNL     1     105.657 315.121 190.390  1.00  0.00     0.041 C 
ATOM      7  O   UNL     1     106.125 316.107 191.017  1.00  0.00    -0.550 OA
ATOM      8  O   UNL     1     105.076 315.310 189.143  1.00  0.00    -0.550 OA
ENDBRANCH   5   6
ENDBRANCH   4   5
ENDBRANCH   3   4
ENDBRANCH   2   3
ENDBRANCH   1   2
BRANCH   1   9
ATOM      9  C   UNL     1     104.018 311.891 195.174  1.00  0.00     0.000 C 
BRANCH   9  10
ATOM     10  C   UNL     1     103.790 312.813 196.384  1.00  0.00    -0.000 C 
BRANCH  10  11
ATOM     11  C   UNL     1     104.227 314.262 196.125  1.00  0.00    -0.000 C 
BRANCH  11  12
ATOM     12  C   UNL     1     103.300 314.946 195.111  1.00  0.00    -0.000 C 
BRANCH  12  13
ATOM     13  C   UNL     1     104.076 315.705 194.023  1.00  0.00    -0.003 C 
ATOM     14  C   UNL     1     103.159 316.371 192.996  1.00  0.00     0.004 C 
ENDBRANCH  12  13
ENDBRANCH  11  12
ENDBRANCH  10  11
ENDBRANCH   9  10
ENDBRANCH   1   9
TORSDOF 10
ENDMDL
MODEL 9
REMARK VINA RESULT:    -5.088      4.067      5.151
REMARK INTER + INTRA:          -8.848
REMARK INTER:                  -7.737
REMARK INTRA:                  -1.111
REMARK UNBOUND:                -0.786
REMARK SMILES CCCCCCCCCCCC(=O)[O-]
REMARK SMILES IDX 7 1 8 2 9 3 10 4 11 5 12 6 13 7 14 8 6 9 5 10 4 11 3 12 2 13
REMARK SMILES IDX 1 14
REMARK H PARENT
REMARK Flexibility Score: inf
ROOT
ATOM      1  C   UNL     1      87.455 326.759 194.344  1.00  0.00     0.000 C 
ENDROOT
BRANCH   1   2
ATOM      2  C   UNL     1      87.284 326.126 195.738  1.00  0.00     0.000 C 
BRANCH   2   3
ATOM      3  C   UNL     1      88.486 325.257 196.140  1.00  0.00     0.000 C 
BRANCH   3   4
ATOM      4  C   UNL     1      88.083 323.796 196.398  1.00  0.00     0.006 C 
BRANCH   4   5
ATOM      5  C   UNL     1      88.805 322.850 195.435  1.00  0.00     0.053 C 
BRANCH   5   6
ATOM      6  C   UNL     1      87.822 321.960 194.741  1.00  0.00     0.041 C 
ATOM      7  O   UNL     1      88.186 321.255 193.764  1.00  0.00    -0.550 OA
ATOM      8  O   UNL     1      86.493 321.947 195.142  1.00  0.00    -0.550 OA
ENDBRANCH   5   6
ENDBRANCH   4   5
ENDBRANCH   3   4
ENDBRANCH   2   3
ENDBRANCH   1   2
BRANCH   1   9
ATOM      9  C   UNL     1      87.734 325.701 193.257  1.00  0.00     0.000 C 
BRANCH   9  10
ATOM     10  C   UNL     1      86.505 324.841 192.912  1.00  0.00    -0.000 C 
BRANCH  10  11
ATOM     11  C   UNL     1      86.765 323.858 191.763  1.00  0.00    -0.000 C 
BRANCH  11  12
ATOM     12  C   UNL     1      88.232 323.907 191.314  1.00  0.00    -0.000 C 
BRANCH  12  13
ATOM     13  C   UNL     1      88.472 323.142 190.003  1.00  0.00    -0.003 C 
ATOM     14  C   UNL     1      89.508 323.817 189.104  1.00  0.00     0.004 C 
ENDBRANCH  12  13
ENDBRANCH  11  12
ENDBRANCH  10  11
ENDBRANCH   9  10
ENDBRANCH   1   9
TORSDOF 10
ENDMDL
