MODEL 1
REMARK VINA RESULT:    -3.388      0.000      0.000
REMARK INTER + INTRA:         -13.269
REMARK INTER:                  -8.934
REMARK INTRA:                  -4.335
REMARK UNBOUND:                -4.335
REMARK SMILES CCCCCCCCCCCCCCCCCCCCCCCCCCCCCC(=O)[O-]
REMARK SMILES IDX 16 1 17 2 18 3 19 4 20 5 21 6 22 7 23 8 24 9 25 10 26 11
REMARK SMILES IDX 27 12 28 13 29 14 30 15 31 16 32 17 15 18 14 19 13 20 12 21
REMARK SMILES IDX 11 22 10 23 9 24 8 25 7 26 6 27 5 28 4 29 3 30 2 31 1 32
REMARK H PARENT
REMARK Flexibility Score: inf
ROOT
ATOM      1  C   UNL     1       0.563  12.351  -5.060  1.00  0.00     0.000 C 
ENDROOT
BRANCH   1   2
ATOM      2  C   UNL     1       0.766  13.444  -6.130  1.00  0.00     0.000 C 
BRANCH   2   3
ATOM      3  C   UNL     1       1.541  12.958  -7.367  1.00  0.00     0.000 C 
BRANCH   3   4
ATOM      4  C   UNL     1       2.439  11.746  -7.082  1.00  0.00     0.000 C 
BRANCH   4   5
ATOM      5  C   UNL     1       2.107  10.586  -8.034  1.00  0.00     0.000 C 
BRANCH   5   6
ATOM      6  C   UNL     1       2.035   9.229  -7.312  1.00  0.00     0.000 C 
BRANCH   6   7
ATOM      7  C   UNL     1       2.343   9.288  -5.805  1.00  0.00     0.000 C 
BRANCH   7   8
ATOM      8  C   UNL     1       3.310   8.180  -5.353  1.00  0.00     0.000 C 
BRANCH   8   9
ATOM      9  C   UNL     1       4.489   8.046  -6.326  1.00  0.00     0.000 C 
BRANCH   9  10
ATOM     10  C   UNL     1       5.634   8.992  -5.944  1.00  0.00     0.000 C 
BRANCH  10  11
ATOM     11  C   UNL     1       6.269   8.578  -4.607  1.00  0.00     0.000 C 
BRANCH  11  12
ATOM     12  C   UNL     1       6.088   9.650  -3.513  1.00  0.00     0.000 C 
BRANCH  12  13
ATOM     13  C   UNL     1       6.989   9.442  -2.284  1.00  0.00     0.006 C 
BRANCH  13  14
ATOM     14  C   UNL     1       6.285   9.773  -0.962  1.00  0.00     0.053 C 
BRANCH  14  15
ATOM     15  C   UNL     1       6.893   9.016   0.178  1.00  0.00     0.041 C 
ATOM     16  O   UNL     1       6.506   9.222   1.359  1.00  0.00    -0.550 OA
ATOM     17  O   UNL     1       7.904   8.092  -0.060  1.00  0.00    -0.550 OA
ENDBRANCH  14  15
ENDBRANCH  13  14
ENDBRANCH  12  13
ENDBRANCH  11  12
ENDBRANCH  10  11
ENDBRANCH   9  10
ENDBRANCH   8   9
ENDBRANCH   7   8
ENDBRANCH   6   7
ENDBRANCH   5   6
ENDBRANCH   4   5
ENDBRANCH   3   4
ENDBRANCH   2   3
ENDBRANCH   1   2
BRANCH   1  18
ATOM     18  C   UNL     1      -0.892  11.833  -4.986  1.00  0.00     0.000 C 
BRANCH  18  19
ATOM     19  C   UNL     1      -1.157  10.633  -5.914  1.00  0.00     0.000 C 
BRANCH  19  20
ATOM     20  C   UNL     1      -1.874  11.008  -7.226  1.00  0.00     0.000 C 
BRANCH  20  21
ATOM     21  C   UNL     1      -2.129   9.795  -8.132  1.00  0.00     0.000 C 
BRANCH  21  22
ATOM     22  C   UNL     1      -1.655   8.471  -7.505  1.00  0.00     0.000 C 
BRANCH  22  23
ATOM     23  C   UNL     1      -2.797   7.476  -7.211  1.00  0.00     0.000 C 
BRANCH  23  24
ATOM     24  C   UNL     1      -3.301   7.577  -5.759  1.00  0.00    -0.000 C 
BRANCH  24  25
ATOM     25  C   UNL     1      -4.607   8.386  -5.646  1.00  0.00    -0.000 C 
BRANCH  25  26
ATOM     26  C   UNL     1      -4.539   9.524  -4.610  1.00  0.00    -0.000 C 
BRANCH  26  27
ATOM     27  C   UNL     1      -5.012  10.865  -5.197  1.00  0.00    -0.000 C 
BRANCH  27  28
ATOM     28  C   UNL     1      -4.812  12.042  -4.229  1.00  0.00    -0.000 C 
BRANCH  28  29
ATOM     29  C   UNL     1      -3.941  11.674  -3.015  1.00  0.00    -0.000 C 
BRANCH  29  30
ATOM     30  C   UNL     1      -4.011  12.738  -1.898  1.00  0.00    -0.000 C 
BRANCH  30  31
ATOM     31  C   UNL     1      -5.373  13.444  -1.801  1.00  0.00    -0.003 C 
ATOM     32  C   UNL     1      -5.843  13.643  -0.362  1.00  0.00     0.004 C 
ENDBRANCH  30  31
ENDBRANCH  29  30
ENDBRANCH  28  29
ENDBRANCH  27  28
ENDBRANCH  26  27
ENDBRANCH  25  26
ENDBRANCH  24  25
ENDBRANCH  23  24
ENDBRANCH  22  23
ENDBRANCH  21  22
ENDBRANCH  20  21
ENDBRANCH  19  20
ENDBRANCH  18  19
ENDBRANCH   1  18
TORSDOF 28
ENDMDL
MODEL 2
REMARK VINA RESULT:    -3.331      4.392      6.588
REMARK INTER + INTRA:         -13.117
REMARK INTER:                  -6.721
REMARK INTRA:                  -6.396
REMARK UNBOUND:                -4.335
REMARK SMILES CCCCCCCCCCCCCCCCCCCCCCCCCCCCCC(=O)[O-]
REMARK SMILES IDX 16 1 17 2 18 3 19 4 20 5 21 6 22 7 23 8 24 9 25 10 26 11
REMARK SMILES IDX 27 12 28 13 29 14 30 15 31 16 32 17 15 18 14 19 13 20 12 21
REMARK SMILES IDX 11 22 10 23 9 24 8 25 7 26 6 27 5 28 4 29 3 30 2 31 1 32
REMARK H PARENT
REMARK Flexibility Score: inf
ROOT
ATOM      1  C   UNL     1      -3.182   8.013  -5.748  1.00  0.00     0.000 C 
ENDROOT
BRANCH   1   2
ATOM      2  C   UNL     1      -4.607   8.457  -5.359  1.00  0.00     0.000 C 
BRANCH   2   3
ATOM      3  C   UNL     1      -4.646   9.767  -4.552  1.00  0.00     0.000 C 
BRANCH   3   4
ATOM      4  C   UNL     1      -3.255  10.253  -4.120  1.00  0.00     0.000 C 
BRANCH   4   5
ATOM      5  C   UNL     1      -2.945  11.629  -4.731  1.00  0.00     0.000 C 
BRANCH   5   6
ATOM      6  C   UNL     1      -1.938  12.435  -3.893  1.00  0.00     0.000 C 
BRANCH   6   7
ATOM      7  C   UNL     1      -1.970  13.954  -4.138  1.00  0.00     0.000 C 
BRANCH   7   8
ATOM      8  C   UNL     1      -2.735  14.333  -5.417  1.00  0.00     0.000 C 
BRANCH   8   9
ATOM      9  C   UNL     1      -1.825  15.076  -6.405  1.00  0.00     0.000 C 
BRANCH   9  10
ATOM     10  C   UNL     1      -1.206  14.112  -7.424  1.00  0.00     0.000 C 
BRANCH  10  11
ATOM     11  C   UNL     1       0.299  13.933  -7.170  1.00  0.00     0.000 C 
BRANCH  11  12
ATOM     12  C   UNL     1       0.665  12.479  -6.805  1.00  0.00     0.000 C 
BRANCH  12  13
ATOM     13  C   UNL     1      -0.377  11.443  -7.262  1.00  0.00     0.006 C 
BRANCH  13  14
ATOM     14  C   UNL     1      -0.179  10.068  -6.613  1.00  0.00     0.053 C 
BRANCH  14  15
ATOM     15  C   UNL     1       0.628   9.166  -7.494  1.00  0.00     0.041 C 
ATOM     16  O   UNL     1       0.057   8.380  -8.296  1.00  0.00    -0.550 OA
ATOM     17  O   UNL     1       2.016   9.178  -7.419  1.00  0.00    -0.550 OA
ENDBRANCH  14  15
ENDBRANCH  13  14
ENDBRANCH  12  13
ENDBRANCH  11  12
ENDBRANCH  10  11
ENDBRANCH   9  10
ENDBRANCH   8   9
ENDBRANCH   7   8
ENDBRANCH   6   7
ENDBRANCH   5   6
ENDBRANCH   4   5
ENDBRANCH   3   4
ENDBRANCH   2   3
ENDBRANCH   1   2
BRANCH   1  18
ATOM     18  C   UNL     1      -3.123   7.273  -7.105  1.00  0.00     0.000 C 
BRANCH  18  19
ATOM     19  C   UNL     1      -3.868   8.011  -8.232  1.00  0.00     0.000 C 
BRANCH  19  20
ATOM     20  C   UNL     1      -3.401   9.465  -8.438  1.00  0.00     0.000 C 
BRANCH  20  21
ATOM     21  C   UNL     1      -4.563  10.468  -8.441  1.00  0.00     0.000 C 
BRANCH  21  22
ATOM     22  C   UNL     1      -4.110  11.908  -8.141  1.00  0.00     0.000 C 
BRANCH  22  23
ATOM     23  C   UNL     1      -5.232  12.814  -7.593  1.00  0.00     0.000 C 
BRANCH  23  24
ATOM     24  C   UNL     1      -6.265  12.029  -6.763  1.00  0.00    -0.000 C 
BRANCH  24  25
ATOM     25  C   UNL     1      -6.770  12.827  -5.547  1.00  0.00    -0.000 C 
BRANCH  25  26
ATOM     26  C   UNL     1      -6.263  14.281  -5.511  1.00  0.00    -0.000 C 
BRANCH  26  27
ATOM     27  C   UNL     1      -6.452  14.921  -4.124  1.00  0.00    -0.000 C 
BRANCH  27  28
ATOM     28  C   UNL     1      -6.612  13.881  -3.005  1.00  0.00    -0.000 C 
BRANCH  28  29
ATOM     29  C   UNL     1      -5.284  13.203  -2.626  1.00  0.00    -0.000 C 
BRANCH  29  30
ATOM     30  C   UNL     1      -5.054  13.176  -1.100  1.00  0.00    -0.000 C 
BRANCH  30  31
ATOM     31  C   UNL     1      -3.791  12.410  -0.678  1.00  0.00    -0.003 C 
ATOM     32  C   UNL     1      -2.739  13.303  -0.023  1.00  0.00     0.004 C 
ENDBRANCH  30  31
ENDBRANCH  29  30
ENDBRANCH  28  29
ENDBRANCH  27  28
ENDBRANCH  26  27
ENDBRANCH  25  26
ENDBRANCH  24  25
ENDBRANCH  23  24
ENDBRANCH  22  23
ENDBRANCH  21  22
ENDBRANCH  20  21
ENDBRANCH  19  20
ENDBRANCH  18  19
ENDBRANCH   1  18
TORSDOF 28
ENDMDL
MODEL 3
REMARK VINA RESULT:    -3.306      5.631      8.942
REMARK INTER + INTRA:         -13.053
REMARK INTER:                  -6.898
REMARK INTRA:                  -6.155
REMARK UNBOUND:                -4.335
REMARK SMILES CCCCCCCCCCCCCCCCCCCCCCCCCCCCCC(=O)[O-]
REMARK SMILES IDX 16 1 17 2 18 3 19 4 20 5 21 6 22 7 23 8 24 9 25 10 26 11
REMARK SMILES IDX 27 12 28 13 29 14 30 15 31 16 32 17 15 18 14 19 13 20 12 21
REMARK SMILES IDX 11 22 10 23 9 24 8 25 7 26 6 27 5 28 4 29 3 30 2 31 1 32
REMARK H PARENT
REMARK Flexibility Score: inf
ROOT
ATOM      1  C   UNL     1       8.340   8.175  -5.027  1.00  0.00     0.000 C 
ENDROOT
BRANCH   1   2
ATOM      2  C   UNL     1       8.147   9.664  -5.386  1.00  0.00     0.000 C 
BRANCH   2   3
ATOM      3  C   UNL     1       8.925  10.624  -4.470  1.00  0.00     0.000 C 
BRANCH   3   4
ATOM      4  C   UNL     1       8.056  11.751  -3.896  1.00  0.00     0.000 C 
BRANCH   4   5
ATOM      5  C   UNL     1       7.731  11.489  -2.417  1.00  0.00     0.000 C 
BRANCH   5   6
ATOM      6  C   UNL     1       8.561  10.337  -1.824  1.00  0.00     0.000 C 
BRANCH   6   7
ATOM      7  C   UNL     1       7.734   9.247  -1.119  1.00  0.00     0.000 C 
BRANCH   7   8
ATOM      8  C   UNL     1       6.313   9.716  -0.764  1.00  0.00     0.000 C 
BRANCH   8   9
ATOM      9  C   UNL     1       6.062   9.621   0.747  1.00  0.00     0.000 C 
BRANCH   9  10
ATOM     10  C   UNL     1       6.934   8.535   1.389  1.00  0.00     0.000 C 
BRANCH  10  11
ATOM     11  C   UNL     1       7.351   8.932   2.813  1.00  0.00     0.000 C 
BRANCH  11  12
ATOM     12  C   UNL     1       8.817   8.564   3.120  1.00  0.00     0.000 C 
BRANCH  12  13
ATOM     13  C   UNL     1       9.668   8.302   1.865  1.00  0.00     0.006 C 
BRANCH  13  14
ATOM     14  C   UNL     1      10.581   7.078   2.006  1.00  0.00     0.053 C 
BRANCH  14  15
ATOM     15  C   UNL     1       9.782   5.814   2.082  1.00  0.00     0.041 C 
ATOM     16  O   UNL     1       9.968   4.998   3.024  1.00  0.00    -0.550 OA
ATOM     17  O   UNL     1       8.841   5.524   1.101  1.00  0.00    -0.550 OA
ENDBRANCH  14  15
ENDBRANCH  13  14
ENDBRANCH  12  13
ENDBRANCH  11  12
ENDBRANCH  10  11
ENDBRANCH   9  10
ENDBRANCH   8   9
ENDBRANCH   7   8
ENDBRANCH   6   7
ENDBRANCH   5   6
ENDBRANCH   4   5
ENDBRANCH   3   4
ENDBRANCH   2   3
ENDBRANCH   1   2
BRANCH   1  18
ATOM     18  C   UNL     1       7.029   7.477  -4.597  1.00  0.00     0.000 C 
BRANCH  18  19
ATOM     19  C   UNL     1       5.912   8.466  -4.214  1.00  0.00     0.000 C 
BRANCH  19  20
ATOM     20  C   UNL     1       4.642   8.334  -5.076  1.00  0.00     0.000 C 
BRANCH  20  21
ATOM     21  C   UNL     1       4.145   9.683  -5.615  1.00  0.00     0.000 C 
BRANCH  21  22
ATOM     22  C   UNL     1       4.712  10.883  -4.835  1.00  0.00     0.000 C 
BRANCH  22  23
ATOM     23  C   UNL     1       3.631  11.833  -4.279  1.00  0.00     0.000 C 
BRANCH  23  24
ATOM     24  C   UNL     1       4.017  12.419  -2.907  1.00  0.00    -0.000 C 
BRANCH  24  25
ATOM     25  C   UNL     1       4.803  13.738  -3.034  1.00  0.00    -0.000 C 
BRANCH  25  26
ATOM     26  C   UNL     1       5.304  14.288  -1.686  1.00  0.00    -0.000 C 
BRANCH  26  27
ATOM     27  C   UNL     1       5.152  13.259  -0.552  1.00  0.00    -0.000 C 
BRANCH  27  28
ATOM     28  C   UNL     1       5.732  13.754   0.783  1.00  0.00    -0.000 C 
BRANCH  28  29
ATOM     29  C   UNL     1       7.265  13.644   0.844  1.00  0.00    -0.000 C 
BRANCH  29  30
ATOM     30  C   UNL     1       7.736  12.570   1.847  1.00  0.00    -0.000 C 
BRANCH  30  31
ATOM     31  C   UNL     1       9.053  11.885   1.448  1.00  0.00    -0.003 C 
ATOM     32  C   UNL     1       9.915  12.738   0.521  1.00  0.00     0.004 C 
ENDBRANCH  30  31
ENDBRANCH  29  30
ENDBRANCH  28  29
ENDBRANCH  27  28
ENDBRANCH  26  27
ENDBRANCH  25  26
ENDBRANCH  24  25
ENDBRANCH  23  24
ENDBRANCH  22  23
ENDBRANCH  21  22
ENDBRANCH  20  21
ENDBRANCH  19  20
ENDBRANCH  18  19
ENDBRANCH   1  18
TORSDOF 28
ENDMDL
MODEL 4
REMARK VINA RESULT:    -3.274      1.379      2.534
REMARK INTER + INTRA:         -12.969
REMARK INTER:                  -9.410
REMARK INTRA:                  -3.559
REMARK UNBOUND:                -4.335
REMARK SMILES CCCCCCCCCCCCCCCCCCCCCCCCCCCCCC(=O)[O-]
REMARK SMILES IDX 16 1 17 2 18 3 19 4 20 5 21 6 22 7 23 8 24 9 25 10 26 11
REMARK SMILES IDX 27 12 28 13 29 14 30 15 31 16 32 17 15 18 14 19 13 20 12 21
REMARK SMILES IDX 11 22 10 23 9 24 8 25 7 26 6 27 5 28 4 29 3 30 2 31 1 32
REMARK H PARENT
REMARK Flexibility Score: inf
ROOT
ATOM      1  C   UNL     1       1.851   9.970  -6.188  1.00  0.00     0.000 C 
ENDROOT
BRANCH   1   2
ATOM      2  C   UNL     1       2.841   9.426  -5.137  1.00  0.00     0.000 C 
BRANCH   2   3
ATOM      3  C   UNL     1       3.560   8.138  -5.577  1.00  0.00     0.000 C 
BRANCH   3   4
ATOM      4  C   UNL     1       3.669   7.996  -7.101  1.00  0.00     0.000 C 
BRANCH   4   5
ATOM      5  C   UNL     1       5.138   8.061  -7.549  1.00  0.00     0.000 C 
BRANCH   5   6
ATOM      6  C   UNL     1       5.420   9.254  -8.480  1.00  0.00     0.000 C 
BRANCH   6   7
ATOM      7  C   UNL     1       5.356  10.631  -7.797  1.00  0.00     0.000 C 
BRANCH   7   8
ATOM      8  C   UNL     1       6.518  10.862  -6.816  1.00  0.00     0.000 C 
BRANCH   8   9
ATOM      9  C   UNL     1       5.999  11.120  -5.395  1.00  0.00     0.000 C 
BRANCH   9  10
ATOM     10  C   UNL     1       6.773  10.293  -4.361  1.00  0.00     0.000 C 
BRANCH  10  11
ATOM     11  C   UNL     1       6.112  10.383  -2.977  1.00  0.00     0.000 C 
BRANCH  11  12
ATOM     12  C   UNL     1       6.617   9.292  -2.011  1.00  0.00     0.000 C 
BRANCH  12  13
ATOM     13  C   UNL     1       6.664   9.737  -0.539  1.00  0.00     0.006 C 
BRANCH  13  14
ATOM     14  C   UNL     1       7.579   8.860   0.324  1.00  0.00     0.053 C 
BRANCH  14  15
ATOM     15  C   UNL     1       6.963   8.587   1.660  1.00  0.00     0.041 C 
ATOM     16  O   UNL     1       7.666   8.624   2.706  1.00  0.00    -0.550 OA
ATOM     17  O   UNL     1       5.612   8.274   1.754  1.00  0.00    -0.550 OA
ENDBRANCH  14  15
ENDBRANCH  13  14
ENDBRANCH  12  13
ENDBRANCH  11  12
ENDBRANCH  10  11
ENDBRANCH   9  10
ENDBRANCH   8   9
ENDBRANCH   7   8
ENDBRANCH   6   7
ENDBRANCH   5   6
ENDBRANCH   4   5
ENDBRANCH   3   4
ENDBRANCH   2   3
ENDBRANCH   1   2
BRANCH   1  18
ATOM     18  C   UNL     1       0.751  10.871  -5.580  1.00  0.00     0.000 C 
BRANCH  18  19
ATOM     19  C   UNL     1      -0.663  10.278  -5.716  1.00  0.00     0.000 C 
BRANCH  19  20
ATOM     20  C   UNL     1      -1.540  10.993  -6.761  1.00  0.00     0.000 C 
BRANCH  20  21
ATOM     21  C   UNL     1      -2.319  10.016  -7.654  1.00  0.00     0.000 C 
BRANCH  21  22
ATOM     22  C   UNL     1      -1.839   8.561  -7.505  1.00  0.00     0.000 C 
BRANCH  22  23
ATOM     23  C   UNL     1      -2.958   7.572  -7.116  1.00  0.00     0.000 C 
BRANCH  23  24
ATOM     24  C   UNL     1      -3.418   7.755  -5.657  1.00  0.00    -0.000 C 
BRANCH  24  25
ATOM     25  C   UNL     1      -4.918   8.083  -5.552  1.00  0.00    -0.000 C 
BRANCH  25  26
ATOM     26  C   UNL     1      -5.204   9.481  -4.971  1.00  0.00    -0.000 C 
BRANCH  26  27
ATOM     27  C   UNL     1      -4.013  10.021  -4.159  1.00  0.00    -0.000 C 
BRANCH  27  28
ATOM     28  C   UNL     1      -4.080  11.541  -3.944  1.00  0.00    -0.000 C 
BRANCH  28  29
ATOM     29  C   UNL     1      -2.779  12.117  -3.359  1.00  0.00    -0.000 C 
BRANCH  29  30
ATOM     30  C   UNL     1      -3.040  13.060  -2.164  1.00  0.00    -0.000 C 
BRANCH  30  31
ATOM     31  C   UNL     1      -3.765  12.384  -0.990  1.00  0.00    -0.003 C 
ATOM     32  C   UNL     1      -5.022  13.132  -0.551  1.00  0.00     0.004 C 
ENDBRANCH  30  31
ENDBRANCH  29  30
ENDBRANCH  28  29
ENDBRANCH  27  28
ENDBRANCH  26  27
ENDBRANCH  25  26
ENDBRANCH  24  25
ENDBRANCH  23  24
ENDBRANCH  22  23
ENDBRANCH  21  22
ENDBRANCH  20  21
ENDBRANCH  19  20
ENDBRANCH  18  19
ENDBRANCH   1  18
TORSDOF 28
ENDMDL
MODEL 5
REMARK VINA RESULT:    -3.249      5.227     10.653
REMARK INTER + INTRA:         -12.901
REMARK INTER:                  -7.020
REMARK INTRA:                  -5.881
REMARK UNBOUND:                -4.335
REMARK SMILES CCCCCCCCCCCCCCCCCCCCCCCCCCCCCC(=O)[O-]
REMARK SMILES IDX 16 1 17 2 18 3 19 4 20 5 21 6 22 7 23 8 24 9 25 10 26 11
REMARK SMILES IDX 27 12 28 13 29 14 30 15 31 16 32 17 15 18 14 19 13 20 12 21
REMARK SMILES IDX 11 22 10 23 9 24 8 25 7 26 6 27 5 28 4 29 3 30 2 31 1 32
REMARK H PARENT
REMARK Flexibility Score: inf
ROOT
ATOM      1  C   UNL     1       6.195   8.948   1.488  1.00  0.00     0.000 C 
ENDROOT
BRANCH   1   2
ATOM      2  C   UNL     1       6.510  10.011   0.415  1.00  0.00     0.000 C 
BRANCH   2   3
ATOM      3  C   UNL     1       6.426   9.475  -1.025  1.00  0.00     0.000 C 
BRANCH   3   4
ATOM      4  C   UNL     1       7.539  10.010  -1.936  1.00  0.00     0.000 C 
BRANCH   4   5
ATOM      5  C   UNL     1       8.225  11.230  -1.299  1.00  0.00     0.000 C 
BRANCH   5   6
ATOM      6  C   UNL     1       9.743  11.037  -1.135  1.00  0.00     0.000 C 
BRANCH   6   7
ATOM      7  C   UNL     1      10.251  11.147   0.314  1.00  0.00     0.000 C 
BRANCH   7   8
ATOM      8  C   UNL     1       9.811  12.451   1.000  1.00  0.00     0.000 C 
BRANCH   8   9
ATOM      9  C   UNL     1       9.012  12.162   2.276  1.00  0.00     0.000 C 
BRANCH   9  10
ATOM     10  C   UNL     1       7.882  13.182   2.469  1.00  0.00     0.000 C 
BRANCH  10  11
ATOM     11  C   UNL     1       7.415  13.748   1.119  1.00  0.00     0.000 C 
BRANCH  11  12
ATOM     12  C   UNL     1       5.989  13.291   0.752  1.00  0.00     0.000 C 
BRANCH  12  13
ATOM     13  C   UNL     1       5.583  13.623  -0.695  1.00  0.00     0.006 C 
BRANCH  13  14
ATOM     14  C   UNL     1       4.350  12.842  -1.166  1.00  0.00     0.053 C 
BRANCH  14  15
ATOM     15  C   UNL     1       4.458  12.486  -2.616  1.00  0.00     0.041 C 
ATOM     16  O   UNL     1       3.448  12.076  -3.248  1.00  0.00    -0.550 OA
ATOM     17  O   UNL     1       5.680  12.587  -3.270  1.00  0.00    -0.550 OA
ENDBRANCH  14  15
ENDBRANCH  13  14
ENDBRANCH  12  13
ENDBRANCH  11  12
ENDBRANCH  10  11
ENDBRANCH   9  10
ENDBRANCH   8   9
ENDBRANCH   7   8
ENDBRANCH   6   7
ENDBRANCH   5   6
ENDBRANCH   4   5
ENDBRANCH   3   4
ENDBRANCH   2   3
ENDBRANCH   1   2
BRANCH   1  18
ATOM     18  C   UNL     1       7.306   8.811   2.555  1.00  0.00     0.000 C 
BRANCH  18  19
ATOM     19  C   UNL     1       8.651   8.340   1.973  1.00  0.00     0.000 C 
BRANCH  19  20
ATOM     20  C   UNL     1       8.597   6.942   1.330  1.00  0.00     0.000 C 
BRANCH  20  21
ATOM     21  C   UNL     1       8.981   6.956  -0.157  1.00  0.00     0.000 C 
BRANCH  21  22
ATOM     22  C   UNL     1      10.386   7.531  -0.405  1.00  0.00     0.000 C 
BRANCH  22  23
ATOM     23  C   UNL     1      10.949   7.220  -1.808  1.00  0.00     0.000 C 
BRANCH  23  24
ATOM     24  C   UNL     1       9.886   7.374  -2.912  1.00  0.00    -0.000 C 
BRANCH  24  25
ATOM     25  C   UNL     1      10.197   8.541  -3.867  1.00  0.00    -0.000 C 
BRANCH  25  26
ATOM     26  C   UNL     1       9.610   8.356  -5.278  1.00  0.00    -0.000 C 
BRANCH  26  27
ATOM     27  C   UNL     1       8.135   8.789  -5.349  1.00  0.00    -0.000 C 
BRANCH  27  28
ATOM     28  C   UNL     1       7.161   7.606  -5.224  1.00  0.00    -0.000 C 
BRANCH  28  29
ATOM     29  C   UNL     1       5.963   7.914  -4.309  1.00  0.00    -0.000 C 
BRANCH  29  30
ATOM     30  C   UNL     1       5.003   8.951  -4.930  1.00  0.00    -0.000 C 
BRANCH  30  31
ATOM     31  C   UNL     1       3.638   8.369  -5.329  1.00  0.00    -0.003 C 
ATOM     32  C   UNL     1       2.551   9.433  -5.469  1.00  0.00     0.004 C 
ENDBRANCH  30  31
ENDBRANCH  29  30
ENDBRANCH  28  29
ENDBRANCH  27  28
ENDBRANCH  26  27
ENDBRANCH  25  26
ENDBRANCH  24  25
ENDBRANCH  23  24
ENDBRANCH  22  23
ENDBRANCH  21  22
ENDBRANCH  20  21
ENDBRANCH  19  20
ENDBRANCH  18  19
ENDBRANCH   1  18
TORSDOF 28
ENDMDL
MODEL 6
REMARK VINA RESULT:    -3.164      3.270      9.545
REMARK INTER + INTRA:         -12.677
REMARK INTER:                  -8.161
REMARK INTRA:                  -4.516
REMARK UNBOUND:                -4.335
REMARK SMILES CCCCCCCCCCCCCCCCCCCCCCCCCCCCCC(=O)[O-]
REMARK SMILES IDX 16 1 17 2 18 3 19 4 20 5 21 6 22 7 23 8 24 9 25 10 26 11
REMARK SMILES IDX 27 12 28 13 29 14 30 15 31 16 32 17 15 18 14 19 13 20 12 21
REMARK SMILES IDX 11 22 10 23 9 24 8 25 7 26 6 27 5 28 4 29 3 30 2 31 1 32
REMARK H PARENT
REMARK Flexibility Score: inf
ROOT
ATOM      1  C   UNL     1       3.876   7.971  -5.280  1.00  0.00     0.000 C 
ENDROOT
BRANCH   1   2
ATOM      2  C   UNL     1       2.876   9.140  -5.405  1.00  0.00     0.000 C 
BRANCH   2   3
ATOM      3  C   UNL     1       2.820   9.754  -6.815  1.00  0.00     0.000 C 
BRANCH   3   4
ATOM      4  C   UNL     1       1.612  10.676  -7.026  1.00  0.00     0.000 C 
BRANCH   4   5
ATOM      5  C   UNL     1       0.765  10.765  -5.747  1.00  0.00     0.000 C 
BRANCH   5   6
ATOM      6  C   UNL     1      -0.657  10.209  -5.938  1.00  0.00     0.000 C 
BRANCH   6   7
ATOM      7  C   UNL     1      -0.873   9.438  -7.252  1.00  0.00     0.000 C 
BRANCH   7   8
ATOM      8  C   UNL     1      -2.346   9.058  -7.483  1.00  0.00     0.000 C 
BRANCH   8   9
ATOM      9  C   UNL     1      -2.676   7.709  -6.831  1.00  0.00     0.000 C 
BRANCH   9  10
ATOM     10  C   UNL     1      -3.604   7.888  -5.622  1.00  0.00     0.000 C 
BRANCH  10  11
ATOM     11  C   UNL     1      -4.668   8.961  -5.898  1.00  0.00     0.000 C 
BRANCH  11  12
ATOM     12  C   UNL     1      -4.921   9.867  -4.675  1.00  0.00     0.000 C 
BRANCH  12  13
ATOM     13  C   UNL     1      -3.649  10.202  -3.877  1.00  0.00     0.006 C 
BRANCH  13  14
ATOM     14  C   UNL     1      -3.227  11.670  -4.011  1.00  0.00     0.053 C 
BRANCH  14  15
ATOM     15  C   UNL     1      -3.555  12.442  -2.771  1.00  0.00     0.041 C 
ATOM     16  O   UNL     1      -2.634  12.921  -2.056  1.00  0.00    -0.550 OA
ATOM     17  O   UNL     1      -4.880  12.621  -2.391  1.00  0.00    -0.550 OA
ENDBRANCH  14  15
ENDBRANCH  13  14
ENDBRANCH  12  13
ENDBRANCH  11  12
ENDBRANCH  10  11
ENDBRANCH   9  10
ENDBRANCH   8   9
ENDBRANCH   7   8
ENDBRANCH   6   7
ENDBRANCH   5   6
ENDBRANCH   4   5
ENDBRANCH   3   4
ENDBRANCH   2   3
ENDBRANCH   1   2
BRANCH   1  18
ATOM     18  C   UNL     1       5.214   8.382  -4.623  1.00  0.00     0.000 C 
BRANCH  18  19
ATOM     19  C   UNL     1       6.405   8.349  -5.599  1.00  0.00     0.000 C 
BRANCH  19  20
ATOM     20  C   UNL     1       7.162   9.687  -5.702  1.00  0.00     0.000 C 
BRANCH  20  21
ATOM     21  C   UNL     1       6.320  10.800  -6.342  1.00  0.00     0.000 C 
BRANCH  21  22
ATOM     22  C   UNL     1       6.203  12.048  -5.449  1.00  0.00     0.000 C 
BRANCH  22  23
ATOM     23  C   UNL     1       4.751  12.409  -5.069  1.00  0.00     0.000 C 
BRANCH  23  24
ATOM     24  C   UNL     1       4.372  11.903  -3.664  1.00  0.00    -0.000 C 
BRANCH  24  25
ATOM     25  C   UNL     1       5.588  11.818  -2.723  1.00  0.00    -0.000 C 
BRANCH  25  26
ATOM     26  C   UNL     1       5.215  11.860  -1.229  1.00  0.00    -0.000 C 
BRANCH  26  27
ATOM     27  C   UNL     1       6.417  12.239  -0.346  1.00  0.00    -0.000 C 
BRANCH  27  28
ATOM     28  C   UNL     1       6.784  11.140   0.664  1.00  0.00    -0.000 C 
BRANCH  28  29
ATOM     29  C   UNL     1       6.216   9.763   0.278  1.00  0.00    -0.000 C 
BRANCH  29  30
ATOM     30  C   UNL     1       7.311   8.797  -0.222  1.00  0.00    -0.000 C 
BRANCH  30  31
ATOM     31  C   UNL     1       7.435   8.741  -1.753  1.00  0.00    -0.003 C 
ATOM     32  C   UNL     1       8.609   9.558  -2.288  1.00  0.00     0.004 C 
ENDBRANCH  30  31
ENDBRANCH  29  30
ENDBRANCH  28  29
ENDBRANCH  27  28
ENDBRANCH  26  27
ENDBRANCH  25  26
ENDBRANCH  24  25
ENDBRANCH  23  24
ENDBRANCH  22  23
ENDBRANCH  21  22
ENDBRANCH  20  21
ENDBRANCH  19  20
ENDBRANCH  18  19
ENDBRANCH   1  18
TORSDOF 28
ENDMDL
MODEL 7
REMARK VINA RESULT:    -3.153      3.310      5.655
REMARK INTER + INTRA:         -12.650
REMARK INTER:                  -6.600
REMARK INTRA:                  -6.049
REMARK UNBOUND:                -4.335
REMARK SMILES CCCCCCCCCCCCCCCCCCCCCCCCCCCCCC(=O)[O-]
REMARK SMILES IDX 16 1 17 2 18 3 19 4 20 5 21 6 22 7 23 8 24 9 25 10 26 11
REMARK SMILES IDX 27 12 28 13 29 14 30 15 31 16 32 17 15 18 14 19 13 20 12 21
REMARK SMILES IDX 11 22 10 23 9 24 8 25 7 26 6 27 5 28 4 29 3 30 2 31 1 32
REMARK H PARENT
REMARK Flexibility Score: inf
ROOT
ATOM      1  C   UNL     1      -3.133   8.744  -5.477  1.00  0.00     0.000 C 
ENDROOT
BRANCH   1   2
ATOM      2  C   UNL     1      -4.468   9.183  -4.839  1.00  0.00     0.000 C 
BRANCH   2   3
ATOM      3  C   UNL     1      -4.452  10.628  -4.310  1.00  0.00     0.000 C 
BRANCH   3   4
ATOM      4  C   UNL     1      -3.098  11.039  -3.715  1.00  0.00     0.000 C 
BRANCH   4   5
ATOM      5  C   UNL     1      -2.537  12.273  -4.440  1.00  0.00     0.000 C 
BRANCH   5   6
ATOM      6  C   UNL     1      -2.117  13.390  -3.469  1.00  0.00     0.000 C 
BRANCH   6   7
ATOM      7  C   UNL     1      -1.762  14.728  -4.143  1.00  0.00     0.000 C 
BRANCH   7   8
ATOM      8  C   UNL     1      -1.365  14.561  -5.620  1.00  0.00     0.000 C 
BRANCH   8   9
ATOM      9  C   UNL     1       0.149  14.721  -5.806  1.00  0.00     0.000 C 
BRANCH   9  10
ATOM     10  C   UNL     1       0.791  13.415  -6.290  1.00  0.00     0.000 C 
BRANCH  10  11
ATOM     11  C   UNL     1       1.170  12.515  -5.103  1.00  0.00     0.000 C 
BRANCH  11  12
ATOM     12  C   UNL     1       0.850  11.029  -5.367  1.00  0.00     0.000 C 
BRANCH  12  13
ATOM     13  C   UNL     1       2.097  10.131  -5.453  1.00  0.00     0.006 C 
BRANCH  13  14
ATOM     14  C   UNL     1       1.991   9.064  -6.549  1.00  0.00     0.053 C 
BRANCH  14  15
ATOM     15  C   UNL     1       3.347   8.626  -7.009  1.00  0.00     0.041 C 
ATOM     16  O   UNL     1       3.584   7.407  -7.226  1.00  0.00    -0.550 OA
ATOM     17  O   UNL     1       4.360   9.562  -7.183  1.00  0.00    -0.550 OA
ENDBRANCH  14  15
ENDBRANCH  13  14
ENDBRANCH  12  13
ENDBRANCH  11  12
ENDBRANCH  10  11
ENDBRANCH   9  10
ENDBRANCH   8   9
ENDBRANCH   7   8
ENDBRANCH   6   7
ENDBRANCH   5   6
ENDBRANCH   4   5
ENDBRANCH   3   4
ENDBRANCH   2   3
ENDBRANCH   1   2
BRANCH   1  18
ATOM     18  C   UNL     1      -3.289   7.560  -6.460  1.00  0.00     0.000 C 
BRANCH  18  19
ATOM     19  C   UNL     1      -2.441   7.715  -7.736  1.00  0.00     0.000 C 
BRANCH  19  20
ATOM     20  C   UNL     1      -1.378   8.825  -7.646  1.00  0.00     0.000 C 
BRANCH  20  21
ATOM     21  C   UNL     1      -1.665  10.002  -8.589  1.00  0.00     0.000 C 
BRANCH  21  22
ATOM     22  C   UNL     1      -1.802  11.343  -7.846  1.00  0.00     0.000 C 
BRANCH  22  23
ATOM     23  C   UNL     1      -2.962  12.223  -8.357  1.00  0.00     0.000 C 
BRANCH  23  24
ATOM     24  C   UNL     1      -4.302  11.463  -8.394  1.00  0.00    -0.000 C 
BRANCH  24  25
ATOM     25  C   UNL     1      -5.263  11.915  -7.279  1.00  0.00    -0.000 C 
BRANCH  25  26
ATOM     26  C   UNL     1      -5.564  13.425  -7.299  1.00  0.00    -0.000 C 
BRANCH  26  27
ATOM     27  C   UNL     1      -5.092  14.123  -6.011  1.00  0.00    -0.000 C 
BRANCH  27  28
ATOM     28  C   UNL     1      -6.151  14.097  -4.898  1.00  0.00    -0.000 C 
BRANCH  28  29
ATOM     29  C   UNL     1      -5.587  14.516  -3.529  1.00  0.00    -0.000 C 
BRANCH  29  30
ATOM     30  C   UNL     1      -5.766  13.417  -2.460  1.00  0.00    -0.000 C 
BRANCH  30  31
ATOM     31  C   UNL     1      -5.145  13.769  -1.099  1.00  0.00    -0.003 C 
ATOM     32  C   UNL     1      -4.291  12.644  -0.521  1.00  0.00     0.004 C 
ENDBRANCH  30  31
ENDBRANCH  29  30
ENDBRANCH  28  29
ENDBRANCH  27  28
ENDBRANCH  26  27
ENDBRANCH  25  26
ENDBRANCH  24  25
ENDBRANCH  23  24
ENDBRANCH  22  23
ENDBRANCH  21  22
ENDBRANCH  20  21
ENDBRANCH  19  20
ENDBRANCH  18  19
ENDBRANCH   1  18
TORSDOF 28
ENDMDL
MODEL 8
REMARK VINA RESULT:    -3.152      6.710     11.404
REMARK INTER + INTRA:         -12.646
REMARK INTER:                  -7.605
REMARK INTRA:                  -5.041
REMARK UNBOUND:                -4.335
REMARK SMILES CCCCCCCCCCCCCCCCCCCCCCCCCCCCCC(=O)[O-]
REMARK SMILES IDX 16 1 17 2 18 3 19 4 20 5 21 6 22 7 23 8 24 9 25 10 26 11
REMARK SMILES IDX 27 12 28 13 29 14 30 15 31 16 32 17 15 18 14 19 13 20 12 21
REMARK SMILES IDX 11 22 10 23 9 24 8 25 7 26 6 27 5 28 4 29 3 30 2 31 1 32
REMARK H PARENT
REMARK Flexibility Score: inf
ROOT
ATOM      1  C   UNL     1       8.177   2.851  -4.267  1.00  0.00     0.000 C 
ENDROOT
BRANCH   1   2
ATOM      2  C   UNL     1       7.794   1.407  -4.652  1.00  0.00     0.000 C 
BRANCH   2   3
ATOM      3  C   UNL     1       8.134   1.048  -6.109  1.00  0.00     0.000 C 
BRANCH   3   4
ATOM      4  C   UNL     1       9.620   1.229  -6.446  1.00  0.00     0.000 C 
BRANCH   4   5
ATOM      5  C   UNL     1       9.811   2.354  -7.476  1.00  0.00     0.000 C 
BRANCH   5   6
ATOM      6  C   UNL     1      10.981   3.288  -7.121  1.00  0.00     0.000 C 
BRANCH   6   7
ATOM      7  C   UNL     1      10.684   4.787  -7.310  1.00  0.00     0.000 C 
BRANCH   7   8
ATOM      8  C   UNL     1       9.274   5.177  -6.836  1.00  0.00     0.000 C 
BRANCH   8   9
ATOM      9  C   UNL     1       9.313   6.447  -5.975  1.00  0.00     0.000 C 
BRANCH   9  10
ATOM     10  C   UNL     1       8.115   6.508  -5.019  1.00  0.00     0.000 C 
BRANCH  10  11
ATOM     11  C   UNL     1       7.985   7.902  -4.386  1.00  0.00     0.000 C 
BRANCH  11  12
ATOM     12  C   UNL     1       6.585   8.147  -3.787  1.00  0.00     0.000 C 
BRANCH  12  13
ATOM     13  C   UNL     1       5.700   9.077  -4.635  1.00  0.00     0.006 C 
BRANCH  13  14
ATOM     14  C   UNL     1       4.399   8.410  -5.096  1.00  0.00     0.053 C 
BRANCH  14  15
ATOM     15  C   UNL     1       4.407   8.173  -6.574  1.00  0.00     0.041 C 
ATOM     16  O   UNL     1       5.289   8.705  -7.300  1.00  0.00    -0.550 OA
ATOM     17  O   UNL     1       3.429   7.377  -7.158  1.00  0.00    -0.550 OA
ENDBRANCH  14  15
ENDBRANCH  13  14
ENDBRANCH  12  13
ENDBRANCH  11  12
ENDBRANCH  10  11
ENDBRANCH   9  10
ENDBRANCH   8   9
ENDBRANCH   7   8
ENDBRANCH   6   7
ENDBRANCH   5   6
ENDBRANCH   4   5
ENDBRANCH   3   4
ENDBRANCH   2   3
ENDBRANCH   1   2
BRANCH   1  18
ATOM     18  C   UNL     1       9.239   2.920  -3.144  1.00  0.00     0.000 C 
BRANCH  18  19
ATOM     19  C   UNL     1      10.581   3.510  -3.613  1.00  0.00     0.000 C 
BRANCH  19  20
ATOM     20  C   UNL     1      10.873   4.916  -3.054  1.00  0.00     0.000 C 
BRANCH  20  21
ATOM     21  C   UNL     1       9.967   5.285  -1.870  1.00  0.00     0.000 C 
BRANCH  21  22
ATOM     22  C   UNL     1      10.064   6.772  -1.486  1.00  0.00     0.000 C 
BRANCH  22  23
ATOM     23  C   UNL     1       8.811   7.313  -0.766  1.00  0.00     0.000 C 
BRANCH  23  24
ATOM     24  C   UNL     1       8.817   6.992   0.741  1.00  0.00    -0.000 C 
BRANCH  24  25
ATOM     25  C   UNL     1       8.534   8.233   1.607  1.00  0.00    -0.000 C 
BRANCH  25  26
ATOM     26  C   UNL     1       7.145   8.216   2.273  1.00  0.00    -0.000 C 
BRANCH  26  27
ATOM     27  C   UNL     1       6.089   8.940   1.419  1.00  0.00    -0.000 C 
BRANCH  27  28
ATOM     28  C   UNL     1       6.639  10.201   0.735  1.00  0.00    -0.000 C 
BRANCH  28  29
ATOM     29  C   UNL     1       6.391  10.212  -0.783  1.00  0.00    -0.000 C 
BRANCH  29  30
ATOM     30  C   UNL     1       7.560  10.852  -1.563  1.00  0.00    -0.000 C 
BRANCH  30  31
ATOM     31  C   UNL     1       8.841  11.018  -0.732  1.00  0.00    -0.003 C 
ATOM     32  C   UNL     1      10.115  10.799  -1.545  1.00  0.00     0.004 C 
ENDBRANCH  30  31
ENDBRANCH  29  30
ENDBRANCH  28  29
ENDBRANCH  27  28
ENDBRANCH  26  27
ENDBRANCH  25  26
ENDBRANCH  24  25
ENDBRANCH  23  24
ENDBRANCH  22  23
ENDBRANCH  21  22
ENDBRANCH  20  21
ENDBRANCH  19  20
ENDBRANCH  18  19
ENDBRANCH   1  18
TORSDOF 28
ENDMDL
MODEL 9
REMARK VINA RESULT:    -3.107      2.976      5.450
REMARK INTER + INTRA:         -12.529
REMARK INTER:                  -7.103
REMARK INTRA:                  -5.426
REMARK UNBOUND:                -4.335
REMARK SMILES CCCCCCCCCCCCCCCCCCCCCCCCCCCCCC(=O)[O-]
REMARK SMILES IDX 16 1 17 2 18 3 19 4 20 5 21 6 22 7 23 8 24 9 25 10 26 11
REMARK SMILES IDX 27 12 28 13 29 14 30 15 31 16 32 17 15 18 14 19 13 20 12 21
REMARK SMILES IDX 11 22 10 23 9 24 8 25 7 26 6 27 5 28 4 29 3 30 2 31 1 32
REMARK H PARENT
REMARK Flexibility Score: inf
ROOT
ATOM      1  C   UNL     1      -3.665   9.575  -5.805  1.00  0.00     0.000 C 
ENDROOT
BRANCH   1   2
ATOM      2  C   UNL     1      -3.920   9.755  -4.293  1.00  0.00     0.000 C 
BRANCH   2   3
ATOM      3  C   UNL     1      -4.359  11.179  -3.908  1.00  0.00     0.000 C 
BRANCH   3   4
ATOM      4  C   UNL     1      -3.517  11.788  -2.779  1.00  0.00     0.000 C 
BRANCH   4   5
ATOM      5  C   UNL     1      -2.641  12.934  -3.311  1.00  0.00     0.000 C 
BRANCH   5   6
ATOM      6  C   UNL     1      -2.902  13.237  -4.797  1.00  0.00     0.000 C 
BRANCH   6   7
ATOM      7  C   UNL     1      -1.698  12.990  -5.724  1.00  0.00     0.000 C 
BRANCH   7   8
ATOM      8  C   UNL     1      -0.532  12.288  -5.008  1.00  0.00     0.000 C 
BRANCH   8   9
ATOM      9  C   UNL     1      -0.442  10.812  -5.416  1.00  0.00     0.000 C 
BRANCH   9  10
ATOM     10  C   UNL     1      -0.230  10.665  -6.928  1.00  0.00     0.000 C 
BRANCH  10  11
ATOM     11  C   UNL     1       0.428   9.317  -7.264  1.00  0.00     0.000 C 
BRANCH  11  12
ATOM     12  C   UNL     1       1.947   9.448  -7.503  1.00  0.00     0.000 C 
BRANCH  12  13
ATOM     13  C   UNL     1       2.802   9.085  -6.277  1.00  0.00     0.006 C 
BRANCH  13  14
ATOM     14  C   UNL     1       3.862  10.145  -5.951  1.00  0.00     0.053 C 
BRANCH  14  15
ATOM     15  C   UNL     1       3.231  11.389  -5.408  1.00  0.00     0.041 C 
ATOM     16  O   UNL     1       2.776  11.414  -4.233  1.00  0.00    -0.550 OA
ATOM     17  O   UNL     1       3.128  12.523  -6.206  1.00  0.00    -0.550 OA
ENDBRANCH  14  15
ENDBRANCH  13  14
ENDBRANCH  12  13
ENDBRANCH  11  12
ENDBRANCH  10  11
ENDBRANCH   9  10
ENDBRANCH   8   9
ENDBRANCH   7   8
ENDBRANCH   6   7
ENDBRANCH   5   6
ENDBRANCH   4   5
ENDBRANCH   3   4
ENDBRANCH   2   3
ENDBRANCH   1   2
BRANCH   1  18
ATOM     18  C   UNL     1      -3.008   8.219  -6.154  1.00  0.00     0.000 C 
BRANCH  18  19
ATOM     19  C   UNL     1      -3.612   7.558  -7.406  1.00  0.00     0.000 C 
BRANCH  19  20
ATOM     20  C   UNL     1      -4.810   8.324  -7.999  1.00  0.00     0.000 C 
BRANCH  20  21
ATOM     21  C   UNL     1      -6.131   7.549  -7.878  1.00  0.00     0.000 C 
BRANCH  21  22
ATOM     22  C   UNL     1      -7.308   8.439  -7.441  1.00  0.00     0.000 C 
BRANCH  22  23
ATOM     23  C   UNL     1      -7.252   8.864  -5.959  1.00  0.00     0.000 C 
BRANCH  23  24
ATOM     24  C   UNL     1      -7.612  10.349  -5.762  1.00  0.00    -0.000 C 
BRANCH  24  25
ATOM     25  C   UNL     1      -7.064  11.240  -6.891  1.00  0.00    -0.000 C 
BRANCH  25  26
ATOM     26  C   UNL     1      -6.620  12.636  -6.414  1.00  0.00    -0.000 C 
BRANCH  26  27
ATOM     27  C   UNL     1      -7.313  13.042  -5.101  1.00  0.00    -0.000 C 
BRANCH  27  28
ATOM     28  C   UNL     1      -6.539  14.122  -4.329  1.00  0.00    -0.000 C 
BRANCH  28  29
ATOM     29  C   UNL     1      -6.955  14.211  -2.850  1.00  0.00    -0.000 C 
BRANCH  29  30
ATOM     30  C   UNL     1      -5.763  14.530  -1.924  1.00  0.00    -0.000 C 
BRANCH  30  31
ATOM     31  C   UNL     1      -5.808  13.790  -0.578  1.00  0.00    -0.003 C 
ATOM     32  C   UNL     1      -6.951  14.254   0.322  1.00  0.00     0.004 C 
ENDBRANCH  30  31
ENDBRANCH  29  30
ENDBRANCH  28  29
ENDBRANCH  27  28
ENDBRANCH  26  27
ENDBRANCH  25  26
ENDBRANCH  24  25
ENDBRANCH  23  24
ENDBRANCH  22  23
ENDBRANCH  21  22
ENDBRANCH  20  21
ENDBRANCH  19  20
ENDBRANCH  18  19
ENDBRANCH   1  18
TORSDOF 28
ENDMDL
