MODEL 1
REMARK VINA RESULT:    -5.303      0.000      0.000
REMARK INTER + INTRA:         -11.101
REMARK INTER:                 -10.263
REMARK INTRA:                  -0.838
REMARK UNBOUND:                -0.838
REMARK SMILES CCCCCCCCCCCCCCCCCC(=O)[O-]
REMARK SMILES IDX 10 1 11 2 12 3 13 4 14 5 15 6 16 7 17 8 18 9 19 10 20 11
REMARK SMILES IDX 9 12 8 13 7 14 6 15 5 16 4 17 3 18 2 19 1 20
REMARK H PARENT
REMARK Flexibility Score: inf
ROOT
ATOM      1  C   UNL     1      40.122  56.089  18.344  1.00  0.00     0.000 C 
ENDROOT
BRANCH   1   2
ATOM      2  C   UNL     1      41.032  55.858  17.119  1.00  0.00     0.000 C 
BRANCH   2   3
ATOM      3  C   UNL     1      42.491  55.542  17.491  1.00  0.00     0.000 C 
BRANCH   3   4
ATOM      4  C   UNL     1      42.867  54.073  17.234  1.00  0.00     0.000 C 
BRANCH   4   5
ATOM      5  C   UNL     1      42.727  53.679  15.756  1.00  0.00     0.000 C 
BRANCH   5   6
ATOM      6  C   UNL     1      44.081  53.352  15.103  1.00  0.00     0.000 C 
BRANCH   6   7
ATOM      7  C   UNL     1      44.877  54.613  14.722  1.00  0.00     0.006 C 
BRANCH   7   8
ATOM      8  C   UNL     1      46.272  54.695  15.361  1.00  0.00     0.053 C 
BRANCH   8   9
ATOM      9  C   UNL     1      46.357  55.784  16.384  1.00  0.00     0.041 C 
ATOM     10  O   UNL     1      47.259  55.763  17.262  1.00  0.00    -0.550 OA
ATOM     11  O   UNL     1      45.459  56.844  16.348  1.00  0.00    -0.550 OA
ENDBRANCH   8   9
ENDBRANCH   7   8
ENDBRANCH   6   7
ENDBRANCH   5   6
ENDBRANCH   4   5
ENDBRANCH   3   4
ENDBRANCH   2   3
ENDBRANCH   1   2
BRANCH   1  12
ATOM     12  C   UNL     1      38.979  57.073  18.041  1.00  0.00     0.000 C 
BRANCH  12  13
ATOM     13  C   UNL     1      38.085  56.617  16.873  1.00  0.00    -0.000 C 
BRANCH  13  14
ATOM     14  C   UNL     1      36.657  57.191  16.884  1.00  0.00    -0.000 C 
BRANCH  14  15
ATOM     15  C   UNL     1      36.130  57.513  15.478  1.00  0.00    -0.000 C 
BRANCH  15  16
ATOM     16  C   UNL     1      34.789  56.812  15.221  1.00  0.00    -0.000 C 
BRANCH  16  17
ATOM     17  C   UNL     1      33.883  56.774  16.466  1.00  0.00    -0.000 C 
BRANCH  17  18
ATOM     18  C   UNL     1      32.546  56.032  16.277  1.00  0.00    -0.000 C 
BRANCH  18  19
ATOM     19  C   UNL     1      31.370  56.726  16.979  1.00  0.00    -0.003 C 
ATOM     20  C   UNL     1      30.651  55.768  17.924  1.00  0.00     0.004 C 
ENDBRANCH  18  19
ENDBRANCH  17  18
ENDBRANCH  16  17
ENDBRANCH  15  16
ENDBRANCH  14  15
ENDBRANCH  13  14
ENDBRANCH  12  13
ENDBRANCH   1  12
TORSDOF 16
ENDMDL
MODEL 2
REMARK VINA RESULT:    -5.273      0.983      1.468
REMARK INTER + INTRA:         -11.043
REMARK INTER:                 -10.323
REMARK INTRA:                  -0.720
REMARK UNBOUND:                -0.838
REMARK SMILES CCCCCCCCCCCCCCCCCC(=O)[O-]
REMARK SMILES IDX 10 1 11 2 12 3 13 4 14 5 15 6 16 7 17 8 18 9 19 10 20 11
REMARK SMILES IDX 9 12 8 13 7 14 6 15 5 16 4 17 3 18 2 19 1 20
REMARK H PARENT
REMARK Flexibility Score: inf
ROOT
ATOM      1  C   UNL     1      38.901  57.108  18.071  1.00  0.00     0.000 C 
ENDROOT
BRANCH   1   2
ATOM      2  C   UNL     1      40.092  56.181  18.393  1.00  0.00     0.000 C 
BRANCH   2   3
ATOM      3  C   UNL     1      41.039  55.962  17.201  1.00  0.00     0.000 C 
BRANCH   3   4
ATOM      4  C   UNL     1      42.436  55.482  17.629  1.00  0.00     0.000 C 
BRANCH   4   5
ATOM      5  C   UNL     1      42.913  54.263  16.823  1.00  0.00     0.000 C 
BRANCH   5   6
ATOM      6  C   UNL     1      44.230  54.531  16.075  1.00  0.00     0.000 C 
BRANCH   6   7
ATOM      7  C   UNL     1      45.000  55.739  16.640  1.00  0.00     0.006 C 
BRANCH   7   8
ATOM      8  C   UNL     1      46.440  55.869  16.119  1.00  0.00     0.053 C 
BRANCH   8   9
ATOM      9  C   UNL     1      47.396  56.254  17.204  1.00  0.00     0.041 C 
ATOM     10  O   UNL     1      48.000  55.368  17.862  1.00  0.00    -0.550 OA
ATOM     11  O   UNL     1      47.647  57.595  17.466  1.00  0.00    -0.550 OA
ENDBRANCH   8   9
ENDBRANCH   7   8
ENDBRANCH   6   7
ENDBRANCH   5   6
ENDBRANCH   4   5
ENDBRANCH   3   4
ENDBRANCH   2   3
ENDBRANCH   1   2
BRANCH   1  12
ATOM     12  C   UNL     1      38.067  56.593  16.885  1.00  0.00     0.000 C 
BRANCH  12  13
ATOM     13  C   UNL     1      36.614  57.102  16.906  1.00  0.00    -0.000 C 
BRANCH  13  14
ATOM     14  C   UNL     1      36.174  57.865  15.643  1.00  0.00    -0.000 C 
BRANCH  14  15
ATOM     15  C   UNL     1      35.659  56.937  14.533  1.00  0.00    -0.000 C 
BRANCH  15  16
ATOM     16  C   UNL     1      34.132  57.028  14.407  1.00  0.00    -0.000 C 
BRANCH  16  17
ATOM     17  C   UNL     1      33.397  55.933  15.202  1.00  0.00    -0.000 C 
BRANCH  17  18
ATOM     18  C   UNL     1      32.807  56.391  16.549  1.00  0.00    -0.000 C 
BRANCH  18  19
ATOM     19  C   UNL     1      31.271  56.384  16.565  1.00  0.00    -0.003 C 
ATOM     20  C   UNL     1      30.738  55.800  17.869  1.00  0.00     0.004 C 
ENDBRANCH  18  19
ENDBRANCH  17  18
ENDBRANCH  16  17
ENDBRANCH  15  16
ENDBRANCH  14  15
ENDBRANCH  13  14
ENDBRANCH  12  13
ENDBRANCH   1  12
TORSDOF 16
ENDMDL
MODEL 3
REMARK VINA RESULT:    -5.261      4.766     10.731
REMARK INTER + INTRA:         -11.021
REMARK INTER:                 -10.139
REMARK INTRA:                  -0.881
REMARK UNBOUND:                -0.838
REMARK SMILES CCCCCCCCCCCCCCCCCC(=O)[O-]
REMARK SMILES IDX 10 1 11 2 12 3 13 4 14 5 15 6 16 7 17 8 18 9 19 10 20 11
REMARK SMILES IDX 9 12 8 13 7 14 6 15 5 16 4 17 3 18 2 19 1 20
REMARK H PARENT
REMARK Flexibility Score: inf
ROOT
ATOM      1  C   UNL     1      39.907  56.124  18.374  1.00  0.00     0.000 C 
ENDROOT
BRANCH   1   2
ATOM      2  C   UNL     1      38.795  57.130  18.011  1.00  0.00     0.000 C 
BRANCH   2   3
ATOM      3  C   UNL     1      37.887  56.655  16.865  1.00  0.00     0.000 C 
BRANCH   3   4
ATOM      4  C   UNL     1      36.452  57.195  16.977  1.00  0.00     0.000 C 
BRANCH   4   5
ATOM      5  C   UNL     1      35.952  57.815  15.663  1.00  0.00     0.000 C 
BRANCH   5   6
ATOM      6  C   UNL     1      34.779  57.031  15.050  1.00  0.00     0.000 C 
BRANCH   6   7
ATOM      7  C   UNL     1      33.878  56.380  16.116  1.00  0.00     0.006 C 
BRANCH   7   8
ATOM      8  C   UNL     1      32.384  56.368  15.755  1.00  0.00     0.053 C 
BRANCH   8   9
ATOM      9  C   UNL     1      31.514  56.425  16.972  1.00  0.00     0.041 C 
ATOM     10  O   UNL     1      31.500  55.466  17.788  1.00  0.00    -0.550 OA
ATOM     11  O   UNL     1      30.742  57.552  17.224  1.00  0.00    -0.550 OA
ENDBRANCH   8   9
ENDBRANCH   7   8
ENDBRANCH   6   7
ENDBRANCH   5   6
ENDBRANCH   4   5
ENDBRANCH   3   4
ENDBRANCH   2   3
ENDBRANCH   1   2
BRANCH   1  12
ATOM     12  C   UNL     1      40.942  55.969  17.247  1.00  0.00     0.000 C 
BRANCH  12  13
ATOM     13  C   UNL     1      42.307  55.461  17.749  1.00  0.00    -0.000 C 
BRANCH  13  14
ATOM     14  C   UNL     1      42.889  54.274  16.960  1.00  0.00    -0.000 C 
BRANCH  14  15
ATOM     15  C   UNL     1      42.549  54.326  15.463  1.00  0.00    -0.000 C 
BRANCH  15  16
ATOM     16  C   UNL     1      43.783  54.705  14.633  1.00  0.00    -0.000 C 
BRANCH  16  17
ATOM     17  C   UNL     1      45.098  54.179  15.237  1.00  0.00    -0.000 C 
BRANCH  17  18
ATOM     18  C   UNL     1      46.219  55.226  15.373  1.00  0.00    -0.000 C 
BRANCH  18  19
ATOM     19  C   UNL     1      46.306  55.833  16.780  1.00  0.00    -0.003 C 
ATOM     20  C   UNL     1      47.746  55.855  17.282  1.00  0.00     0.004 C 
ENDBRANCH  18  19
ENDBRANCH  17  18
ENDBRANCH  16  17
ENDBRANCH  15  16
ENDBRANCH  14  15
ENDBRANCH  13  14
ENDBRANCH  12  13
ENDBRANCH   1  12
TORSDOF 16
ENDMDL
MODEL 4
REMARK VINA RESULT:    -5.259      4.438     10.646
REMARK INTER + INTRA:         -11.017
REMARK INTER:                 -10.102
REMARK INTRA:                  -0.915
REMARK UNBOUND:                -0.838
REMARK SMILES CCCCCCCCCCCCCCCCCC(=O)[O-]
REMARK SMILES IDX 10 1 11 2 12 3 13 4 14 5 15 6 16 7 17 8 18 9 19 10 20 11
REMARK SMILES IDX 9 12 8 13 7 14 6 15 5 16 4 17 3 18 2 19 1 20
REMARK H PARENT
REMARK Flexibility Score: inf
ROOT
ATOM      1  C   UNL     1      39.872  56.161  18.373  1.00  0.00     0.000 C 
ENDROOT
BRANCH   1   2
ATOM      2  C   UNL     1      38.755  57.151  17.979  1.00  0.00     0.000 C 
BRANCH   2   3
ATOM      3  C   UNL     1      37.912  56.679  16.782  1.00  0.00     0.000 C 
BRANCH   3   4
ATOM      4  C   UNL     1      36.430  57.072  16.906  1.00  0.00     0.000 C 
BRANCH   4   5
ATOM      5  C   UNL     1      36.033  58.188  15.927  1.00  0.00     0.000 C 
BRANCH   5   6
ATOM      6  C   UNL     1      35.937  57.691  14.474  1.00  0.00     0.000 C 
BRANCH   6   7
ATOM      7  C   UNL     1      35.102  56.404  14.340  1.00  0.00     0.006 C 
BRANCH   7   8
ATOM      8  C   UNL     1      33.597  56.648  14.151  1.00  0.00     0.053 C 
BRANCH   8   9
ATOM      9  C   UNL     1      32.793  56.100  15.289  1.00  0.00     0.041 C 
ATOM     10  O   UNL     1      32.985  56.517  16.461  1.00  0.00    -0.550 OA
ATOM     11  O   UNL     1      31.807  55.151  15.051  1.00  0.00    -0.550 OA
ENDBRANCH   8   9
ENDBRANCH   7   8
ENDBRANCH   6   7
ENDBRANCH   5   6
ENDBRANCH   4   5
ENDBRANCH   3   4
ENDBRANCH   2   3
ENDBRANCH   1   2
BRANCH   1  12
ATOM     12  C   UNL     1      40.896  55.959  17.243  1.00  0.00     0.000 C 
BRANCH  12  13
ATOM     13  C   UNL     1      42.214  55.329  17.731  1.00  0.00    -0.000 C 
BRANCH  13  14
ATOM     14  C   UNL     1      42.784  54.228  16.818  1.00  0.00    -0.000 C 
BRANCH  14  15
ATOM     15  C   UNL     1      44.137  54.607  16.197  1.00  0.00    -0.000 C 
BRANCH  15  16
ATOM     16  C   UNL     1      44.607  55.979  16.700  1.00  0.00    -0.000 C 
BRANCH  16  17
ATOM     17  C   UNL     1      45.939  56.426  16.069  1.00  0.00    -0.000 C 
BRANCH  17  18
ATOM     18  C   UNL     1      47.122  55.466  16.297  1.00  0.00    -0.000 C 
BRANCH  18  19
ATOM     19  C   UNL     1      47.974  55.843  17.516  1.00  0.00    -0.003 C 
ATOM     20  C   UNL     1      48.193  57.351  17.589  1.00  0.00     0.004 C 
ENDBRANCH  18  19
ENDBRANCH  17  18
ENDBRANCH  16  17
ENDBRANCH  15  16
ENDBRANCH  14  15
ENDBRANCH  13  14
ENDBRANCH  12  13
ENDBRANCH   1  12
TORSDOF 16
ENDMDL
MODEL 5
REMARK VINA RESULT:    -5.242      0.752      1.433
REMARK INTER + INTRA:         -10.983
REMARK INTER:                 -10.103
REMARK INTRA:                  -0.880
REMARK UNBOUND:                -0.838
REMARK SMILES CCCCCCCCCCCCCCCCCC(=O)[O-]
REMARK SMILES IDX 10 1 11 2 12 3 13 4 14 5 15 6 16 7 17 8 18 9 19 10 20 11
REMARK SMILES IDX 9 12 8 13 7 14 6 15 5 16 4 17 3 18 2 19 1 20
REMARK H PARENT
REMARK Flexibility Score: inf
ROOT
ATOM      1  C   UNL     1      38.978  57.066  18.094  1.00  0.00     0.000 C 
ENDROOT
BRANCH   1   2
ATOM      2  C   UNL     1      40.118  56.057  18.345  1.00  0.00     0.000 C 
BRANCH   2   3
ATOM      3  C   UNL     1      41.094  55.927  17.164  1.00  0.00     0.000 C 
BRANCH   3   4
ATOM      4  C   UNL     1      42.502  55.485  17.600  1.00  0.00     0.000 C 
BRANCH   4   5
ATOM      5  C   UNL     1      42.901  54.125  17.007  1.00  0.00     0.000 C 
BRANCH   5   6
ATOM      6  C   UNL     1      42.489  53.981  15.532  1.00  0.00     0.000 C 
BRANCH   6   7
ATOM      7  C   UNL     1      43.599  54.421  14.560  1.00  0.00     0.006 C 
BRANCH   7   8
ATOM      8  C   UNL     1      44.995  53.885  14.913  1.00  0.00     0.053 C 
BRANCH   8   9
ATOM      9  C   UNL     1      45.941  54.985  15.281  1.00  0.00     0.041 C 
ATOM     10  O   UNL     1      47.185  54.795  15.232  1.00  0.00    -0.550 OA
ATOM     11  O   UNL     1      45.450  56.232  15.645  1.00  0.00    -0.550 OA
ENDBRANCH   8   9
ENDBRANCH   7   8
ENDBRANCH   6   7
ENDBRANCH   5   6
ENDBRANCH   4   5
ENDBRANCH   3   4
ENDBRANCH   2   3
ENDBRANCH   1   2
BRANCH   1  12
ATOM     12  C   UNL     1      38.100  56.666  16.896  1.00  0.00     0.000 C 
BRANCH  12  13
ATOM     13  C   UNL     1      36.667  57.222  16.989  1.00  0.00    -0.000 C 
BRANCH  13  14
ATOM     14  C   UNL     1      36.111  57.807  15.678  1.00  0.00    -0.000 C 
BRANCH  14  15
ATOM     15  C   UNL     1      34.864  57.065  15.173  1.00  0.00    -0.000 C 
BRANCH  15  16
ATOM     16  C   UNL     1      34.140  56.359  16.328  1.00  0.00    -0.000 C 
BRANCH  16  17
ATOM     17  C   UNL     1      32.882  55.598  15.873  1.00  0.00    -0.000 C 
BRANCH  17  18
ATOM     18  C   UNL     1      31.619  56.464  15.708  1.00  0.00    -0.000 C 
BRANCH  18  19
ATOM     19  C   UNL     1      30.995  56.877  17.049  1.00  0.00    -0.003 C 
ATOM     20  C   UNL     1      30.751  55.662  17.939  1.00  0.00     0.004 C 
ENDBRANCH  18  19
ENDBRANCH  17  18
ENDBRANCH  16  17
ENDBRANCH  15  16
ENDBRANCH  14  15
ENDBRANCH  13  14
ENDBRANCH  12  13
ENDBRANCH   1  12
TORSDOF 16
ENDMDL
MODEL 6
REMARK VINA RESULT:    -5.221      4.311     10.063
REMARK INTER + INTRA:         -10.943
REMARK INTER:                  -9.624
REMARK INTRA:                  -1.319
REMARK UNBOUND:                -0.838
REMARK SMILES CCCCCCCCCCCCCCCCCC(=O)[O-]
REMARK SMILES IDX 10 1 11 2 12 3 13 4 14 5 15 6 16 7 17 8 18 9 19 10 20 11
REMARK SMILES IDX 9 12 8 13 7 14 6 15 5 16 4 17 3 18 2 19 1 20
REMARK H PARENT
REMARK Flexibility Score: inf
ROOT
ATOM      1  C   UNL     1      40.023  56.154  18.345  1.00  0.00     0.000 C 
ENDROOT
BRANCH   1   2
ATOM      2  C   UNL     1      38.881  57.144  18.032  1.00  0.00     0.000 C 
BRANCH   2   3
ATOM      3  C   UNL     1      38.039  56.742  16.809  1.00  0.00     0.000 C 
BRANCH   3   4
ATOM      4  C   UNL     1      36.561  57.146  16.944  1.00  0.00     0.000 C 
BRANCH   4   5
ATOM      5  C   UNL     1      36.157  58.240  15.944  1.00  0.00     0.000 C 
BRANCH   5   6
ATOM      6  C   UNL     1      36.232  57.761  14.484  1.00  0.00     0.000 C 
BRANCH   6   7
ATOM      7  C   UNL     1      34.845  57.483  13.877  1.00  0.00     0.006 C 
BRANCH   7   8
ATOM      8  C   UNL     1      34.304  56.073  14.164  1.00  0.00     0.053 C 
BRANCH   8   9
ATOM      9  C   UNL     1      33.149  56.099  15.115  1.00  0.00     0.041 C 
ATOM     10  O   UNL     1      31.998  56.405  14.709  1.00  0.00    -0.550 OA
ATOM     11  O   UNL     1      33.337  55.751  16.447  1.00  0.00    -0.550 OA
ENDBRANCH   8   9
ENDBRANCH   7   8
ENDBRANCH   6   7
ENDBRANCH   5   6
ENDBRANCH   4   5
ENDBRANCH   3   4
ENDBRANCH   2   3
ENDBRANCH   1   2
BRANCH   1  12
ATOM     12  C   UNL     1      41.002  56.004  17.168  1.00  0.00     0.000 C 
BRANCH  12  13
ATOM     13  C   UNL     1      42.418  55.592  17.611  1.00  0.00    -0.000 C 
BRANCH  13  14
ATOM     14  C   UNL     1      42.830  54.161  17.224  1.00  0.00    -0.000 C 
BRANCH  14  15
ATOM     15  C   UNL     1      42.562  53.839  15.746  1.00  0.00    -0.000 C 
BRANCH  15  16
ATOM     16  C   UNL     1      43.874  53.575  14.995  1.00  0.00    -0.000 C 
BRANCH  16  17
ATOM     17  C   UNL     1      44.691  54.857  14.745  1.00  0.00    -0.000 C 
BRANCH  17  18
ATOM     18  C   UNL     1      46.081  54.884  15.407  1.00  0.00    -0.000 C 
BRANCH  18  19
ATOM     19  C   UNL     1      46.176  55.891  16.562  1.00  0.00    -0.003 C 
ATOM     20  C   UNL     1      45.668  57.265  16.136  1.00  0.00     0.004 C 
ENDBRANCH  18  19
ENDBRANCH  17  18
ENDBRANCH  16  17
ENDBRANCH  15  16
ENDBRANCH  14  15
ENDBRANCH  13  14
ENDBRANCH  12  13
ENDBRANCH   1  12
TORSDOF 16
ENDMDL
MODEL 7
REMARK VINA RESULT:    -5.219      1.339      2.130
REMARK INTER + INTRA:         -10.939
REMARK INTER:                  -9.780
REMARK INTRA:                  -1.160
REMARK UNBOUND:                -0.838
REMARK SMILES CCCCCCCCCCCCCCCCCC(=O)[O-]
REMARK SMILES IDX 10 1 11 2 12 3 13 4 14 5 15 6 16 7 17 8 18 9 19 10 20 11
REMARK SMILES IDX 9 12 8 13 7 14 6 15 5 16 4 17 3 18 2 19 1 20
REMARK H PARENT
REMARK Flexibility Score: inf
ROOT
ATOM      1  C   UNL     1      40.975  55.927  17.066  1.00  0.00     0.000 C 
ENDROOT
BRANCH   1   2
ATOM      2  C   UNL     1      42.431  55.605  17.463  1.00  0.00     0.000 C 
BRANCH   2   3
ATOM      3  C   UNL     1      42.809  54.127  17.265  1.00  0.00     0.000 C 
BRANCH   3   4
ATOM      4  C   UNL     1      42.825  53.709  15.785  1.00  0.00     0.000 C 
BRANCH   4   5
ATOM      5  C   UNL     1      43.788  54.560  14.943  1.00  0.00     0.000 C 
BRANCH   5   6
ATOM      6  C   UNL     1      45.236  54.043  15.003  1.00  0.00     0.000 C 
BRANCH   6   7
ATOM      7  C   UNL     1      46.258  55.167  15.254  1.00  0.00     0.006 C 
BRANCH   7   8
ATOM      8  C   UNL     1      46.150  55.818  16.642  1.00  0.00     0.053 C 
BRANCH   8   9
ATOM      9  C   UNL     1      47.494  56.025  17.269  1.00  0.00     0.041 C 
ATOM     10  O   UNL     1      48.273  55.051  17.438  1.00  0.00    -0.550 OA
ATOM     11  O   UNL     1      47.900  57.302  17.635  1.00  0.00    -0.550 OA
ENDBRANCH   8   9
ENDBRANCH   7   8
ENDBRANCH   6   7
ENDBRANCH   5   6
ENDBRANCH   4   5
ENDBRANCH   3   4
ENDBRANCH   2   3
ENDBRANCH   1   2
BRANCH   1  12
ATOM     12  C   UNL     1      40.070  56.135  18.293  1.00  0.00     0.000 C 
BRANCH  12  13
ATOM     13  C   UNL     1      38.893  57.088  18.017  1.00  0.00    -0.000 C 
BRANCH  13  14
ATOM     14  C   UNL     1      37.987  56.679  16.841  1.00  0.00    -0.000 C 
BRANCH  14  15
ATOM     15  C   UNL     1      36.536  57.151  17.011  1.00  0.00    -0.000 C 
BRANCH  15  16
ATOM     16  C   UNL     1      36.142  58.127  15.893  1.00  0.00    -0.000 C 
BRANCH  16  17
ATOM     17  C   UNL     1      36.284  57.518  14.486  1.00  0.00    -0.000 C 
BRANCH  17  18
ATOM     18  C   UNL     1      35.314  56.363  14.174  1.00  0.00    -0.000 C 
BRANCH  18  19
ATOM     19  C   UNL     1      33.845  56.729  14.428  1.00  0.00    -0.003 C 
ATOM     20  C   UNL     1      33.252  55.878  15.547  1.00  0.00     0.004 C 
ENDBRANCH  18  19
ENDBRANCH  17  18
ENDBRANCH  16  17
ENDBRANCH  15  16
ENDBRANCH  14  15
ENDBRANCH  13  14
ENDBRANCH  12  13
ENDBRANCH   1  12
TORSDOF 16
ENDMDL
MODEL 8
REMARK VINA RESULT:    -5.081      4.331     10.224
REMARK INTER + INTRA:         -10.672
REMARK INTER:                  -9.730
REMARK INTRA:                  -0.942
REMARK UNBOUND:                -0.838
REMARK SMILES CCCCCCCCCCCCCCCCCC(=O)[O-]
REMARK SMILES IDX 10 1 11 2 12 3 13 4 14 5 15 6 16 7 17 8 18 9 19 10 20 11
REMARK SMILES IDX 9 12 8 13 7 14 6 15 5 16 4 17 3 18 2 19 1 20
REMARK H PARENT
REMARK Flexibility Score: inf
ROOT
ATOM      1  C   UNL     1      42.465  55.282  17.753  1.00  0.00     0.000 C 
ENDROOT
BRANCH   1   2
ATOM      2  C   UNL     1      41.173  55.970  17.265  1.00  0.00     0.000 C 
BRANCH   2   3
ATOM      3  C   UNL     1      40.071  56.035  18.336  1.00  0.00     0.000 C 
BRANCH   3   4
ATOM      4  C   UNL     1      39.011  57.108  18.037  1.00  0.00     0.000 C 
BRANCH   4   5
ATOM      5  C   UNL     1      38.054  56.692  16.909  1.00  0.00     0.000 C 
BRANCH   5   6
ATOM      6  C   UNL     1      36.604  57.136  17.173  1.00  0.00     0.000 C 
BRANCH   6   7
ATOM      7  C   UNL     1      35.968  57.838  15.960  1.00  0.00     0.006 C 
BRANCH   7   8
ATOM      8  C   UNL     1      35.455  56.878  14.874  1.00  0.00     0.053 C 
BRANCH   8   9
ATOM      9  C   UNL     1      34.127  56.288  15.231  1.00  0.00     0.041 C 
ATOM     10  O   UNL     1      33.514  56.678  16.258  1.00  0.00    -0.550 OA
ATOM     11  O   UNL     1      33.548  55.330  14.408  1.00  0.00    -0.550 OA
ENDBRANCH   8   9
ENDBRANCH   7   8
ENDBRANCH   6   7
ENDBRANCH   5   6
ENDBRANCH   4   5
ENDBRANCH   3   4
ENDBRANCH   2   3
ENDBRANCH   1   2
BRANCH   1  12
ATOM     12  C   UNL     1      42.820  54.045  16.909  1.00  0.00     0.000 C 
BRANCH  12  13
ATOM     13  C   UNL     1      42.385  54.176  15.438  1.00  0.00    -0.000 C 
BRANCH  13  14
ATOM     14  C   UNL     1      43.524  54.482  14.448  1.00  0.00    -0.000 C 
BRANCH  14  15
ATOM     15  C   UNL     1      44.918  54.268  15.056  1.00  0.00    -0.000 C 
BRANCH  15  16
ATOM     16  C   UNL     1      45.746  55.559  14.997  1.00  0.00    -0.000 C 
BRANCH  16  17
ATOM     17  C   UNL     1      45.596  56.426  16.260  1.00  0.00    -0.000 C 
BRANCH  17  18
ATOM     18  C   UNL     1      46.726  57.448  16.489  1.00  0.00    -0.000 C 
BRANCH  18  19
ATOM     19  C   UNL     1      48.094  56.789  16.716  1.00  0.00    -0.003 C 
ATOM     20  C   UNL     1      47.986  55.622  17.693  1.00  0.00     0.004 C 
ENDBRANCH  18  19
ENDBRANCH  17  18
ENDBRANCH  16  17
ENDBRANCH  15  16
ENDBRANCH  14  15
ENDBRANCH  13  14
ENDBRANCH  12  13
ENDBRANCH   1  12
TORSDOF 16
ENDMDL
MODEL 9
REMARK VINA RESULT:    -5.074      5.082      9.828
REMARK INTER + INTRA:         -10.658
REMARK INTER:                  -9.113
REMARK INTRA:                  -1.545
REMARK UNBOUND:                -0.838
REMARK SMILES CCCCCCCCCCCCCCCCCC(=O)[O-]
REMARK SMILES IDX 10 1 11 2 12 3 13 4 14 5 15 6 16 7 17 8 18 9 19 10 20 11
REMARK SMILES IDX 9 12 8 13 7 14 6 15 5 16 4 17 3 18 2 19 1 20
REMARK H PARENT
REMARK Flexibility Score: inf
ROOT
ATOM      1  C   UNL     1      37.795  57.495  17.623  1.00  0.00     0.000 C 
ENDROOT
BRANCH   1   2
ATOM      2  C   UNL     1      36.414  57.166  17.021  1.00  0.00     0.000 C 
BRANCH   2   3
ATOM      3  C   UNL     1      36.025  58.075  15.842  1.00  0.00     0.000 C 
BRANCH   3   4
ATOM      4  C   UNL     1      36.349  57.450  14.475  1.00  0.00     0.000 C 
BRANCH   4   5
ATOM      5  C   UNL     1      35.273  56.454  14.013  1.00  0.00     0.000 C 
BRANCH   5   6
ATOM      6  C   UNL     1      33.857  57.053  14.060  1.00  0.00     0.000 C 
BRANCH   6   7
ATOM      7  C   UNL     1      32.840  56.122  14.744  1.00  0.00     0.006 C 
BRANCH   7   8
ATOM      8  C   UNL     1      32.886  56.160  16.280  1.00  0.00     0.053 C 
BRANCH   8   9
ATOM      9  C   UNL     1      31.535  56.408  16.875  1.00  0.00     0.041 C 
ATOM     10  O   UNL     1      30.742  57.221  16.332  1.00  0.00    -0.550 OA
ATOM     11  O   UNL     1      31.137  55.715  18.011  1.00  0.00    -0.550 OA
ENDBRANCH   8   9
ENDBRANCH   7   8
ENDBRANCH   6   7
ENDBRANCH   5   6
ENDBRANCH   4   5
ENDBRANCH   3   4
ENDBRANCH   2   3
ENDBRANCH   1   2
BRANCH   1  12
ATOM     12  C   UNL     1      38.749  56.289  17.587  1.00  0.00     0.000 C 
BRANCH  12  13
ATOM     13  C   UNL     1      40.233  56.692  17.675  1.00  0.00    -0.000 C 
BRANCH  13  14
ATOM     14  C   UNL     1      41.182  55.576  18.145  1.00  0.00    -0.000 C 
BRANCH  14  15
ATOM     15  C   UNL     1      42.432  55.441  17.262  1.00  0.00    -0.000 C 
BRANCH  15  16
ATOM     16  C   UNL     1      42.880  53.975  17.166  1.00  0.00    -0.000 C 
BRANCH  16  17
ATOM     17  C   UNL     1      42.911  53.451  15.718  1.00  0.00    -0.000 C 
BRANCH  17  18
ATOM     18  C   UNL     1      42.491  54.473  14.645  1.00  0.00    -0.000 C 
BRANCH  18  19
ATOM     19  C   UNL     1      41.149  54.130  13.984  1.00  0.00    -0.003 C 
ATOM     20  C   UNL     1      40.138  55.258  14.174  1.00  0.00     0.004 C 
ENDBRANCH  18  19
ENDBRANCH  17  18
ENDBRANCH  16  17
ENDBRANCH  15  16
ENDBRANCH  14  15
ENDBRANCH  13  14
ENDBRANCH  12  13
ENDBRANCH   1  12
TORSDOF 16
ENDMDL
