MODEL 1
REMARK VINA RESULT:    18.002      0.000      0.000
REMARK INTER + INTRA:          32.212
REMARK INTER:                  32.735
REMARK INTRA:                  -0.523
REMARK UNBOUND:                -0.523
REMARK SMILES CCCCCCCCCCCCCCCC(=O)[O-]
REMARK SMILES IDX 9 1 10 2 11 3 12 4 13 5 14 6 15 7 16 8 17 9 18 10 8 11 7 12
REMARK SMILES IDX 6 13 5 14 4 15 3 16 2 17 1 18
REMARK H PARENT
REMARK Flexibility Score: inf
ROOT
ATOM      1  C   UNL     1      -2.305  20.341   9.362  1.00  0.00     0.000 C 
ENDROOT
BRANCH   1   2
ATOM      2  C   UNL     1      -1.261  19.211   9.321  1.00  0.00     0.000 C 
BRANCH   2   3
ATOM      3  C   UNL     1      -1.775  17.922   9.995  1.00  0.00     0.000 C 
BRANCH   3   4
ATOM      4  C   UNL     1      -0.984  16.662   9.598  1.00  0.00     0.000 C 
BRANCH   4   5
ATOM      5  C   UNL     1      -1.676  15.846   8.493  1.00  0.00     0.000 C 
BRANCH   5   6
ATOM      6  C   UNL     1      -3.021  16.455   8.066  1.00  0.00     0.006 C 
BRANCH   6   7
ATOM      7  C   UNL     1      -3.901  15.462   7.296  1.00  0.00     0.053 C 
BRANCH   7   8
ATOM      8  C   UNL     1      -5.345  15.688   7.615  1.00  0.00     0.041 C 
ATOM      9  O   UNL     1      -6.155  14.724   7.603  1.00  0.00    -0.550 OA
ATOM     10  O   UNL     1      -5.788  16.955   7.974  1.00  0.00    -0.550 OA
ENDBRANCH   7   8
ENDBRANCH   6   7
ENDBRANCH   5   6
ENDBRANCH   4   5
ENDBRANCH   3   4
ENDBRANCH   2   3
ENDBRANCH   1   2
BRANCH   1  11
ATOM     11  C   UNL     1      -1.764  21.663   8.794  1.00  0.00     0.000 C 
BRANCH  11  12
ATOM     12  C   UNL     1      -1.111  22.538   9.879  1.00  0.00    -0.000 C 
BRANCH  12  13
ATOM     13  C   UNL     1      -0.492  23.824   9.307  1.00  0.00    -0.000 C 
BRANCH  13  14
ATOM     14  C   UNL     1      -0.287  24.910  10.375  1.00  0.00    -0.000 C 
BRANCH  14  15
ATOM     15  C   UNL     1      -0.122  26.291   9.729  1.00  0.00    -0.000 C 
BRANCH  15  16
ATOM     16  C   UNL     1      -0.315  27.409  10.764  1.00  0.00    -0.000 C 
BRANCH  16  17
ATOM     17  C   UNL     1      -1.635  27.273  11.540  1.00  0.00    -0.003 C 
ATOM     18  C   UNL     1      -1.473  27.551  13.035  1.00  0.00     0.004 C 
ENDBRANCH  16  17
ENDBRANCH  15  16
ENDBRANCH  14  15
ENDBRANCH  13  14
ENDBRANCH  12  13
ENDBRANCH  11  12
ENDBRANCH   1  11
TORSDOF 14
ENDMDL
MODEL 2
REMARK VINA RESULT:    18.031      0.900      1.728
REMARK INTER + INTRA:          32.265
REMARK INTER:                  32.822
REMARK INTRA:                  -0.557
REMARK UNBOUND:                -0.523
REMARK SMILES CCCCCCCCCCCCCCCC(=O)[O-]
REMARK SMILES IDX 9 1 10 2 11 3 12 4 13 5 14 6 15 7 16 8 17 9 18 10 8 11 7 12
REMARK SMILES IDX 6 13 5 14 4 15 3 16 2 17 1 18
REMARK H PARENT
REMARK Flexibility Score: inf
ROOT
ATOM      1  C   UNL     1      -1.136  19.236   9.352  1.00  0.00     0.000 C 
ENDROOT
BRANCH   1   2
ATOM      2  C   UNL     1      -1.581  17.905   9.982  1.00  0.00     0.000 C 
BRANCH   2   3
ATOM      3  C   UNL     1      -0.985  16.687   9.245  1.00  0.00     0.000 C 
BRANCH   3   4
ATOM      4  C   UNL     1      -2.048  15.763   8.623  1.00  0.00     0.000 C 
BRANCH   4   5
ATOM      5  C   UNL     1      -3.242  16.535   8.038  1.00  0.00     0.000 C 
BRANCH   5   6
ATOM      6  C   UNL     1      -4.136  15.653   7.152  1.00  0.00     0.006 C 
BRANCH   6   7
ATOM      7  C   UNL     1      -5.631  15.867   7.423  1.00  0.00     0.053 C 
BRANCH   7   8
ATOM      8  C   UNL     1      -6.304  14.560   7.697  1.00  0.00     0.041 C 
ATOM      9  O   UNL     1      -7.470  14.346   7.272  1.00  0.00    -0.550 OA
ATOM     10  O   UNL     1      -5.626  13.558   8.380  1.00  0.00    -0.550 OA
ENDBRANCH   7   8
ENDBRANCH   6   7
ENDBRANCH   5   6
ENDBRANCH   4   5
ENDBRANCH   3   4
ENDBRANCH   2   3
ENDBRANCH   1   2
BRANCH   1  11
ATOM     11  C   UNL     1      -2.241  20.304   9.392  1.00  0.00     0.000 C 
BRANCH  11  12
ATOM     12  C   UNL     1      -1.763  21.657   8.836  1.00  0.00    -0.000 C 
BRANCH  12  13
ATOM     13  C   UNL     1      -1.196  22.578   9.929  1.00  0.00    -0.000 C 
BRANCH  13  14
ATOM     14  C   UNL     1      -0.378  23.746   9.356  1.00  0.00    -0.000 C 
BRANCH  14  15
ATOM     15  C   UNL     1      -0.247  24.879  10.380  1.00  0.00    -0.000 C 
BRANCH  15  16
ATOM     16  C   UNL     1      -0.374  26.251   9.702  1.00  0.00    -0.000 C 
BRANCH  16  17
ATOM     17  C   UNL     1      -0.331  27.412  10.708  1.00  0.00    -0.003 C 
ATOM     18  C   UNL     1      -1.317  27.232  11.863  1.00  0.00     0.004 C 
ENDBRANCH  16  17
ENDBRANCH  15  16
ENDBRANCH  14  15
ENDBRANCH  13  14
ENDBRANCH  12  13
ENDBRANCH  11  12
ENDBRANCH   1  11
TORSDOF 14
ENDMDL
MODEL 3
REMARK VINA RESULT:    18.224      4.452     10.034
REMARK INTER + INTRA:          32.616
REMARK INTER:                  33.153
REMARK INTRA:                  -0.537
REMARK UNBOUND:                -0.523
REMARK SMILES CCCCCCCCCCCCCCCC(=O)[O-]
REMARK SMILES IDX 9 1 10 2 11 3 12 4 13 5 14 6 15 7 16 8 17 9 18 10 8 11 7 12
REMARK SMILES IDX 6 13 5 14 4 15 3 16 2 17 1 18
REMARK H PARENT
REMARK Flexibility Score: inf
ROOT
ATOM      1  C   UNL     1      -1.129  19.317   9.141  1.00  0.00     0.000 C 
ENDROOT
BRANCH   1   2
ATOM      2  C   UNL     1      -1.973  20.475   9.704  1.00  0.00     0.000 C 
BRANCH   2   3
ATOM      3  C   UNL     1      -1.707  21.801   8.960  1.00  0.00     0.000 C 
BRANCH   3   4
ATOM      4  C   UNL     1      -1.067  22.885   9.845  1.00  0.00     0.000 C 
BRANCH   4   5
ATOM      5  C   UNL     1      -0.102  23.797   9.070  1.00  0.00     0.000 C 
BRANCH   5   6
ATOM      6  C   UNL     1      -0.308  25.285   9.397  1.00  0.00     0.006 C 
BRANCH   6   7
ATOM      7  C   UNL     1      -0.361  25.557  10.905  1.00  0.00     0.053 C 
BRANCH   7   8
ATOM      8  C   UNL     1      -0.779  26.969  11.167  1.00  0.00     0.041 C 
ATOM      9  O   UNL     1      -0.512  27.873  10.332  1.00  0.00    -0.550 OA
ATOM     10  O   UNL     1      -1.506  27.280  12.309  1.00  0.00    -0.550 OA
ENDBRANCH   7   8
ENDBRANCH   6   7
ENDBRANCH   5   6
ENDBRANCH   4   5
ENDBRANCH   3   4
ENDBRANCH   2   3
ENDBRANCH   1   2
BRANCH   1  11
ATOM     11  C   UNL     1      -1.345  18.004   9.912  1.00  0.00     0.000 C 
BRANCH  11  12
ATOM     12  C   UNL     1      -1.202  16.768   9.006  1.00  0.00    -0.000 C 
BRANCH  12  13
ATOM     13  C   UNL     1      -2.502  15.952   8.910  1.00  0.00    -0.000 C 
BRANCH  13  14
ATOM     14  C   UNL     1      -2.655  15.236   7.560  1.00  0.00    -0.000 C 
BRANCH  14  15
ATOM     15  C   UNL     1      -3.786  15.860   6.733  1.00  0.00    -0.000 C 
BRANCH  15  16
ATOM     16  C   UNL     1      -5.113  15.832   7.506  1.00  0.00    -0.000 C 
BRANCH  16  17
ATOM     17  C   UNL     1      -5.660  14.408   7.688  1.00  0.00    -0.003 C 
ATOM     18  C   UNL     1      -7.178  14.332   7.523  1.00  0.00     0.004 C 
ENDBRANCH  16  17
ENDBRANCH  15  16
ENDBRANCH  14  15
ENDBRANCH  13  14
ENDBRANCH  12  13
ENDBRANCH  11  12
ENDBRANCH   1  11
TORSDOF 14
ENDMDL
MODEL 4
REMARK VINA RESULT:    18.563      4.069     10.025
REMARK INTER + INTRA:          33.232
REMARK INTER:                  33.720
REMARK INTRA:                  -0.488
REMARK UNBOUND:                -0.523
REMARK SMILES CCCCCCCCCCCCCCCC(=O)[O-]
REMARK SMILES IDX 9 1 10 2 11 3 12 4 13 5 14 6 15 7 16 8 17 9 18 10 8 11 7 12
REMARK SMILES IDX 6 13 5 14 4 15 3 16 2 17 1 18
REMARK H PARENT
REMARK Flexibility Score: inf
ROOT
ATOM      1  C   UNL     1      -1.780  20.900   9.035  1.00  0.00     0.000 C 
ENDROOT
BRANCH   1   2
ATOM      2  C   UNL     1      -1.482  22.070   9.989  1.00  0.00     0.000 C 
BRANCH   2   3
ATOM      3  C   UNL     1      -0.633  23.167   9.314  1.00  0.00     0.000 C 
BRANCH   3   4
ATOM      4  C   UNL     1      -0.323  24.360  10.236  1.00  0.00     0.000 C 
BRANCH   4   5
ATOM      5  C   UNL     1      -0.271  25.700   9.482  1.00  0.00     0.000 C 
BRANCH   5   6
ATOM      6  C   UNL     1       0.201  26.859  10.374  1.00  0.00     0.006 C 
BRANCH   6   7
ATOM      7  C   UNL     1      -0.945  27.792  10.787  1.00  0.00     0.053 C 
BRANCH   7   8
ATOM      8  C   UNL     1      -1.484  27.395  12.126  1.00  0.00     0.041 C 
ATOM      9  O   UNL     1      -1.358  28.166  13.113  1.00  0.00    -0.550 OA
ATOM     10  O   UNL     1      -2.168  26.195  12.272  1.00  0.00    -0.550 OA
ENDBRANCH   7   8
ENDBRANCH   6   7
ENDBRANCH   5   6
ENDBRANCH   4   5
ENDBRANCH   3   4
ENDBRANCH   2   3
ENDBRANCH   1   2
BRANCH   1  11
ATOM     11  C   UNL     1      -1.976  19.569   9.780  1.00  0.00     0.000 C 
BRANCH  11  12
ATOM     12  C   UNL     1      -1.147  18.429   9.161  1.00  0.00    -0.000 C 
BRANCH  12  13
ATOM     13  C   UNL     1      -1.068  17.193  10.073  1.00  0.00    -0.000 C 
BRANCH  13  14
ATOM     14  C   UNL     1      -1.601  15.922   9.396  1.00  0.00    -0.000 C 
BRANCH  14  15
ATOM     15  C   UNL     1      -2.123  16.228   7.987  1.00  0.00    -0.000 C 
BRANCH  15  16
ATOM     16  C   UNL     1      -3.222  15.235   7.579  1.00  0.00    -0.000 C 
BRANCH  16  17
ATOM     17  C   UNL     1      -4.612  15.888   7.514  1.00  0.00    -0.003 C 
ATOM     18  C   UNL     1      -5.748  14.867   7.568  1.00  0.00     0.004 C 
ENDBRANCH  16  17
ENDBRANCH  15  16
ENDBRANCH  14  15
ENDBRANCH  13  14
ENDBRANCH  12  13
ENDBRANCH  11  12
ENDBRANCH   1  11
TORSDOF 14
ENDMDL
MODEL 5
REMARK VINA RESULT:    18.780      2.281      3.224
REMARK INTER + INTRA:          33.627
REMARK INTER:                  34.008
REMARK INTRA:                  -0.381
REMARK UNBOUND:                -0.523
REMARK SMILES CCCCCCCCCCCCCCCC(=O)[O-]
REMARK SMILES IDX 9 1 10 2 11 3 12 4 13 5 14 6 15 7 16 8 17 9 18 10 8 11 7 12
REMARK SMILES IDX 6 13 5 14 4 15 3 16 2 17 1 18
REMARK H PARENT
REMARK Flexibility Score: inf
ROOT
ATOM      1  C   UNL     1      -2.699  21.190   9.689  1.00  0.00     0.000 C 
ENDROOT
BRANCH   1   2
ATOM      2  C   UNL     1      -4.171  21.123   9.244  1.00  0.00     0.000 C 
BRANCH   2   3
ATOM      3  C   UNL     1      -5.102  20.668  10.386  1.00  0.00     0.000 C 
BRANCH   3   4
ATOM      4  C   UNL     1      -5.386  19.155  10.383  1.00  0.00     0.000 C 
BRANCH   4   5
ATOM      5  C   UNL     1      -4.407  18.365   9.499  1.00  0.00     0.000 C 
BRANCH   5   6
ATOM      6  C   UNL     1      -3.299  17.679  10.314  1.00  0.00     0.006 C 
BRANCH   6   7
ATOM      7  C   UNL     1      -1.893  18.124   9.890  1.00  0.00     0.053 C 
BRANCH   7   8
ATOM      8  C   UNL     1      -1.116  16.960   9.359  1.00  0.00     0.041 C 
ATOM      9  O   UNL     1       0.004  16.668   9.854  1.00  0.00    -0.550 OA
ATOM     10  O   UNL     1      -1.652  16.169   8.351  1.00  0.00    -0.550 OA
ENDBRANCH   7   8
ENDBRANCH   6   7
ENDBRANCH   5   6
ENDBRANCH   4   5
ENDBRANCH   3   4
ENDBRANCH   2   3
ENDBRANCH   1   2
BRANCH   1  11
ATOM     11  C   UNL     1      -1.874  22.175   8.845  1.00  0.00     0.000 C 
BRANCH  11  12
ATOM     12  C   UNL     1      -0.751  22.841   9.660  1.00  0.00    -0.000 C 
BRANCH  12  13
ATOM     13  C   UNL     1      -0.424  24.260   9.165  1.00  0.00    -0.000 C 
BRANCH  13  14
ATOM     14  C   UNL     1      -0.061  25.218  10.310  1.00  0.00    -0.000 C 
BRANCH  14  15
ATOM     15  C   UNL     1      -0.062  26.674   9.828  1.00  0.00    -0.000 C 
BRANCH  15  16
ATOM     16  C   UNL     1      -0.688  27.601  10.881  1.00  0.00    -0.000 C 
BRANCH  16  17
ATOM     17  C   UNL     1      -0.938  26.890  12.220  1.00  0.00    -0.003 C 
ATOM     18  C   UNL     1      -1.814  27.708  13.170  1.00  0.00     0.004 C 
ENDBRANCH  16  17
ENDBRANCH  15  16
ENDBRANCH  14  15
ENDBRANCH  13  14
ENDBRANCH  12  13
ENDBRANCH  11  12
ENDBRANCH   1  11
TORSDOF 14
ENDMDL
MODEL 6
REMARK VINA RESULT:    18.808      1.396      2.340
REMARK INTER + INTRA:          33.678
REMARK INTER:                  34.467
REMARK INTRA:                  -0.789
REMARK UNBOUND:                -0.523
REMARK SMILES CCCCCCCCCCCCCCCC(=O)[O-]
REMARK SMILES IDX 9 1 10 2 11 3 12 4 13 5 14 6 15 7 16 8 17 9 18 10 8 11 7 12
REMARK SMILES IDX 6 13 5 14 4 15 3 16 2 17 1 18
REMARK H PARENT
REMARK Flexibility Score: inf
ROOT
ATOM      1  C   UNL     1      -1.802  22.148  10.451  1.00  0.00     0.000 C 
ENDROOT
BRANCH   1   2
ATOM      2  C   UNL     1      -1.984  21.313   9.171  1.00  0.00     0.000 C 
BRANCH   2   3
ATOM      3  C   UNL     1      -1.207  19.981   9.231  1.00  0.00     0.000 C 
BRANCH   3   4
ATOM      4  C   UNL     1      -2.101  18.759   9.511  1.00  0.00     0.000 C 
BRANCH   4   5
ATOM      5  C   UNL     1      -1.498  17.803  10.553  1.00  0.00     0.000 C 
BRANCH   5   6
ATOM      6  C   UNL     1      -0.898  16.540   9.916  1.00  0.00     0.006 C 
BRANCH   6   7
ATOM      7  C   UNL     1      -1.212  16.427   8.419  1.00  0.00     0.053 C 
BRANCH   7   8
ATOM      8  C   UNL     1      -2.388  15.529   8.198  1.00  0.00     0.041 C 
ATOM      9  O   UNL     1      -3.466  15.996   7.745  1.00  0.00    -0.550 OA
ATOM     10  O   UNL     1      -2.279  14.166   8.447  1.00  0.00    -0.550 OA
ENDBRANCH   7   8
ENDBRANCH   6   7
ENDBRANCH   5   6
ENDBRANCH   4   5
ENDBRANCH   3   4
ENDBRANCH   2   3
ENDBRANCH   1   2
BRANCH   1  11
ATOM     11  C   UNL     1      -0.594  23.095  10.368  1.00  0.00     0.000 C 
BRANCH  11  12
ATOM     12  C   UNL     1      -0.433  23.712   8.967  1.00  0.00    -0.000 C 
BRANCH  12  13
ATOM     13  C   UNL     1      -0.098  25.211   9.016  1.00  0.00    -0.000 C 
BRANCH  13  14
ATOM     14  C   UNL     1       0.070  25.735  10.450  1.00  0.00    -0.000 C 
BRANCH  14  15
ATOM     15  C   UNL     1       0.203  27.263  10.464  1.00  0.00    -0.000 C 
BRANCH  15  16
ATOM     16  C   UNL     1      -1.154  27.932  10.729  1.00  0.00    -0.000 C 
BRANCH  16  17
ATOM     17  C   UNL     1      -1.957  27.222  11.830  1.00  0.00    -0.003 C 
ATOM     18  C   UNL     1      -1.470  27.574  13.237  1.00  0.00     0.004 C 
ENDBRANCH  16  17
ENDBRANCH  15  16
ENDBRANCH  14  15
ENDBRANCH  13  14
ENDBRANCH  12  13
ENDBRANCH  11  12
ENDBRANCH   1  11
TORSDOF 14
ENDMDL
MODEL 7
REMARK VINA RESULT:    18.831      1.175      1.375
REMARK INTER + INTRA:          33.720
REMARK INTER:                  34.410
REMARK INTRA:                  -0.691
REMARK UNBOUND:                -0.523
REMARK SMILES CCCCCCCCCCCCCCCC(=O)[O-]
REMARK SMILES IDX 9 1 10 2 11 3 12 4 13 5 14 6 15 7 16 8 17 9 18 10 8 11 7 12
REMARK SMILES IDX 6 13 5 14 4 15 3 16 2 17 1 18
REMARK H PARENT
REMARK Flexibility Score: inf
ROOT
ATOM      1  C   UNL     1      -1.908  20.423   9.533  1.00  0.00     0.000 C 
ENDROOT
BRANCH   1   2
ATOM      2  C   UNL     1      -0.924  19.298   9.165  1.00  0.00     0.000 C 
BRANCH   2   3
ATOM      3  C   UNL     1      -1.198  18.004   9.960  1.00  0.00     0.000 C 
BRANCH   3   4
ATOM      4  C   UNL     1      -1.061  16.723   9.118  1.00  0.00     0.000 C 
BRANCH   4   5
ATOM      5  C   UNL     1      -2.392  16.270   8.496  1.00  0.00     0.000 C 
BRANCH   5   6
ATOM      6  C   UNL     1      -3.600  17.018   9.083  1.00  0.00     0.006 C 
BRANCH   6   7
ATOM      7  C   UNL     1      -4.752  17.157   8.079  1.00  0.00     0.053 C 
BRANCH   7   8
ATOM      8  C   UNL     1      -5.845  18.003   8.654  1.00  0.00     0.041 C 
ATOM      9  O   UNL     1      -7.008  17.946   8.175  1.00  0.00    -0.550 OA
ATOM     10  O   UNL     1      -5.590  18.818   9.750  1.00  0.00    -0.550 OA
ENDBRANCH   7   8
ENDBRANCH   6   7
ENDBRANCH   5   6
ENDBRANCH   4   5
ENDBRANCH   3   4
ENDBRANCH   2   3
ENDBRANCH   1   2
BRANCH   1  11
ATOM     11  C   UNL     1      -1.513  21.774   8.917  1.00  0.00     0.000 C 
BRANCH  11  12
ATOM     12  C   UNL     1      -1.036  22.781   9.979  1.00  0.00    -0.000 C 
BRANCH  12  13
ATOM     13  C   UNL     1      -0.123  23.870   9.393  1.00  0.00    -0.000 C 
BRANCH  13  14
ATOM     14  C   UNL     1      -0.700  25.284   9.563  1.00  0.00    -0.000 C 
BRANCH  14  15
ATOM     15  C   UNL     1       0.365  26.252  10.091  1.00  0.00    -0.000 C 
BRANCH  15  16
ATOM     16  C   UNL     1      -0.284  27.487  10.733  1.00  0.00    -0.000 C 
BRANCH  16  17
ATOM     17  C   UNL     1      -1.617  27.161  11.425  1.00  0.00    -0.003 C 
ATOM     18  C   UNL     1      -1.563  27.365  12.939  1.00  0.00     0.004 C 
ENDBRANCH  16  17
ENDBRANCH  15  16
ENDBRANCH  14  15
ENDBRANCH  13  14
ENDBRANCH  12  13
ENDBRANCH  11  12
ENDBRANCH   1  11
TORSDOF 14
ENDMDL
MODEL 8
REMARK VINA RESULT:    19.261      4.418      9.125
REMARK INTER + INTRA:          34.502
REMARK INTER:                  35.098
REMARK INTRA:                  -0.597
REMARK UNBOUND:                -0.523
REMARK SMILES CCCCCCCCCCCCCCCC(=O)[O-]
REMARK SMILES IDX 9 1 10 2 11 3 12 4 13 5 14 6 15 7 16 8 17 9 18 10 8 11 7 12
REMARK SMILES IDX 6 13 5 14 4 15 3 16 2 17 1 18
REMARK H PARENT
REMARK Flexibility Score: inf
ROOT
ATOM      1  C   UNL     1      -1.109  19.318   9.197  1.00  0.00     0.000 C 
ENDROOT
BRANCH   1   2
ATOM      2  C   UNL     1      -1.981  20.498   9.661  1.00  0.00     0.000 C 
BRANCH   2   3
ATOM      3  C   UNL     1      -1.611  21.812   8.940  1.00  0.00     0.000 C 
BRANCH   3   4
ATOM      4  C   UNL     1      -1.097  22.910   9.888  1.00  0.00     0.000 C 
BRANCH   4   5
ATOM      5  C   UNL     1      -0.027  23.805   9.242  1.00  0.00     0.000 C 
BRANCH   5   6
ATOM      6  C   UNL     1      -0.284  25.301   9.486  1.00  0.00     0.006 C 
BRANCH   6   7
ATOM      7  C   UNL     1      -0.147  25.689  10.964  1.00  0.00     0.053 C 
BRANCH   7   8
ATOM      8  C   UNL     1      -0.830  26.995  11.226  1.00  0.00     0.041 C 
ATOM      9  O   UNL     1      -1.545  27.140  12.251  1.00  0.00    -0.550 OA
ATOM     10  O   UNL     1      -0.637  28.066  10.362  1.00  0.00    -0.550 OA
ENDBRANCH   7   8
ENDBRANCH   6   7
ENDBRANCH   5   6
ENDBRANCH   4   5
ENDBRANCH   3   4
ENDBRANCH   2   3
ENDBRANCH   1   2
BRANCH   1  11
ATOM     11  C   UNL     1      -1.282  18.075  10.085  1.00  0.00     0.000 C 
BRANCH  11  12
ATOM     12  C   UNL     1      -1.020  16.769   9.314  1.00  0.00    -0.000 C 
BRANCH  12  13
ATOM     13  C   UNL     1      -2.226  16.332   8.465  1.00  0.00    -0.000 C 
BRANCH  13  14
ATOM     14  C   UNL     1      -3.535  17.004   8.904  1.00  0.00    -0.000 C 
BRANCH  14  15
ATOM     15  C   UNL     1      -4.641  16.781   7.865  1.00  0.00    -0.000 C 
BRANCH  15  16
ATOM     16  C   UNL     1      -5.973  17.381   8.342  1.00  0.00    -0.000 C 
BRANCH  16  17
ATOM     17  C   UNL     1      -5.797  18.755   9.006  1.00  0.00    -0.003 C 
ATOM     18  C   UNL     1      -6.104  18.733  10.504  1.00  0.00     0.004 C 
ENDBRANCH  16  17
ENDBRANCH  15  16
ENDBRANCH  14  15
ENDBRANCH  13  14
ENDBRANCH  12  13
ENDBRANCH  11  12
ENDBRANCH   1  11
TORSDOF 14
ENDMDL
MODEL 9
REMARK VINA RESULT:    19.329      4.184      9.816
REMARK INTER + INTRA:          34.625
REMARK INTER:                  34.930
REMARK INTRA:                  -0.305
REMARK UNBOUND:                -0.523
REMARK SMILES CCCCCCCCCCCCCCCC(=O)[O-]
REMARK SMILES IDX 9 1 10 2 11 3 12 4 13 5 14 6 15 7 16 8 17 9 18 10 8 11 7 12
REMARK SMILES IDX 6 13 5 14 4 15 3 16 2 17 1 18
REMARK H PARENT
REMARK Flexibility Score: inf
ROOT
ATOM      1  C   UNL     1      -1.816  22.349  10.227  1.00  0.00     0.000 C 
ENDROOT
BRANCH   1   2
ATOM      2  C   UNL     1      -0.423  22.992  10.344  1.00  0.00     0.000 C 
BRANCH   2   3
ATOM      3  C   UNL     1      -0.061  23.823   9.095  1.00  0.00     0.000 C 
BRANCH   3   4
ATOM      4  C   UNL     1      -0.393  25.319   9.233  1.00  0.00     0.000 C 
BRANCH   4   5
ATOM      5  C   UNL     1       0.294  25.975  10.441  1.00  0.00     0.000 C 
BRANCH   5   6
ATOM      6  C   UNL     1       0.188  27.508  10.419  1.00  0.00     0.006 C 
BRANCH   6   7
ATOM      7  C   UNL     1      -1.188  28.012  10.875  1.00  0.00     0.053 C 
BRANCH   7   8
ATOM      8  C   UNL     1      -1.532  27.444  12.216  1.00  0.00     0.041 C 
ATOM      9  O   UNL     1      -1.874  26.237  12.324  1.00  0.00    -0.550 OA
ATOM     10  O   UNL     1      -1.429  28.235  13.353  1.00  0.00    -0.550 OA
ENDBRANCH   7   8
ENDBRANCH   6   7
ENDBRANCH   5   6
ENDBRANCH   4   5
ENDBRANCH   3   4
ENDBRANCH   2   3
ENDBRANCH   1   2
BRANCH   1  11
ATOM     11  C   UNL     1      -1.908  21.353   9.060  1.00  0.00     0.000 C 
BRANCH  11  12
ATOM     12  C   UNL     1      -1.110  20.064   9.330  1.00  0.00    -0.000 C 
BRANCH  12  13
ATOM     13  C   UNL     1      -2.008  18.818   9.406  1.00  0.00    -0.000 C 
BRANCH  13  14
ATOM     14  C   UNL     1      -1.585  17.849  10.520  1.00  0.00    -0.000 C 
BRANCH  14  15
ATOM     15  C   UNL     1      -0.816  16.654   9.944  1.00  0.00    -0.000 C 
BRANCH  15  16
ATOM     16  C   UNL     1      -1.134  16.461   8.454  1.00  0.00    -0.000 C 
BRANCH  16  17
ATOM     17  C   UNL     1      -2.377  15.588   8.224  1.00  0.00    -0.003 C 
ATOM     18  C   UNL     1      -2.201  14.160   8.743  1.00  0.00     0.004 C 
ENDBRANCH  16  17
ENDBRANCH  15  16
ENDBRANCH  14  15
ENDBRANCH  13  14
ENDBRANCH  12  13
ENDBRANCH  11  12
ENDBRANCH   1  11
TORSDOF 14
ENDMDL
