MODEL 1
REMARK VINA RESULT:    -3.513      0.000      0.000
REMARK INTER + INTRA:          -7.981
REMARK INTER:                  -5.977
REMARK INTRA:                  -2.004
REMARK UNBOUND:                -2.004
REMARK SMILES CCCCCCCCCCCCCC(=O)[O-]
REMARK SMILES IDX 8 1 9 2 10 3 11 4 12 5 13 6 14 7 15 8 16 9 7 10 6 11 5 12
REMARK SMILES IDX 4 13 3 14 2 15 1 16
REMARK H PARENT
REMARK Flexibility Score: inf
ROOT
ATOM      1  C   UNL     1     146.008 130.106 115.468  1.00  0.00     0.000 C 
ENDROOT
BRANCH   1   2
ATOM      2  C   UNL     1     144.894 131.110 115.812  1.00  0.00     0.000 C 
BRANCH   2   3
ATOM      3  C   UNL     1     144.671 131.248 117.327  1.00  0.00     0.000 C 
BRANCH   3   4
ATOM      4  C   UNL     1     145.211 130.042 118.115  1.00  0.00     0.000 C 
BRANCH   4   5
ATOM      5  C   UNL     1     144.233 129.560 119.199  1.00  0.00     0.006 C 
BRANCH   5   6
ATOM      6  C   UNL     1     144.378 128.063 119.505  1.00  0.00     0.053 C 
BRANCH   6   7
ATOM      7  C   UNL     1     145.823 127.681 119.567  1.00  0.00     0.041 C 
ATOM      8  O   UNL     1     146.334 126.987 118.649  1.00  0.00    -0.550 OA
ATOM      9  O   UNL     1     146.594 128.050 120.661  1.00  0.00    -0.550 OA
ENDBRANCH   6   7
ENDBRANCH   5   6
ENDBRANCH   4   5
ENDBRANCH   3   4
ENDBRANCH   2   3
ENDBRANCH   1   2
BRANCH   1  10
ATOM     10  C   UNL     1     145.522 128.982 114.540  1.00  0.00     0.000 C 
BRANCH  10  11
ATOM     11  C   UNL     1     145.128 127.707 115.307  1.00  0.00    -0.000 C 
BRANCH  11  12
ATOM     12  C   UNL     1     143.678 127.278 115.027  1.00  0.00    -0.000 C 
BRANCH  12  13
ATOM     13  C   UNL     1     142.756 127.488 116.241  1.00  0.00    -0.000 C 
BRANCH  13  14
ATOM     14  C   UNL     1     142.024 128.841 116.206  1.00  0.00    -0.000 C 
BRANCH  14  15
ATOM     15  C   UNL     1     141.193 129.090 114.934  1.00  0.00    -0.003 C 
ATOM     16  C   UNL     1     141.644 130.327 114.157  1.00  0.00     0.004 C 
ENDBRANCH  14  15
ENDBRANCH  13  14
ENDBRANCH  12  13
ENDBRANCH  11  12
ENDBRANCH  10  11
ENDBRANCH   1  10
TORSDOF 12
ENDMDL
MODEL 2
REMARK VINA RESULT:    -3.497      2.788      5.022
REMARK INTER + INTRA:          -7.953
REMARK INTER:                  -6.827
REMARK INTRA:                  -1.126
REMARK UNBOUND:                -2.004
REMARK SMILES CCCCCCCCCCCCCC(=O)[O-]
REMARK SMILES IDX 8 1 9 2 10 3 11 4 12 5 13 6 14 7 15 8 16 9 7 10 6 11 5 12
REMARK SMILES IDX 4 13 3 14 2 15 1 16
REMARK H PARENT
REMARK Flexibility Score: inf
ROOT
ATOM      1  C   UNL     1     144.204 130.893 115.774  1.00  0.00     0.000 C 
ENDROOT
BRANCH   1   2
ATOM      2  C   UNL     1     144.043 129.818 114.685  1.00  0.00     0.000 C 
BRANCH   2   3
ATOM      3  C   UNL     1     145.377 129.148 114.315  1.00  0.00     0.000 C 
BRANCH   3   4
ATOM      4  C   UNL     1     145.289 127.611 114.333  1.00  0.00     0.000 C 
BRANCH   4   5
ATOM      5  C   UNL     1     144.945 127.058 115.726  1.00  0.00     0.006 C 
BRANCH   5   6
ATOM      6  C   UNL     1     146.074 127.270 116.744  1.00  0.00     0.053 C 
BRANCH   6   7
ATOM      7  C   UNL     1     145.510 127.672 118.070  1.00  0.00     0.041 C 
ATOM      8  O   UNL     1     146.175 127.487 119.123  1.00  0.00    -0.550 OA
ATOM      9  O   UNL     1     144.231 128.207 118.149  1.00  0.00    -0.550 OA
ENDBRANCH   6   7
ENDBRANCH   5   6
ENDBRANCH   4   5
ENDBRANCH   3   4
ENDBRANCH   2   3
ENDBRANCH   1   2
BRANCH   1  10
ATOM     10  C   UNL     1     145.645 130.992 116.297  1.00  0.00     0.000 C 
BRANCH  10  11
ATOM     11  C   UNL     1     146.350 132.287 115.855  1.00  0.00    -0.000 C 
BRANCH  11  12
ATOM     12  C   UNL     1     145.874 133.515 116.647  1.00  0.00    -0.000 C 
BRANCH  12  13
ATOM     13  C   UNL     1     145.564 134.719 115.740  1.00  0.00    -0.000 C 
BRANCH  13  14
ATOM     14  C   UNL     1     146.444 134.757 114.478  1.00  0.00    -0.000 C 
BRANCH  14  15
ATOM     15  C   UNL     1     146.301 136.035 113.633  1.00  0.00    -0.003 C 
ATOM     16  C   UNL     1     144.871 136.276 113.149  1.00  0.00     0.004 C 
ENDBRANCH  14  15
ENDBRANCH  13  14
ENDBRANCH  12  13
ENDBRANCH  11  12
ENDBRANCH  10  11
ENDBRANCH   1  10
TORSDOF 12
ENDMDL
MODEL 3
REMARK VINA RESULT:    -3.489      1.354      2.705
REMARK INTER + INTRA:          -7.941
REMARK INTER:                  -5.840
REMARK INTRA:                  -2.101
REMARK UNBOUND:                -2.004
REMARK SMILES CCCCCCCCCCCCCC(=O)[O-]
REMARK SMILES IDX 8 1 9 2 10 3 11 4 12 5 13 6 14 7 15 8 16 9 7 10 6 11 5 12
REMARK SMILES IDX 4 13 3 14 2 15 1 16
REMARK H PARENT
REMARK Flexibility Score: inf
ROOT
ATOM      1  C   UNL     1     145.172 129.069 114.425  1.00  0.00     0.000 C 
ENDROOT
BRANCH   1   2
ATOM      2  C   UNL     1     145.652 127.609 114.505  1.00  0.00     0.000 C 
BRANCH   2   3
ATOM      3  C   UNL     1     145.747 127.097 115.952  1.00  0.00     0.000 C 
BRANCH   3   4
ATOM      4  C   UNL     1     144.364 126.875 116.591  1.00  0.00     0.000 C 
BRANCH   4   5
ATOM      5  C   UNL     1     144.227 127.572 117.955  1.00  0.00     0.006 C 
BRANCH   5   6
ATOM      6  C   UNL     1     145.577 128.033 118.524  1.00  0.00     0.053 C 
BRANCH   6   7
ATOM      7  C   UNL     1     145.513 128.112 120.016  1.00  0.00     0.041 C 
ATOM      8  O   UNL     1     144.419 128.353 120.591  1.00  0.00    -0.550 OA
ATOM      9  O   UNL     1     146.671 127.968 120.770  1.00  0.00    -0.550 OA
ENDBRANCH   6   7
ENDBRANCH   5   6
ENDBRANCH   4   5
ENDBRANCH   3   4
ENDBRANCH   2   3
ENDBRANCH   1   2
BRANCH   1  10
ATOM     10  C   UNL     1     145.940 129.996 115.380  1.00  0.00     0.000 C 
BRANCH  10  11
ATOM     11  C   UNL     1     145.084 131.173 115.881  1.00  0.00    -0.000 C 
BRANCH  11  12
ATOM     12  C   UNL     1     143.599 131.016 115.516  1.00  0.00    -0.000 C 
BRANCH  12  13
ATOM     13  C   UNL     1     142.714 130.754 116.747  1.00  0.00    -0.000 C 
BRANCH  13  14
ATOM     14  C   UNL     1     141.666 129.653 116.504  1.00  0.00    -0.000 C 
BRANCH  14  15
ATOM     15  C   UNL     1     141.632 129.104 115.067  1.00  0.00    -0.003 C 
ATOM     16  C   UNL     1     141.152 127.654 114.991  1.00  0.00     0.004 C 
ENDBRANCH  14  15
ENDBRANCH  13  14
ENDBRANCH  12  13
ENDBRANCH  11  12
ENDBRANCH  10  11
ENDBRANCH   1  10
TORSDOF 12
ENDMDL
MODEL 4
REMARK VINA RESULT:    -3.411      1.248      3.156
REMARK INTER + INTRA:          -7.807
REMARK INTER:                  -6.116
REMARK INTRA:                  -1.691
REMARK UNBOUND:                -2.004
REMARK SMILES CCCCCCCCCCCCCC(=O)[O-]
REMARK SMILES IDX 8 1 9 2 10 3 11 4 12 5 13 6 14 7 15 8 16 9 7 10 6 11 5 12
REMARK SMILES IDX 4 13 3 14 2 15 1 16
REMARK H PARENT
REMARK Flexibility Score: inf
ROOT
ATOM      1  C   UNL     1     144.761 127.570 115.047  1.00  0.00     0.000 C 
ENDROOT
BRANCH   1   2
ATOM      2  C   UNL     1     143.245 127.820 114.975  1.00  0.00     0.000 C 
BRANCH   2   3
ATOM      3  C   UNL     1     142.499 127.292 116.211  1.00  0.00     0.000 C 
BRANCH   3   4
ATOM      4  C   UNL     1     142.844 128.079 117.489  1.00  0.00     0.000 C 
BRANCH   4   5
ATOM      5  C   UNL     1     143.592 127.223 118.524  1.00  0.00     0.006 C 
BRANCH   5   6
ATOM      6  C   UNL     1     144.335 128.070 119.567  1.00  0.00     0.053 C 
BRANCH   6   7
ATOM      7  C   UNL     1     145.793 127.733 119.568  1.00  0.00     0.041 C 
ATOM      8  O   UNL     1     146.301 127.118 118.593  1.00  0.00    -0.550 OA
ATOM      9  O   UNL     1     146.580 128.055 120.665  1.00  0.00    -0.550 OA
ENDBRANCH   6   7
ENDBRANCH   5   6
ENDBRANCH   4   5
ENDBRANCH   3   4
ENDBRANCH   2   3
ENDBRANCH   1   2
BRANCH   1  10
ATOM     10  C   UNL     1     145.583 128.838 114.768  1.00  0.00     0.000 C 
BRANCH  10  11
ATOM     11  C   UNL     1     146.045 129.541 116.057  1.00  0.00    -0.000 C 
BRANCH  11  12
ATOM     12  C   UNL     1     146.573 130.961 115.795  1.00  0.00    -0.000 C 
BRANCH  12  13
ATOM     13  C   UNL     1     145.788 132.034 116.569  1.00  0.00    -0.000 C 
BRANCH  13  14
ATOM     14  C   UNL     1     144.882 131.438 117.662  1.00  0.00    -0.000 C 
BRANCH  14  15
ATOM     15  C   UNL     1     143.373 131.564 117.385  1.00  0.00    -0.003 C 
ATOM     16  C   UNL     1     143.060 131.957 115.941  1.00  0.00     0.004 C 
ENDBRANCH  14  15
ENDBRANCH  13  14
ENDBRANCH  12  13
ENDBRANCH  11  12
ENDBRANCH  10  11
ENDBRANCH   1  10
TORSDOF 12
ENDMDL
MODEL 5
REMARK VINA RESULT:    -3.316      1.339      2.995
REMARK INTER + INTRA:          -7.647
REMARK INTER:                  -5.964
REMARK INTRA:                  -1.682
REMARK UNBOUND:                -2.004
REMARK SMILES CCCCCCCCCCCCCC(=O)[O-]
REMARK SMILES IDX 8 1 9 2 10 3 11 4 12 5 13 6 14 7 15 8 16 9 7 10 6 11 5 12
REMARK SMILES IDX 4 13 3 14 2 15 1 16
REMARK H PARENT
REMARK Flexibility Score: inf
ROOT
ATOM      1  C   UNL     1     142.233 127.655 115.978  1.00  0.00     0.000 C 
ENDROOT
BRANCH   1   2
ATOM      2  C   UNL     1     142.855 127.618 117.385  1.00  0.00     0.000 C 
BRANCH   2   3
ATOM      3  C   UNL     1     142.201 128.622 118.348  1.00  0.00     0.000 C 
BRANCH   3   4
ATOM      4  C   UNL     1     142.440 128.264 119.826  1.00  0.00     0.000 C 
BRANCH   4   5
ATOM      5  C   UNL     1     143.548 129.117 120.466  1.00  0.00     0.006 C 
BRANCH   5   6
ATOM      6  C   UNL     1     144.622 128.269 121.161  1.00  0.00     0.053 C 
BRANCH   6   7
ATOM      7  C   UNL     1     145.872 128.238 120.341  1.00  0.00     0.041 C 
ATOM      8  O   UNL     1     145.889 128.755 119.193  1.00  0.00    -0.550 OA
ATOM      9  O   UNL     1     147.005 127.596 120.824  1.00  0.00    -0.550 OA
ENDBRANCH   6   7
ENDBRANCH   5   6
ENDBRANCH   4   5
ENDBRANCH   3   4
ENDBRANCH   2   3
ENDBRANCH   1   2
BRANCH   1  10
ATOM     10  C   UNL     1     143.251 127.332 114.874  1.00  0.00     0.000 C 
BRANCH  10  11
ATOM     11  C   UNL     1     144.681 127.161 115.416  1.00  0.00    -0.000 C 
BRANCH  11  12
ATOM     12  C   UNL     1     145.696 128.059 114.690  1.00  0.00    -0.000 C 
BRANCH  12  13
ATOM     13  C   UNL     1     145.260 129.534 114.656  1.00  0.00    -0.000 C 
BRANCH  13  14
ATOM     14  C   UNL     1     145.694 130.313 115.911  1.00  0.00    -0.000 C 
BRANCH  14  15
ATOM     15  C   UNL     1     144.578 131.145 116.569  1.00  0.00    -0.003 C 
ATOM     16  C   UNL     1     143.285 131.164 115.753  1.00  0.00     0.004 C 
ENDBRANCH  14  15
ENDBRANCH  13  14
ENDBRANCH  12  13
ENDBRANCH  11  12
ENDBRANCH  10  11
ENDBRANCH   1  10
TORSDOF 12
ENDMDL
MODEL 6
REMARK VINA RESULT:    -3.309      2.957      4.539
REMARK INTER + INTRA:          -7.634
REMARK INTER:                  -5.756
REMARK INTRA:                  -1.878
REMARK UNBOUND:                -2.004
REMARK SMILES CCCCCCCCCCCCCC(=O)[O-]
REMARK SMILES IDX 8 1 9 2 10 3 11 4 12 5 13 6 14 7 15 8 16 9 7 10 6 11 5 12
REMARK SMILES IDX 4 13 3 14 2 15 1 16
REMARK H PARENT
REMARK Flexibility Score: inf
ROOT
ATOM      1  C   UNL     1     145.508 129.522 114.707  1.00  0.00     0.000 C 
ENDROOT
BRANCH   1   2
ATOM      2  C   UNL     1     146.083 129.682 116.126  1.00  0.00     0.000 C 
BRANCH   2   3
ATOM      3  C   UNL     1     145.291 130.691 116.974  1.00  0.00     0.000 C 
BRANCH   3   4
ATOM      4  C   UNL     1     145.139 132.056 116.277  1.00  0.00     0.000 C 
BRANCH   4   5
ATOM      5  C   UNL     1     143.669 132.484 116.136  1.00  0.00     0.006 C 
BRANCH   5   6
ATOM      6  C   UNL     1     142.691 131.316 116.316  1.00  0.00     0.053 C 
BRANCH   6   7
ATOM      7  C   UNL     1     141.758 131.233 115.149  1.00  0.00     0.041 C 
ATOM      8  O   UNL     1     140.659 131.847 115.173  1.00  0.00    -0.550 OA
ATOM      9  O   UNL     1     142.080 130.438 114.057  1.00  0.00    -0.550 OA
ENDBRANCH   6   7
ENDBRANCH   5   6
ENDBRANCH   4   5
ENDBRANCH   3   4
ENDBRANCH   2   3
ENDBRANCH   1   2
BRANCH   1  10
ATOM     10  C   UNL     1     145.540 128.066 114.218  1.00  0.00     0.000 C 
BRANCH  10  11
ATOM     11  C   UNL     1     144.848 127.097 115.194  1.00  0.00    -0.000 C 
BRANCH  11  12
ATOM     12  C   UNL     1     143.345 127.384 115.340  1.00  0.00    -0.000 C 
BRANCH  12  13
ATOM     13  C   UNL     1     142.933 127.642 116.800  1.00  0.00    -0.000 C 
BRANCH  13  14
ATOM     14  C   UNL     1     143.895 126.997 117.814  1.00  0.00    -0.000 C 
BRANCH  14  15
ATOM     15  C   UNL     1     144.001 127.736 119.160  1.00  0.00    -0.003 C 
ATOM     16  C   UNL     1     145.445 127.989 119.592  1.00  0.00     0.004 C 
ENDBRANCH  14  15
ENDBRANCH  13  14
ENDBRANCH  12  13
ENDBRANCH  11  12
ENDBRANCH  10  11
ENDBRANCH   1  10
TORSDOF 12
ENDMDL
MODEL 7
REMARK VINA RESULT:    -3.295      2.224      4.034
REMARK INTER + INTRA:          -7.611
REMARK INTER:                  -6.074
REMARK INTRA:                  -1.537
REMARK UNBOUND:                -2.004
REMARK SMILES CCCCCCCCCCCCCC(=O)[O-]
REMARK SMILES IDX 8 1 9 2 10 3 11 4 12 5 13 6 14 7 15 8 16 9 7 10 6 11 5 12
REMARK SMILES IDX 4 13 3 14 2 15 1 16
REMARK H PARENT
REMARK Flexibility Score: inf
ROOT
ATOM      1  C   UNL     1     141.690 128.641 116.296  1.00  0.00     0.000 C 
ENDROOT
BRANCH   1   2
ATOM      2  C   UNL     1     142.010 127.705 115.117  1.00  0.00     0.000 C 
BRANCH   2   3
ATOM      3  C   UNL     1     143.508 127.369 115.020  1.00  0.00     0.000 C 
BRANCH   3   4
ATOM      4  C   UNL     1     144.404 128.533 115.481  1.00  0.00     0.000 C 
BRANCH   4   5
ATOM      5  C   UNL     1     145.734 128.050 116.082  1.00  0.00     0.006 C 
BRANCH   5   6
ATOM      6  C   UNL     1     145.540 127.005 117.190  1.00  0.00     0.053 C 
BRANCH   6   7
ATOM      7  C   UNL     1     145.134 127.670 118.467  1.00  0.00     0.041 C 
ATOM      8  O   UNL     1     144.049 127.360 119.025  1.00  0.00    -0.550 OA
ATOM      9  O   UNL     1     145.932 128.666 119.016  1.00  0.00    -0.550 OA
ENDBRANCH   6   7
ENDBRANCH   5   6
ENDBRANCH   4   5
ENDBRANCH   3   4
ENDBRANCH   2   3
ENDBRANCH   1   2
BRANCH   1  10
ATOM     10  C   UNL     1     140.331 128.331 116.943  1.00  0.00     0.000 C 
BRANCH  10  11
ATOM     11  C   UNL     1     139.606 127.154 116.265  1.00  0.00    -0.000 C 
BRANCH  11  12
ATOM     12  C   UNL     1     138.240 127.560 115.689  1.00  0.00    -0.000 C 
BRANCH  12  13
ATOM     13  C   UNL     1     138.048 127.088 114.237  1.00  0.00    -0.000 C 
BRANCH  13  14
ATOM     14  C   UNL     1     138.744 128.004 113.214  1.00  0.00    -0.000 C 
BRANCH  14  15
ATOM     15  C   UNL     1     138.636 129.508 113.522  1.00  0.00    -0.003 C 
ATOM     16  C   UNL     1     139.944 130.264 113.282  1.00  0.00     0.004 C 
ENDBRANCH  14  15
ENDBRANCH  13  14
ENDBRANCH  12  13
ENDBRANCH  11  12
ENDBRANCH  10  11
ENDBRANCH   1  10
TORSDOF 12
ENDMDL
MODEL 8
REMARK VINA RESULT:    -3.274      3.842      6.104
REMARK INTER + INTRA:          -7.575
REMARK INTER:                  -5.969
REMARK INTRA:                  -1.606
REMARK UNBOUND:                -2.004
REMARK SMILES CCCCCCCCCCCCCC(=O)[O-]
REMARK SMILES IDX 8 1 9 2 10 3 11 4 12 5 13 6 14 7 15 8 16 9 7 10 6 11 5 12
REMARK SMILES IDX 4 13 3 14 2 15 1 16
REMARK H PARENT
REMARK Flexibility Score: inf
ROOT
ATOM      1  C   UNL     1     142.586 128.070 118.240  1.00  0.00     0.000 C 
ENDROOT
BRANCH   1   2
ATOM      2  C   UNL     1     142.034 127.296 117.030  1.00  0.00     0.000 C 
BRANCH   2   3
ATOM      3  C   UNL     1     141.117 128.158 116.146  1.00  0.00     0.000 C 
BRANCH   3   4
ATOM      4  C   UNL     1     140.737 127.456 114.830  1.00  0.00     0.000 C 
BRANCH   4   5
ATOM      5  C   UNL     1     139.216 127.372 114.625  1.00  0.00     0.006 C 
BRANCH   5   6
ATOM      6  C   UNL     1     138.751 128.073 113.341  1.00  0.00     0.053 C 
BRANCH   6   7
ATOM      7  C   UNL     1     138.760 129.558 113.526  1.00  0.00     0.041 C 
ATOM      8  O   UNL     1     139.708 130.247 113.064  1.00  0.00    -0.550 OA
ATOM      9  O   UNL     1     137.748 130.175 114.249  1.00  0.00    -0.550 OA
ENDBRANCH   6   7
ENDBRANCH   5   6
ENDBRANCH   4   5
ENDBRANCH   3   4
ENDBRANCH   2   3
ENDBRANCH   1   2
BRANCH   1  10
ATOM     10  C   UNL     1     144.111 127.937 118.380  1.00  0.00     0.000 C 
BRANCH  10  11
ATOM     11  C   UNL     1     144.703 126.876 117.435  1.00  0.00    -0.000 C 
BRANCH  11  12
ATOM     12  C   UNL     1     145.756 127.463 116.480  1.00  0.00    -0.000 C 
BRANCH  12  13
ATOM     13  C   UNL     1     145.286 127.466 115.015  1.00  0.00    -0.000 C 
BRANCH  13  14
ATOM     14  C   UNL     1     145.292 128.873 114.390  1.00  0.00    -0.000 C 
BRANCH  14  15
ATOM     15  C   UNL     1     143.955 129.628 114.494  1.00  0.00    -0.003 C 
ATOM     16  C   UNL     1     143.916 130.619 115.658  1.00  0.00     0.004 C 
ENDBRANCH  14  15
ENDBRANCH  13  14
ENDBRANCH  12  13
ENDBRANCH  11  12
ENDBRANCH  10  11
ENDBRANCH   1  10
TORSDOF 12
ENDMDL
MODEL 9
REMARK VINA RESULT:    -3.264      3.075      4.584
REMARK INTER + INTRA:          -7.558
REMARK INTER:                  -5.891
REMARK INTRA:                  -1.667
REMARK UNBOUND:                -2.004
REMARK SMILES CCCCCCCCCCCCCC(=O)[O-]
REMARK SMILES IDX 8 1 9 2 10 3 11 4 12 5 13 6 14 7 15 8 16 9 7 10 6 11 5 12
REMARK SMILES IDX 4 13 3 14 2 15 1 16
REMARK H PARENT
REMARK Flexibility Score: inf
ROOT
ATOM      1  C   UNL     1     145.302 128.335 114.597  1.00  0.00     0.000 C 
ENDROOT
BRANCH   1   2
ATOM      2  C   UNL     1     145.969 128.849 115.885  1.00  0.00     0.000 C 
BRANCH   2   3
ATOM      3  C   UNL     1     145.949 130.383 115.988  1.00  0.00     0.000 C 
BRANCH   3   4
ATOM      4  C   UNL     1     144.545 130.972 115.764  1.00  0.00     0.000 C 
BRANCH   4   5
ATOM      5  C   UNL     1     144.438 132.434 116.227  1.00  0.00     0.006 C 
BRANCH   5   6
ATOM      6  C   UNL     1     145.645 132.880 117.064  1.00  0.00     0.053 C 
BRANCH   6   7
ATOM      7  C   UNL     1     146.369 133.996 116.379  1.00  0.00     0.041 C 
ATOM      8  O   UNL     1     146.331 134.099 115.125  1.00  0.00    -0.550 OA
ATOM      9  O   UNL     1     147.125 134.894 117.122  1.00  0.00    -0.550 OA
ENDBRANCH   6   7
ENDBRANCH   5   6
ENDBRANCH   4   5
ENDBRANCH   3   4
ENDBRANCH   2   3
ENDBRANCH   1   2
BRANCH   1  10
ATOM     10  C   UNL     1     144.223 127.277 114.873  1.00  0.00     0.000 C 
BRANCH  10  11
ATOM     11  C   UNL     1     142.835 127.895 115.122  1.00  0.00    -0.000 C 
BRANCH  11  12
ATOM     12  C   UNL     1     142.139 127.298 116.355  1.00  0.00    -0.000 C 
BRANCH  12  13
ATOM     13  C   UNL     1     141.856 128.350 117.441  1.00  0.00    -0.000 C 
BRANCH  13  14
ATOM     14  C   UNL     1     143.109 128.719 118.255  1.00  0.00    -0.000 C 
BRANCH  14  15
ATOM     15  C   UNL     1     143.937 127.516 118.740  1.00  0.00    -0.003 C 
ATOM     16  C   UNL     1     145.229 127.925 119.448  1.00  0.00     0.004 C 
ENDBRANCH  14  15
ENDBRANCH  13  14
ENDBRANCH  12  13
ENDBRANCH  11  12
ENDBRANCH  10  11
ENDBRANCH   1  10
TORSDOF 12
ENDMDL
