MODEL 1
REMARK VINA RESULT:    -7.153      0.000      0.000
REMARK INTER + INTRA:          -8.939
REMARK INTER:                  -8.617
REMARK INTRA:                  -0.322
REMARK UNBOUND:                -0.322
REMARK SMILES O=c1c(O)c(-c2ccc(O)c(O)c2)oc2cc(O)cc(O)c12
REMARK SMILES IDX 5 1 3 2 2 3 1 4 22 5 20 6 19 7 17 8 16 9 15 10 14 11 6 12
REMARK SMILES IDX 7 13 8 14 9 15 13 16 11 17 10 18 12 20 4 22 21 24 18 26
REMARK H PARENT 10 19 12 21 4 23 21 25 18 27
REMARK Flexibility Score: inf
ROOT
ATOM      1  C   UNL     1      29.528  31.900  18.288  1.00  0.00     0.180 A 
ATOM      2  C   UNL     1      29.887  33.011  17.506  1.00  0.00     0.208 A 
ATOM      3  C   UNL     1      30.872  33.891  17.985  1.00  0.00     0.238 A 
ATOM      4  O   UNL     1      31.150  34.913  17.305  1.00  0.00    -0.285 OA
ATOM      5  C   UNL     1      31.496  33.639  19.229  1.00  0.00     0.111 A 
ATOM      6  C   UNL     1      32.534  34.441  19.792  1.00  0.00     0.134 A 
ATOM      7  C   UNL     1      32.988  34.173  21.090  1.00  0.00     0.093 A 
ATOM      8  C   UNL     1      32.488  33.095  21.819  1.00  0.00     0.123 A 
ATOM      9  C   UNL     1      31.515  32.268  21.256  1.00  0.00     0.094 A 
ATOM     10  C   UNL     1      31.017  32.532  19.978  1.00  0.00     0.146 A 
ATOM     11  O   UNL     1      30.085  31.727  19.482  1.00  0.00    -0.452 OA
ENDROOT
BRANCH   1  12
ATOM     12  C   UNL     1      28.516  30.915  17.841  1.00  0.00     0.025 A 
ATOM     13  C   UNL     1      28.922  29.802  17.086  1.00  0.00     0.016 A 
ATOM     14  C   UNL     1      27.983  28.871  16.636  1.00  0.00     0.051 A 
ATOM     15  C   UNL     1      26.622  29.048  16.921  1.00  0.00     0.157 A 
ATOM     16  C   UNL     1      27.148  31.099  18.107  1.00  0.00     0.062 A 
ATOM     17  C   UNL     1      26.203  30.166  17.654  1.00  0.00     0.158 A 
BRANCH  15  18
ATOM     18  O   UNL     1      25.681  28.121  16.476  1.00  0.00    -0.504 OA
ATOM     19  H   UNL     1      24.814  28.414  16.041  1.00  0.00     0.293 HD
ENDBRANCH  15  18
BRANCH  17  20
ATOM     20  O   UNL     1      24.848  30.346  17.924  1.00  0.00    -0.504 OA
ATOM     21  H   UNL     1      24.140  29.756  17.502  1.00  0.00     0.293 HD
ENDBRANCH  17  20
ENDBRANCH   1  12
BRANCH   2  22
ATOM     22  O   UNL     1      29.243  33.253  16.290  1.00  0.00    -0.502 OA
ATOM     23  H   UNL     1      28.855  32.509  15.723  1.00  0.00     0.293 HD
ENDBRANCH   2  22
BRANCH   6  24
ATOM     24  O   UNL     1      33.168  35.486  19.114  1.00  0.00    -0.507 OA
ATOM     25  H   UNL     1      32.741  36.042  18.387  1.00  0.00     0.293 HD
ENDBRANCH   6  24
BRANCH   8  26
ATOM     26  O   UNL     1      32.974  32.848  23.101  1.00  0.00    -0.508 OA
ATOM     27  H   UNL     1      33.662  33.453  23.534  1.00  0.00     0.293 HD
ENDBRANCH   8  26
TORSDOF 6
ENDMDL
MODEL 2
REMARK VINA RESULT:    -6.702      2.558      4.496
REMARK INTER + INTRA:          -8.396
REMARK INTER:                  -8.153
REMARK INTRA:                  -0.243
REMARK UNBOUND:                -0.322
REMARK SMILES O=c1c(O)c(-c2ccc(O)c(O)c2)oc2cc(O)cc(O)c12
REMARK SMILES IDX 5 1 3 2 2 3 1 4 22 5 20 6 19 7 17 8 16 9 15 10 14 11 6 12
REMARK SMILES IDX 7 13 8 14 9 15 13 16 11 17 10 18 12 20 4 22 21 24 18 26
REMARK H PARENT 10 19 12 21 4 23 21 25 18 27
REMARK Flexibility Score: inf
ROOT
ATOM      1  C   UNL     1      32.717  33.698  20.652  1.00  0.00     0.180 A 
ATOM      2  C   UNL     1      32.980  35.063  20.443  1.00  0.00     0.208 A 
ATOM      3  C   UNL     1      33.764  35.757  21.379  1.00  0.00     0.238 A 
ATOM      4  O   UNL     1      33.950  36.991  21.215  1.00  0.00    -0.285 OA
ATOM      5  C   UNL     1      34.288  35.075  22.503  1.00  0.00     0.111 A 
ATOM      6  C   UNL     1      35.127  35.669  23.493  1.00  0.00     0.134 A 
ATOM      7  C   UNL     1      35.480  34.933  24.631  1.00  0.00     0.093 A 
ATOM      8  C   UNL     1      35.080  33.606  24.784  1.00  0.00     0.123 A 
ATOM      9  C   UNL     1      34.309  32.996  23.794  1.00  0.00     0.094 A 
ATOM     10  C   UNL     1      33.910  33.716  22.665  1.00  0.00     0.146 A 
ATOM     11  O   UNL     1      33.168  33.102  21.751  1.00  0.00    -0.452 OA
ENDROOT
BRANCH   1  12
ATOM     12  C   UNL     1      31.920  32.894  19.698  1.00  0.00     0.025 A 
ATOM     13  C   UNL     1      32.475  32.546  18.456  1.00  0.00     0.016 A 
ATOM     14  C   UNL     1      31.734  31.804  17.532  1.00  0.00     0.051 A 
ATOM     15  C   UNL     1      30.422  31.414  17.832  1.00  0.00     0.157 A 
ATOM     16  C   UNL     1      30.596  32.517  19.986  1.00  0.00     0.062 A 
ATOM     17  C   UNL     1      29.850  31.774  19.058  1.00  0.00     0.158 A 
BRANCH  15  18
ATOM     18  O   UNL     1      29.680  30.673  16.914  1.00  0.00    -0.504 OA
ATOM     19  H   UNL     1      29.574  30.973  15.952  1.00  0.00     0.293 HD
ENDBRANCH  15  18
BRANCH  17  20
ATOM     20  O   UNL     1      28.541  31.396  19.347  1.00  0.00    -0.504 OA
ATOM     21  H   UNL     1      27.748  31.880  18.942  1.00  0.00     0.293 HD
ENDBRANCH  17  20
ENDBRANCH   1  12
BRANCH   2  22
ATOM     22  O   UNL     1      32.435  35.723  19.339  1.00  0.00    -0.502 OA
ATOM     23  H   UNL     1      31.495  36.100  19.340  1.00  0.00     0.293 HD
ENDBRANCH   2  22
BRANCH   6  24
ATOM     24  O   UNL     1      35.659  36.958  23.394  1.00  0.00    -0.507 OA
ATOM     25  H   UNL     1      36.644  37.176  23.416  1.00  0.00     0.293 HD
ENDBRANCH   6  24
BRANCH   8  26
ATOM     26  O   UNL     1      35.463  32.899  25.921  1.00  0.00    -0.508 OA
ATOM     27  H   UNL     1      35.513  33.343  26.831  1.00  0.00     0.293 HD
ENDBRANCH   8  26
TORSDOF 6
ENDMDL
MODEL 3
REMARK VINA RESULT:    -6.422     15.978     17.738
REMARK INTER + INTRA:          -8.059
REMARK INTER:                  -7.763
REMARK INTRA:                  -0.296
REMARK UNBOUND:                -0.322
REMARK SMILES O=c1c(O)c(-c2ccc(O)c(O)c2)oc2cc(O)cc(O)c12
REMARK SMILES IDX 5 1 3 2 2 3 1 4 22 5 20 6 19 7 17 8 16 9 15 10 14 11 6 12
REMARK SMILES IDX 7 13 8 14 9 15 13 16 11 17 10 18 12 20 4 22 21 24 18 26
REMARK H PARENT 10 19 12 21 4 23 21 25 18 27
REMARK Flexibility Score: inf
ROOT
ATOM      1  C   UNL     1      19.908  32.273  32.033  1.00  0.00     0.180 A 
ATOM      2  C   UNL     1      18.519  32.058  32.000  1.00  0.00     0.208 A 
ATOM      3  C   UNL     1      17.963  31.067  32.825  1.00  0.00     0.238 A 
ATOM      4  O   UNL     1      16.727  30.843  32.751  1.00  0.00    -0.285 OA
ATOM      5  C   UNL     1      18.800  30.315  33.683  1.00  0.00     0.111 A 
ATOM      6  C   UNL     1      18.339  29.314  34.591  1.00  0.00     0.134 A 
ATOM      7  C   UNL     1      19.269  28.542  35.298  1.00  0.00     0.093 A 
ATOM      8  C   UNL     1      20.639  28.776  35.180  1.00  0.00     0.123 A 
ATOM      9  C   UNL     1      21.098  29.792  34.341  1.00  0.00     0.094 A 
ATOM     10  C   UNL     1      20.196  30.556  33.595  1.00  0.00     0.146 A 
ATOM     11  O   UNL     1      20.674  31.506  32.801  1.00  0.00    -0.452 OA
ENDROOT
BRANCH   1  12
ATOM     12  C   UNL     1      20.564  33.316  31.211  1.00  0.00     0.025 A 
ATOM     13  C   UNL     1      20.522  34.655  31.632  1.00  0.00     0.016 A 
ATOM     14  C   UNL     1      21.117  35.657  30.862  1.00  0.00     0.051 A 
ATOM     15  C   UNL     1      21.749  35.337  29.653  1.00  0.00     0.157 A 
ATOM     16  C   UNL     1      21.182  33.001  29.987  1.00  0.00     0.062 A 
ATOM     17  C   UNL     1      21.778  34.008  29.212  1.00  0.00     0.158 A 
BRANCH  15  18
ATOM     18  O   UNL     1      22.346  36.333  28.882  1.00  0.00    -0.504 OA
ATOM     19  H   UNL     1      23.175  36.151  28.330  1.00  0.00     0.293 HD
ENDBRANCH  15  18
BRANCH  17  20
ATOM     20  O   UNL     1      22.395  33.694  28.003  1.00  0.00    -0.504 OA
ATOM     21  H   UNL     1      21.873  33.303  27.227  1.00  0.00     0.293 HD
ENDBRANCH  17  20
ENDBRANCH   1  12
BRANCH   2  22
ATOM     22  O   UNL     1      17.715  32.797  31.129  1.00  0.00    -0.502 OA
ATOM     23  H   UNL     1      16.703  32.768  31.166  1.00  0.00     0.293 HD
ENDBRANCH   2  22
BRANCH   6  24
ATOM     24  O   UNL     1      16.990  29.060  34.853  1.00  0.00    -0.507 OA
ATOM     25  H   UNL     1      16.395  29.643  35.422  1.00  0.00     0.293 HD
ENDBRANCH   6  24
BRANCH   8  26
ATOM     26  O   UNL     1      21.535  28.000  35.911  1.00  0.00    -0.508 OA
ATOM     27  H   UNL     1      22.094  28.397  36.657  1.00  0.00     0.293 HD
ENDBRANCH   8  26
TORSDOF 6
ENDMDL
MODEL 4
REMARK VINA RESULT:    -6.239      2.024      4.021
REMARK INTER + INTRA:          -7.838
REMARK INTER:                  -8.110
REMARK INTRA:                   0.271
REMARK UNBOUND:                -0.322
REMARK SMILES O=c1c(O)c(-c2ccc(O)c(O)c2)oc2cc(O)cc(O)c12
REMARK SMILES IDX 5 1 3 2 2 3 1 4 22 5 20 6 19 7 17 8 16 9 15 10 14 11 6 12
REMARK SMILES IDX 7 13 8 14 9 15 13 16 11 17 10 18 12 20 4 22 21 24 18 26
REMARK H PARENT 10 19 12 21 4 23 21 25 18 27
REMARK Flexibility Score: inf
ROOT
ATOM      1  C   UNL     1      31.925  32.866  19.607  1.00  0.00     0.180 A 
ATOM      2  C   UNL     1      32.076  32.544  20.967  1.00  0.00     0.208 A 
ATOM      3  C   UNL     1      33.007  33.260  21.737  1.00  0.00     0.238 A 
ATOM      4  O   UNL     1      33.177  32.931  22.940  1.00  0.00    -0.285 OA
ATOM      5  C   UNL     1      33.762  34.299  21.142  1.00  0.00     0.111 A 
ATOM      6  C   UNL     1      34.704  35.116  21.837  1.00  0.00     0.134 A 
ATOM      7  C   UNL     1      35.489  36.027  21.120  1.00  0.00     0.093 A 
ATOM      8  C   UNL     1      35.322  36.197  19.746  1.00  0.00     0.123 A 
ATOM      9  C   UNL     1      34.363  35.446  19.066  1.00  0.00     0.094 A 
ATOM     10  C   UNL     1      33.589  34.503  19.748  1.00  0.00     0.146 A 
ATOM     11  O   UNL     1      32.695  33.801  19.062  1.00  0.00    -0.452 OA
ENDROOT
BRANCH   1  12
ATOM     12  C   UNL     1      30.947  32.173  18.737  1.00  0.00     0.025 A 
ATOM     13  C   UNL     1      31.170  32.122  17.351  1.00  0.00     0.016 A 
ATOM     14  C   UNL     1      30.250  31.491  16.510  1.00  0.00     0.051 A 
ATOM     15  C   UNL     1      29.088  30.916  17.039  1.00  0.00     0.157 A 
ATOM     16  C   UNL     1      29.768  31.613  19.262  1.00  0.00     0.062 A 
ATOM     17  C   UNL     1      28.844  30.981  18.417  1.00  0.00     0.158 A 
BRANCH  15  18
ATOM     18  O   UNL     1      28.168  30.285  16.204  1.00  0.00    -0.504 OA
ATOM     19  H   UNL     1      27.766  30.759  15.404  1.00  0.00     0.293 HD
ENDBRANCH  15  18
BRANCH  17  20
ATOM     20  O   UNL     1      27.679  30.420  18.939  1.00  0.00    -0.504 OA
ATOM     21  H   UNL     1      26.835  30.968  19.058  1.00  0.00     0.293 HD
ENDBRANCH  17  20
ENDBRANCH   1  12
BRANCH   2  22
ATOM     22  O   UNL     1      31.336  31.500  21.529  1.00  0.00    -0.502 OA
ATOM     23  H   UNL     1      30.334  31.553  21.658  1.00  0.00     0.293 HD
ENDBRANCH   2  22
BRANCH   6  24
ATOM     24  O   UNL     1      34.885  35.092  23.223  1.00  0.00    -0.507 OA
ATOM     25  H   UNL     1      35.565  34.523  23.704  1.00  0.00     0.293 HD
ENDBRANCH   6  24
BRANCH   8  26
ATOM     26  O   UNL     1      36.109  37.125  19.067  1.00  0.00    -0.508 OA
ATOM     27  H   UNL     1      35.862  38.107  19.033  1.00  0.00     0.293 HD
ENDBRANCH   8  26
TORSDOF 6
ENDMDL
MODEL 5
REMARK VINA RESULT:    -6.217     16.302     17.595
REMARK INTER + INTRA:          -7.811
REMARK INTER:                  -7.558
REMARK INTRA:                  -0.253
REMARK UNBOUND:                -0.322
REMARK SMILES O=c1c(O)c(-c2ccc(O)c(O)c2)oc2cc(O)cc(O)c12
REMARK SMILES IDX 5 1 3 2 2 3 1 4 22 5 20 6 19 7 17 8 16 9 15 10 14 11 6 12
REMARK SMILES IDX 7 13 8 14 9 15 13 16 11 17 10 18 12 20 4 22 21 24 18 26
REMARK H PARENT 10 19 12 21 4 23 21 25 18 27
REMARK Flexibility Score: inf
ROOT
ATOM      1  C   UNL     1      20.028  31.892  33.115  1.00  0.00     0.180 A 
ATOM      2  C   UNL     1      19.657  33.102  33.728  1.00  0.00     0.208 A 
ATOM      3  C   UNL     1      19.856  34.306  33.033  1.00  0.00     0.238 A 
ATOM      4  O   UNL     1      19.572  35.389  33.607  1.00  0.00    -0.285 OA
ATOM      5  C   UNL     1      20.407  34.284  31.730  1.00  0.00     0.111 A 
ATOM      6  C   UNL     1      20.615  35.440  30.918  1.00  0.00     0.134 A 
ATOM      7  C   UNL     1      21.288  35.315  29.696  1.00  0.00     0.093 A 
ATOM      8  C   UNL     1      21.702  34.069  29.227  1.00  0.00     0.123 A 
ATOM      9  C   UNL     1      21.451  32.924  29.984  1.00  0.00     0.094 A 
ATOM     10  C   UNL     1      20.814  33.022  31.224  1.00  0.00     0.146 A 
ATOM     11  O   UNL     1      20.603  31.910  31.918  1.00  0.00    -0.452 OA
ENDROOT
BRANCH   1  12
ATOM     12  C   UNL     1      19.827  30.581  33.774  1.00  0.00     0.025 A 
ATOM     13  C   UNL     1      18.530  30.053  33.881  1.00  0.00     0.016 A 
ATOM     14  C   UNL     1      18.315  28.828  34.516  1.00  0.00     0.051 A 
ATOM     15  C   UNL     1      19.391  28.120  35.067  1.00  0.00     0.157 A 
ATOM     16  C   UNL     1      20.902  29.877  34.346  1.00  0.00     0.062 A 
ATOM     17  C   UNL     1      20.686  28.647  34.986  1.00  0.00     0.158 A 
BRANCH  15  18
ATOM     18  O   UNL     1      19.182  26.896  35.700  1.00  0.00    -0.504 OA
ATOM     19  H   UNL     1      19.956  26.321  36.011  1.00  0.00     0.293 HD
ENDBRANCH  15  18
BRANCH  17  20
ATOM     20  O   UNL     1      21.753  27.947  35.546  1.00  0.00    -0.504 OA
ATOM     21  H   UNL     1      21.699  26.951  35.723  1.00  0.00     0.293 HD
ENDBRANCH  17  20
ENDBRANCH   1  12
BRANCH   2  22
ATOM     22  O   UNL     1      19.135  33.102  35.023  1.00  0.00    -0.502 OA
ATOM     23  H   UNL     1      18.927  32.248  35.526  1.00  0.00     0.293 HD
ENDBRANCH   2  22
BRANCH   6  24
ATOM     24  O   UNL     1      20.160  36.719  31.251  1.00  0.00    -0.507 OA
ATOM     25  H   UNL     1      19.363  37.173  30.830  1.00  0.00     0.293 HD
ENDBRANCH   6  24
BRANCH   8  26
ATOM     26  O   UNL     1      22.354  33.978  27.999  1.00  0.00    -0.508 OA
ATOM     27  H   UNL     1      22.793  33.118  27.694  1.00  0.00     0.293 HD
ENDBRANCH   8  26
TORSDOF 6
ENDMDL
MODEL 6
REMARK VINA RESULT:    -6.149      2.540      7.749
REMARK INTER + INTRA:          -7.730
REMARK INTER:                  -7.792
REMARK INTRA:                   0.062
REMARK UNBOUND:                -0.322
REMARK SMILES O=c1c(O)c(-c2ccc(O)c(O)c2)oc2cc(O)cc(O)c12
REMARK SMILES IDX 5 1 3 2 2 3 1 4 22 5 20 6 19 7 17 8 16 9 15 10 14 11 6 12
REMARK SMILES IDX 7 13 8 14 9 15 13 16 11 17 10 18 12 20 4 22 21 24 18 26
REMARK H PARENT 10 19 12 21 4 23 21 25 18 27
REMARK Flexibility Score: inf
ROOT
ATOM      1  C   UNL     1      33.363  33.789  20.961  1.00  0.00     0.180 A 
ATOM      2  C   UNL     1      34.006  33.992  19.728  1.00  0.00     0.208 A 
ATOM      3  C   UNL     1      33.338  33.640  18.545  1.00  0.00     0.238 A 
ATOM      4  O   UNL     1      33.940  33.774  17.448  1.00  0.00    -0.285 OA
ATOM      5  C   UNL     1      32.030  33.104  18.608  1.00  0.00     0.111 A 
ATOM      6  C   UNL     1      31.244  32.749  17.470  1.00  0.00     0.134 A 
ATOM      7  C   UNL     1      30.013  32.106  17.654  1.00  0.00     0.093 A 
ATOM      8  C   UNL     1      29.511  31.864  18.932  1.00  0.00     0.123 A 
ATOM      9  C   UNL     1      30.244  32.260  20.052  1.00  0.00     0.094 A 
ATOM     10  C   UNL     1      31.491  32.871  19.900  1.00  0.00     0.146 A 
ATOM     11  O   UNL     1      32.161  33.223  20.991  1.00  0.00    -0.452 OA
ENDROOT
BRANCH   1  12
ATOM     12  C   UNL     1      33.993  34.158  22.250  1.00  0.00     0.025 A 
ATOM     13  C   UNL     1      34.610  35.412  22.382  1.00  0.00     0.016 A 
ATOM     14  C   UNL     1      35.228  35.773  23.582  1.00  0.00     0.051 A 
ATOM     15  C   UNL     1      35.251  34.880  24.661  1.00  0.00     0.157 A 
ATOM     16  C   UNL     1      34.036  33.256  23.328  1.00  0.00     0.062 A 
ATOM     17  C   UNL     1      34.658  33.617  24.533  1.00  0.00     0.158 A 
BRANCH  15  18
ATOM     18  O   UNL     1      35.864  35.236  25.861  1.00  0.00    -0.504 OA
ATOM     19  H   UNL     1      35.407  35.844  26.530  1.00  0.00     0.293 HD
ENDBRANCH  15  18
BRANCH  17  20
ATOM     20  O   UNL     1      34.694  32.725  25.603  1.00  0.00    -0.504 OA
ATOM     21  H   UNL     1      35.543  32.232  25.853  1.00  0.00     0.293 HD
ENDBRANCH  17  20
ENDBRANCH   1  12
BRANCH   2  22
ATOM     22  O   UNL     1      35.307  34.502  19.690  1.00  0.00    -0.502 OA
ATOM     23  H   UNL     1      36.004  34.266  20.385  1.00  0.00     0.293 HD
ENDBRANCH   2  22
BRANCH   6  24
ATOM     24  O   UNL     1      31.610  33.029  16.151  1.00  0.00    -0.507 OA
ATOM     25  H   UNL     1      31.072  33.596  15.512  1.00  0.00     0.293 HD
ENDBRANCH   6  24
BRANCH   8  26
ATOM     26  O   UNL     1      28.275  31.237  19.078  1.00  0.00    -0.508 OA
ATOM     27  H   UNL     1      27.407  31.755  19.014  1.00  0.00     0.293 HD
ENDBRANCH   8  26
TORSDOF 6
ENDMDL
MODEL 7
REMARK VINA RESULT:    -6.143      2.958      7.741
REMARK INTER + INTRA:          -7.722
REMARK INTER:                  -8.197
REMARK INTRA:                   0.475
REMARK UNBOUND:                -0.322
REMARK SMILES O=c1c(O)c(-c2ccc(O)c(O)c2)oc2cc(O)cc(O)c12
REMARK SMILES IDX 5 1 3 2 2 3 1 4 22 5 20 6 19 7 17 8 16 9 15 10 14 11 6 12
REMARK SMILES IDX 7 13 8 14 9 15 13 16 11 17 10 18 12 20 4 22 21 24 18 26
REMARK H PARENT 10 19 12 21 4 23 21 25 18 27
REMARK Flexibility Score: inf
ROOT
ATOM      1  C   UNL     1      32.548  33.784  20.900  1.00  0.00     0.180 A 
ATOM      2  C   UNL     1      31.781  32.608  20.825  1.00  0.00     0.208 A 
ATOM      3  C   UNL     1      30.959  32.401  19.706  1.00  0.00     0.238 A 
ATOM      4  O   UNL     1      30.234  31.373  19.670  1.00  0.00    -0.285 OA
ATOM      5  C   UNL     1      30.925  33.364  18.669  1.00  0.00     0.111 A 
ATOM      6  C   UNL     1      30.159  33.239  17.472  1.00  0.00     0.134 A 
ATOM      7  C   UNL     1      30.100  34.312  16.574  1.00  0.00     0.093 A 
ATOM      8  C   UNL     1      30.830  35.479  16.797  1.00  0.00     0.123 A 
ATOM      9  C   UNL     1      31.629  35.590  17.936  1.00  0.00     0.094 A 
ATOM     10  C   UNL     1      31.680  34.550  18.868  1.00  0.00     0.146 A 
ATOM     11  O   UNL     1      32.445  34.699  19.943  1.00  0.00    -0.452 OA
ENDROOT
BRANCH   1  12
ATOM     12  C   UNL     1      33.457  34.061  22.036  1.00  0.00     0.025 A 
ATOM     13  C   UNL     1      34.302  35.182  21.987  1.00  0.00     0.016 A 
ATOM     14  C   UNL     1      35.182  35.451  23.038  1.00  0.00     0.051 A 
ATOM     15  C   UNL     1      35.241  34.595  24.145  1.00  0.00     0.157 A 
ATOM     16  C   UNL     1      33.535  33.193  23.140  1.00  0.00     0.062 A 
ATOM     17  C   UNL     1      34.420  33.461  24.195  1.00  0.00     0.158 A 
BRANCH  15  18
ATOM     18  O   UNL     1      36.117  34.860  25.197  1.00  0.00    -0.504 OA
ATOM     19  H   UNL     1      36.414  35.804  25.414  1.00  0.00     0.293 HD
ENDBRANCH  15  18
BRANCH  17  20
ATOM     20  O   UNL     1      34.492  32.604  25.291  1.00  0.00    -0.504 OA
ATOM     21  H   UNL     1      33.697  32.046  25.580  1.00  0.00     0.293 HD
ENDBRANCH  17  20
ENDBRANCH   1  12
BRANCH   2  22
ATOM     22  O   UNL     1      31.813  31.681  21.870  1.00  0.00    -0.502 OA
ATOM     23  H   UNL     1      32.626  31.552  22.458  1.00  0.00     0.293 HD
ENDBRANCH   2  22
BRANCH   6  24
ATOM     24  O   UNL     1      29.466  32.082  17.106  1.00  0.00    -0.507 OA
ATOM     25  H   UNL     1      29.393  31.251  17.675  1.00  0.00     0.293 HD
ENDBRANCH   6  24
BRANCH   8  26
ATOM     26  O   UNL     1      30.761  36.521  15.875  1.00  0.00    -0.508 OA
ATOM     27  H   UNL     1      30.369  37.423  16.121  1.00  0.00     0.293 HD
ENDBRANCH   8  26
TORSDOF 6
ENDMDL
MODEL 8
REMARK VINA RESULT:    -6.119      1.671      2.503
REMARK INTER + INTRA:          -7.693
REMARK INTER:                  -8.054
REMARK INTRA:                   0.361
REMARK UNBOUND:                -0.322
REMARK SMILES O=c1c(O)c(-c2ccc(O)c(O)c2)oc2cc(O)cc(O)c12
REMARK SMILES IDX 5 1 3 2 2 3 1 4 22 5 20 6 19 7 17 8 16 9 15 10 14 11 6 12
REMARK SMILES IDX 7 13 8 14 9 15 13 16 11 17 10 18 12 20 4 22 21 24 18 26
REMARK H PARENT 10 19 12 21 4 23 21 25 18 27
REMARK Flexibility Score: inf
ROOT
ATOM      1  C   UNL     1      31.222  32.880  18.974  1.00  0.00     0.180 A 
ATOM      2  C   UNL     1      32.171  33.612  18.239  1.00  0.00     0.208 A 
ATOM      3  C   UNL     1      33.336  34.058  18.884  1.00  0.00     0.238 A 
ATOM      4  O   UNL     1      34.156  34.758  18.235  1.00  0.00    -0.285 OA
ATOM      5  C   UNL     1      33.544  33.754  20.251  1.00  0.00     0.111 A 
ATOM      6  C   UNL     1      34.707  34.121  20.994  1.00  0.00     0.134 A 
ATOM      7  C   UNL     1      34.749  33.881  22.373  1.00  0.00     0.093 A 
ATOM      8  C   UNL     1      33.701  33.231  23.024  1.00  0.00     0.123 A 
ATOM      9  C   UNL     1      32.585  32.815  22.296  1.00  0.00     0.094 A 
ATOM     10  C   UNL     1      32.499  33.072  20.925  1.00  0.00     0.146 A 
ATOM     11  O   UNL     1      31.416  32.668  20.272  1.00  0.00    -0.452 OA
ENDROOT
BRANCH   1  12
ATOM     12  C   UNL     1      29.982  32.355  18.359  1.00  0.00     0.025 A 
ATOM     13  C   UNL     1      29.418  33.025  17.261  1.00  0.00     0.016 A 
ATOM     14  C   UNL     1      28.237  32.559  16.677  1.00  0.00     0.051 A 
ATOM     15  C   UNL     1      27.595  31.425  17.193  1.00  0.00     0.157 A 
ATOM     16  C   UNL     1      29.323  31.230  18.886  1.00  0.00     0.062 A 
ATOM     17  C   UNL     1      28.136  30.762  18.302  1.00  0.00     0.158 A 
BRANCH  15  18
ATOM     18  O   UNL     1      26.418  30.955  16.614  1.00  0.00    -0.504 OA
ATOM     19  H   UNL     1      25.597  30.753  17.172  1.00  0.00     0.293 HD
ENDBRANCH  15  18
BRANCH  17  20
ATOM     20  O   UNL     1      27.488  29.643  18.822  1.00  0.00    -0.504 OA
ATOM     21  H   UNL     1      27.020  29.671  19.721  1.00  0.00     0.293 HD
ENDBRANCH  17  20
ENDBRANCH   1  12
BRANCH   2  22
ATOM     22  O   UNL     1      31.935  33.919  16.897  1.00  0.00    -0.502 OA
ATOM     23  H   UNL     1      31.004  34.080  16.531  1.00  0.00     0.293 HD
ENDBRANCH   2  22
BRANCH   6  24
ATOM     24  O   UNL     1      35.848  34.693  20.425  1.00  0.00    -0.507 OA
ATOM     25  H   UNL     1      35.863  35.202  19.554  1.00  0.00     0.293 HD
ENDBRANCH   6  24
BRANCH   8  26
ATOM     26  O   UNL     1      33.783  32.994  24.394  1.00  0.00    -0.508 OA
ATOM     27  H   UNL     1      33.533  33.706  25.071  1.00  0.00     0.293 HD
ENDBRANCH   8  26
TORSDOF 6
ENDMDL
MODEL 9
REMARK VINA RESULT:    -5.909      2.053      3.444
REMARK INTER + INTRA:          -7.440
REMARK INTER:                  -7.406
REMARK INTRA:                  -0.034
REMARK UNBOUND:                -0.322
REMARK SMILES O=c1c(O)c(-c2ccc(O)c(O)c2)oc2cc(O)cc(O)c12
REMARK SMILES IDX 5 1 3 2 2 3 1 4 22 5 20 6 19 7 17 8 16 9 15 10 14 11 6 12
REMARK SMILES IDX 7 13 8 14 9 15 13 16 11 17 10 18 12 20 4 22 21 24 18 26
REMARK H PARENT 10 19 12 21 4 23 21 25 18 27
REMARK Flexibility Score: inf
ROOT
ATOM      1  C   UNL     1      30.626  32.791  18.437  1.00  0.00     0.180 A 
ATOM      2  C   UNL     1      30.881  33.023  19.800  1.00  0.00     0.208 A 
ATOM      3  C   UNL     1      32.114  33.580  20.177  1.00  0.00     0.238 A 
ATOM      4  O   UNL     1      32.358  33.735  21.402  1.00  0.00    -0.285 OA
ATOM      5  C   UNL     1      33.069  33.911  19.187  1.00  0.00     0.111 A 
ATOM      6  C   UNL     1      34.335  34.517  19.452  1.00  0.00     0.134 A 
ATOM      7  C   UNL     1      35.254  34.681  18.408  1.00  0.00     0.093 A 
ATOM      8  C   UNL     1      34.931  34.323  17.100  1.00  0.00     0.123 A 
ATOM      9  C   UNL     1      33.674  33.785  16.819  1.00  0.00     0.094 A 
ATOM     10  C   UNL     1      32.749  33.575  17.845  1.00  0.00     0.146 A 
ATOM     11  O   UNL     1      31.568  33.052  17.537  1.00  0.00    -0.452 OA
ENDROOT
BRANCH   1  12
ATOM     12  C   UNL     1      29.341  32.230  17.960  1.00  0.00     0.025 A 
ATOM     13  C   UNL     1      28.582  32.946  17.020  1.00  0.00     0.016 A 
ATOM     14  C   UNL     1      27.357  32.446  16.571  1.00  0.00     0.051 A 
ATOM     15  C   UNL     1      26.867  31.231  17.068  1.00  0.00     0.157 A 
ATOM     16  C   UNL     1      28.835  31.022  18.471  1.00  0.00     0.062 A 
ATOM     17  C   UNL     1      27.604  30.519  18.022  1.00  0.00     0.158 A 
BRANCH  15  18
ATOM     18  O   UNL     1      25.646  30.727  16.622  1.00  0.00    -0.504 OA
ATOM     19  H   UNL     1      25.339  30.852  15.664  1.00  0.00     0.293 HD
ENDBRANCH  15  18
BRANCH  17  20
ATOM     20  O   UNL     1      27.107  29.318  18.525  1.00  0.00    -0.504 OA
ATOM     21  H   UNL     1      26.600  29.280  19.401  1.00  0.00     0.293 HD
ENDBRANCH  17  20
ENDBRANCH   1  12
BRANCH   2  22
ATOM     22  O   UNL     1      29.933  32.668  20.763  1.00  0.00    -0.502 OA
ATOM     23  H   UNL     1      29.721  33.255  21.560  1.00  0.00     0.293 HD
ENDBRANCH   2  22
BRANCH   6  24
ATOM     24  O   UNL     1      34.723  34.996  20.706  1.00  0.00    -0.507 OA
ATOM     25  H   UNL     1      35.461  35.665  20.862  1.00  0.00     0.293 HD
ENDBRANCH   6  24
BRANCH   8  26
ATOM     26  O   UNL     1      35.863  34.515  16.083  1.00  0.00    -0.508 OA
ATOM     27  H   UNL     1      35.676  34.226  15.130  1.00  0.00     0.293 HD
ENDBRANCH   8  26
TORSDOF 6
ENDMDL
