MODEL 1
REMARK VINA RESULT:    -5.137      0.000      0.000
REMARK INTER + INTRA:          -8.837
REMARK INTER:                  -8.140
REMARK INTRA:                  -0.697
REMARK UNBOUND:                -0.697
REMARK SMILES CCCCCCCCCCCC(=O)[O-]
REMARK SMILES IDX 7 1 8 2 9 3 10 4 11 5 12 6 13 7 14 8 6 9 5 10 4 11 3 12 2 13
REMARK SMILES IDX 1 14
REMARK H PARENT
REMARK Flexibility Score: inf
ROOT
ATOM      1  C   UNL     1      16.739  17.015  35.159  1.00  0.00     0.000 C 
ENDROOT
BRANCH   1   2
ATOM      2  C   UNL     1      17.119  17.049  36.645  1.00  0.00     0.000 C 
BRANCH   2   3
ATOM      3  C   UNL     1      16.090  17.842  37.458  1.00  0.00     0.000 C 
BRANCH   3   4
ATOM      4  C   UNL     1      15.295  16.918  38.392  1.00  0.00     0.006 C 
BRANCH   4   5
ATOM      5  C   UNL     1      15.812  15.474  38.359  1.00  0.00     0.053 C 
BRANCH   5   6
ATOM      6  C   UNL     1      14.738  14.508  37.961  1.00  0.00     0.041 C 
ATOM      7  O   UNL     1      14.531  13.474  38.647  1.00  0.00    -0.550 OA
ATOM      8  O   UNL     1      13.943  14.769  36.852  1.00  0.00    -0.550 OA
ENDBRANCH   5   6
ENDBRANCH   4   5
ENDBRANCH   3   4
ENDBRANCH   2   3
ENDBRANCH   1   2
BRANCH   1   9
ATOM      9  C   UNL     1      17.737  17.819  34.316  1.00  0.00     0.000 C 
BRANCH   9  10
ATOM     10  C   UNL     1      19.041  18.061  35.092  1.00  0.00    -0.000 C 
BRANCH  10  11
ATOM     11  C   UNL     1      20.198  18.501  34.180  1.00  0.00    -0.000 C 
BRANCH  11  12
ATOM     12  C   UNL     1      19.735  18.835  32.755  1.00  0.00    -0.000 C 
BRANCH  12  13
ATOM     13  C   UNL     1      20.507  18.009  31.720  1.00  0.00    -0.003 C 
ATOM     14  C   UNL     1      21.587  17.161  32.386  1.00  0.00     0.004 C 
ENDBRANCH  12  13
ENDBRANCH  11  12
ENDBRANCH  10  11
ENDBRANCH   9  10
ENDBRANCH   1   9
TORSDOF 10
ENDMDL
MODEL 2
REMARK VINA RESULT:    -5.066      3.439      6.609
REMARK INTER + INTRA:          -8.724
REMARK INTER:                  -7.888
REMARK INTRA:                  -0.836
REMARK UNBOUND:                -0.697
REMARK SMILES CCCCCCCCCCCC(=O)[O-]
REMARK SMILES IDX 7 1 8 2 9 3 10 4 11 5 12 6 13 7 14 8 6 9 5 10 4 11 3 12 2 13
REMARK SMILES IDX 1 14
REMARK H PARENT
REMARK Flexibility Score: inf
ROOT
ATOM      1  C   UNL     1      16.887  18.305  35.514  1.00  0.00     0.000 C 
ENDROOT
BRANCH   1   2
ATOM      2  C   UNL     1      17.037  16.947  34.816  1.00  0.00     0.000 C 
BRANCH   2   3
ATOM      3  C   UNL     1      18.098  16.086  35.512  1.00  0.00     0.000 C 
BRANCH   3   4
ATOM      4  C   UNL     1      19.116  15.541  34.498  1.00  0.00     0.006 C 
BRANCH   4   5
ATOM      5  C   UNL     1      20.357  16.435  34.385  1.00  0.00     0.053 C 
BRANCH   5   6
ATOM      6  C   UNL     1      20.277  17.351  33.202  1.00  0.00     0.041 C 
ATOM      7  O   UNL     1      20.612  16.941  32.060  1.00  0.00    -0.550 OA
ATOM      8  O   UNL     1      19.799  18.646  33.356  1.00  0.00    -0.550 OA
ENDBRANCH   5   6
ENDBRANCH   4   5
ENDBRANCH   3   4
ENDBRANCH   2   3
ENDBRANCH   1   2
BRANCH   1   9
ATOM      9  C   UNL     1      15.684  18.306  36.465  1.00  0.00     0.000 C 
BRANCH   9  10
ATOM     10  C   UNL     1      16.133  18.104  37.920  1.00  0.00    -0.000 C 
BRANCH  10  11
ATOM     11  C   UNL     1      15.004  17.577  38.820  1.00  0.00    -0.000 C 
BRANCH  11  12
ATOM     12  C   UNL     1      14.399  16.263  38.303  1.00  0.00    -0.000 C 
BRANCH  12  13
ATOM     13  C   UNL     1      15.451  15.150  38.271  1.00  0.00    -0.003 C 
ATOM     14  C   UNL     1      14.802  13.773  38.394  1.00  0.00     0.004 C 
ENDBRANCH  12  13
ENDBRANCH  11  12
ENDBRANCH  10  11
ENDBRANCH   9  10
ENDBRANCH   1   9
TORSDOF 10
ENDMDL
MODEL 3
REMARK VINA RESULT:    -5.042      0.599      1.100
REMARK INTER + INTRA:          -8.687
REMARK INTER:                  -8.062
REMARK INTRA:                  -0.625
REMARK UNBOUND:                -0.697
REMARK SMILES CCCCCCCCCCCC(=O)[O-]
REMARK SMILES IDX 7 1 8 2 9 3 10 4 11 5 12 6 13 7 14 8 6 9 5 10 4 11 3 12 2 13
REMARK SMILES IDX 1 14
REMARK H PARENT
REMARK Flexibility Score: inf
ROOT
ATOM      1  C   UNL     1      16.345  17.093  35.244  1.00  0.00     0.000 C 
ENDROOT
BRANCH   1   2
ATOM      2  C   UNL     1      15.714  18.164  36.142  1.00  0.00     0.000 C 
BRANCH   2   3
ATOM      3  C   UNL     1      16.137  17.977  37.604  1.00  0.00     0.000 C 
BRANCH   3   4
ATOM      4  C   UNL     1      15.194  17.006  38.330  1.00  0.00     0.006 C 
BRANCH   4   5
ATOM      5  C   UNL     1      15.755  15.580  38.380  1.00  0.00     0.053 C 
BRANCH   5   6
ATOM      6  C   UNL     1      14.741  14.567  37.943  1.00  0.00     0.041 C 
ATOM      7  O   UNL     1      14.064  14.759  36.899  1.00  0.00    -0.550 OA
ATOM      8  O   UNL     1      14.568  13.396  38.670  1.00  0.00    -0.550 OA
ENDBRANCH   5   6
ENDBRANCH   4   5
ENDBRANCH   3   4
ENDBRANCH   2   3
ENDBRANCH   1   2
BRANCH   1   9
ATOM      9  C   UNL     1      17.876  17.129  35.337  1.00  0.00     0.000 C 
BRANCH   9  10
ATOM     10  C   UNL     1      18.421  18.499  34.907  1.00  0.00    -0.000 C 
BRANCH  10  11
ATOM     11  C   UNL     1      19.830  18.411  34.299  1.00  0.00    -0.000 C 
BRANCH  11  12
ATOM     12  C   UNL     1      19.850  18.740  32.799  1.00  0.00    -0.000 C 
BRANCH  12  13
ATOM     13  C   UNL     1      20.380  17.555  31.985  1.00  0.00    -0.003 C 
ATOM     14  C   UNL     1      21.648  16.978  32.611  1.00  0.00     0.004 C 
ENDBRANCH  12  13
ENDBRANCH  11  12
ENDBRANCH  10  11
ENDBRANCH   9  10
ENDBRANCH   1   9
TORSDOF 10
ENDMDL
MODEL 4
REMARK VINA RESULT:    -5.034      3.404      6.575
REMARK INTER + INTRA:          -8.674
REMARK INTER:                  -7.521
REMARK INTRA:                  -1.153
REMARK UNBOUND:                -0.697
REMARK SMILES CCCCCCCCCCCC(=O)[O-]
REMARK SMILES IDX 7 1 8 2 9 3 10 4 11 5 12 6 13 7 14 8 6 9 5 10 4 11 3 12 2 13
REMARK SMILES IDX 1 14
REMARK H PARENT
REMARK Flexibility Score: inf
ROOT
ATOM      1  C   UNL     1      17.506  16.980  36.517  1.00  0.00     0.000 C 
ENDROOT
BRANCH   1   2
ATOM      2  C   UNL     1      17.440  16.528  35.052  1.00  0.00     0.000 C 
BRANCH   2   3
ATOM      3  C   UNL     1      17.526  17.727  34.102  1.00  0.00     0.000 C 
BRANCH   3   4
ATOM      4  C   UNL     1      18.845  17.714  33.316  1.00  0.00     0.006 C 
BRANCH   4   5
ATOM      5  C   UNL     1      19.988  18.385  34.087  1.00  0.00     0.053 C 
BRANCH   5   6
ATOM      6  C   UNL     1      21.116  17.434  34.349  1.00  0.00     0.041 C 
ATOM      7  O   UNL     1      22.249  17.872  34.680  1.00  0.00    -0.550 OA
ATOM      8  O   UNL     1      20.906  16.064  34.263  1.00  0.00    -0.550 OA
ENDBRANCH   5   6
ENDBRANCH   4   5
ENDBRANCH   3   4
ENDBRANCH   2   3
ENDBRANCH   1   2
BRANCH   1   9
ATOM      9  C   UNL     1      16.526  18.130  36.783  1.00  0.00     0.000 C 
BRANCH   9  10
ATOM     10  C   UNL     1      15.870  17.983  38.164  1.00  0.00    -0.000 C 
BRANCH  10  11
ATOM     11  C   UNL     1      15.467  16.533  38.477  1.00  0.00    -0.000 C 
BRANCH  11  12
ATOM     12  C   UNL     1      14.026  16.214  38.051  1.00  0.00    -0.000 C 
BRANCH  12  13
ATOM     13  C   UNL     1      14.006  15.400  36.752  1.00  0.00    -0.003 C 
ATOM     14  C   UNL     1      13.540  16.252  35.574  1.00  0.00     0.004 C 
ENDBRANCH  12  13
ENDBRANCH  11  12
ENDBRANCH  10  11
ENDBRANCH   9  10
ENDBRANCH   1   9
TORSDOF 10
ENDMDL
MODEL 5
REMARK VINA RESULT:    -4.996      1.178      1.583
REMARK INTER + INTRA:          -8.613
REMARK INTER:                  -7.734
REMARK INTRA:                  -0.880
REMARK UNBOUND:                -0.697
REMARK SMILES CCCCCCCCCCCC(=O)[O-]
REMARK SMILES IDX 7 1 8 2 9 3 10 4 11 5 12 6 13 7 14 8 6 9 5 10 4 11 3 12 2 13
REMARK SMILES IDX 1 14
REMARK H PARENT
REMARK Flexibility Score: inf
ROOT
ATOM      1  C   UNL     1      17.327  17.480  34.697  1.00  0.00     0.000 C 
ENDROOT
BRANCH   1   2
ATOM      2  C   UNL     1      16.896  18.516  35.742  1.00  0.00     0.000 C 
BRANCH   2   3
ATOM      3  C   UNL     1      16.677  17.859  37.110  1.00  0.00     0.000 C 
BRANCH   3   4
ATOM      4  C   UNL     1      15.179  17.737  37.429  1.00  0.00     0.006 C 
BRANCH   4   5
ATOM      5  C   UNL     1      14.888  16.610  38.427  1.00  0.00     0.053 C 
BRANCH   5   6
ATOM      6  C   UNL     1      14.826  15.273  37.754  1.00  0.00     0.041 C 
ATOM      7  O   UNL     1      15.406  14.279  38.266  1.00  0.00    -0.550 OA
ATOM      8  O   UNL     1      14.098  15.117  36.581  1.00  0.00    -0.550 OA
ENDBRANCH   5   6
ENDBRANCH   4   5
ENDBRANCH   3   4
ENDBRANCH   2   3
ENDBRANCH   1   2
BRANCH   1   9
ATOM      9  C   UNL     1      18.150  16.357  35.340  1.00  0.00     0.000 C 
BRANCH   9  10
ATOM     10  C   UNL     1      19.224  15.838  34.371  1.00  0.00    -0.000 C 
BRANCH  10  11
ATOM     11  C   UNL     1      20.482  16.720  34.355  1.00  0.00    -0.000 C 
BRANCH  11  12
ATOM     12  C   UNL     1      21.064  16.896  32.945  1.00  0.00    -0.000 C 
BRANCH  12  13
ATOM     13  C   UNL     1      20.136  17.748  32.071  1.00  0.00    -0.003 C 
ATOM     14  C   UNL     1      19.979  19.155  32.641  1.00  0.00     0.004 C 
ENDBRANCH  12  13
ENDBRANCH  11  12
ENDBRANCH  10  11
ENDBRANCH   9  10
ENDBRANCH   1   9
TORSDOF 10
ENDMDL
MODEL 6
REMARK VINA RESULT:    -4.920      1.716      2.222
REMARK INTER + INTRA:          -8.494
REMARK INTER:                  -7.587
REMARK INTRA:                  -0.907
REMARK UNBOUND:                -0.697
REMARK SMILES CCCCCCCCCCCC(=O)[O-]
REMARK SMILES IDX 7 1 8 2 9 3 10 4 11 5 12 6 13 7 14 8 6 9 5 10 4 11 3 12 2 13
REMARK SMILES IDX 1 14
REMARK H PARENT
REMARK Flexibility Score: inf
ROOT
ATOM      1  C   UNL     1      17.256  16.491  36.525  1.00  0.00     0.000 C 
ENDROOT
BRANCH   1   2
ATOM      2  C   UNL     1      16.660  17.891  36.722  1.00  0.00     0.000 C 
BRANCH   2   3
ATOM      3  C   UNL     1      15.960  18.004  38.082  1.00  0.00     0.000 C 
BRANCH   3   4
ATOM      4  C   UNL     1      15.079  16.776  38.352  1.00  0.00     0.006 C 
BRANCH   4   5
ATOM      5  C   UNL     1      13.583  17.112  38.303  1.00  0.00     0.053 C 
BRANCH   5   6
ATOM      6  C   UNL     1      12.942  16.614  37.044  1.00  0.00     0.041 C 
ATOM      7  O   UNL     1      11.706  16.765  36.861  1.00  0.00    -0.550 OA
ATOM      8  O   UNL     1      13.716  16.015  36.058  1.00  0.00    -0.550 OA
ENDBRANCH   5   6
ENDBRANCH   4   5
ENDBRANCH   3   4
ENDBRANCH   2   3
ENDBRANCH   1   2
BRANCH   1   9
ATOM      9  C   UNL     1      17.731  16.293  35.080  1.00  0.00     0.000 C 
BRANCH   9  10
ATOM     10  C   UNL     1      17.476  17.553  34.240  1.00  0.00    -0.000 C 
BRANCH  10  11
ATOM     11  C   UNL     1      18.761  18.117  33.614  1.00  0.00    -0.000 C 
BRANCH  11  12
ATOM     12  C   UNL     1      19.776  18.588  34.666  1.00  0.00    -0.000 C 
BRANCH  12  13
ATOM     13  C   UNL     1      21.207  18.244  34.240  1.00  0.00    -0.003 C 
ATOM     14  C   UNL     1      21.594  16.837  34.690  1.00  0.00     0.004 C 
ENDBRANCH  12  13
ENDBRANCH  11  12
ENDBRANCH  10  11
ENDBRANCH   9  10
ENDBRANCH   1   9
TORSDOF 10
ENDMDL
MODEL 7
REMARK VINA RESULT:    -4.907      4.031      7.278
REMARK INTER + INTRA:          -8.472
REMARK INTER:                  -7.836
REMARK INTRA:                  -0.637
REMARK UNBOUND:                -0.697
REMARK SMILES CCCCCCCCCCCC(=O)[O-]
REMARK SMILES IDX 7 1 8 2 9 3 10 4 11 5 12 6 13 7 14 8 6 9 5 10 4 11 3 12 2 13
REMARK SMILES IDX 1 14
REMARK H PARENT
REMARK Flexibility Score: inf
ROOT
ATOM      1  C   UNL     1      17.384  16.756  34.948  1.00  0.00     0.000 C 
ENDROOT
BRANCH   1   2
ATOM      2  C   UNL     1      18.249  17.924  34.458  1.00  0.00     0.000 C 
BRANCH   2   3
ATOM      3  C   UNL     1      19.719  17.718  34.839  1.00  0.00     0.000 C 
BRANCH   3   4
ATOM      4  C   UNL     1      20.265  16.411  34.244  1.00  0.00     0.006 C 
BRANCH   4   5
ATOM      5  C   UNL     1      21.796  16.351  34.280  1.00  0.00     0.053 C 
BRANCH   5   6
ATOM      6  C   UNL     1      22.414  17.295  33.295  1.00  0.00     0.041 C 
ATOM      7  O   UNL     1      23.515  17.849  33.554  1.00  0.00    -0.550 OA
ATOM      8  O   UNL     1      21.792  17.535  32.076  1.00  0.00    -0.550 OA
ENDBRANCH   5   6
ENDBRANCH   4   5
ENDBRANCH   3   4
ENDBRANCH   2   3
ENDBRANCH   1   2
BRANCH   1   9
ATOM      9  C   UNL     1      17.258  16.767  36.477  1.00  0.00     0.000 C 
BRANCH   9  10
ATOM     10  C   UNL     1      16.623  18.077  36.966  1.00  0.00    -0.000 C 
BRANCH  10  11
ATOM     11  C   UNL     1      15.810  17.894  38.258  1.00  0.00    -0.000 C 
BRANCH  11  12
ATOM     12  C   UNL     1      15.287  16.460  38.431  1.00  0.00    -0.000 C 
BRANCH  12  13
ATOM     13  C   UNL     1      13.756  16.424  38.375  1.00  0.00    -0.003 C 
ATOM     14  C   UNL     1      13.161  17.799  38.669  1.00  0.00     0.004 C 
ENDBRANCH  12  13
ENDBRANCH  11  12
ENDBRANCH  10  11
ENDBRANCH   9  10
ENDBRANCH   1   9
TORSDOF 10
ENDMDL
MODEL 8
REMARK VINA RESULT:    -4.879      8.398      9.632
REMARK INTER + INTRA:          -8.428
REMARK INTER:                  -7.260
REMARK INTRA:                  -1.169
REMARK UNBOUND:                -0.697
REMARK SMILES CCCCCCCCCCCC(=O)[O-]
REMARK SMILES IDX 7 1 8 2 9 3 10 4 11 5 12 6 13 7 14 8 6 9 5 10 4 11 3 12 2 13
REMARK SMILES IDX 1 14
REMARK H PARENT
REMARK Flexibility Score: inf
ROOT
ATOM      1  C   UNL     1       9.971  18.880  32.102  1.00  0.00     0.000 C 
ENDROOT
BRANCH   1   2
ATOM      2  C   UNL     1       9.644  17.948  33.275  1.00  0.00     0.000 C 
BRANCH   2   3
ATOM      3  C   UNL     1       8.214  18.179  33.779  1.00  0.00     0.000 C 
BRANCH   3   4
ATOM      4  C   UNL     1       8.182  19.261  34.869  1.00  0.00     0.006 C 
BRANCH   4   5
ATOM      5  C   UNL     1       9.395  19.179  35.804  1.00  0.00     0.053 C 
BRANCH   5   6
ATOM      6  C   UNL     1       9.149  18.251  36.955  1.00  0.00     0.041 C 
ATOM      7  O   UNL     1       8.495  18.644  37.956  1.00  0.00    -0.550 OA
ATOM      8  O   UNL     1       9.611  16.942  36.904  1.00  0.00    -0.550 OA
ENDBRANCH   5   6
ENDBRANCH   4   5
ENDBRANCH   3   4
ENDBRANCH   2   3
ENDBRANCH   1   2
BRANCH   1   9
ATOM      9  C   UNL     1       9.026  18.631  30.920  1.00  0.00     0.000 C 
BRANCH   9  10
ATOM     10  C   UNL     1       8.442  19.951  30.396  1.00  0.00    -0.000 C 
BRANCH  10  11
ATOM     11  C   UNL     1       8.262  21.000  31.505  1.00  0.00    -0.000 C 
BRANCH  11  12
ATOM     12  C   UNL     1       8.446  22.437  30.997  1.00  0.00    -0.000 C 
BRANCH  12  13
ATOM     13  C   UNL     1       9.580  23.144  31.749  1.00  0.00    -0.003 C 
ATOM     14  C   UNL     1       9.984  22.364  32.997  1.00  0.00     0.004 C 
ENDBRANCH  12  13
ENDBRANCH  11  12
ENDBRANCH  10  11
ENDBRANCH   9  10
ENDBRANCH   1   9
TORSDOF 10
ENDMDL
MODEL 9
REMARK VINA RESULT:    -4.796      3.527      6.535
REMARK INTER + INTRA:          -8.298
REMARK INTER:                  -7.169
REMARK INTRA:                  -1.129
REMARK UNBOUND:                -0.697
REMARK SMILES CCCCCCCCCCCC(=O)[O-]
REMARK SMILES IDX 7 1 8 2 9 3 10 4 11 5 12 6 13 7 14 8 6 9 5 10 4 11 3 12 2 13
REMARK SMILES IDX 1 14
REMARK H PARENT
REMARK Flexibility Score: inf
ROOT
ATOM      1  C   UNL     1      14.021  16.603  38.000  1.00  0.00     0.000 C 
ENDROOT
BRANCH   1   2
ATOM      2  C   UNL     1      15.549  16.638  38.125  1.00  0.00     0.000 C 
BRANCH   2   3
ATOM      3  C   UNL     1      16.105  18.001  37.699  1.00  0.00     0.000 C 
BRANCH   3   4
ATOM      4  C   UNL     1      17.132  17.848  36.567  1.00  0.00     0.006 C 
BRANCH   4   5
ATOM      5  C   UNL     1      17.345  16.382  36.170  1.00  0.00     0.053 C 
BRANCH   5   6
ATOM      6  C   UNL     1      18.112  16.257  34.889  1.00  0.00     0.041 C 
ATOM      7  O   UNL     1      18.815  15.236  34.669  1.00  0.00    -0.550 OA
ATOM      8  O   UNL     1      18.023  17.253  33.925  1.00  0.00    -0.550 OA
ENDBRANCH   5   6
ENDBRANCH   4   5
ENDBRANCH   3   4
ENDBRANCH   2   3
ENDBRANCH   1   2
BRANCH   1   9
ATOM      9  C   UNL     1      13.582  15.694  36.845  1.00  0.00     0.000 C 
BRANCH   9  10
ATOM     10  C   UNL     1      13.699  16.423  35.497  1.00  0.00    -0.000 C 
BRANCH  10  11
ATOM     11  C   UNL     1      12.910  17.741  35.468  1.00  0.00    -0.000 C 
BRANCH  11  12
ATOM     12  C   UNL     1      11.395  17.523  35.335  1.00  0.00    -0.000 C 
BRANCH  12  13
ATOM     13  C   UNL     1      10.629  18.349  36.374  1.00  0.00    -0.003 C 
ATOM     14  C   UNL     1      10.163  17.478  37.538  1.00  0.00     0.004 C 
ENDBRANCH  12  13
ENDBRANCH  11  12
ENDBRANCH  10  11
ENDBRANCH   9  10
ENDBRANCH   1   9
TORSDOF 10
ENDMDL
