MODEL 1
REMARK VINA RESULT:    -8.243      0.000      0.000
REMARK INTER + INTRA:         -11.934
REMARK INTER:                 -10.894
REMARK INTRA:                  -1.040
REMARK UNBOUND:                -1.040
REMARK SMILES CC[C@@H](C=C[C@@H](C)[C@H]1CC[C@H]2[C@H]3CC=C4C[C@H](O)CC[C@]4(C)[C@H]3CC[C@@]12C)C(C)C
REMARK SMILES IDX 6 1 7 2 5 3 4 4 3 5 2 6 1 7 28 8 29 9 30 10 8 11 9 12 26 13
REMARK SMILES IDX 10 14 11 15 25 16 27 17 12 18 24 19 23 20 13 21 21 22 14 23
REMARK SMILES IDX 15 24 20 25 22 26 16 27 19 28 17 29 18 30
REMARK H PARENT 18 31
REMARK Flexibility Score: inf
ROOT
ATOM      1  C   UNL     1      -3.995  23.849  49.942  1.00  0.00     0.012 C 
ATOM      2  C   UNL     1      -4.643  25.206  49.618  1.00  0.00     0.012 C 
ENDROOT
BRANCH   1   3
ATOM      3  C   UNL     1      -3.279  23.848  51.307  1.00  0.00    -0.028 C 
ATOM      4  C   UNL     1      -2.552  24.849  51.807  1.00  0.00    -0.027 C 
BRANCH   4   5
ATOM      5  C   UNL     1      -1.991  24.807  53.224  1.00  0.00     0.014 C 
BRANCH   5   6
ATOM      6  C   UNL     1      -2.081  26.219  53.869  1.00  0.00     0.004 C 
ATOM      7  C   UNL     1      -3.511  26.704  54.101  1.00  0.00     0.004 C 
ENDBRANCH   5   6
BRANCH   5   8
ATOM      8  C   UNL     1      -0.560  24.195  53.271  1.00  0.00    -0.011 C 
ATOM      9  C   UNL     1       0.292  24.483  52.016  1.00  0.00     0.008 C 
ATOM     10  C   UNL     1      -0.619  22.692  53.612  1.00  0.00     0.008 C 
ENDBRANCH   5   8
ENDBRANCH   4   5
ENDBRANCH   1   3
BRANCH   1  11
ATOM     11  C   UNL     1      -3.081  23.385  48.735  1.00  0.00     0.002 C 
ATOM     12  C   UNL     1      -1.585  23.380  49.056  1.00  0.00     0.005 C 
ATOM     13  C   UNL     1      -3.401  22.028  48.027  1.00  0.00    -0.026 C 
ATOM     14  C   UNL     1      -0.954  22.362  48.117  1.00  0.00     0.005 C 
ATOM     15  C   UNL     1      -2.081  21.714  47.278  1.00  0.00    -0.001 C 
ATOM     16  C   UNL     1      -3.661  20.882  49.030  1.00  0.00     0.007 C 
ATOM     17  C   UNL     1      -4.610  22.165  47.034  1.00  0.00     0.012 C 
ATOM     18  C   UNL     1      -1.857  20.212  46.850  1.00  0.00     0.000 C 
ATOM     19  C   UNL     1      -3.886  19.516  48.384  1.00  0.00     0.005 C 
ATOM     20  C   UNL     1      -3.073  19.254  47.067  1.00  0.00     0.003 C 
ATOM     21  C   UNL     1      -0.564  19.566  47.349  1.00  0.00     0.031 C 
ATOM     22  C   UNL     1      -2.762  17.690  46.749  1.00  0.00    -0.008 C 
ATOM     23  C   UNL     1      -0.333  18.304  46.583  1.00  0.00    -0.027 C 
ATOM     24  C   UNL     1      -1.315  17.455  46.305  1.00  0.00    -0.065 C 
ATOM     25  C   UNL     1      -3.751  17.222  45.616  1.00  0.00     0.014 C 
ATOM     26  C   UNL     1      -2.966  16.773  47.996  1.00  0.00     0.016 C 
ATOM     27  C   UNL     1      -0.974  16.158  45.607  1.00  0.00     0.063 C 
ATOM     28  C   UNL     1      -3.339  16.007  44.738  1.00  0.00     0.033 C 
ATOM     29  C   UNL     1      -1.863  15.979  44.370  1.00  0.00     0.118 C 
BRANCH  29  30
ATOM     30  O   UNL     1      -1.589  16.976  43.422  1.00  0.00    -0.393 OA
ATOM     31  H   UNL     1      -2.416  17.528  43.339  1.00  0.00     0.210 HD
ENDBRANCH  29  30
ENDBRANCH   1  11
TORSDOF 6
ENDMDL
MODEL 2
REMARK VINA RESULT:    -7.942      2.891      5.707
REMARK INTER + INTRA:         -11.536
REMARK INTER:                  -9.967
REMARK INTRA:                  -1.569
REMARK UNBOUND:                -1.040
REMARK SMILES CC[C@@H](C=C[C@@H](C)[C@H]1CC[C@H]2[C@H]3CC=C4C[C@H](O)CC[C@]4(C)[C@H]3CC[C@@]12C)C(C)C
REMARK SMILES IDX 6 1 7 2 5 3 4 4 3 5 2 6 1 7 28 8 29 9 30 10 8 11 9 12 26 13
REMARK SMILES IDX 10 14 11 15 25 16 27 17 12 18 24 19 23 20 13 21 21 22 14 23
REMARK SMILES IDX 15 24 20 25 22 26 16 27 19 28 17 29 18 30
REMARK H PARENT 18 31
REMARK Flexibility Score: inf
ROOT
ATOM      1  C   UNL     1      -3.625  27.437  50.202  1.00  0.00     0.012 C 
ATOM      2  C   UNL     1      -3.284  28.142  51.527  1.00  0.00     0.012 C 
ENDROOT
BRANCH   1   3
ATOM      3  C   UNL     1      -4.615  28.247  49.342  1.00  0.00    -0.028 C 
ATOM      4  C   UNL     1      -4.556  28.398  48.017  1.00  0.00    -0.027 C 
BRANCH   4   5
ATOM      5  C   UNL     1      -5.656  29.109  47.238  1.00  0.00     0.014 C 
BRANCH   5   6
ATOM      6  C   UNL     1      -6.267  30.245  48.106  1.00  0.00     0.004 C 
ATOM      7  C   UNL     1      -6.992  31.320  47.297  1.00  0.00     0.004 C 
ENDBRANCH   5   6
BRANCH   5   8
ATOM      8  C   UNL     1      -6.719  28.116  46.682  1.00  0.00    -0.011 C 
ATOM      9  C   UNL     1      -7.866  27.802  47.666  1.00  0.00     0.008 C 
ATOM     10  C   UNL     1      -6.043  26.841  46.138  1.00  0.00     0.008 C 
ENDBRANCH   5   8
ENDBRANCH   4   5
ENDBRANCH   1   3
BRANCH   1  11
ATOM     11  C   UNL     1      -4.085  25.949  50.485  1.00  0.00     0.002 C 
ATOM     12  C   UNL     1      -5.543  25.669  50.113  1.00  0.00     0.005 C 
ATOM     13  C   UNL     1      -3.232  24.774  49.904  1.00  0.00    -0.026 C 
ATOM     14  C   UNL     1      -5.628  24.176  49.831  1.00  0.00     0.005 C 
ATOM     15  C   UNL     1      -4.211  23.574  49.974  1.00  0.00    -0.001 C 
ATOM     16  C   UNL     1      -2.854  24.992  48.422  1.00  0.00     0.007 C 
ATOM     17  C   UNL     1      -1.941  24.518  50.762  1.00  0.00     0.012 C 
ATOM     18  C   UNL     1      -3.878  22.342  49.046  1.00  0.00     0.000 C 
ATOM     19  C   UNL     1      -2.099  23.826  47.785  1.00  0.00     0.005 C 
ATOM     20  C   UNL     1      -2.504  22.400  48.305  1.00  0.00     0.003 C 
ATOM     21  C   UNL     1      -4.991  21.914  48.090  1.00  0.00     0.031 C 
ATOM     22  C   UNL     1      -2.257  21.188  47.251  1.00  0.00    -0.008 C 
ATOM     23  C   UNL     1      -4.667  20.557  47.555  1.00  0.00    -0.027 C 
ATOM     24  C   UNL     1      -3.440  20.218  47.178  1.00  0.00    -0.065 C 
ATOM     25  C   UNL     1      -0.959  20.415  47.699  1.00  0.00     0.014 C 
ATOM     26  C   UNL     1      -2.050  21.697  45.789  1.00  0.00     0.016 C 
ATOM     27  C   UNL     1      -3.222  18.855  46.564  1.00  0.00     0.063 C 
ATOM     28  C   UNL     1      -0.794  18.935  47.251  1.00  0.00     0.033 C 
ATOM     29  C   UNL     1      -2.083  18.128  47.290  1.00  0.00     0.118 C 
BRANCH  29  30
ATOM     30  O   UNL     1      -2.441  17.865  48.621  1.00  0.00    -0.393 OA
ATOM     31  H   UNL     1      -2.782  18.721  49.001  1.00  0.00     0.210 HD
ENDBRANCH  29  30
ENDBRANCH   1  11
TORSDOF 6
ENDMDL
MODEL 3
REMARK VINA RESULT:    -7.675      3.526      6.361
REMARK INTER + INTRA:         -11.182
REMARK INTER:                 -10.212
REMARK INTRA:                  -0.970
REMARK UNBOUND:                -1.040
REMARK SMILES CC[C@@H](C=C[C@@H](C)[C@H]1CC[C@H]2[C@H]3CC=C4C[C@H](O)CC[C@]4(C)[C@H]3CC[C@@]12C)C(C)C
REMARK SMILES IDX 6 1 7 2 5 3 4 4 3 5 2 6 1 7 28 8 29 9 30 10 8 11 9 12 26 13
REMARK SMILES IDX 10 14 11 15 25 16 27 17 12 18 24 19 23 20 13 21 21 22 14 23
REMARK SMILES IDX 15 24 20 25 22 26 16 27 19 28 17 29 18 30
REMARK H PARENT 18 31
REMARK Flexibility Score: inf
ROOT
ATOM      1  C   UNL     1      -4.474  27.776  49.280  1.00  0.00     0.012 C 
ATOM      2  C   UNL     1      -3.629  28.488  50.352  1.00  0.00     0.012 C 
ENDROOT
BRANCH   1   3
ATOM      3  C   UNL     1      -5.723  28.584  48.882  1.00  0.00    -0.028 C 
ATOM      4  C   UNL     1      -6.152  28.795  47.635  1.00  0.00    -0.027 C 
BRANCH   4   5
ATOM      5  C   UNL     1      -7.473  29.497  47.346  1.00  0.00     0.014 C 
BRANCH   5   6
ATOM      6  C   UNL     1      -8.406  28.553  46.536  1.00  0.00     0.004 C 
ATOM      7  C   UNL     1      -9.557  27.969  47.356  1.00  0.00     0.004 C 
ENDBRANCH   5   6
BRANCH   5   8
ATOM      8  C   UNL     1      -7.265  30.886  46.673  1.00  0.00    -0.011 C 
ATOM      9  C   UNL     1      -6.221  30.888  45.536  1.00  0.00     0.008 C 
ATOM     10  C   UNL     1      -6.984  31.971  47.733  1.00  0.00     0.008 C 
ENDBRANCH   5   8
ENDBRANCH   4   5
ENDBRANCH   1   3
BRANCH   1  11
ATOM     11  C   UNL     1      -4.784  26.292  49.736  1.00  0.00     0.002 C 
ATOM     12  C   UNL     1      -6.199  25.821  49.394  1.00  0.00     0.005 C 
ATOM     13  C   UNL     1      -3.806  25.151  49.302  1.00  0.00    -0.026 C 
ATOM     14  C   UNL     1      -6.128  24.305  49.291  1.00  0.00     0.005 C 
ATOM     15  C   UNL     1      -4.658  23.873  49.510  1.00  0.00    -0.001 C 
ATOM     16  C   UNL     1      -3.428  25.230  47.806  1.00  0.00     0.007 C 
ATOM     17  C   UNL     1      -2.510  25.132  50.190  1.00  0.00     0.012 C 
ATOM     18  C   UNL     1      -4.187  22.582  48.736  1.00  0.00     0.000 C 
ATOM     19  C   UNL     1      -2.548  24.082  47.316  1.00  0.00     0.005 C 
ATOM     20  C   UNL     1      -2.813  22.694  47.999  1.00  0.00     0.003 C 
ATOM     21  C   UNL     1      -5.234  21.932  47.832  1.00  0.00     0.031 C 
ATOM     22  C   UNL     1      -2.427  21.397  47.097  1.00  0.00    -0.008 C 
ATOM     23  C   UNL     1      -4.765  20.561  47.464  1.00  0.00    -0.027 C 
ATOM     24  C   UNL     1      -3.504  20.309  47.135  1.00  0.00    -0.065 C 
ATOM     25  C   UNL     1      -1.065  20.821  47.640  1.00  0.00     0.014 C 
ATOM     26  C   UNL     1      -2.249  21.750  45.587  1.00  0.00     0.016 C 
ATOM     27  C   UNL     1      -3.138  18.913  46.688  1.00  0.00     0.063 C 
ATOM     28  C   UNL     1      -0.743  19.324  47.371  1.00  0.00     0.033 C 
ATOM     29  C   UNL     1      -1.943  18.398  47.500  1.00  0.00     0.118 C 
BRANCH  29  30
ATOM     30  O   UNL     1      -2.294  18.257  48.851  1.00  0.00    -0.393 OA
ATOM     31  H   UNL     1      -2.811  19.073  49.099  1.00  0.00     0.210 HD
ENDBRANCH  29  30
ENDBRANCH   1  11
TORSDOF 6
ENDMDL
MODEL 4
REMARK VINA RESULT:    -7.611      3.058      9.219
REMARK INTER + INTRA:         -11.098
REMARK INTER:                 -10.165
REMARK INTRA:                  -0.933
REMARK UNBOUND:                -1.040
REMARK SMILES CC[C@@H](C=C[C@@H](C)[C@H]1CC[C@H]2[C@H]3CC=C4C[C@H](O)CC[C@]4(C)[C@H]3CC[C@@]12C)C(C)C
REMARK SMILES IDX 6 1 7 2 5 3 4 4 3 5 2 6 1 7 28 8 29 9 30 10 8 11 9 12 26 13
REMARK SMILES IDX 10 14 11 15 25 16 27 17 12 18 24 19 23 20 13 21 21 22 14 23
REMARK SMILES IDX 15 24 20 25 22 26 16 27 19 28 17 29 18 30
REMARK H PARENT 18 31
REMARK Flexibility Score: inf
ROOT
ATOM      1  C   UNL     1      -0.718  21.045  47.229  1.00  0.00     0.012 C 
ATOM      2  C   UNL     1       0.367  21.430  46.208  1.00  0.00     0.012 C 
ENDROOT
BRANCH   1   3
ATOM      3  C   UNL     1      -1.500  19.785  46.811  1.00  0.00    -0.028 C 
ATOM      4  C   UNL     1      -1.122  18.524  47.028  1.00  0.00    -0.027 C 
BRANCH   4   5
ATOM      5  C   UNL     1      -2.026  17.344  46.694  1.00  0.00     0.014 C 
BRANCH   5   6
ATOM      6  C   UNL     1      -2.747  17.598  45.340  1.00  0.00     0.004 C 
ATOM      7  C   UNL     1      -2.756  16.387  44.407  1.00  0.00     0.004 C 
ENDBRANCH   5   6
BRANCH   5   8
ATOM      8  C   UNL     1      -3.002  17.003  47.859  1.00  0.00    -0.011 C 
ATOM      9  C   UNL     1      -4.147  18.021  48.042  1.00  0.00     0.008 C 
ATOM     10  C   UNL     1      -2.225  16.748  49.166  1.00  0.00     0.008 C 
ENDBRANCH   5   8
ENDBRANCH   4   5
ENDBRANCH   1   3
BRANCH   1  11
ATOM     11  C   UNL     1      -1.634  22.299  47.540  1.00  0.00     0.002 C 
ATOM     12  C   UNL     1      -3.094  21.944  47.830  1.00  0.00     0.005 C 
ATOM     13  C   UNL     1      -1.181  23.306  48.648  1.00  0.00    -0.026 C 
ATOM     14  C   UNL     1      -3.640  23.070  48.695  1.00  0.00     0.005 C 
ATOM     15  C   UNL     1      -2.491  24.068  48.974  1.00  0.00    -0.001 C 
ATOM     16  C   UNL     1      -0.710  22.597  49.938  1.00  0.00     0.007 C 
ATOM     17  C   UNL     1      -0.063  24.277  48.123  1.00  0.00     0.012 C 
ATOM     18  C   UNL     1      -2.539  24.819  50.360  1.00  0.00     0.000 C 
ATOM     19  C   UNL     1      -0.346  23.543  51.080  1.00  0.00     0.005 C 
ATOM     20  C   UNL     1      -1.196  24.861  51.159  1.00  0.00     0.003 C 
ATOM     21  C   UNL     1      -3.702  24.442  51.278  1.00  0.00     0.031 C 
ATOM     22  C   UNL     1      -1.315  25.516  52.642  1.00  0.00    -0.008 C 
ATOM     23  C   UNL     1      -3.809  25.467  52.361  1.00  0.00    -0.027 C 
ATOM     24  C   UNL     1      -2.743  25.959  52.978  1.00  0.00    -0.065 C 
ATOM     25  C   UNL     1      -0.343  26.754  52.702  1.00  0.00     0.014 C 
ATOM     26  C   UNL     1      -0.915  24.517  53.772  1.00  0.00     0.016 C 
ATOM     27  C   UNL     1      -2.950  26.923  54.123  1.00  0.00     0.063 C 
ATOM     28  C   UNL     1      -0.643  27.873  53.739  1.00  0.00     0.033 C 
ATOM     29  C   UNL     1      -2.122  28.194  53.896  1.00  0.00     0.118 C 
BRANCH  29  30
ATOM     30  O   UNL     1      -2.583  28.883  52.764  1.00  0.00    -0.393 OA
ATOM     31  H   UNL     1      -3.450  29.303  53.018  1.00  0.00     0.210 HD
ENDBRANCH  29  30
ENDBRANCH   1  11
TORSDOF 6
ENDMDL
MODEL 5
REMARK VINA RESULT:    -7.507      2.735      5.539
REMARK INTER + INTRA:         -10.961
REMARK INTER:                  -9.412
REMARK INTRA:                  -1.550
REMARK UNBOUND:                -1.040
REMARK SMILES CC[C@@H](C=C[C@@H](C)[C@H]1CC[C@H]2[C@H]3CC=C4C[C@H](O)CC[C@]4(C)[C@H]3CC[C@@]12C)C(C)C
REMARK SMILES IDX 6 1 7 2 5 3 4 4 3 5 2 6 1 7 28 8 29 9 30 10 8 11 9 12 26 13
REMARK SMILES IDX 10 14 11 15 25 16 27 17 12 18 24 19 23 20 13 21 21 22 14 23
REMARK SMILES IDX 15 24 20 25 22 26 16 27 19 28 17 29 18 30
REMARK H PARENT 18 31
REMARK Flexibility Score: inf
ROOT
ATOM      1  C   UNL     1      -3.372  27.254  50.793  1.00  0.00     0.012 C 
ATOM      2  C   UNL     1      -3.240  27.870  52.197  1.00  0.00     0.012 C 
ENDROOT
BRANCH   1   3
ATOM      3  C   UNL     1      -4.138  28.168  49.818  1.00  0.00    -0.028 C 
ATOM      4  C   UNL     1      -3.917  28.270  48.506  1.00  0.00    -0.027 C 
BRANCH   4   5
ATOM      5  C   UNL     1      -4.814  29.105  47.600  1.00  0.00     0.014 C 
BRANCH   5   6
ATOM      6  C   UNL     1      -6.257  29.146  48.180  1.00  0.00     0.004 C 
ATOM      7  C   UNL     1      -7.144  27.993  47.712  1.00  0.00     0.004 C 
ENDBRANCH   5   6
BRANCH   5   8
ATOM      8  C   UNL     1      -4.758  28.631  46.118  1.00  0.00    -0.011 C 
ATOM      9  C   UNL     1      -3.940  27.340  45.898  1.00  0.00     0.008 C 
ATOM     10  C   UNL     1      -4.305  29.779  45.193  1.00  0.00     0.008 C 
ENDBRANCH   5   8
ENDBRANCH   4   5
ENDBRANCH   1   3
BRANCH   1  11
ATOM     11  C   UNL     1      -3.960  25.788  50.900  1.00  0.00     0.002 C 
ATOM     12  C   UNL     1      -5.404  25.662  50.410  1.00  0.00     0.005 C 
ATOM     13  C   UNL     1      -3.158  24.606  50.263  1.00  0.00    -0.026 C 
ATOM     14  C   UNL     1      -5.581  24.214  49.979  1.00  0.00     0.005 C 
ATOM     15  C   UNL     1      -4.225  23.488  50.154  1.00  0.00    -0.001 C 
ATOM     16  C   UNL     1      -2.659  24.928  48.836  1.00  0.00     0.007 C 
ATOM     17  C   UNL     1      -1.954  24.169  51.173  1.00  0.00     0.012 C 
ATOM     18  C   UNL     1      -3.920  22.324  49.133  1.00  0.00     0.000 C 
ATOM     19  C   UNL     1      -1.950  23.769  48.139  1.00  0.00     0.005 C 
ATOM     20  C   UNL     1      -2.496  22.339  48.491  1.00  0.00     0.003 C 
ATOM     21  C   UNL     1      -4.991  22.077  48.070  1.00  0.00     0.031 C 
ATOM     22  C   UNL     1      -2.265  21.212  47.341  1.00  0.00    -0.008 C 
ATOM     23  C   UNL     1      -4.731  20.753  47.428  1.00  0.00    -0.027 C 
ATOM     24  C   UNL     1      -3.510  20.352  47.100  1.00  0.00    -0.065 C 
ATOM     25  C   UNL     1      -1.064  20.299  47.795  1.00  0.00     0.014 C 
ATOM     26  C   UNL     1      -1.917  21.835  45.953  1.00  0.00     0.016 C 
ATOM     27  C   UNL     1      -3.350  19.038  46.371  1.00  0.00     0.063 C 
ATOM     28  C   UNL     1      -0.979  18.858  47.216  1.00  0.00     0.033 C 
ATOM     29  C   UNL     1      -2.324  18.158  47.094  1.00  0.00     0.118 C 
BRANCH  29  30
ATOM     30  O   UNL     1      -2.794  17.803  48.368  1.00  0.00    -0.393 OA
ATOM     31  H   UNL     1      -2.070  18.031  49.014  1.00  0.00     0.210 HD
ENDBRANCH  29  30
ENDBRANCH   1  11
TORSDOF 6
ENDMDL
MODEL 6
REMARK VINA RESULT:    -7.492      3.011      9.273
REMARK INTER + INTRA:         -10.941
REMARK INTER:                 -10.130
REMARK INTRA:                  -0.810
REMARK UNBOUND:                -1.040
REMARK SMILES CC[C@@H](C=C[C@@H](C)[C@H]1CC[C@H]2[C@H]3CC=C4C[C@H](O)CC[C@]4(C)[C@H]3CC[C@@]12C)C(C)C
REMARK SMILES IDX 6 1 7 2 5 3 4 4 3 5 2 6 1 7 28 8 29 9 30 10 8 11 9 12 26 13
REMARK SMILES IDX 10 14 11 15 25 16 27 17 12 18 24 19 23 20 13 21 21 22 14 23
REMARK SMILES IDX 15 24 20 25 22 26 16 27 19 28 17 29 18 30
REMARK H PARENT 18 31
REMARK Flexibility Score: inf
ROOT
ATOM      1  C   UNL     1      -1.336  20.693  47.357  1.00  0.00     0.012 C 
ATOM      2  C   UNL     1      -0.338  21.069  46.248  1.00  0.00     0.012 C 
ENDROOT
BRANCH   1   3
ATOM      3  C   UNL     1      -2.108  19.398  47.040  1.00  0.00    -0.028 C 
ATOM      4  C   UNL     1      -1.594  18.166  47.024  1.00  0.00    -0.027 C 
BRANCH   4   5
ATOM      5  C   UNL     1      -2.466  16.932  46.828  1.00  0.00     0.014 C 
BRANCH   5   6
ATOM      6  C   UNL     1      -2.360  16.008  48.074  1.00  0.00     0.004 C 
ATOM      7  C   UNL     1      -2.442  16.753  49.406  1.00  0.00     0.004 C 
ENDBRANCH   5   6
BRANCH   5   8
ATOM      8  C   UNL     1      -2.158  16.201  45.489  1.00  0.00    -0.011 C 
ATOM      9  C   UNL     1      -0.720  16.411  44.970  1.00  0.00     0.008 C 
ATOM     10  C   UNL     1      -3.223  16.537  44.425  1.00  0.00     0.008 C 
ENDBRANCH   5   8
ENDBRANCH   4   5
ENDBRANCH   1   3
BRANCH   1  11
ATOM     11  C   UNL     1      -2.263  21.932  47.691  1.00  0.00     0.002 C 
ATOM     12  C   UNL     1      -3.663  21.546  48.175  1.00  0.00     0.005 C 
ATOM     13  C   UNL     1      -1.730  23.030  48.667  1.00  0.00    -0.026 C 
ATOM     14  C   UNL     1      -4.154  22.711  49.022  1.00  0.00     0.005 C 
ATOM     15  C   UNL     1      -3.025  23.766  49.095  1.00  0.00    -0.001 C 
ATOM     16  C   UNL     1      -1.082  22.432  49.937  1.00  0.00     0.007 C 
ATOM     17  C   UNL     1      -0.723  24.001  47.951  1.00  0.00     0.012 C 
ATOM     18  C   UNL     1      -2.945  24.611  50.425  1.00  0.00     0.000 C 
ATOM     19  C   UNL     1      -0.629  23.469  50.963  1.00  0.00     0.005 C 
ATOM     20  C   UNL     1      -1.522  24.758  51.054  1.00  0.00     0.003 C 
ATOM     21  C   UNL     1      -3.976  24.259  51.497  1.00  0.00     0.031 C 
ATOM     22  C   UNL     1      -1.497  25.513  52.493  1.00  0.00    -0.008 C 
ATOM     23  C   UNL     1      -4.002  25.354  52.514  1.00  0.00    -0.027 C 
ATOM     24  C   UNL     1      -2.894  25.927  52.967  1.00  0.00    -0.065 C 
ATOM     25  C   UNL     1      -0.580  26.785  52.356  1.00  0.00     0.014 C 
ATOM     26  C   UNL     1      -0.926  24.611  53.633  1.00  0.00     0.016 C 
ATOM     27  C   UNL     1      -3.009  26.961  54.062  1.00  0.00     0.063 C 
ATOM     28  C   UNL     1      -0.806  27.964  53.345  1.00  0.00     0.033 C 
ATOM     29  C   UNL     1      -2.270  28.242  53.654  1.00  0.00     0.118 C 
BRANCH  29  30
ATOM     30  O   UNL     1      -2.888  28.832  52.542  1.00  0.00    -0.393 OA
ATOM     31  H   UNL     1      -2.227  29.467  52.150  1.00  0.00     0.210 HD
ENDBRANCH  29  30
ENDBRANCH   1  11
TORSDOF 6
ENDMDL
MODEL 7
REMARK VINA RESULT:    -7.386      4.548     10.044
REMARK INTER + INTRA:         -10.801
REMARK INTER:                  -9.916
REMARK INTRA:                  -0.885
REMARK UNBOUND:                -1.040
REMARK SMILES CC[C@@H](C=C[C@@H](C)[C@H]1CC[C@H]2[C@H]3CC=C4C[C@H](O)CC[C@]4(C)[C@H]3CC[C@@]12C)C(C)C
REMARK SMILES IDX 6 1 7 2 5 3 4 4 3 5 2 6 1 7 28 8 29 9 30 10 8 11 9 12 26 13
REMARK SMILES IDX 10 14 11 15 25 16 27 17 12 18 24 19 23 20 13 21 21 22 14 23
REMARK SMILES IDX 15 24 20 25 22 26 16 27 19 28 17 29 18 30
REMARK H PARENT 18 31
REMARK Flexibility Score: inf
ROOT
ATOM      1  C   UNL     1      -4.562  22.933  48.485  1.00  0.00     0.012 C 
ATOM      2  C   UNL     1      -5.858  22.564  47.743  1.00  0.00     0.012 C 
ENDROOT
BRANCH   1   3
ATOM      3  C   UNL     1      -3.770  21.692  48.941  1.00  0.00    -0.028 C 
ATOM      4  C   UNL     1      -3.566  20.588  48.220  1.00  0.00    -0.027 C 
BRANCH   4   5
ATOM      5  C   UNL     1      -2.658  19.465  48.707  1.00  0.00     0.014 C 
BRANCH   5   6
ATOM      6  C   UNL     1      -1.443  19.316  47.748  1.00  0.00     0.004 C 
ATOM      7  C   UNL     1      -1.395  20.370  46.642  1.00  0.00     0.004 C 
ENDBRANCH   5   6
BRANCH   5   8
ATOM      8  C   UNL     1      -3.436  18.134  48.928  1.00  0.00    -0.011 C 
ATOM      9  C   UNL     1      -2.593  16.863  48.697  1.00  0.00     0.008 C 
ATOM     10  C   UNL     1      -4.748  18.127  48.118  1.00  0.00     0.008 C 
ENDBRANCH   5   8
ENDBRANCH   4   5
ENDBRANCH   1   3
BRANCH   1  11
ATOM     11  C   UNL     1      -4.880  23.958  49.649  1.00  0.00     0.002 C 
ATOM     12  C   UNL     1      -4.025  23.758  50.902  1.00  0.00     0.005 C 
ATOM     13  C   UNL     1      -4.868  25.489  49.328  1.00  0.00    -0.026 C 
ATOM     14  C   UNL     1      -3.974  25.110  51.600  1.00  0.00     0.005 C 
ATOM     15  C   UNL     1      -4.747  26.132  50.733  1.00  0.00    -0.001 C 
ATOM     16  C   UNL     1      -3.631  25.913  48.504  1.00  0.00     0.007 C 
ATOM     17  C   UNL     1      -6.185  25.936  48.599  1.00  0.00     0.012 C 
ATOM     18  C   UNL     1      -4.227  27.621  50.780  1.00  0.00     0.000 C 
ATOM     19  C   UNL     1      -3.529  27.414  48.246  1.00  0.00     0.005 C 
ATOM     20  C   UNL     1      -4.073  28.333  49.398  1.00  0.00     0.003 C 
ATOM     21  C   UNL     1      -2.998  27.866  51.655  1.00  0.00     0.031 C 
ATOM     22  C   UNL     1      -3.404  29.812  49.474  1.00  0.00    -0.008 C 
ATOM     23  C   UNL     1      -2.854  29.337  51.876  1.00  0.00    -0.027 C 
ATOM     24  C   UNL     1      -3.037  30.221  50.903  1.00  0.00    -0.065 C 
ATOM     25  C   UNL     1      -4.434  30.839  48.871  1.00  0.00     0.014 C 
ATOM     26  C   UNL     1      -2.074  29.910  48.662  1.00  0.00     0.016 C 
ATOM     27  C   UNL     1      -2.780  31.681  51.194  1.00  0.00     0.063 C 
ATOM     28  C   UNL     1      -4.327  32.328  49.307  1.00  0.00     0.033 C 
ATOM     29  C   UNL     1      -3.995  32.521  50.779  1.00  0.00     0.118 C 
BRANCH  29  30
ATOM     30  O   UNL     1      -5.109  32.193  51.566  1.00  0.00    -0.393 OA
ATOM     31  H   UNL     1      -5.843  31.950  50.936  1.00  0.00     0.210 HD
ENDBRANCH  29  30
ENDBRANCH   1  11
TORSDOF 6
ENDMDL
MODEL 8
REMARK VINA RESULT:    -7.345      3.277      8.243
REMARK INTER + INTRA:         -10.746
REMARK INTER:                  -9.657
REMARK INTRA:                  -1.090
REMARK UNBOUND:                -1.040
REMARK SMILES CC[C@@H](C=C[C@@H](C)[C@H]1CC[C@H]2[C@H]3CC=C4C[C@H](O)CC[C@]4(C)[C@H]3CC[C@@]12C)C(C)C
REMARK SMILES IDX 6 1 7 2 5 3 4 4 3 5 2 6 1 7 28 8 29 9 30 10 8 11 9 12 26 13
REMARK SMILES IDX 10 14 11 15 25 16 27 17 12 18 24 19 23 20 13 21 21 22 14 23
REMARK SMILES IDX 15 24 20 25 22 26 16 27 19 28 17 29 18 30
REMARK H PARENT 18 31
REMARK Flexibility Score: inf
ROOT
ATOM      1  C   UNL     1       0.525  20.341  47.521  1.00  0.00     0.012 C 
ATOM      2  C   UNL     1       1.920  19.925  47.022  1.00  0.00     0.012 C 
ENDROOT
BRANCH   1   3
ATOM      3  C   UNL     1      -0.584  19.390  47.032  1.00  0.00    -0.028 C 
ATOM      4  C   UNL     1      -0.848  18.179  47.526  1.00  0.00    -0.027 C 
BRANCH   4   5
ATOM      5  C   UNL     1      -2.050  17.365  47.064  1.00  0.00     0.014 C 
BRANCH   5   6
ATOM      6  C   UNL     1      -2.646  17.991  45.771  1.00  0.00     0.004 C 
ATOM      7  C   UNL     1      -3.368  16.987  44.873  1.00  0.00     0.004 C 
ENDBRANCH   5   6
BRANCH   5   8
ATOM      8  C   UNL     1      -3.101  17.172  48.197  1.00  0.00    -0.011 C 
ATOM      9  C   UNL     1      -4.037  18.381  48.403  1.00  0.00     0.008 C 
ATOM     10  C   UNL     1      -2.417  16.726  49.506  1.00  0.00     0.008 C 
ENDBRANCH   5   8
ENDBRANCH   4   5
ENDBRANCH   1   3
BRANCH   1  11
ATOM     11  C   UNL     1       0.263  21.865  47.182  1.00  0.00     0.002 C 
ATOM     12  C   UNL     1      -0.049  22.128  45.708  1.00  0.00     0.005 C 
ATOM     13  C   UNL     1      -0.797  22.651  48.020  1.00  0.00    -0.026 C 
ATOM     14  C   UNL     1      -0.868  23.410  45.670  1.00  0.00     0.005 C 
ATOM     15  C   UNL     1      -1.097  23.881  47.126  1.00  0.00    -0.001 C 
ATOM     16  C   UNL     1      -2.114  21.863  48.201  1.00  0.00     0.007 C 
ATOM     17  C   UNL     1      -0.225  23.080  49.419  1.00  0.00     0.012 C 
ATOM     18  C   UNL     1      -2.450  24.641  47.409  1.00  0.00     0.000 C 
ATOM     19  C   UNL     1      -3.213  22.630  48.934  1.00  0.00     0.005 C 
ATOM     20  C   UNL     1      -3.239  24.178  48.676  1.00  0.00     0.003 C 
ATOM     21  C   UNL     1      -3.390  24.790  46.212  1.00  0.00     0.031 C 
ATOM     22  C   UNL     1      -4.693  24.883  48.858  1.00  0.00    -0.008 C 
ATOM     23  C   UNL     1      -4.427  25.813  46.542  1.00  0.00    -0.027 C 
ATOM     24  C   UNL     1      -5.017  25.866  47.729  1.00  0.00    -0.065 C 
ATOM     25  C   UNL     1      -4.694  25.636  50.241  1.00  0.00     0.014 C 
ATOM     26  C   UNL     1      -5.864  23.849  48.855  1.00  0.00     0.016 C 
ATOM     27  C   UNL     1      -6.121  26.876  47.945  1.00  0.00     0.063 C 
ATOM     28  C   UNL     1      -5.684  26.820  50.431  1.00  0.00     0.033 C 
ATOM     29  C   UNL     1      -5.835  27.706  49.203  1.00  0.00     0.118 C 
BRANCH  29  30
ATOM     30  O   UNL     1      -4.677  28.478  49.027  1.00  0.00    -0.393 OA
ATOM     31  H   UNL     1      -3.995  27.881  48.612  1.00  0.00     0.210 HD
ENDBRANCH  29  30
ENDBRANCH   1  11
TORSDOF 6
ENDMDL
MODEL 9
REMARK VINA RESULT:    -7.124      5.174      9.318
REMARK INTER + INTRA:         -10.455
REMARK INTER:                  -8.944
REMARK INTRA:                  -1.511
REMARK UNBOUND:                -1.040
REMARK SMILES CC[C@@H](C=C[C@@H](C)[C@H]1CC[C@H]2[C@H]3CC=C4C[C@H](O)CC[C@]4(C)[C@H]3CC[C@@]12C)C(C)C
REMARK SMILES IDX 6 1 7 2 5 3 4 4 3 5 2 6 1 7 28 8 29 9 30 10 8 11 9 12 26 13
REMARK SMILES IDX 10 14 11 15 25 16 27 17 12 18 24 19 23 20 13 21 21 22 14 23
REMARK SMILES IDX 15 24 20 25 22 26 16 27 19 28 17 29 18 30
REMARK H PARENT 18 31
REMARK Flexibility Score: inf
ROOT
ATOM      1  C   UNL     1      -4.463  23.592  48.895  1.00  0.00     0.012 C 
ATOM      2  C   UNL     1      -4.845  22.154  48.501  1.00  0.00     0.012 C 
ENDROOT
BRANCH   1   3
ATOM      3  C   UNL     1      -4.058  23.709  50.377  1.00  0.00    -0.028 C 
ATOM      4  C   UNL     1      -3.173  24.574  50.878  1.00  0.00    -0.027 C 
BRANCH   4   5
ATOM      5  C   UNL     1      -2.935  24.703  52.377  1.00  0.00     0.014 C 
BRANCH   5   6
ATOM      6  C   UNL     1      -3.600  26.005  52.907  1.00  0.00     0.004 C 
ATOM      7  C   UNL     1      -3.954  27.009  51.810  1.00  0.00     0.004 C 
ENDBRANCH   5   6
BRANCH   5   8
ATOM      8  C   UNL     1      -1.426  24.587  52.745  1.00  0.00    -0.011 C 
ATOM      9  C   UNL     1      -0.922  23.136  52.893  1.00  0.00     0.008 C 
ATOM     10  C   UNL     1      -1.096  25.454  53.977  1.00  0.00     0.008 C 
ENDBRANCH   5   8
ENDBRANCH   4   5
ENDBRANCH   1   3
BRANCH   1  11
ATOM     11  C   UNL     1      -5.609  24.593  48.458  1.00  0.00     0.002 C 
ATOM     12  C   UNL     1      -6.399  25.180  49.630  1.00  0.00     0.005 C 
ATOM     13  C   UNL     1      -5.248  25.783  47.510  1.00  0.00    -0.026 C 
ATOM     14  C   UNL     1      -6.954  26.510  49.142  1.00  0.00     0.005 C 
ATOM     15  C   UNL     1      -6.446  26.748  47.701  1.00  0.00    -0.001 C 
ATOM     16  C   UNL     1      -3.966  26.525  47.950  1.00  0.00     0.007 C 
ATOM     17  C   UNL     1      -5.117  25.313  46.017  1.00  0.00     0.012 C 
ATOM     18  C   UNL     1      -6.210  28.251  47.283  1.00  0.00     0.000 C 
ATOM     19  C   UNL     1      -3.626  27.753  47.107  1.00  0.00     0.005 C 
ATOM     20  C   UNL     1      -4.860  28.551  46.554  1.00  0.00     0.003 C 
ATOM     21  C   UNL     1      -6.481  29.291  48.370  1.00  0.00     0.031 C 
ATOM     22  C   UNL     1      -4.588  30.127  46.266  1.00  0.00    -0.008 C 
ATOM     23  C   UNL     1      -6.560  30.640  47.732  1.00  0.00    -0.027 C 
ATOM     24  C   UNL     1      -5.716  31.025  46.783  1.00  0.00    -0.065 C 
ATOM     25  C   UNL     1      -4.427  30.312  44.710  1.00  0.00     0.014 C 
ATOM     26  C   UNL     1      -3.292  30.649  46.963  1.00  0.00     0.016 C 
ATOM     27  C   UNL     1      -5.812  32.440  46.259  1.00  0.00     0.063 C 
ATOM     28  C   UNL     1      -4.716  31.715  44.104  1.00  0.00     0.033 C 
ATOM     29  C   UNL     1      -5.906  32.428  44.729  1.00  0.00     0.118 C 
BRANCH  29  30
ATOM     30  O   UNL     1      -7.099  31.815  44.316  1.00  0.00    -0.393 OA
ATOM     31  H   UNL     1      -7.776  32.001  45.024  1.00  0.00     0.210 HD
ENDBRANCH  29  30
ENDBRANCH   1  11
TORSDOF 6
ENDMDL
