MODEL 1
REMARK VINA RESULT:    -7.023      0.000      0.000
REMARK INTER + INTRA:         -13.489
REMARK INTER:                 -12.771
REMARK INTRA:                  -0.718
REMARK UNBOUND:                -0.718
REMARK SMILES CCCCCCCCCCCCCCCC(=O)[O-]
REMARK SMILES IDX 9 1 10 2 11 3 12 4 13 5 14 6 15 7 16 8 17 9 18 10 8 11 7 12
REMARK SMILES IDX 6 13 5 14 4 15 3 16 2 17 1 18
REMARK H PARENT
REMARK Flexibility Score: inf
ROOT
ATOM      1  C   UNL     1      -5.894 -12.450 -35.027  1.00  0.00     0.000 C 
ENDROOT
BRANCH   1   2
ATOM      2  C   UNL     1      -5.887 -11.094 -35.757  1.00  0.00     0.000 C 
BRANCH   2   3
ATOM      3  C   UNL     1      -5.962 -11.236 -37.287  1.00  0.00     0.000 C 
BRANCH   3   4
ATOM      4  C   UNL     1      -4.611 -10.968 -37.971  1.00  0.00     0.000 C 
BRANCH   4   5
ATOM      5  C   UNL     1      -4.433  -9.497 -38.376  1.00  0.00     0.000 C 
BRANCH   5   6
ATOM      6  C   UNL     1      -3.069  -8.963 -37.913  1.00  0.00     0.006 C 
BRANCH   6   7
ATOM      7  C   UNL     1      -2.855  -9.143 -36.404  1.00  0.00     0.053 C 
BRANCH   7   8
ATOM      8  C   UNL     1      -2.509  -7.849 -35.733  1.00  0.00     0.041 C 
ATOM      9  O   UNL     1      -3.045  -7.542 -34.636  1.00  0.00    -0.550 OA
ATOM     10  O   UNL     1      -1.572  -6.998 -36.302  1.00  0.00    -0.550 OA
ENDBRANCH   7   8
ENDBRANCH   6   7
ENDBRANCH   5   6
ENDBRANCH   4   5
ENDBRANCH   3   4
ENDBRANCH   2   3
ENDBRANCH   1   2
BRANCH   1  11
ATOM     11  C   UNL     1      -5.283 -12.440 -33.614  1.00  0.00     0.000 C 
BRANCH  11  12
ATOM     12  C   UNL     1      -5.956 -13.444 -32.662  1.00  0.00    -0.000 C 
BRANCH  12  13
ATOM     13  C   UNL     1      -5.241 -13.541 -31.305  1.00  0.00    -0.000 C 
BRANCH  13  14
ATOM     14  C   UNL     1      -5.156 -12.188 -30.580  1.00  0.00    -0.000 C 
BRANCH  14  15
ATOM     15  C   UNL     1      -5.177 -12.378 -29.059  1.00  0.00    -0.000 C 
BRANCH  15  16
ATOM     16  C   UNL     1      -5.191 -11.027 -28.335  1.00  0.00    -0.000 C 
BRANCH  16  17
ATOM     17  C   UNL     1      -4.279 -10.016 -29.040  1.00  0.00    -0.003 C 
ATOM     18  C   UNL     1      -3.456  -9.220 -28.031  1.00  0.00     0.004 C 
ENDBRANCH  16  17
ENDBRANCH  15  16
ENDBRANCH  14  15
ENDBRANCH  13  14
ENDBRANCH  12  13
ENDBRANCH  11  12
ENDBRANCH   1  11
TORSDOF 14
ENDMDL
MODEL 2
REMARK VINA RESULT:    -6.951      2.692      7.273
REMARK INTER + INTRA:         -13.358
REMARK INTER:                 -12.511
REMARK INTRA:                  -0.847
REMARK UNBOUND:                -0.718
REMARK SMILES CCCCCCCCCCCCCCCC(=O)[O-]
REMARK SMILES IDX 9 1 10 2 11 3 12 4 13 5 14 6 15 7 16 8 17 9 18 10 8 11 7 12
REMARK SMILES IDX 6 13 5 14 4 15 3 16 2 17 1 18
REMARK H PARENT
REMARK Flexibility Score: inf
ROOT
ATOM      1  C   UNL     1      -5.854 -12.465 -35.041  1.00  0.00     0.000 C 
ENDROOT
BRANCH   1   2
ATOM      2  C   UNL     1      -5.167 -12.375 -33.665  1.00  0.00     0.000 C 
BRANCH   2   3
ATOM      3  C   UNL     1      -5.809 -13.294 -32.612  1.00  0.00     0.000 C 
BRANCH   3   4
ATOM      4  C   UNL     1      -5.094 -13.225 -31.254  1.00  0.00     0.000 C 
BRANCH   4   5
ATOM      5  C   UNL     1      -5.977 -12.628 -30.148  1.00  0.00     0.000 C 
BRANCH   5   6
ATOM      6  C   UNL     1      -5.120 -12.076 -28.999  1.00  0.00     0.006 C 
BRANCH   6   7
ATOM      7  C   UNL     1      -4.750 -10.601 -29.207  1.00  0.00     0.053 C 
BRANCH   7   8
ATOM      8  C   UNL     1      -4.280  -9.961 -27.937  1.00  0.00     0.041 C 
ATOM      9  O   UNL     1      -4.798 -10.284 -26.836  1.00  0.00    -0.550 OA
ATOM     10  O   UNL     1      -3.248  -9.033 -27.965  1.00  0.00    -0.550 OA
ENDBRANCH   7   8
ENDBRANCH   6   7
ENDBRANCH   5   6
ENDBRANCH   4   5
ENDBRANCH   3   4
ENDBRANCH   2   3
ENDBRANCH   1   2
BRANCH   1  11
ATOM     11  C   UNL     1      -6.261 -11.116 -35.662  1.00  0.00     0.000 C 
BRANCH  11  12
ATOM     12  C   UNL     1      -6.252 -11.138 -37.200  1.00  0.00    -0.000 C 
BRANCH  12  13
ATOM     13  C   UNL     1      -4.830 -11.216 -37.780  1.00  0.00    -0.000 C 
BRANCH  13  14
ATOM     14  C   UNL     1      -4.415  -9.927 -38.508  1.00  0.00    -0.000 C 
BRANCH  14  15
ATOM     15  C   UNL     1      -3.018  -9.473 -38.066  1.00  0.00    -0.000 C 
BRANCH  15  16
ATOM     16  C   UNL     1      -3.107  -8.348 -37.028  1.00  0.00    -0.000 C 
BRANCH  16  17
ATOM     17  C   UNL     1      -2.934  -8.897 -35.607  1.00  0.00    -0.003 C 
ATOM     18  C   UNL     1      -2.832  -7.765 -34.588  1.00  0.00     0.004 C 
ENDBRANCH  16  17
ENDBRANCH  15  16
ENDBRANCH  14  15
ENDBRANCH  13  14
ENDBRANCH  12  13
ENDBRANCH  11  12
ENDBRANCH   1  11
TORSDOF 14
ENDMDL
MODEL 3
REMARK VINA RESULT:    -6.813      3.458      7.947
REMARK INTER + INTRA:         -13.107
REMARK INTER:                 -12.152
REMARK INTRA:                  -0.955
REMARK UNBOUND:                -0.718
REMARK SMILES CCCCCCCCCCCCCCCC(=O)[O-]
REMARK SMILES IDX 9 1 10 2 11 3 12 4 13 5 14 6 15 7 16 8 17 9 18 10 8 11 7 12
REMARK SMILES IDX 6 13 5 14 4 15 3 16 2 17 1 18
REMARK H PARENT
REMARK Flexibility Score: inf
ROOT
ATOM      1  C   UNL     1      -3.246  -8.012 -34.159  1.00  0.00     0.000 C 
ENDROOT
BRANCH   1   2
ATOM      2  C   UNL     1      -2.452  -6.756 -33.753  1.00  0.00     0.000 C 
BRANCH   2   3
ATOM      3  C   UNL     1      -2.634  -6.383 -32.272  1.00  0.00     0.000 C 
BRANCH   3   4
ATOM      4  C   UNL     1      -3.519  -7.386 -31.516  1.00  0.00     0.000 C 
BRANCH   4   5
ATOM      5  C   UNL     1      -2.955  -7.752 -30.135  1.00  0.00     0.000 C 
BRANCH   5   6
ATOM      6  C   UNL     1      -3.720  -8.936 -29.525  1.00  0.00     0.006 C 
BRANCH   6   7
ATOM      7  C   UNL     1      -3.469  -9.077 -28.017  1.00  0.00     0.053 C 
BRANCH   7   8
ATOM      8  C   UNL     1      -4.411 -10.055 -27.385  1.00  0.00     0.041 C 
ATOM      9  O   UNL     1      -4.551 -10.081 -26.134  1.00  0.00    -0.550 OA
ATOM     10  O   UNL     1      -5.158 -10.915 -28.179  1.00  0.00    -0.550 OA
ENDBRANCH   7   8
ENDBRANCH   6   7
ENDBRANCH   5   6
ENDBRANCH   4   5
ENDBRANCH   3   4
ENDBRANCH   2   3
ENDBRANCH   1   2
BRANCH   1  11
ATOM     11  C   UNL     1      -2.680  -8.789 -35.361  1.00  0.00     0.000 C 
BRANCH  11  12
ATOM     12  C   UNL     1      -3.175  -8.247 -36.713  1.00  0.00    -0.000 C 
BRANCH  12  13
ATOM     13  C   UNL     1      -2.969  -9.249 -37.861  1.00  0.00    -0.000 C 
BRANCH  13  14
ATOM     14  C   UNL     1      -4.293  -9.712 -38.489  1.00  0.00    -0.000 C 
BRANCH  14  15
ATOM     15  C   UNL     1      -4.713 -11.079 -37.937  1.00  0.00    -0.000 C 
BRANCH  15  16
ATOM     16  C   UNL     1      -6.164 -11.052 -37.444  1.00  0.00    -0.000 C 
BRANCH  16  17
ATOM     17  C   UNL     1      -6.329 -11.895 -36.174  1.00  0.00    -0.003 C 
ATOM     18  C   UNL     1      -5.483 -11.340 -35.030  1.00  0.00     0.004 C 
ENDBRANCH  16  17
ENDBRANCH  15  16
ENDBRANCH  14  15
ENDBRANCH  13  14
ENDBRANCH  12  13
ENDBRANCH  11  12
ENDBRANCH   1  11
TORSDOF 14
ENDMDL
MODEL 4
REMARK VINA RESULT:    -6.752      2.601      7.485
REMARK INTER + INTRA:         -12.996
REMARK INTER:                 -12.243
REMARK INTRA:                  -0.753
REMARK UNBOUND:                -0.718
REMARK SMILES CCCCCCCCCCCCCCCC(=O)[O-]
REMARK SMILES IDX 9 1 10 2 11 3 12 4 13 5 14 6 15 7 16 8 17 9 18 10 8 11 7 12
REMARK SMILES IDX 6 13 5 14 4 15 3 16 2 17 1 18
REMARK H PARENT
REMARK Flexibility Score: inf
ROOT
ATOM      1  C   UNL     1      -5.129 -12.397 -34.014  1.00  0.00     0.000 C 
ENDROOT
BRANCH   1   2
ATOM      2  C   UNL     1      -6.103 -13.300 -33.234  1.00  0.00     0.000 C 
BRANCH   2   3
ATOM      3  C   UNL     1      -5.510 -13.823 -31.914  1.00  0.00     0.000 C 
BRANCH   3   4
ATOM      4  C   UNL     1      -5.042 -12.689 -30.987  1.00  0.00     0.000 C 
BRANCH   4   5
ATOM      5  C   UNL     1      -5.889 -12.580 -29.710  1.00  0.00     0.000 C 
BRANCH   5   6
ATOM      6  C   UNL     1      -5.124 -11.833 -28.607  1.00  0.00     0.006 C 
BRANCH   6   7
ATOM      7  C   UNL     1      -4.652 -10.446 -29.064  1.00  0.00     0.053 C 
BRANCH   7   8
ATOM      8  C   UNL     1      -4.061  -9.659 -27.935  1.00  0.00     0.041 C 
ATOM      9  O   UNL     1      -3.282  -8.699 -28.172  1.00  0.00    -0.550 OA
ATOM     10  O   UNL     1      -4.395  -9.965 -26.623  1.00  0.00    -0.550 OA
ENDBRANCH   7   8
ENDBRANCH   6   7
ENDBRANCH   5   6
ENDBRANCH   4   5
ENDBRANCH   3   4
ENDBRANCH   2   3
ENDBRANCH   1   2
BRANCH   1  11
ATOM     11  C   UNL     1      -5.788 -11.419 -35.003  1.00  0.00     0.000 C 
BRANCH  11  12
ATOM     12  C   UNL     1      -6.325 -12.113 -36.267  1.00  0.00    -0.000 C 
BRANCH  12  13
ATOM     13  C   UNL     1      -6.146 -11.258 -37.531  1.00  0.00    -0.000 C 
BRANCH  13  14
ATOM     14  C   UNL     1      -4.669 -11.058 -37.908  1.00  0.00    -0.000 C 
BRANCH  14  15
ATOM     15  C   UNL     1      -4.411  -9.619 -38.370  1.00  0.00    -0.000 C 
BRANCH  15  16
ATOM     16  C   UNL     1      -3.006  -9.154 -37.967  1.00  0.00    -0.000 C 
BRANCH  16  17
ATOM     17  C   UNL     1      -2.933  -8.869 -36.463  1.00  0.00    -0.003 C 
ATOM     18  C   UNL     1      -2.135  -7.598 -36.181  1.00  0.00     0.004 C 
ENDBRANCH  16  17
ENDBRANCH  15  16
ENDBRANCH  14  15
ENDBRANCH  13  14
ENDBRANCH  12  13
ENDBRANCH  11  12
ENDBRANCH   1  11
TORSDOF 14
ENDMDL
MODEL 5
REMARK VINA RESULT:    -6.749      2.838      4.794
REMARK INTER + INTRA:         -12.990
REMARK INTER:                 -12.299
REMARK INTRA:                  -0.691
REMARK UNBOUND:                -0.718
REMARK SMILES CCCCCCCCCCCCCCCC(=O)[O-]
REMARK SMILES IDX 9 1 10 2 11 3 12 4 13 5 14 6 15 7 16 8 17 9 18 10 8 11 7 12
REMARK SMILES IDX 6 13 5 14 4 15 3 16 2 17 1 18
REMARK H PARENT
REMARK Flexibility Score: inf
ROOT
ATOM      1  C   UNL     1      -2.598  -7.501 -35.246  1.00  0.00     0.000 C 
ENDROOT
BRANCH   1   2
ATOM      2  C   UNL     1      -2.377  -8.645 -36.253  1.00  0.00     0.000 C 
BRANCH   2   3
ATOM      3  C   UNL     1      -3.038  -8.380 -37.617  1.00  0.00     0.000 C 
BRANCH   3   4
ATOM      4  C   UNL     1      -3.346  -9.675 -38.385  1.00  0.00     0.000 C 
BRANCH   4   5
ATOM      5  C   UNL     1      -4.848  -9.999 -38.422  1.00  0.00     0.000 C 
BRANCH   5   6
ATOM      6  C   UNL     1      -5.142 -11.322 -37.701  1.00  0.00     0.006 C 
BRANCH   6   7
ATOM      7  C   UNL     1      -5.309 -11.134 -36.187  1.00  0.00     0.053 C 
BRANCH   7   8
ATOM      8  C   UNL     1      -6.106 -12.244 -35.573  1.00  0.00     0.041 C 
ATOM      9  O   UNL     1      -6.963 -12.862 -36.258  1.00  0.00    -0.550 OA
ATOM     10  O   UNL     1      -5.878 -12.619 -34.255  1.00  0.00    -0.550 OA
ENDBRANCH   7   8
ENDBRANCH   6   7
ENDBRANCH   5   6
ENDBRANCH   4   5
ENDBRANCH   3   4
ENDBRANCH   2   3
ENDBRANCH   1   2
BRANCH   1  11
ATOM     11  C   UNL     1      -3.233  -7.916 -33.906  1.00  0.00     0.000 C 
BRANCH  11  12
ATOM     12  C   UNL     1      -2.841  -6.988 -32.743  1.00  0.00    -0.000 C 
BRANCH  12  13
ATOM     13  C   UNL     1      -3.478  -7.412 -31.410  1.00  0.00    -0.000 C 
BRANCH  13  14
ATOM     14  C   UNL     1      -2.482  -7.378 -30.240  1.00  0.00    -0.000 C 
BRANCH  14  15
ATOM     15  C   UNL     1      -3.165  -7.782 -28.927  1.00  0.00    -0.000 C 
BRANCH  15  16
ATOM     16  C   UNL     1      -3.577  -9.258 -28.952  1.00  0.00    -0.000 C 
BRANCH  16  17
ATOM     17  C   UNL     1      -3.998  -9.734 -27.557  1.00  0.00    -0.003 C 
ATOM     18  C   UNL     1      -5.106 -10.781 -27.642  1.00  0.00     0.004 C 
ENDBRANCH  16  17
ENDBRANCH  15  16
ENDBRANCH  14  15
ENDBRANCH  13  14
ENDBRANCH  12  13
ENDBRANCH  11  12
ENDBRANCH   1  11
TORSDOF 14
ENDMDL
MODEL 6
REMARK VINA RESULT:    -6.475      2.408      4.605
REMARK INTER + INTRA:         -12.493
REMARK INTER:                 -11.548
REMARK INTRA:                  -0.945
REMARK UNBOUND:                -0.718
REMARK SMILES CCCCCCCCCCCCCCCC(=O)[O-]
REMARK SMILES IDX 9 1 10 2 11 3 12 4 13 5 14 6 15 7 16 8 17 9 18 10 8 11 7 12
REMARK SMILES IDX 6 13 5 14 4 15 3 16 2 17 1 18
REMARK H PARENT
REMARK Flexibility Score: inf
ROOT
ATOM      1  C   UNL     1      -4.511  -9.937 -38.663  1.00  0.00     0.000 C 
ENDROOT
BRANCH   1   2
ATOM      2  C   UNL     1      -3.864  -8.757 -37.914  1.00  0.00     0.000 C 
BRANCH   2   3
ATOM      3  C   UNL     1      -2.331  -8.866 -37.832  1.00  0.00     0.000 C 
BRANCH   3   4
ATOM      4  C   UNL     1      -1.807  -8.731 -36.394  1.00  0.00     0.000 C 
BRANCH   4   5
ATOM      5  C   UNL     1      -2.937  -8.623 -35.358  1.00  0.00     0.000 C 
BRANCH   5   6
ATOM      6  C   UNL     1      -2.706  -7.431 -34.418  1.00  0.00     0.006 C 
BRANCH   6   7
ATOM      7  C   UNL     1      -3.598  -7.494 -33.170  1.00  0.00     0.053 C 
BRANCH   7   8
ATOM      8  C   UNL     1      -2.927  -6.890 -31.975  1.00  0.00     0.041 C 
ATOM      9  O   UNL     1      -2.203  -5.868 -32.105  1.00  0.00    -0.550 OA
ATOM     10  O   UNL     1      -3.127  -7.434 -30.714  1.00  0.00    -0.550 OA
ENDBRANCH   7   8
ENDBRANCH   6   7
ENDBRANCH   5   6
ENDBRANCH   4   5
ENDBRANCH   3   4
ENDBRANCH   2   3
ENDBRANCH   1   2
BRANCH   1  11
ATOM     11  C   UNL     1      -4.873 -11.152 -37.790  1.00  0.00     0.000 C 
BRANCH  11  12
ATOM     12  C   UNL     1      -6.342 -11.145 -37.331  1.00  0.00    -0.000 C 
BRANCH  12  13
ATOM     13  C   UNL     1      -6.599 -12.111 -36.163  1.00  0.00    -0.000 C 
BRANCH  13  14
ATOM     14  C   UNL     1      -5.549 -11.986 -35.048  1.00  0.00    -0.000 C 
BRANCH  14  15
ATOM     15  C   UNL     1      -5.823 -12.989 -33.921  1.00  0.00    -0.000 C 
BRANCH  15  16
ATOM     16  C   UNL     1      -5.070 -12.602 -32.643  1.00  0.00    -0.000 C 
BRANCH  16  17
ATOM     17  C   UNL     1      -5.400 -13.567 -31.498  1.00  0.00    -0.003 C 
ATOM     18  C   UNL     1      -6.493 -14.552 -31.904  1.00  0.00     0.004 C 
ENDBRANCH  16  17
ENDBRANCH  15  16
ENDBRANCH  14  15
ENDBRANCH  13  14
ENDBRANCH  12  13
ENDBRANCH  11  12
ENDBRANCH   1  11
TORSDOF 14
ENDMDL
MODEL 7
REMARK VINA RESULT:    -6.405      1.653      6.713
REMARK INTER + INTRA:         -12.364
REMARK INTER:                 -11.720
REMARK INTRA:                  -0.645
REMARK UNBOUND:                -0.718
REMARK SMILES CCCCCCCCCCCCCCCC(=O)[O-]
REMARK SMILES IDX 9 1 10 2 11 3 12 4 13 5 14 6 15 7 16 8 17 9 18 10 8 11 7 12
REMARK SMILES IDX 6 13 5 14 4 15 3 16 2 17 1 18
REMARK H PARENT
REMARK Flexibility Score: inf
ROOT
ATOM      1  C   UNL     1      -5.805 -12.358 -29.965  1.00  0.00     0.000 C 
ENDROOT
BRANCH   1   2
ATOM      2  C   UNL     1      -5.115 -12.129 -28.608  1.00  0.00     0.000 C 
BRANCH   2   3
ATOM      3  C   UNL     1      -5.043 -10.643 -28.215  1.00  0.00     0.000 C 
BRANCH   3   4
ATOM      4  C   UNL     1      -4.289  -9.794 -29.250  1.00  0.00     0.000 C 
BRANCH   4   5
ATOM      5  C   UNL     1      -3.356  -8.759 -28.603  1.00  0.00     0.000 C 
BRANCH   5   6
ATOM      6  C   UNL     1      -2.644  -7.918 -29.672  1.00  0.00     0.006 C 
BRANCH   6   7
ATOM      7  C   UNL     1      -3.526  -7.674 -30.904  1.00  0.00     0.053 C 
BRANCH   7   8
ATOM      8  C   UNL     1      -2.836  -6.820 -31.923  1.00  0.00     0.041 C 
ATOM      9  O   UNL     1      -2.198  -5.796 -31.563  1.00  0.00    -0.550 OA
ATOM     10  O   UNL     1      -2.869  -7.173 -33.265  1.00  0.00    -0.550 OA
ENDBRANCH   7   8
ENDBRANCH   6   7
ENDBRANCH   5   6
ENDBRANCH   4   5
ENDBRANCH   3   4
ENDBRANCH   2   3
ENDBRANCH   1   2
BRANCH   1  11
ATOM     11  C   UNL     1      -5.121 -13.383 -30.887  1.00  0.00     0.000 C 
BRANCH  11  12
ATOM     12  C   UNL     1      -5.748 -13.440 -32.291  1.00  0.00    -0.000 C 
BRANCH  12  13
ATOM     13  C   UNL     1      -5.097 -12.448 -33.268  1.00  0.00    -0.000 C 
BRANCH  13  14
ATOM     14  C   UNL     1      -5.810 -12.401 -34.629  1.00  0.00    -0.000 C 
BRANCH  14  15
ATOM     15  C   UNL     1      -5.470 -11.109 -35.382  1.00  0.00    -0.000 C 
BRANCH  15  16
ATOM     16  C   UNL     1      -6.034 -11.137 -36.807  1.00  0.00    -0.000 C 
BRANCH  16  17
ATOM     17  C   UNL     1      -4.915 -11.323 -37.838  1.00  0.00    -0.003 C 
ATOM     18  C   UNL     1      -4.425  -9.978 -38.369  1.00  0.00     0.004 C 
ENDBRANCH  16  17
ENDBRANCH  15  16
ENDBRANCH  14  15
ENDBRANCH  13  14
ENDBRANCH  12  13
ENDBRANCH  11  12
ENDBRANCH   1  11
TORSDOF 14
ENDMDL
MODEL 8
REMARK VINA RESULT:    -6.283      3.445      6.032
REMARK INTER + INTRA:         -12.143
REMARK INTER:                 -11.132
REMARK INTRA:                  -1.011
REMARK UNBOUND:                -0.718
REMARK SMILES CCCCCCCCCCCCCCCC(=O)[O-]
REMARK SMILES IDX 9 1 10 2 11 3 12 4 13 5 14 6 15 7 16 8 17 9 18 10 8 11 7 12
REMARK SMILES IDX 6 13 5 14 4 15 3 16 2 17 1 18
REMARK H PARENT
REMARK Flexibility Score: inf
ROOT
ATOM      1  C   UNL     1      -3.937 -10.104 -38.779  1.00  0.00     0.000 C 
ENDROOT
BRANCH   1   2
ATOM      2  C   UNL     1      -4.668 -11.205 -37.987  1.00  0.00     0.000 C 
BRANCH   2   3
ATOM      3  C   UNL     1      -6.105 -10.813 -37.601  1.00  0.00     0.000 C 
BRANCH   3   4
ATOM      4  C   UNL     1      -6.610 -11.570 -36.362  1.00  0.00     0.000 C 
BRANCH   4   5
ATOM      5  C   UNL     1      -5.633 -11.491 -35.180  1.00  0.00     0.000 C 
BRANCH   5   6
ATOM      6  C   UNL     1      -5.821 -12.684 -34.231  1.00  0.00     0.006 C 
BRANCH   6   7
ATOM      7  C   UNL     1      -5.063 -12.502 -32.909  1.00  0.00     0.053 C 
BRANCH   7   8
ATOM      8  C   UNL     1      -5.526 -13.469 -31.864  1.00  0.00     0.041 C 
ATOM      9  O   UNL     1      -5.114 -13.366 -30.678  1.00  0.00    -0.550 OA
ATOM     10  O   UNL     1      -6.438 -14.463 -32.191  1.00  0.00    -0.550 OA
ENDBRANCH   7   8
ENDBRANCH   6   7
ENDBRANCH   5   6
ENDBRANCH   4   5
ENDBRANCH   3   4
ENDBRANCH   2   3
ENDBRANCH   1   2
BRANCH   1  11
ATOM     11  C   UNL     1      -3.616  -8.825 -37.985  1.00  0.00     0.000 C 
BRANCH  11  12
ATOM     12  C   UNL     1      -2.162  -8.780 -37.483  1.00  0.00    -0.000 C 
BRANCH  12  13
ATOM     13  C   UNL     1      -2.069  -8.731 -35.950  1.00  0.00    -0.000 C 
BRANCH  13  14
ATOM     14  C   UNL     1      -3.255  -7.994 -35.307  1.00  0.00    -0.000 C 
BRANCH  14  15
ATOM     15  C   UNL     1      -2.797  -7.163 -34.103  1.00  0.00    -0.000 C 
BRANCH  15  16
ATOM     16  C   UNL     1      -3.342  -7.743 -32.793  1.00  0.00    -0.000 C 
BRANCH  16  17
ATOM     17  C   UNL     1      -3.128  -6.768 -31.629  1.00  0.00    -0.003 C 
ATOM     18  C   UNL     1      -2.030  -5.758 -31.951  1.00  0.00     0.004 C 
ENDBRANCH  16  17
ENDBRANCH  15  16
ENDBRANCH  14  15
ENDBRANCH  13  14
ENDBRANCH  12  13
ENDBRANCH  11  12
ENDBRANCH   1  11
TORSDOF 14
ENDMDL
MODEL 9
REMARK VINA RESULT:    -6.214      2.277      4.490
REMARK INTER + INTRA:         -12.018
REMARK INTER:                 -11.299
REMARK INTRA:                  -0.720
REMARK UNBOUND:                -0.718
REMARK SMILES CCCCCCCCCCCCCCCC(=O)[O-]
REMARK SMILES IDX 9 1 10 2 11 3 12 4 13 5 14 6 15 7 16 8 17 9 18 10 8 11 7 12
REMARK SMILES IDX 6 13 5 14 4 15 3 16 2 17 1 18
REMARK H PARENT
REMARK Flexibility Score: inf
ROOT
ATOM      1  C   UNL     1      -3.585  -7.364 -33.209  1.00  0.00     0.000 C 
ENDROOT
BRANCH   1   2
ATOM      2  C   UNL     1      -2.583  -7.339 -34.378  1.00  0.00     0.000 C 
BRANCH   2   3
ATOM      3  C   UNL     1      -2.756  -8.526 -35.342  1.00  0.00     0.000 C 
BRANCH   3   4
ATOM      4  C   UNL     1      -2.719  -8.098 -36.817  1.00  0.00     0.000 C 
BRANCH   4   5
ATOM      5  C   UNL     1      -2.819  -9.288 -37.783  1.00  0.00     0.000 C 
BRANCH   5   6
ATOM      6  C   UNL     1      -4.281  -9.565 -38.163  1.00  0.00     0.006 C 
BRANCH   6   7
ATOM      7  C   UNL     1      -4.690 -11.018 -37.884  1.00  0.00     0.053 C 
BRANCH   7   8
ATOM      8  C   UNL     1      -5.615 -11.120 -36.710  1.00  0.00     0.041 C 
ATOM      9  O   UNL     1      -6.847 -11.310 -36.889  1.00  0.00    -0.550 OA
ATOM     10  O   UNL     1      -5.113 -11.037 -35.418  1.00  0.00    -0.550 OA
ENDBRANCH   7   8
ENDBRANCH   6   7
ENDBRANCH   5   6
ENDBRANCH   4   5
ENDBRANCH   3   4
ENDBRANCH   2   3
ENDBRANCH   1   2
BRANCH   1  11
ATOM     11  C   UNL     1      -2.989  -7.057 -31.824  1.00  0.00     0.000 C 
BRANCH  11  12
ATOM     12  C   UNL     1      -3.557  -7.957 -30.713  1.00  0.00    -0.000 C 
BRANCH  12  13
ATOM     13  C   UNL     1      -2.804  -7.798 -29.382  1.00  0.00    -0.000 C 
BRANCH  13  14
ATOM     14  C   UNL     1      -3.201  -8.860 -28.345  1.00  0.00    -0.000 C 
BRANCH  14  15
ATOM     15  C   UNL     1      -4.216  -9.848 -28.933  1.00  0.00    -0.000 C 
BRANCH  15  16
ATOM     16  C   UNL     1      -4.769 -10.781 -27.849  1.00  0.00    -0.000 C 
BRANCH  16  17
ATOM     17  C   UNL     1      -5.558 -11.939 -28.471  1.00  0.00    -0.003 C 
ATOM     18  C   UNL     1      -5.137 -12.178 -29.918  1.00  0.00     0.004 C 
ENDBRANCH  16  17
ENDBRANCH  15  16
ENDBRANCH  14  15
ENDBRANCH  13  14
ENDBRANCH  12  13
ENDBRANCH  11  12
ENDBRANCH   1  11
TORSDOF 14
ENDMDL
