MODEL 1
REMARK VINA RESULT:    -4.688      0.000      0.000
REMARK INTER + INTRA:          -9.423
REMARK INTER:                  -8.525
REMARK INTRA:                  -0.898
REMARK UNBOUND:                -0.898
REMARK SMILES CCCCCCCCCCCCCCCC(=O)[O-]
REMARK SMILES IDX 9 1 10 2 11 3 12 4 13 5 14 6 15 7 16 8 17 9 18 10 8 11 7 12
REMARK SMILES IDX 6 13 5 14 4 15 3 16 2 17 1 18
REMARK H PARENT
REMARK Flexibility Score: inf
ROOT
ATOM      1  C   UNL     1      19.107  24.752   4.469  1.00  0.00     0.000 C 
ENDROOT
BRANCH   1   2
ATOM      2  C   UNL     1      19.269  25.495   3.131  1.00  0.00     0.000 C 
BRANCH   2   3
ATOM      3  C   UNL     1      19.698  24.560   1.988  1.00  0.00     0.000 C 
BRANCH   3   4
ATOM      4  C   UNL     1      18.919  24.817   0.686  1.00  0.00     0.000 C 
BRANCH   4   5
ATOM      5  C   UNL     1      18.585  26.312   0.490  1.00  0.00     0.000 C 
BRANCH   5   6
ATOM      6  C   UNL     1      17.527  26.568  -0.600  1.00  0.00     0.006 C 
BRANCH   6   7
ATOM      7  C   UNL     1      17.103  25.308  -1.369  1.00  0.00     0.053 C 
BRANCH   7   8
ATOM      8  C   UNL     1      15.683  25.392  -1.840  1.00  0.00     0.041 C 
ATOM      9  O   UNL     1      14.742  25.440  -1.005  1.00  0.00    -0.550 OA
ATOM     10  O   UNL     1      15.399  25.439  -3.198  1.00  0.00    -0.550 OA
ENDBRANCH   7   8
ENDBRANCH   6   7
ENDBRANCH   5   6
ENDBRANCH   4   5
ENDBRANCH   3   4
ENDBRANCH   2   3
ENDBRANCH   1   2
BRANCH   1  11
ATOM     11  C   UNL     1      18.352  23.420   4.317  1.00  0.00     0.000 C 
BRANCH  11  12
ATOM     12  C   UNL     1      17.160  23.304   5.284  1.00  0.00    -0.000 C 
BRANCH  12  13
ATOM     13  C   UNL     1      16.514  21.908   5.260  1.00  0.00    -0.000 C 
BRANCH  13  14
ATOM     14  C   UNL     1      15.083  21.908   5.823  1.00  0.00    -0.000 C 
BRANCH  14  15
ATOM     15  C   UNL     1      14.022  22.161   4.739  1.00  0.00    -0.000 C 
BRANCH  15  16
ATOM     16  C   UNL     1      13.268  23.483   4.943  1.00  0.00    -0.000 C 
BRANCH  16  17
ATOM     17  C   UNL     1      12.183  23.665   3.874  1.00  0.00    -0.003 C 
ATOM     18  C   UNL     1      12.118  22.458   2.943  1.00  0.00     0.004 C 
ENDBRANCH  16  17
ENDBRANCH  15  16
ENDBRANCH  14  15
ENDBRANCH  13  14
ENDBRANCH  12  13
ENDBRANCH  11  12
ENDBRANCH   1  11
TORSDOF 14
ENDMDL
MODEL 2
REMARK VINA RESULT:    -4.401      2.393      6.332
REMARK INTER + INTRA:          -8.901
REMARK INTER:                  -7.941
REMARK INTRA:                  -0.960
REMARK UNBOUND:                -0.898
REMARK SMILES CCCCCCCCCCCCCCCC(=O)[O-]
REMARK SMILES IDX 9 1 10 2 11 3 12 4 13 5 14 6 15 7 16 8 17 9 18 10 8 11 7 12
REMARK SMILES IDX 6 13 5 14 4 15 3 16 2 17 1 18
REMARK H PARENT
REMARK Flexibility Score: inf
ROOT
ATOM      1  C   UNL     1      18.906  25.378   4.132  1.00  0.00     0.000 C 
ENDROOT
BRANCH   1   2
ATOM      2  C   UNL     1      18.883  23.874   4.455  1.00  0.00     0.000 C 
BRANCH   2   3
ATOM      3  C   UNL     1      17.767  23.503   5.446  1.00  0.00     0.000 C 
BRANCH   3   4
ATOM      4  C   UNL     1      16.770  22.485   4.864  1.00  0.00     0.000 C 
BRANCH   4   5
ATOM      5  C   UNL     1      15.945  21.782   5.965  1.00  0.00     0.000 C 
BRANCH   5   6
ATOM      6  C   UNL     1      14.438  21.708   5.650  1.00  0.00     0.006 C 
BRANCH   6   7
ATOM      7  C   UNL     1      13.811  23.057   5.272  1.00  0.00     0.053 C 
BRANCH   7   8
ATOM      8  C   UNL     1      12.889  22.934   4.097  1.00  0.00     0.041 C 
ATOM      9  O   UNL     1      12.085  23.864   3.823  1.00  0.00    -0.550 OA
ATOM     10  O   UNL     1      12.930  21.804   3.291  1.00  0.00    -0.550 OA
ENDBRANCH   7   8
ENDBRANCH   6   7
ENDBRANCH   5   6
ENDBRANCH   4   5
ENDBRANCH   3   4
ENDBRANCH   2   3
ENDBRANCH   1   2
BRANCH   1  11
ATOM     11  C   UNL     1      19.409  25.669   2.708  1.00  0.00     0.000 C 
BRANCH  11  12
ATOM     12  C   UNL     1      19.207  24.476   1.756  1.00  0.00    -0.000 C 
BRANCH  12  13
ATOM     13  C   UNL     1      19.105  24.907   0.283  1.00  0.00    -0.000 C 
BRANCH  13  14
ATOM     14  C   UNL     1      18.635  26.363   0.123  1.00  0.00    -0.000 C 
BRANCH  14  15
ATOM     15  C   UNL     1      17.428  26.493  -0.822  1.00  0.00    -0.000 C 
BRANCH  15  16
ATOM     16  C   UNL     1      16.838  25.132  -1.222  1.00  0.00    -0.000 C 
BRANCH  16  17
ATOM     17  C   UNL     1      15.329  25.242  -1.471  1.00  0.00    -0.003 C 
ATOM     18  C   UNL     1      15.017  25.281  -2.964  1.00  0.00     0.004 C 
ENDBRANCH  16  17
ENDBRANCH  15  16
ENDBRANCH  14  15
ENDBRANCH  13  14
ENDBRANCH  12  13
ENDBRANCH  11  12
ENDBRANCH   1  11
TORSDOF 14
ENDMDL
MODEL 3
REMARK VINA RESULT:    -4.211      2.383      6.296
REMARK INTER + INTRA:          -8.556
REMARK INTER:                  -7.744
REMARK INTRA:                  -0.812
REMARK UNBOUND:                -0.898
REMARK SMILES CCCCCCCCCCCCCCCC(=O)[O-]
REMARK SMILES IDX 9 1 10 2 11 3 12 4 13 5 14 6 15 7 16 8 17 9 18 10 8 11 7 12
REMARK SMILES IDX 6 13 5 14 4 15 3 16 2 17 1 18
REMARK H PARENT
REMARK Flexibility Score: inf
ROOT
ATOM      1  C   UNL     1      18.493  24.403   4.687  1.00  0.00     0.000 C 
ENDROOT
BRANCH   1   2
ATOM      2  C   UNL     1      17.773  23.460   5.667  1.00  0.00     0.000 C 
BRANCH   2   3
ATOM      3  C   UNL     1      16.744  22.558   4.965  1.00  0.00     0.000 C 
BRANCH   3   4
ATOM      4  C   UNL     1      16.120  21.519   5.914  1.00  0.00     0.000 C 
BRANCH   4   5
ATOM      5  C   UNL     1      14.580  21.630   5.969  1.00  0.00     0.000 C 
BRANCH   5   6
ATOM      6  C   UNL     1      14.003  22.670   4.990  1.00  0.00     0.006 C 
BRANCH   6   7
ATOM      7  C   UNL     1      13.253  22.059   3.798  1.00  0.00     0.053 C 
BRANCH   7   8
ATOM      8  C   UNL     1      12.091  22.906   3.375  1.00  0.00     0.041 C 
ATOM      9  O   UNL     1      12.014  24.105   3.748  1.00  0.00    -0.550 OA
ATOM     10  O   UNL     1      11.104  22.378   2.553  1.00  0.00    -0.550 OA
ENDBRANCH   7   8
ENDBRANCH   6   7
ENDBRANCH   5   6
ENDBRANCH   4   5
ENDBRANCH   3   4
ENDBRANCH   2   3
ENDBRANCH   1   2
BRANCH   1  11
ATOM     11  C   UNL     1      19.568  23.681   3.856  1.00  0.00     0.000 C 
BRANCH  11  12
ATOM     12  C   UNL     1      20.249  24.612   2.837  1.00  0.00    -0.000 C 
BRANCH  12  13
ATOM     13  C   UNL     1      19.250  25.536   2.121  1.00  0.00    -0.000 C 
BRANCH  13  14
ATOM     14  C   UNL     1      18.795  24.978   0.762  1.00  0.00    -0.000 C 
BRANCH  14  15
ATOM     15  C   UNL     1      18.773  26.050  -0.339  1.00  0.00    -0.000 C 
BRANCH  15  16
ATOM     16  C   UNL     1      17.348  26.462  -0.739  1.00  0.00    -0.000 C 
BRANCH  16  17
ATOM     17  C   UNL     1      16.808  25.555  -1.851  1.00  0.00    -0.003 C 
ATOM     18  C   UNL     1      15.425  25.015  -1.500  1.00  0.00     0.004 C 
ENDBRANCH  16  17
ENDBRANCH  15  16
ENDBRANCH  14  15
ENDBRANCH  13  14
ENDBRANCH  12  13
ENDBRANCH  11  12
ENDBRANCH   1  11
TORSDOF 14
ENDMDL
MODEL 4
REMARK VINA RESULT:    -3.884      0.943      1.855
REMARK INTER + INTRA:          -7.962
REMARK INTER:                  -7.285
REMARK INTRA:                  -0.677
REMARK UNBOUND:                -0.898
REMARK SMILES CCCCCCCCCCCCCCCC(=O)[O-]
REMARK SMILES IDX 9 1 10 2 11 3 12 4 13 5 14 6 15 7 16 8 17 9 18 10 8 11 7 12
REMARK SMILES IDX 6 13 5 14 4 15 3 16 2 17 1 18
REMARK H PARENT
REMARK Flexibility Score: inf
ROOT
ATOM      1  C   UNL     1      18.191  23.113   4.476  1.00  0.00     0.000 C 
ENDROOT
BRANCH   1   2
ATOM      2  C   UNL     1      19.130  24.296   4.765  1.00  0.00     0.000 C 
BRANCH   2   3
ATOM      3  C   UNL     1      19.209  25.284   3.588  1.00  0.00     0.000 C 
BRANCH   3   4
ATOM      4  C   UNL     1      19.935  24.694   2.366  1.00  0.00     0.000 C 
BRANCH   4   5
ATOM      5  C   UNL     1      19.232  25.056   1.039  1.00  0.00     0.000 C 
BRANCH   5   6
ATOM      6  C   UNL     1      18.609  26.465   1.037  1.00  0.00     0.006 C 
BRANCH   6   7
ATOM      7  C   UNL     1      18.110  26.927  -0.339  1.00  0.00     0.053 C 
BRANCH   7   8
ATOM      8  C   UNL     1      17.325  25.857  -1.037  1.00  0.00     0.041 C 
ATOM      9  O   UNL     1      16.074  25.809  -0.914  1.00  0.00    -0.550 OA
ATOM     10  O   UNL     1      17.973  24.926  -1.839  1.00  0.00    -0.550 OA
ENDBRANCH   7   8
ENDBRANCH   6   7
ENDBRANCH   5   6
ENDBRANCH   4   5
ENDBRANCH   3   4
ENDBRANCH   2   3
ENDBRANCH   1   2
BRANCH   1  11
ATOM     11  C   UNL     1      16.933  23.128   5.361  1.00  0.00     0.000 C 
BRANCH  11  12
ATOM     12  C   UNL     1      16.366  21.717   5.606  1.00  0.00    -0.000 C 
BRANCH  12  13
ATOM     13  C   UNL     1      14.858  21.731   5.906  1.00  0.00    -0.000 C 
BRANCH  13  14
ATOM     14  C   UNL     1      14.012  22.103   4.677  1.00  0.00    -0.000 C 
BRANCH  14  15
ATOM     15  C   UNL     1      13.186  23.382   4.894  1.00  0.00    -0.000 C 
BRANCH  15  16
ATOM     16  C   UNL     1      12.165  23.627   3.774  1.00  0.00    -0.000 C 
BRANCH  16  17
ATOM     17  C   UNL     1      12.183  22.480   2.756  1.00  0.00    -0.003 C 
ATOM     18  C   UNL     1      10.809  22.281   2.123  1.00  0.00     0.004 C 
ENDBRANCH  16  17
ENDBRANCH  15  16
ENDBRANCH  14  15
ENDBRANCH  13  14
ENDBRANCH  12  13
ENDBRANCH  11  12
ENDBRANCH   1  11
TORSDOF 14
ENDMDL
MODEL 5
REMARK VINA RESULT:    -3.566     14.130     16.789
REMARK INTER + INTRA:          -7.383
REMARK INTER:                  -5.554
REMARK INTRA:                  -1.829
REMARK UNBOUND:                -0.898
REMARK SMILES CCCCCCCCCCCCCCCC(=O)[O-]
REMARK SMILES IDX 9 1 10 2 11 3 12 4 13 5 14 6 15 7 16 8 17 9 18 10 8 11 7 12
REMARK SMILES IDX 6 13 5 14 4 15 3 16 2 17 1 18
REMARK H PARENT
REMARK Flexibility Score: inf
ROOT
ATOM      1  C   UNL     1      23.861  32.498  14.367  1.00  0.00     0.000 C 
ENDROOT
BRANCH   1   2
ATOM      2  C   UNL     1      22.467  32.624  15.004  1.00  0.00     0.000 C 
BRANCH   2   3
ATOM      3  C   UNL     1      21.539  33.556  14.207  1.00  0.00     0.000 C 
BRANCH   3   4
ATOM      4  C   UNL     1      22.114  33.931  12.830  1.00  0.00     0.000 C 
BRANCH   4   5
ATOM      5  C   UNL     1      21.110  34.740  11.978  1.00  0.00     0.000 C 
BRANCH   5   6
ATOM      6  C   UNL     1      19.691  34.139  11.966  1.00  0.00     0.006 C 
BRANCH   6   7
ATOM      7  C   UNL     1      19.049  34.080  10.573  1.00  0.00     0.053 C 
BRANCH   7   8
ATOM      8  C   UNL     1      17.740  33.349  10.592  1.00  0.00     0.041 C 
ATOM      9  O   UNL     1      16.714  33.902  11.066  1.00  0.00    -0.550 OA
ATOM     10  O   UNL     1      17.649  32.066  10.068  1.00  0.00    -0.550 OA
ENDBRANCH   7   8
ENDBRANCH   6   7
ENDBRANCH   5   6
ENDBRANCH   4   5
ENDBRANCH   3   4
ENDBRANCH   2   3
ENDBRANCH   1   2
BRANCH   1  11
ATOM     11  C   UNL     1      24.979  33.023  15.284  1.00  0.00     0.000 C 
BRANCH  11  12
ATOM     12  C   UNL     1      26.082  33.764  14.507  1.00  0.00    -0.000 C 
BRANCH  12  13
ATOM     13  C   UNL     1      25.885  33.684  12.983  1.00  0.00    -0.000 C 
BRANCH  13  14
ATOM     14  C   UNL     1      26.166  35.022  12.279  1.00  0.00    -0.000 C 
BRANCH  14  15
ATOM     15  C   UNL     1      25.155  36.115  12.664  1.00  0.00    -0.000 C 
BRANCH  15  16
ATOM     16  C   UNL     1      25.762  37.189  13.579  1.00  0.00    -0.000 C 
BRANCH  16  17
ATOM     17  C   UNL     1      24.764  37.612  14.663  1.00  0.00    -0.003 C 
ATOM     18  C   UNL     1      23.655  36.577  14.827  1.00  0.00     0.004 C 
ENDBRANCH  16  17
ENDBRANCH  15  16
ENDBRANCH  14  15
ENDBRANCH  13  14
ENDBRANCH  12  13
ENDBRANCH  11  12
ENDBRANCH   1  11
TORSDOF 14
ENDMDL
MODEL 6
REMARK VINA RESULT:    -3.515     16.144     18.500
REMARK INTER + INTRA:          -7.290
REMARK INTER:                  -5.371
REMARK INTRA:                  -1.918
REMARK UNBOUND:                -0.898
REMARK SMILES CCCCCCCCCCCCCCCC(=O)[O-]
REMARK SMILES IDX 9 1 10 2 11 3 12 4 13 5 14 6 15 7 16 8 17 9 18 10 8 11 7 12
REMARK SMILES IDX 6 13 5 14 4 15 3 16 2 17 1 18
REMARK H PARENT
REMARK Flexibility Score: inf
ROOT
ATOM      1  C   UNL     1      25.827  33.635  13.141  1.00  0.00     0.000 C 
ENDROOT
BRANCH   1   2
ATOM      2  C   UNL     1      26.464  33.641  14.541  1.00  0.00     0.000 C 
BRANCH   2   3
ATOM      3  C   UNL     1      25.471  33.231  15.641  1.00  0.00     0.000 C 
BRANCH   3   4
ATOM      4  C   UNL     1      24.136  32.716  15.074  1.00  0.00     0.000 C 
BRANCH   4   5
ATOM      5  C   UNL     1      22.941  33.055  15.993  1.00  0.00     0.000 C 
BRANCH   5   6
ATOM      6  C   UNL     1      21.571  32.863  15.315  1.00  0.00     0.006 C 
BRANCH   6   7
ATOM      7  C   UNL     1      20.916  34.170  14.846  1.00  0.00     0.053 C 
BRANCH   7   8
ATOM      8  C   UNL     1      21.081  34.380  13.371  1.00  0.00     0.041 C 
ATOM      9  O   UNL     1      20.122  34.155  12.589  1.00  0.00    -0.550 OA
ATOM     10  O   UNL     1      22.287  34.844  12.862  1.00  0.00    -0.550 OA
ENDBRANCH   7   8
ENDBRANCH   6   7
ENDBRANCH   5   6
ENDBRANCH   4   5
ENDBRANCH   3   4
ENDBRANCH   2   3
ENDBRANCH   1   2
BRANCH   1  11
ATOM     11  C   UNL     1      26.875  33.624  12.015  1.00  0.00     0.000 C 
BRANCH  11  12
ATOM     12  C   UNL     1      26.874  34.927  11.196  1.00  0.00    -0.000 C 
BRANCH  12  13
ATOM     13  C   UNL     1      26.159  36.080  11.920  1.00  0.00    -0.000 C 
BRANCH  13  14
ATOM     14  C   UNL     1      27.123  36.948  12.747  1.00  0.00    -0.000 C 
BRANCH  14  15
ATOM     15  C   UNL     1      26.387  37.976  13.622  1.00  0.00    -0.000 C 
BRANCH  15  16
ATOM     16  C   UNL     1      24.978  37.515  14.024  1.00  0.00    -0.000 C 
BRANCH  16  17
ATOM     17  C   UNL     1      24.966  36.985  15.463  1.00  0.00    -0.003 C 
ATOM     18  C   UNL     1      23.574  36.505  15.863  1.00  0.00     0.004 C 
ENDBRANCH  16  17
ENDBRANCH  15  16
ENDBRANCH  14  15
ENDBRANCH  13  14
ENDBRANCH  12  13
ENDBRANCH  11  12
ENDBRANCH   1  11
TORSDOF 14
ENDMDL
MODEL 7
REMARK VINA RESULT:    -3.440     15.140     17.875
REMARK INTER + INTRA:          -7.154
REMARK INTER:                  -4.856
REMARK INTRA:                  -2.298
REMARK UNBOUND:                -0.898
REMARK SMILES CCCCCCCCCCCCCCCC(=O)[O-]
REMARK SMILES IDX 9 1 10 2 11 3 12 4 13 5 14 6 15 7 16 8 17 9 18 10 8 11 7 12
REMARK SMILES IDX 6 13 5 14 4 15 3 16 2 17 1 18
REMARK H PARENT
REMARK Flexibility Score: inf
ROOT
ATOM      1  C   UNL     1      22.745  33.413  16.119  1.00  0.00     0.000 C 
ENDROOT
BRANCH   1   2
ATOM      2  C   UNL     1      24.266  33.249  15.958  1.00  0.00     0.000 C 
BRANCH   2   3
ATOM      3  C   UNL     1      24.667  32.863  14.525  1.00  0.00     0.000 C 
BRANCH   3   4
ATOM      4  C   UNL     1      23.466  32.415  13.672  1.00  0.00     0.000 C 
BRANCH   4   5
ATOM      5  C   UNL     1      23.340  33.230  12.367  1.00  0.00     0.000 C 
BRANCH   5   6
ATOM      6  C   UNL     1      22.473  34.496  12.514  1.00  0.00     0.006 C 
BRANCH   6   7
ATOM      7  C   UNL     1      21.258  34.535  11.576  1.00  0.00     0.053 C 
BRANCH   7   8
ATOM      8  C   UNL     1      19.978  34.264  12.309  1.00  0.00     0.041 C 
ATOM      9  O   UNL     1      18.919  34.037  11.668  1.00  0.00    -0.550 OA
ATOM     10  O   UNL     1      19.959  34.242  13.697  1.00  0.00    -0.550 OA
ENDBRANCH   7   8
ENDBRANCH   6   7
ENDBRANCH   5   6
ENDBRANCH   4   5
ENDBRANCH   3   4
ENDBRANCH   2   3
ENDBRANCH   1   2
BRANCH   1  11
ATOM     11  C   UNL     1      22.308  34.888  16.125  1.00  0.00     0.000 C 
BRANCH  11  12
ATOM     12  C   UNL     1      23.501  35.857  16.049  1.00  0.00    -0.000 C 
BRANCH  12  13
ATOM     13  C   UNL     1      23.275  36.993  15.036  1.00  0.00    -0.000 C 
BRANCH  13  14
ATOM     14  C   UNL     1      24.540  37.836  14.800  1.00  0.00    -0.000 C 
BRANCH  14  15
ATOM     15  C   UNL     1      25.783  36.971  14.529  1.00  0.00    -0.000 C 
BRANCH  15  16
ATOM     16  C   UNL     1      25.704  36.220  13.192  1.00  0.00    -0.000 C 
BRANCH  16  17
ATOM     17  C   UNL     1      26.980  35.407  12.945  1.00  0.00    -0.003 C 
ATOM     18  C   UNL     1      26.771  34.371  11.844  1.00  0.00     0.004 C 
ENDBRANCH  16  17
ENDBRANCH  15  16
ENDBRANCH  14  15
ENDBRANCH  13  14
ENDBRANCH  12  13
ENDBRANCH  11  12
ENDBRANCH   1  11
TORSDOF 14
ENDMDL
MODEL 8
REMARK VINA RESULT:    -3.415     16.176     18.261
REMARK INTER + INTRA:          -7.108
REMARK INTER:                  -5.645
REMARK INTRA:                  -1.463
REMARK UNBOUND:                -0.898
REMARK SMILES CCCCCCCCCCCCCCCC(=O)[O-]
REMARK SMILES IDX 9 1 10 2 11 3 12 4 13 5 14 6 15 7 16 8 17 9 18 10 8 11 7 12
REMARK SMILES IDX 6 13 5 14 4 15 3 16 2 17 1 18
REMARK H PARENT
REMARK Flexibility Score: inf
ROOT
ATOM      1  C   UNL     1      21.316  34.508  13.765  1.00  0.00     0.000 C 
ENDROOT
BRANCH   1   2
ATOM      2  C   UNL     1      22.517  35.462  13.643  1.00  0.00     0.000 C 
BRANCH   2   3
ATOM      3  C   UNL     1      22.435  36.638  14.630  1.00  0.00     0.000 C 
BRANCH   3   4
ATOM      4  C   UNL     1      23.340  36.446  15.860  1.00  0.00     0.000 C 
BRANCH   4   5
ATOM      5  C   UNL     1      24.802  36.139  15.466  1.00  0.00     0.000 C 
BRANCH   5   6
ATOM      6  C   UNL     1      25.489  37.292  14.709  1.00  0.00     0.006 C 
BRANCH   6   7
ATOM      7  C   UNL     1      26.679  36.851  13.843  1.00  0.00     0.053 C 
BRANCH   7   8
ATOM      8  C   UNL     1      26.396  37.016  12.381  1.00  0.00     0.041 C 
ATOM      9  O   UNL     1      27.125  37.762  11.676  1.00  0.00    -0.550 OA
ATOM     10  O   UNL     1      25.342  36.330  11.791  1.00  0.00    -0.550 OA
ENDBRANCH   7   8
ENDBRANCH   6   7
ENDBRANCH   5   6
ENDBRANCH   4   5
ENDBRANCH   3   4
ENDBRANCH   2   3
ENDBRANCH   1   2
BRANCH   1  11
ATOM     11  C   UNL     1      21.077  34.042  15.212  1.00  0.00     0.000 C 
BRANCH  11  12
ATOM     12  C   UNL     1      21.985  32.864  15.610  1.00  0.00    -0.000 C 
BRANCH  12  13
ATOM     13  C   UNL     1      22.862  32.375  14.446  1.00  0.00    -0.000 C 
BRANCH  13  14
ATOM     14  C   UNL     1      24.366  32.495  14.745  1.00  0.00    -0.000 C 
BRANCH  14  15
ATOM     15  C   UNL     1      25.115  33.317  13.683  1.00  0.00    -0.000 C 
BRANCH  15  16
ATOM     16  C   UNL     1      24.751  32.907  12.249  1.00  0.00    -0.000 C 
BRANCH  16  17
ATOM     17  C   UNL     1      25.978  32.363  11.507  1.00  0.00    -0.003 C 
ATOM     18  C   UNL     1      26.970  33.478  11.189  1.00  0.00     0.004 C 
ENDBRANCH  16  17
ENDBRANCH  15  16
ENDBRANCH  14  15
ENDBRANCH  13  14
ENDBRANCH  12  13
ENDBRANCH  11  12
ENDBRANCH   1  11
TORSDOF 14
ENDMDL
MODEL 9
REMARK VINA RESULT:    -3.340     15.060     17.671
REMARK INTER + INTRA:          -6.971
REMARK INTER:                  -5.649
REMARK INTRA:                  -1.322
REMARK UNBOUND:                -0.898
REMARK SMILES CCCCCCCCCCCCCCCC(=O)[O-]
REMARK SMILES IDX 9 1 10 2 11 3 12 4 13 5 14 6 15 7 16 8 17 9 18 10 8 11 7 12
REMARK SMILES IDX 6 13 5 14 4 15 3 16 2 17 1 18
REMARK H PARENT
REMARK Flexibility Score: inf
ROOT
ATOM      1  C   UNL     1      24.481  33.511  16.048  1.00  0.00     0.000 C 
ENDROOT
BRANCH   1   2
ATOM      2  C   UNL     1      24.098  32.979  14.656  1.00  0.00     0.000 C 
BRANCH   2   3
ATOM      3  C   UNL     1      22.696  32.349  14.633  1.00  0.00     0.000 C 
BRANCH   3   4
ATOM      4  C   UNL     1      21.926  32.565  15.949  1.00  0.00     0.000 C 
BRANCH   4   5
ATOM      5  C   UNL     1      20.831  33.646  15.813  1.00  0.00     0.000 C 
BRANCH   5   6
ATOM      6  C   UNL     1      21.130  34.690  14.720  1.00  0.00     0.006 C 
BRANCH   6   7
ATOM      7  C   UNL     1      20.258  34.548  13.464  1.00  0.00     0.053 C 
BRANCH   7   8
ATOM      8  C   UNL     1      21.072  34.621  12.208  1.00  0.00     0.041 C 
ATOM      9  O   UNL     1      20.512  34.523  11.085  1.00  0.00    -0.550 OA
ATOM     10  O   UNL     1      22.445  34.819  12.275  1.00  0.00    -0.550 OA
ENDBRANCH   7   8
ENDBRANCH   6   7
ENDBRANCH   5   6
ENDBRANCH   4   5
ENDBRANCH   3   4
ENDBRANCH   2   3
ENDBRANCH   1   2
BRANCH   1  11
ATOM     11  C   UNL     1      24.981  34.965  16.008  1.00  0.00     0.000 C 
BRANCH  11  12
ATOM     12  C   UNL     1      24.452  35.737  14.785  1.00  0.00    -0.000 C 
BRANCH  12  13
ATOM     13  C   UNL     1      25.564  36.087  13.782  1.00  0.00    -0.000 C 
BRANCH  13  14
ATOM     14  C   UNL     1      26.897  35.393  14.110  1.00  0.00    -0.000 C 
BRANCH  14  15
ATOM     15  C   UNL     1      27.120  34.120  13.277  1.00  0.00    -0.000 C 
BRANCH  15  16
ATOM     16  C   UNL     1      26.119  33.983  12.120  1.00  0.00    -0.000 C 
BRANCH  16  17
ATOM     17  C   UNL     1      26.741  33.219  10.946  1.00  0.00    -0.003 C 
ATOM     18  C   UNL     1      25.895  32.007  10.566  1.00  0.00     0.004 C 
ENDBRANCH  16  17
ENDBRANCH  15  16
ENDBRANCH  14  15
ENDBRANCH  13  14
ENDBRANCH  12  13
ENDBRANCH  11  12
ENDBRANCH   1  11
TORSDOF 14
ENDMDL
