MODEL 1
REMARK VINA RESULT:    -3.974      0.000      0.000
REMARK INTER + INTRA:          -7.762
REMARK INTER:                  -6.297
REMARK INTRA:                  -1.466
REMARK UNBOUND:                -1.466
REMARK SMILES CCCCCCCCCCCC(=O)[O-]
REMARK SMILES IDX 7 1 8 2 9 3 10 4 11 5 12 6 13 7 14 8 6 9 5 10 4 11 3 12 2 13
REMARK SMILES IDX 1 14
REMARK H PARENT
REMARK Flexibility Score: inf
ROOT
ATOM      1  C   UNL     1      27.502  12.632 -13.192  1.00  0.00     0.000 C 
ENDROOT
BRANCH   1   2
ATOM      2  C   UNL     1      26.318  13.439 -13.754  1.00  0.00     0.000 C 
BRANCH   2   3
ATOM      3  C   UNL     1      25.286  13.811 -12.676  1.00  0.00     0.000 C 
BRANCH   3   4
ATOM      4  C   UNL     1      25.120  15.330 -12.518  1.00  0.00     0.006 C 
BRANCH   4   5
ATOM      5  C   UNL     1      26.361  16.112 -12.970  1.00  0.00     0.053 C 
BRANCH   5   6
ATOM      6  C   UNL     1      26.630  17.249 -12.038  1.00  0.00     0.041 C 
ATOM      7  O   UNL     1      27.744  17.836 -12.058  1.00  0.00    -0.550 OA
ATOM      8  O   UNL     1      25.668  17.632 -11.111  1.00  0.00    -0.550 OA
ENDBRANCH   5   6
ENDBRANCH   4   5
ENDBRANCH   3   4
ENDBRANCH   2   3
ENDBRANCH   1   2
BRANCH   1   9
ATOM      9  C   UNL     1      27.638  12.652 -11.657  1.00  0.00     0.000 C 
BRANCH   9  10
ATOM     10  C   UNL     1      28.967  13.218 -11.121  1.00  0.00    -0.000 C 
BRANCH  10  11
ATOM     11  C   UNL     1      28.843  14.554 -10.366  1.00  0.00    -0.000 C 
BRANCH  11  12
ATOM     12  C   UNL     1      28.173  14.398  -8.989  1.00  0.00    -0.000 C 
BRANCH  12  13
ATOM     13  C   UNL     1      26.855  15.182  -8.884  1.00  0.00    -0.003 C 
ATOM     14  C   UNL     1      25.624  14.291  -9.046  1.00  0.00     0.004 C 
ENDBRANCH  12  13
ENDBRANCH  11  12
ENDBRANCH  10  11
ENDBRANCH   9  10
ENDBRANCH   1   9
TORSDOF 10
ENDMDL
MODEL 2
REMARK VINA RESULT:    -3.951      1.301      2.346
REMARK INTER + INTRA:          -7.726
REMARK INTER:                  -6.397
REMARK INTRA:                  -1.329
REMARK UNBOUND:                -1.466
REMARK SMILES CCCCCCCCCCCC(=O)[O-]
REMARK SMILES IDX 7 1 8 2 9 3 10 4 11 5 12 6 13 7 14 8 6 9 5 10 4 11 3 12 2 13
REMARK SMILES IDX 1 14
REMARK H PARENT
REMARK Flexibility Score: inf
ROOT
ATOM      1  C   UNL     1      26.152  13.550 -13.851  1.00  0.00     0.000 C 
ENDROOT
BRANCH   1   2
ATOM      2  C   UNL     1      25.301  14.681 -13.245  1.00  0.00     0.000 C 
BRANCH   2   3
ATOM      3  C   UNL     1      25.957  16.064 -13.391  1.00  0.00     0.000 C 
BRANCH   3   4
ATOM      4  C   UNL     1      26.689  16.507 -12.114  1.00  0.00     0.006 C 
BRANCH   4   5
ATOM      5  C   UNL     1      25.765  16.562 -10.890  1.00  0.00     0.053 C 
BRANCH   5   6
ATOM      6  C   UNL     1      24.986  17.839 -10.882  1.00  0.00     0.041 C 
ATOM      7  O   UNL     1      23.783  17.845 -10.511  1.00  0.00    -0.550 OA
ATOM      8  O   UNL     1      25.573  19.015 -11.331  1.00  0.00    -0.550 OA
ENDBRANCH   5   6
ENDBRANCH   4   5
ENDBRANCH   3   4
ENDBRANCH   2   3
ENDBRANCH   1   2
BRANCH   1   9
ATOM      9  C   UNL     1      27.184  12.923 -12.892  1.00  0.00     0.000 C 
BRANCH   9  10
ATOM     10  C   UNL     1      26.715  12.765 -11.433  1.00  0.00    -0.000 C 
BRANCH  10  11
ATOM     11  C   UNL     1      27.848  12.621 -10.401  1.00  0.00    -0.000 C 
BRANCH  11  12
ATOM     12  C   UNL     1      29.106  13.421 -10.784  1.00  0.00    -0.000 C 
BRANCH  12  13
ATOM     13  C   UNL     1      29.162  14.794 -10.096  1.00  0.00    -0.003 C 
ATOM     14  C   UNL     1      28.357  14.837  -8.797  1.00  0.00     0.004 C 
ENDBRANCH  12  13
ENDBRANCH  11  12
ENDBRANCH  10  11
ENDBRANCH   9  10
ENDBRANCH   1   9
TORSDOF 10
ENDMDL
MODEL 3
REMARK VINA RESULT:    -3.951      2.548      4.265
REMARK INTER + INTRA:          -7.726
REMARK INTER:                  -6.900
REMARK INTRA:                  -0.826
REMARK UNBOUND:                -1.466
REMARK SMILES CCCCCCCCCCCC(=O)[O-]
REMARK SMILES IDX 7 1 8 2 9 3 10 4 11 5 12 6 13 7 14 8 6 9 5 10 4 11 3 12 2 13
REMARK SMILES IDX 1 14
REMARK H PARENT
REMARK Flexibility Score: inf
ROOT
ATOM      1  C   UNL     1      25.238  17.502 -10.836  1.00  0.00     0.000 C 
ENDROOT
BRANCH   1   2
ATOM      2  C   UNL     1      25.980  18.518 -11.722  1.00  0.00     0.000 C 
BRANCH   2   3
ATOM      3  C   UNL     1      27.042  17.862 -12.621  1.00  0.00     0.000 C 
BRANCH   3   4
ATOM      4  C   UNL     1      26.682  17.943 -14.113  1.00  0.00     0.006 C 
BRANCH   4   5
ATOM      5  C   UNL     1      27.882  18.319 -14.993  1.00  0.00     0.053 C 
BRANCH   5   6
ATOM      6  C   UNL     1      27.980  17.394 -16.164  1.00  0.00     0.041 C 
ATOM      7  O   UNL     1      27.330  16.316 -16.177  1.00  0.00    -0.550 OA
ATOM      8  O   UNL     1      28.829  17.698 -17.222  1.00  0.00    -0.550 OA
ENDBRANCH   5   6
ENDBRANCH   4   5
ENDBRANCH   3   4
ENDBRANCH   2   3
ENDBRANCH   1   2
BRANCH   1   9
ATOM      9  C   UNL     1      25.789  16.063 -10.891  1.00  0.00     0.000 C 
BRANCH   9  10
ATOM     10  C   UNL     1      25.939  15.364  -9.525  1.00  0.00    -0.000 C 
BRANCH  10  11
ATOM     11  C   UNL     1      27.392  15.159  -9.060  1.00  0.00    -0.000 C 
BRANCH  11  12
ATOM     12  C   UNL     1      28.416  15.414 -10.180  1.00  0.00    -0.000 C 
BRANCH  12  13
ATOM     13  C   UNL     1      29.293  14.184 -10.466  1.00  0.00    -0.003 C 
ATOM     14  C   UNL     1      28.497  13.013 -11.041  1.00  0.00     0.004 C 
ENDBRANCH  12  13
ENDBRANCH  11  12
ENDBRANCH  10  11
ENDBRANCH   9  10
ENDBRANCH   1   9
TORSDOF 10
ENDMDL
MODEL 4
REMARK VINA RESULT:    -3.946      7.285      9.322
REMARK INTER + INTRA:          -7.718
REMARK INTER:                  -6.760
REMARK INTRA:                  -0.958
REMARK UNBOUND:                -1.466
REMARK SMILES CCCCCCCCCCCC(=O)[O-]
REMARK SMILES IDX 7 1 8 2 9 3 10 4 11 5 12 6 13 7 14 8 6 9 5 10 4 11 3 12 2 13
REMARK SMILES IDX 1 14
REMARK H PARENT
REMARK Flexibility Score: inf
ROOT
ATOM      1  C   UNL     1      19.179  16.772  -6.180  1.00  0.00     0.000 C 
ENDROOT
BRANCH   1   2
ATOM      2  C   UNL     1      19.211  17.924  -5.160  1.00  0.00     0.000 C 
BRANCH   2   3
ATOM      3  C   UNL     1      20.577  18.630  -5.102  1.00  0.00     0.000 C 
BRANCH   3   4
ATOM      4  C   UNL     1      20.467  20.146  -5.329  1.00  0.00     0.006 C 
BRANCH   4   5
ATOM      5  C   UNL     1      20.387  20.518  -6.816  1.00  0.00     0.053 C 
BRANCH   5   6
ATOM      6  C   UNL     1      19.193  21.380  -7.075  1.00  0.00     0.041 C 
ATOM      7  O   UNL     1      18.116  21.173  -6.457  1.00  0.00    -0.550 OA
ATOM      8  O   UNL     1      19.253  22.383  -8.035  1.00  0.00    -0.550 OA
ENDBRANCH   5   6
ENDBRANCH   4   5
ENDBRANCH   3   4
ENDBRANCH   2   3
ENDBRANCH   1   2
BRANCH   1   9
ATOM      9  C   UNL     1      18.932  17.199  -7.641  1.00  0.00     0.000 C 
BRANCH   9  10
ATOM     10  C   UNL     1      20.144  17.058  -8.581  1.00  0.00    -0.000 C 
BRANCH  10  11
ATOM     11  C   UNL     1      21.418  16.507  -7.915  1.00  0.00    -0.000 C 
BRANCH  11  12
ATOM     12  C   UNL     1      22.568  16.295  -8.916  1.00  0.00    -0.000 C 
BRANCH  12  13
ATOM     13  C   UNL     1      23.718  17.293  -8.711  1.00  0.00    -0.003 C 
ATOM     14  C   UNL     1      24.507  17.556  -9.993  1.00  0.00     0.004 C 
ENDBRANCH  12  13
ENDBRANCH  11  12
ENDBRANCH  10  11
ENDBRANCH   9  10
ENDBRANCH   1   9
TORSDOF 10
ENDMDL
MODEL 5
REMARK VINA RESULT:    -3.939      2.205      3.065
REMARK INTER + INTRA:          -7.707
REMARK INTER:                  -6.503
REMARK INTRA:                  -1.204
REMARK UNBOUND:                -1.466
REMARK SMILES CCCCCCCCCCCC(=O)[O-]
REMARK SMILES IDX 7 1 8 2 9 3 10 4 11 5 12 6 13 7 14 8 6 9 5 10 4 11 3 12 2 13
REMARK SMILES IDX 1 14
REMARK H PARENT
REMARK Flexibility Score: inf
ROOT
ATOM      1  C   UNL     1      27.770  12.671 -11.461  1.00  0.00     0.000 C 
ENDROOT
BRANCH   1   2
ATOM      2  C   UNL     1      27.460  12.765 -12.966  1.00  0.00     0.000 C 
BRANCH   2   3
ATOM      3  C   UNL     1      26.099  13.421 -13.255  1.00  0.00     0.000 C 
BRANCH   3   4
ATOM      4  C   UNL     1      26.214  14.620 -14.210  1.00  0.00     0.006 C 
BRANCH   4   5
ATOM      5  C   UNL     1      24.895  15.392 -14.353  1.00  0.00     0.053 C 
BRANCH   5   6
ATOM      6  C   UNL     1      25.019  16.445 -15.407  1.00  0.00     0.041 C 
ATOM      7  O   UNL     1      24.854  17.658 -15.113  1.00  0.00    -0.550 OA
ATOM      8  O   UNL     1      25.268  16.085 -16.726  1.00  0.00    -0.550 OA
ENDBRANCH   5   6
ENDBRANCH   4   5
ENDBRANCH   3   4
ENDBRANCH   2   3
ENDBRANCH   1   2
BRANCH   1   9
ATOM      9  C   UNL     1      29.134  13.251 -11.038  1.00  0.00     0.000 C 
BRANCH   9  10
ATOM     10  C   UNL     1      29.071  14.588 -10.275  1.00  0.00    -0.000 C 
BRANCH  10  11
ATOM     11  C   UNL     1      27.669  15.217 -10.186  1.00  0.00    -0.000 C 
BRANCH  11  12
ATOM     12  C   UNL     1      27.480  16.389 -11.166  1.00  0.00    -0.000 C 
BRANCH  12  13
ATOM     13  C   UNL     1      26.044  16.937 -11.158  1.00  0.00    -0.003 C 
ATOM     14  C   UNL     1      25.939  18.327 -11.785  1.00  0.00     0.004 C 
ENDBRANCH  12  13
ENDBRANCH  11  12
ENDBRANCH  10  11
ENDBRANCH   9  10
ENDBRANCH   1   9
TORSDOF 10
ENDMDL
MODEL 6
REMARK VINA RESULT:    -3.928      2.650      5.275
REMARK INTER + INTRA:          -7.690
REMARK INTER:                  -6.640
REMARK INTRA:                  -1.049
REMARK UNBOUND:                -1.466
REMARK SMILES CCCCCCCCCCCC(=O)[O-]
REMARK SMILES IDX 7 1 8 2 9 3 10 4 11 5 12 6 13 7 14 8 6 9 5 10 4 11 3 12 2 13
REMARK SMILES IDX 1 14
REMARK H PARENT
REMARK Flexibility Score: inf
ROOT
ATOM      1  C   UNL     1      24.787  16.687 -10.526  1.00  0.00     0.000 C 
ENDROOT
BRANCH   1   2
ATOM      2  C   UNL     1      25.094  16.038  -9.164  1.00  0.00     0.000 C 
BRANCH   2   3
ATOM      3  C   UNL     1      26.176  14.948  -9.254  1.00  0.00     0.000 C 
BRANCH   3   4
ATOM      4  C   UNL     1      27.327  15.337 -10.195  1.00  0.00     0.006 C 
BRANCH   4   5
ATOM      5  C   UNL     1      28.674  14.741  -9.761  1.00  0.00     0.053 C 
BRANCH   5   6
ATOM      6  C   UNL     1      28.763  13.304 -10.166  1.00  0.00     0.041 C 
ATOM      7  O   UNL     1      29.101  12.995 -11.338  1.00  0.00    -0.550 OA
ATOM      8  O   UNL     1      28.423  12.304  -9.262  1.00  0.00    -0.550 OA
ENDBRANCH   5   6
ENDBRANCH   4   5
ENDBRANCH   3   4
ENDBRANCH   2   3
ENDBRANCH   1   2
BRANCH   1   9
ATOM      9  C   UNL     1      24.896  18.224 -10.556  1.00  0.00     0.000 C 
BRANCH   9  10
ATOM     10  C   UNL     1      25.475  18.816 -11.857  1.00  0.00    -0.000 C 
BRANCH  10  11
ATOM     11  C   UNL     1      26.730  18.103 -12.390  1.00  0.00    -0.000 C 
BRANCH  11  12
ATOM     12  C   UNL     1      26.560  17.601 -13.835  1.00  0.00    -0.000 C 
BRANCH  12  13
ATOM     13  C   UNL     1      26.065  16.147 -13.898  1.00  0.00    -0.003 C 
ATOM     14  C   UNL     1      24.574  16.044 -14.218  1.00  0.00     0.004 C 
ENDBRANCH  12  13
ENDBRANCH  11  12
ENDBRANCH  10  11
ENDBRANCH   9  10
ENDBRANCH   1   9
TORSDOF 10
ENDMDL
MODEL 7
REMARK VINA RESULT:    -3.919      1.885      3.524
REMARK INTER + INTRA:          -7.676
REMARK INTER:                  -6.452
REMARK INTRA:                  -1.225
REMARK UNBOUND:                -1.466
REMARK SMILES CCCCCCCCCCCC(=O)[O-]
REMARK SMILES IDX 7 1 8 2 9 3 10 4 11 5 12 6 13 7 14 8 6 9 5 10 4 11 3 12 2 13
REMARK SMILES IDX 1 14
REMARK H PARENT
REMARK Flexibility Score: inf
ROOT
ATOM      1  C   UNL     1      27.730  15.010 -10.112  1.00  0.00     0.000 C 
ENDROOT
BRANCH   1   2
ATOM      2  C   UNL     1      27.802  16.183 -11.107  1.00  0.00     0.000 C 
BRANCH   2   3
ATOM      3  C   UNL     1      26.423  16.798 -11.402  1.00  0.00     0.000 C 
BRANCH   3   4
ATOM      4  C   UNL     1      26.486  17.894 -12.478  1.00  0.00     0.006 C 
BRANCH   4   5
ATOM      5  C   UNL     1      26.483  17.326 -13.904  1.00  0.00     0.053 C 
BRANCH   5   6
ATOM      6  C   UNL     1      27.156  18.274 -14.844  1.00  0.00     0.041 C 
ATOM      7  O   UNL     1      26.470  19.008 -15.602  1.00  0.00    -0.550 OA
ATOM      8  O   UNL     1      28.543  18.312 -14.921  1.00  0.00    -0.550 OA
ENDBRANCH   5   6
ENDBRANCH   4   5
ENDBRANCH   3   4
ENDBRANCH   2   3
ENDBRANCH   1   2
BRANCH   1   9
ATOM      9  C   UNL     1      28.917  14.028 -10.173  1.00  0.00     0.000 C 
BRANCH   9  10
ATOM     10  C   UNL     1      28.881  13.025 -11.343  1.00  0.00    -0.000 C 
BRANCH  10  11
ATOM     11  C   UNL     1      27.469  12.640 -11.821  1.00  0.00    -0.000 C 
BRANCH  11  12
ATOM     12  C   UNL     1      27.213  13.024 -13.289  1.00  0.00    -0.000 C 
BRANCH  12  13
ATOM     13  C   UNL     1      25.795  13.570 -13.516  1.00  0.00    -0.003 C 
ATOM     14  C   UNL     1      24.942  13.544 -12.247  1.00  0.00     0.004 C 
ENDBRANCH  12  13
ENDBRANCH  11  12
ENDBRANCH  10  11
ENDBRANCH   9  10
ENDBRANCH   1   9
TORSDOF 10
ENDMDL
MODEL 8
REMARK VINA RESULT:    -3.893      1.972      3.786
REMARK INTER + INTRA:          -7.635
REMARK INTER:                  -6.379
REMARK INTRA:                  -1.256
REMARK UNBOUND:                -1.466
REMARK SMILES CCCCCCCCCCCC(=O)[O-]
REMARK SMILES IDX 7 1 8 2 9 3 10 4 11 5 12 6 13 7 14 8 6 9 5 10 4 11 3 12 2 13
REMARK SMILES IDX 1 14
REMARK H PARENT
REMARK Flexibility Score: inf
ROOT
ATOM      1  C   UNL     1      28.253  13.515  -9.216  1.00  0.00     0.000 C 
ENDROOT
BRANCH   1   2
ATOM      2  C   UNL     1      27.556  12.553 -10.195  1.00  0.00     0.000 C 
BRANCH   2   3
ATOM      3  C   UNL     1      27.808  12.917 -11.668  1.00  0.00     0.000 C 
BRANCH   3   4
ATOM      4  C   UNL     1      26.506  13.035 -12.477  1.00  0.00     0.006 C 
BRANCH   4   5
ATOM      5  C   UNL     1      26.756  13.313 -13.965  1.00  0.00     0.053 C 
BRANCH   5   6
ATOM      6  C   UNL     1      25.942  14.482 -14.422  1.00  0.00     0.041 C 
ATOM      7  O   UNL     1      26.308  15.158 -15.418  1.00  0.00    -0.550 OA
ATOM      8  O   UNL     1      24.805  14.856 -13.716  1.00  0.00    -0.550 OA
ENDBRANCH   5   6
ENDBRANCH   4   5
ENDBRANCH   3   4
ENDBRANCH   2   3
ENDBRANCH   1   2
BRANCH   1   9
ATOM      9  C   UNL     1      27.855  14.997  -9.360  1.00  0.00     0.000 C 
BRANCH   9  10
ATOM     10  C   UNL     1      26.344  15.285  -9.255  1.00  0.00    -0.000 C 
BRANCH  10  11
ATOM     11  C   UNL     1      25.749  16.054 -10.448  1.00  0.00    -0.000 C 
BRANCH  11  12
ATOM     12  C   UNL     1      26.826  16.601 -11.401  1.00  0.00    -0.000 C 
BRANCH  12  13
ATOM     13  C   UNL     1      26.306  17.749 -12.280  1.00  0.00    -0.003 C 
ATOM     14  C   UNL     1      25.576  18.824 -11.477  1.00  0.00     0.004 C 
ENDBRANCH  12  13
ENDBRANCH  11  12
ENDBRANCH  10  11
ENDBRANCH   9  10
ENDBRANCH   1   9
TORSDOF 10
ENDMDL
MODEL 9
REMARK VINA RESULT:    -3.878      1.669      2.545
REMARK INTER + INTRA:          -7.611
REMARK INTER:                  -6.144
REMARK INTRA:                  -1.467
REMARK UNBOUND:                -1.466
REMARK SMILES CCCCCCCCCCCC(=O)[O-]
REMARK SMILES IDX 7 1 8 2 9 3 10 4 11 5 12 6 13 7 14 8 6 9 5 10 4 11 3 12 2 13
REMARK SMILES IDX 1 14
REMARK H PARENT
REMARK Flexibility Score: inf
ROOT
ATOM      1  C   UNL     1      25.342  14.358 -11.605  1.00  0.00     0.000 C 
ENDROOT
BRANCH   1   2
ATOM      2  C   UNL     1      25.258  15.324 -10.410  1.00  0.00     0.000 C 
BRANCH   2   3
ATOM      3  C   UNL     1      25.704  16.753 -10.766  1.00  0.00     0.000 C 
BRANCH   3   4
ATOM      4  C   UNL     1      26.873  16.773 -11.763  1.00  0.00     0.006 C 
BRANCH   4   5
ATOM      5  C   UNL     1      26.874  18.027 -12.649  1.00  0.00     0.053 C 
BRANCH   5   6
ATOM      6  C   UNL     1      25.539  18.209 -13.296  1.00  0.00     0.041 C 
ATOM      7  O   UNL     1      25.122  17.373 -14.139  1.00  0.00    -0.550 OA
ATOM      8  O   UNL     1      24.772  19.331 -13.004  1.00  0.00    -0.550 OA
ENDBRANCH   5   6
ENDBRANCH   4   5
ENDBRANCH   3   4
ENDBRANCH   2   3
ENDBRANCH   1   2
BRANCH   1   9
ATOM      9  C   UNL     1      26.149  13.070 -11.349  1.00  0.00     0.000 C 
BRANCH   9  10
ATOM     10  C   UNL     1      27.602  13.092 -11.861  1.00  0.00    -0.000 C 
BRANCH  10  11
ATOM     11  C   UNL     1      28.677  13.018 -10.762  1.00  0.00    -0.000 C 
BRANCH  11  12
ATOM     12  C   UNL     1      29.187  14.406 -10.335  1.00  0.00    -0.000 C 
BRANCH  12  13
ATOM     13  C   UNL     1      28.580  14.872  -9.003  1.00  0.00    -0.003 C 
ATOM     14  C   UNL     1      27.992  13.721  -8.187  1.00  0.00     0.004 C 
ENDBRANCH  12  13
ENDBRANCH  11  12
ENDBRANCH  10  11
ENDBRANCH   9  10
ENDBRANCH   1   9
TORSDOF 10
ENDMDL
