MODEL 1
REMARK VINA RESULT:    -1.532      0.000      0.000
REMARK INTER + INTRA:          -8.434
REMARK INTER:                  -3.502
REMARK INTRA:                  -4.932
REMARK UNBOUND:                -4.932
REMARK SMILES CCCCCCCCCCCCCCCCCCCCCCCC(=O)[O-]
REMARK SMILES IDX 13 1 14 2 15 3 16 4 17 5 18 6 19 7 20 8 21 9 22 10 23 11
REMARK SMILES IDX 24 12 25 13 26 14 12 15 11 16 10 17 9 18 8 19 7 20 6 21 5 22
REMARK SMILES IDX 4 23 3 24 2 25 1 26
REMARK H PARENT
REMARK Flexibility Score: inf
ROOT
ATOM      1  C   UNL     1     172.765 189.049 183.311  1.00  0.00     0.000 C 
ENDROOT
BRANCH   1   2
ATOM      2  C   UNL     1     172.071 190.251 182.634  1.00  0.00     0.000 C 
BRANCH   2   3
ATOM      3  C   UNL     1     173.051 191.396 182.334  1.00  0.00     0.000 C 
BRANCH   3   4
ATOM      4  C   UNL     1     173.719 191.266 180.953  1.00  0.00     0.000 C 
BRANCH   4   5
ATOM      5  C   UNL     1     175.261 191.264 180.969  1.00  0.00     0.000 C 
BRANCH   5   6
ATOM      6  C   UNL     1     175.845 191.276 182.392  1.00  0.00     0.000 C 
BRANCH   6   7
ATOM      7  C   UNL     1     176.505 189.943 182.773  1.00  0.00     0.000 C 
BRANCH   7   8
ATOM      8  C   UNL     1     176.816 189.837 184.278  1.00  0.00     0.000 C 
BRANCH   8   9
ATOM      9  C   UNL     1     175.710 190.478 185.147  1.00  0.00     0.000 C 
BRANCH   9  10
ATOM     10  C   UNL     1     175.119 189.512 186.191  1.00  0.00     0.006 C 
BRANCH  10  11
ATOM     11  C   UNL     1     176.024 188.302 186.461  1.00  0.00     0.053 C 
BRANCH  11  12
ATOM     12  C   UNL     1     175.303 187.269 187.271  1.00  0.00     0.041 C 
ATOM     13  O   UNL     1     175.945 186.476 188.007  1.00  0.00    -0.550 OA
ATOM     14  O   UNL     1     173.918 187.171 187.198  1.00  0.00    -0.550 OA
ENDBRANCH  11  12
ENDBRANCH  10  11
ENDBRANCH   9  10
ENDBRANCH   8   9
ENDBRANCH   7   8
ENDBRANCH   6   7
ENDBRANCH   5   6
ENDBRANCH   4   5
ENDBRANCH   3   4
ENDBRANCH   2   3
ENDBRANCH   1   2
BRANCH   1  15
ATOM     15  C   UNL     1     172.015 188.511 184.541  1.00  0.00     0.000 C 
BRANCH  15  16
ATOM     16  C   UNL     1     170.876 187.542 184.174  1.00  0.00     0.000 C 
BRANCH  16  17
ATOM     17  C   UNL     1     171.113 186.813 182.835  1.00  0.00     0.000 C 
BRANCH  17  18
ATOM     18  C   UNL     1     171.297 185.290 182.969  1.00  0.00    -0.000 C 
BRANCH  18  19
ATOM     19  C   UNL     1     172.330 184.834 184.018  1.00  0.00    -0.000 C 
BRANCH  19  20
ATOM     20  C   UNL     1     173.772 184.686 183.497  1.00  0.00    -0.000 C 
BRANCH  20  21
ATOM     21  C   UNL     1     174.705 185.817 183.967  1.00  0.00    -0.000 C 
BRANCH  21  22
ATOM     22  C   UNL     1     175.416 186.530 182.801  1.00  0.00    -0.000 C 
BRANCH  22  23
ATOM     23  C   UNL     1     174.789 186.291 181.413  1.00  0.00    -0.000 C 
BRANCH  23  24
ATOM     24  C   UNL     1     174.479 187.600 180.661  1.00  0.00    -0.000 C 
BRANCH  24  25
ATOM     25  C   UNL     1     173.549 187.383 179.456  1.00  0.00    -0.003 C 
ATOM     26  C   UNL     1     172.217 188.122 179.599  1.00  0.00     0.004 C 
ENDBRANCH  24  25
ENDBRANCH  23  24
ENDBRANCH  22  23
ENDBRANCH  21  22
ENDBRANCH  20  21
ENDBRANCH  19  20
ENDBRANCH  18  19
ENDBRANCH  17  18
ENDBRANCH  16  17
ENDBRANCH  15  16
ENDBRANCH   1  15
TORSDOF 22
ENDMDL
MODEL 2
REMARK VINA RESULT:    -1.520      1.724      4.919
REMARK INTER + INTRA:          -8.407
REMARK INTER:                  -3.448
REMARK INTRA:                  -4.959
REMARK UNBOUND:                -4.932
REMARK SMILES CCCCCCCCCCCCCCCCCCCCCCCC(=O)[O-]
REMARK SMILES IDX 13 1 14 2 15 3 16 4 17 5 18 6 19 7 20 8 21 9 22 10 23 11
REMARK SMILES IDX 24 12 25 13 26 14 12 15 11 16 10 17 9 18 8 19 7 20 6 21 5 22
REMARK SMILES IDX 4 23 3 24 2 25 1 26
REMARK H PARENT
REMARK Flexibility Score: inf
ROOT
ATOM      1  C   UNL     1     177.189 186.421 183.600  1.00  0.00     0.000 C 
ENDROOT
BRANCH   1   2
ATOM      2  C   UNL     1     178.142 187.496 184.166  1.00  0.00     0.000 C 
BRANCH   2   3
ATOM      3  C   UNL     1     178.103 187.559 185.701  1.00  0.00     0.000 C 
BRANCH   3   4
ATOM      4  C   UNL     1     178.032 189.000 186.240  1.00  0.00     0.000 C 
BRANCH   4   5
ATOM      5  C   UNL     1     178.050 190.103 185.163  1.00  0.00     0.000 C 
BRANCH   5   6
ATOM      6  C   UNL     1     176.752 190.928 185.128  1.00  0.00     0.000 C 
BRANCH   6   7
ATOM      7  C   UNL     1     175.600 190.251 185.886  1.00  0.00     0.000 C 
BRANCH   7   8
ATOM      8  C   UNL     1     174.397 189.926 184.980  1.00  0.00     0.000 C 
BRANCH   8   9
ATOM      9  C   UNL     1     173.752 188.566 185.336  1.00  0.00     0.000 C 
BRANCH   9  10
ATOM     10  C   UNL     1     174.526 187.790 186.418  1.00  0.00     0.006 C 
BRANCH  10  11
ATOM     11  C   UNL     1     173.746 186.585 186.958  1.00  0.00     0.053 C 
BRANCH  11  12
ATOM     12  C   UNL     1     174.454 185.305 186.635  1.00  0.00     0.041 C 
ATOM     13  O   UNL     1     175.109 184.698 187.523  1.00  0.00    -0.550 OA
ATOM     14  O   UNL     1     174.407 184.791 185.344  1.00  0.00    -0.550 OA
ENDBRANCH  11  12
ENDBRANCH  10  11
ENDBRANCH   9  10
ENDBRANCH   8   9
ENDBRANCH   7   8
ENDBRANCH   6   7
ENDBRANCH   5   6
ENDBRANCH   4   5
ENDBRANCH   3   4
ENDBRANCH   2   3
ENDBRANCH   1   2
BRANCH   1  15
ATOM     15  C   UNL     1     175.944 186.999 182.906  1.00  0.00     0.000 C 
BRANCH  15  16
ATOM     16  C   UNL     1     176.155 188.436 182.395  1.00  0.00     0.000 C 
BRANCH  16  17
ATOM     17  C   UNL     1     175.835 188.596 180.895  1.00  0.00     0.000 C 
BRANCH  17  18
ATOM     18  C   UNL     1     175.451 190.028 180.480  1.00  0.00    -0.000 C 
BRANCH  18  19
ATOM     19  C   UNL     1     175.376 191.056 181.626  1.00  0.00    -0.000 C 
BRANCH  19  20
ATOM     20  C   UNL     1     174.204 192.052 181.538  1.00  0.00    -0.000 C 
BRANCH  20  21
ATOM     21  C   UNL     1     172.895 191.502 182.133  1.00  0.00    -0.000 C 
BRANCH  21  22
ATOM     22  C   UNL     1     171.881 191.074 181.055  1.00  0.00    -0.000 C 
BRANCH  22  23
ATOM     23  C   UNL     1     171.845 189.562 180.759  1.00  0.00    -0.000 C 
BRANCH  23  24
ATOM     24  C   UNL     1     172.170 188.701 181.996  1.00  0.00    -0.000 C 
BRANCH  24  25
ATOM     25  C   UNL     1     172.391 187.221 181.643  1.00  0.00    -0.003 C 
ATOM     26  C   UNL     1     172.365 186.311 182.873  1.00  0.00     0.004 C 
ENDBRANCH  24  25
ENDBRANCH  23  24
ENDBRANCH  22  23
ENDBRANCH  21  22
ENDBRANCH  20  21
ENDBRANCH  19  20
ENDBRANCH  18  19
ENDBRANCH  17  18
ENDBRANCH  16  17
ENDBRANCH  15  16
ENDBRANCH   1  15
TORSDOF 22
ENDMDL
MODEL 3
REMARK VINA RESULT:    -1.482      2.288      4.999
REMARK INTER + INTRA:          -8.319
REMARK INTER:                  -3.397
REMARK INTRA:                  -4.921
REMARK UNBOUND:                -4.932
REMARK SMILES CCCCCCCCCCCCCCCCCCCCCCCC(=O)[O-]
REMARK SMILES IDX 13 1 14 2 15 3 16 4 17 5 18 6 19 7 20 8 21 9 22 10 23 11
REMARK SMILES IDX 24 12 25 13 26 14 12 15 11 16 10 17 9 18 8 19 7 20 6 21 5 22
REMARK SMILES IDX 4 23 3 24 2 25 1 26
REMARK H PARENT
REMARK Flexibility Score: inf
ROOT
ATOM      1  C   UNL     1     175.234 186.628 181.559  1.00  0.00     0.000 C 
ENDROOT
BRANCH   1   2
ATOM      2  C   UNL     1     174.256 187.639 180.923  1.00  0.00     0.000 C 
BRANCH   2   3
ATOM      3  C   UNL     1     174.902 188.431 179.775  1.00  0.00     0.000 C 
BRANCH   3   4
ATOM      4  C   UNL     1     173.877 189.219 178.939  1.00  0.00     0.000 C 
BRANCH   4   5
ATOM      5  C   UNL     1     172.464 188.604 178.887  1.00  0.00     0.000 C 
BRANCH   5   6
ATOM      6  C   UNL     1     171.348 189.651 179.049  1.00  0.00     0.000 C 
BRANCH   6   7
ATOM      7  C   UNL     1     170.961 189.881 180.518  1.00  0.00     0.000 C 
BRANCH   7   8
ATOM      8  C   UNL     1     171.463 191.230 181.066  1.00  0.00     0.000 C 
BRANCH   8   9
ATOM      9  C   UNL     1     172.391 191.051 182.290  1.00  0.00     0.000 C 
BRANCH   9  10
ATOM     10  C   UNL     1     173.868 191.358 181.983  1.00  0.00     0.006 C 
BRANCH  10  11
ATOM     11  C   UNL     1     174.835 190.623 182.921  1.00  0.00     0.053 C 
BRANCH  11  12
ATOM     12  C   UNL     1     176.258 190.896 182.538  1.00  0.00     0.041 C 
ATOM     13  O   UNL     1     177.170 190.848 183.405  1.00  0.00    -0.550 OA
ATOM     14  O   UNL     1     176.574 191.222 181.224  1.00  0.00    -0.550 OA
ENDBRANCH  11  12
ENDBRANCH  10  11
ENDBRANCH   9  10
ENDBRANCH   8   9
ENDBRANCH   7   8
ENDBRANCH   6   7
ENDBRANCH   5   6
ENDBRANCH   4   5
ENDBRANCH   3   4
ENDBRANCH   2   3
ENDBRANCH   1   2
BRANCH   1  15
ATOM     15  C   UNL     1     175.571 186.932 183.029  1.00  0.00     0.000 C 
BRANCH  15  16
ATOM     16  C   UNL     1     175.863 185.664 183.852  1.00  0.00     0.000 C 
BRANCH  16  17
ATOM     17  C   UNL     1     175.089 184.428 183.350  1.00  0.00     0.000 C 
BRANCH  17  18
ATOM     18  C   UNL     1     173.701 184.247 183.993  1.00  0.00    -0.000 C 
BRANCH  18  19
ATOM     19  C   UNL     1     172.518 184.160 183.009  1.00  0.00    -0.000 C 
BRANCH  19  20
ATOM     20  C   UNL     1     171.870 185.508 182.643  1.00  0.00    -0.000 C 
BRANCH  20  21
ATOM     21  C   UNL     1     171.470 186.342 183.873  1.00  0.00    -0.000 C 
BRANCH  21  22
ATOM     22  C   UNL     1     171.908 187.816 183.767  1.00  0.00    -0.000 C 
BRANCH  22  23
ATOM     23  C   UNL     1     172.721 188.341 184.966  1.00  0.00    -0.000 C 
BRANCH  23  24
ATOM     24  C   UNL     1     173.172 187.220 185.922  1.00  0.00    -0.000 C 
BRANCH  24  25
ATOM     25  C   UNL     1     174.428 187.598 186.724  1.00  0.00    -0.003 C 
ATOM     26  C   UNL     1     175.135 188.835 186.167  1.00  0.00     0.004 C 
ENDBRANCH  24  25
ENDBRANCH  23  24
ENDBRANCH  22  23
ENDBRANCH  21  22
ENDBRANCH  20  21
ENDBRANCH  19  20
ENDBRANCH  18  19
ENDBRANCH  17  18
ENDBRANCH  16  17
ENDBRANCH  15  16
ENDBRANCH   1  15
TORSDOF 22
ENDMDL
MODEL 4
REMARK VINA RESULT:    -1.480      2.245      4.426
REMARK INTER + INTRA:          -8.315
REMARK INTER:                  -3.860
REMARK INTRA:                  -4.455
REMARK UNBOUND:                -4.932
REMARK SMILES CCCCCCCCCCCCCCCCCCCCCCCC(=O)[O-]
REMARK SMILES IDX 13 1 14 2 15 3 16 4 17 5 18 6 19 7 20 8 21 9 22 10 23 11
REMARK SMILES IDX 24 12 25 13 26 14 12 15 11 16 10 17 9 18 8 19 7 20 6 21 5 22
REMARK SMILES IDX 4 23 3 24 2 25 1 26
REMARK H PARENT
REMARK Flexibility Score: inf
ROOT
ATOM      1  C   UNL     1     172.498 187.968 180.957  1.00  0.00     0.000 C 
ENDROOT
BRANCH   1   2
ATOM      2  C   UNL     1     171.257 188.767 180.505  1.00  0.00     0.000 C 
BRANCH   2   3
ATOM      3  C   UNL     1     171.502 190.285 180.525  1.00  0.00     0.000 C 
BRANCH   3   4
ATOM      4  C   UNL     1     171.924 190.804 181.913  1.00  0.00     0.000 C 
BRANCH   4   5
ATOM      5  C   UNL     1     173.309 191.480 181.965  1.00  0.00     0.000 C 
BRANCH   5   6
ATOM      6  C   UNL     1     174.331 190.686 182.797  1.00  0.00     0.000 C 
BRANCH   6   7
ATOM      7  C   UNL     1     175.766 190.829 182.267  1.00  0.00     0.000 C 
BRANCH   7   8
ATOM      8  C   UNL     1     176.592 189.538 182.420  1.00  0.00     0.000 C 
BRANCH   8   9
ATOM      9  C   UNL     1     175.724 188.342 182.876  1.00  0.00     0.000 C 
BRANCH   9  10
ATOM     10  C   UNL     1     176.331 186.975 182.509  1.00  0.00     0.006 C 
BRANCH  10  11
ATOM     11  C   UNL     1     175.507 185.796 183.042  1.00  0.00     0.053 C 
BRANCH  11  12
ATOM     12  C   UNL     1     175.353 184.738 181.992  1.00  0.00     0.041 C 
ATOM     13  O   UNL     1     175.585 183.531 182.267  1.00  0.00    -0.550 OA
ATOM     14  O   UNL     1     174.971 185.088 180.703  1.00  0.00    -0.550 OA
ENDBRANCH  11  12
ENDBRANCH  10  11
ENDBRANCH   9  10
ENDBRANCH   8   9
ENDBRANCH   7   8
ENDBRANCH   6   7
ENDBRANCH   5   6
ENDBRANCH   4   5
ENDBRANCH   3   4
ENDBRANCH   2   3
ENDBRANCH   1   2
BRANCH   1  15
ATOM     15  C   UNL     1     172.207 186.946 182.068  1.00  0.00     0.000 C 
BRANCH  15  16
ATOM     16  C   UNL     1     170.876 187.211 182.794  1.00  0.00     0.000 C 
BRANCH  16  17
ATOM     17  C   UNL     1     171.052 187.458 184.307  1.00  0.00     0.000 C 
BRANCH  17  18
ATOM     18  C   UNL     1     172.102 188.528 184.654  1.00  0.00    -0.000 C 
BRANCH  18  19
ATOM     19  C   UNL     1     173.341 188.022 185.419  1.00  0.00    -0.000 C 
BRANCH  19  20
ATOM     20  C   UNL     1     173.146 186.696 186.178  1.00  0.00    -0.000 C 
BRANCH  20  21
ATOM     21  C   UNL     1     174.474 186.019 186.564  1.00  0.00    -0.000 C 
BRANCH  21  22
ATOM     22  C   UNL     1     175.254 186.799 187.640  1.00  0.00    -0.000 C 
BRANCH  22  23
ATOM     23  C   UNL     1     176.620 187.348 187.183  1.00  0.00    -0.000 C 
BRANCH  23  24
ATOM     24  C   UNL     1     176.774 188.860 187.439  1.00  0.00    -0.000 C 
BRANCH  24  25
ATOM     25  C   UNL     1     176.580 189.697 186.163  1.00  0.00    -0.003 C 
ATOM     26  C   UNL     1     175.656 190.897 186.380  1.00  0.00     0.004 C 
ENDBRANCH  24  25
ENDBRANCH  23  24
ENDBRANCH  22  23
ENDBRANCH  21  22
ENDBRANCH  20  21
ENDBRANCH  19  20
ENDBRANCH  18  19
ENDBRANCH  17  18
ENDBRANCH  16  17
ENDBRANCH  15  16
ENDBRANCH   1  15
TORSDOF 22
ENDMDL
MODEL 5
REMARK VINA RESULT:    -1.478      2.300      4.800
REMARK INTER + INTRA:          -8.310
REMARK INTER:                  -3.655
REMARK INTRA:                  -4.655
REMARK UNBOUND:                -4.932
REMARK SMILES CCCCCCCCCCCCCCCCCCCCCCCC(=O)[O-]
REMARK SMILES IDX 13 1 14 2 15 3 16 4 17 5 18 6 19 7 20 8 21 9 22 10 23 11
REMARK SMILES IDX 24 12 25 13 26 14 12 15 11 16 10 17 9 18 8 19 7 20 6 21 5 22
REMARK SMILES IDX 4 23 3 24 2 25 1 26
REMARK H PARENT
REMARK Flexibility Score: inf
ROOT
ATOM      1  C   UNL     1     174.027 187.299 181.641  1.00  0.00     0.000 C 
ENDROOT
BRANCH   1   2
ATOM      2  C   UNL     1     174.063 186.988 183.153  1.00  0.00     0.000 C 
BRANCH   2   3
ATOM      3  C   UNL     1     173.012 187.791 183.937  1.00  0.00     0.000 C 
BRANCH   3   4
ATOM      4  C   UNL     1     173.636 188.722 184.993  1.00  0.00     0.000 C 
BRANCH   4   5
ATOM      5  C   UNL     1     174.645 188.050 185.945  1.00  0.00     0.000 C 
BRANCH   5   6
ATOM      6  C   UNL     1     175.645 189.046 186.558  1.00  0.00     0.000 C 
BRANCH   6   7
ATOM      7  C   UNL     1     175.346 190.501 186.168  1.00  0.00     0.000 C 
BRANCH   7   8
ATOM      8  C   UNL     1     176.441 191.482 186.629  1.00  0.00     0.000 C 
BRANCH   8   9
ATOM      9  C   UNL     1     177.855 190.866 186.523  1.00  0.00     0.000 C 
BRANCH   9  10
ATOM     10  C   UNL     1     178.627 190.883 187.855  1.00  0.00     0.006 C 
BRANCH  10  11
ATOM     11  C   UNL     1     177.702 190.926 189.078  1.00  0.00     0.053 C 
BRANCH  11  12
ATOM     12  C   UNL     1     177.919 189.728 189.951  1.00  0.00     0.041 C 
ATOM     13  O   UNL     1     177.561 188.585 189.563  1.00  0.00    -0.550 OA
ATOM     14  O   UNL     1     178.500 189.877 191.205  1.00  0.00    -0.550 OA
ENDBRANCH  11  12
ENDBRANCH  10  11
ENDBRANCH   9  10
ENDBRANCH   8   9
ENDBRANCH   7   8
ENDBRANCH   6   7
ENDBRANCH   5   6
ENDBRANCH   4   5
ENDBRANCH   3   4
ENDBRANCH   2   3
ENDBRANCH   1   2
BRANCH   1  15
ATOM     15  C   UNL     1     172.673 187.836 181.150  1.00  0.00     0.000 C 
BRANCH  15  16
ATOM     16  C   UNL     1     172.802 188.760 179.925  1.00  0.00     0.000 C 
BRANCH  16  17
ATOM     17  C   UNL     1     172.293 190.191 180.193  1.00  0.00     0.000 C 
BRANCH  17  18
ATOM     18  C   UNL     1     171.823 190.435 181.639  1.00  0.00    -0.000 C 
BRANCH  18  19
ATOM     19  C   UNL     1     172.734 191.339 182.492  1.00  0.00    -0.000 C 
BRANCH  19  20
ATOM     20  C   UNL     1     174.107 191.660 181.871  1.00  0.00    -0.000 C 
BRANCH  20  21
ATOM     21  C   UNL     1     175.245 190.794 182.438  1.00  0.00    -0.000 C 
BRANCH  21  22
ATOM     22  C   UNL     1     176.199 190.268 181.348  1.00  0.00    -0.000 C 
BRANCH  22  23
ATOM     23  C   UNL     1     177.169 189.162 181.810  1.00  0.00    -0.000 C 
BRANCH  23  24
ATOM     24  C   UNL     1     177.255 189.043 183.344  1.00  0.00    -0.000 C 
BRANCH  24  25
ATOM     25  C   UNL     1     178.235 187.948 183.797  1.00  0.00    -0.003 C 
ATOM     26  C   UNL     1     177.664 186.539 183.628  1.00  0.00     0.004 C 
ENDBRANCH  24  25
ENDBRANCH  23  24
ENDBRANCH  22  23
ENDBRANCH  21  22
ENDBRANCH  20  21
ENDBRANCH  19  20
ENDBRANCH  18  19
ENDBRANCH  17  18
ENDBRANCH  16  17
ENDBRANCH  15  16
ENDBRANCH   1  15
TORSDOF 22
ENDMDL
MODEL 6
REMARK VINA RESULT:    -1.473      1.979      5.204
REMARK INTER + INTRA:          -8.299
REMARK INTER:                  -4.070
REMARK INTRA:                  -4.229
REMARK UNBOUND:                -4.932
REMARK SMILES CCCCCCCCCCCCCCCCCCCCCCCC(=O)[O-]
REMARK SMILES IDX 13 1 14 2 15 3 16 4 17 5 18 6 19 7 20 8 21 9 22 10 23 11
REMARK SMILES IDX 24 12 25 13 26 14 12 15 11 16 10 17 9 18 8 19 7 20 6 21 5 22
REMARK SMILES IDX 4 23 3 24 2 25 1 26
REMARK H PARENT
REMARK Flexibility Score: inf
ROOT
ATOM      1  C   UNL     1     175.647 190.024 182.007  1.00  0.00     0.000 C 
ENDROOT
BRANCH   1   2
ATOM      2  C   UNL     1     176.704 189.402 182.945  1.00  0.00     0.000 C 
BRANCH   2   3
ATOM      3  C   UNL     1     176.729 187.868 182.858  1.00  0.00     0.000 C 
BRANCH   3   4
ATOM      4  C   UNL     1     175.500 187.289 182.133  1.00  0.00     0.000 C 
BRANCH   4   5
ATOM      5  C   UNL     1     174.793 186.131 182.865  1.00  0.00     0.000 C 
BRANCH   5   6
ATOM      6  C   UNL     1     175.691 185.447 183.911  1.00  0.00     0.000 C 
BRANCH   6   7
ATOM      7  C   UNL     1     175.290 183.987 184.172  1.00  0.00     0.000 C 
BRANCH   7   8
ATOM      8  C   UNL     1     175.681 183.502 185.581  1.00  0.00     0.000 C 
BRANCH   8   9
ATOM      9  C   UNL     1     175.615 184.638 186.627  1.00  0.00     0.000 C 
BRANCH   9  10
ATOM     10  C   UNL     1     174.514 184.429 187.683  1.00  0.00     0.006 C 
BRANCH  10  11
ATOM     11  C   UNL     1     173.226 185.197 187.359  1.00  0.00     0.053 C 
BRANCH  11  12
ATOM     12  C   UNL     1     172.415 185.422 188.599  1.00  0.00     0.041 C 
ATOM     13  O   UNL     1     172.902 186.058 189.570  1.00  0.00    -0.550 OA
ATOM     14  O   UNL     1     171.126 184.911 188.688  1.00  0.00    -0.550 OA
ENDBRANCH  11  12
ENDBRANCH  10  11
ENDBRANCH   9  10
ENDBRANCH   8   9
ENDBRANCH   7   8
ENDBRANCH   6   7
ENDBRANCH   5   6
ENDBRANCH   4   5
ENDBRANCH   3   4
ENDBRANCH   2   3
ENDBRANCH   1   2
BRANCH   1  15
ATOM     15  C   UNL     1     174.655 190.957 182.721  1.00  0.00     0.000 C 
BRANCH  15  16
ATOM     16  C   UNL     1     173.447 191.334 181.844  1.00  0.00     0.000 C 
BRANCH  16  17
ATOM     17  C   UNL     1     172.141 190.645 182.288  1.00  0.00     0.000 C 
BRANCH  17  18
ATOM     18  C   UNL     1     171.962 189.217 181.740  1.00  0.00    -0.000 C 
BRANCH  18  19
ATOM     19  C   UNL     1     171.631 188.137 182.789  1.00  0.00    -0.000 C 
BRANCH  19  20
ATOM     20  C   UNL     1     171.600 188.629 184.249  1.00  0.00    -0.000 C 
BRANCH  20  21
ATOM     21  C   UNL     1     172.682 187.980 185.130  1.00  0.00    -0.000 C 
BRANCH  21  22
ATOM     22  C   UNL     1     173.923 188.874 185.311  1.00  0.00    -0.000 C 
BRANCH  22  23
ATOM     23  C   UNL     1     175.023 188.284 186.216  1.00  0.00    -0.000 C 
BRANCH  23  24
ATOM     24  C   UNL     1     176.103 189.315 186.597  1.00  0.00    -0.000 C 
BRANCH  24  25
ATOM     25  C   UNL     1     175.687 190.757 186.263  1.00  0.00    -0.003 C 
ATOM     26  C   UNL     1     176.020 191.743 187.384  1.00  0.00     0.004 C 
ENDBRANCH  24  25
ENDBRANCH  23  24
ENDBRANCH  22  23
ENDBRANCH  21  22
ENDBRANCH  20  21
ENDBRANCH  19  20
ENDBRANCH  18  19
ENDBRANCH  17  18
ENDBRANCH  16  17
ENDBRANCH  15  16
ENDBRANCH   1  15
TORSDOF 22
ENDMDL
MODEL 7
REMARK VINA RESULT:    -1.470      1.579      5.138
REMARK INTER + INTRA:          -8.293
REMARK INTER:                  -3.868
REMARK INTRA:                  -4.425
REMARK UNBOUND:                -4.932
REMARK SMILES CCCCCCCCCCCCCCCCCCCCCCCC(=O)[O-]
REMARK SMILES IDX 13 1 14 2 15 3 16 4 17 5 18 6 19 7 20 8 21 9 22 10 23 11
REMARK SMILES IDX 24 12 25 13 26 14 12 15 11 16 10 17 9 18 8 19 7 20 6 21 5 22
REMARK SMILES IDX 4 23 3 24 2 25 1 26
REMARK H PARENT
REMARK Flexibility Score: inf
ROOT
ATOM      1  C   UNL     1     172.123 188.873 179.334  1.00  0.00     0.000 C 
ENDROOT
BRANCH   1   2
ATOM      2  C   UNL     1     172.706 187.604 179.993  1.00  0.00     0.000 C 
BRANCH   2   3
ATOM      3  C   UNL     1     171.759 187.008 181.047  1.00  0.00     0.000 C 
BRANCH   3   4
ATOM      4  C   UNL     1     172.386 186.951 182.452  1.00  0.00     0.000 C 
BRANCH   4   5
ATOM      5  C   UNL     1     171.439 186.479 183.573  1.00  0.00     0.000 C 
BRANCH   5   6
ATOM      6  C   UNL     1     171.415 187.435 184.779  1.00  0.00     0.000 C 
BRANCH   6   7
ATOM      7  C   UNL     1     172.774 188.105 185.030  1.00  0.00     0.000 C 
BRANCH   7   8
ATOM      8  C   UNL     1     173.588 187.411 186.138  1.00  0.00     0.000 C 
BRANCH   8   9
ATOM      9  C   UNL     1     174.735 186.548 185.563  1.00  0.00     0.000 C 
BRANCH   9  10
ATOM     10  C   UNL     1     176.130 186.994 186.039  1.00  0.00     0.006 C 
BRANCH  10  11
ATOM     11  C   UNL     1     176.863 185.907 186.835  1.00  0.00     0.053 C 
BRANCH  11  12
ATOM     12  C   UNL     1     176.359 185.849 188.245  1.00  0.00     0.041 C 
ATOM     13  O   UNL     1     176.176 186.909 188.898  1.00  0.00    -0.550 OA
ATOM     14  O   UNL     1     176.111 184.620 188.844  1.00  0.00    -0.550 OA
ENDBRANCH  11  12
ENDBRANCH  10  11
ENDBRANCH   9  10
ENDBRANCH   8   9
ENDBRANCH   7   8
ENDBRANCH   6   7
ENDBRANCH   5   6
ENDBRANCH   4   5
ENDBRANCH   3   4
ENDBRANCH   2   3
ENDBRANCH   1   2
BRANCH   1  15
ATOM     15  C   UNL     1     170.974 189.514 180.130  1.00  0.00     0.000 C 
BRANCH  15  16
ATOM     16  C   UNL     1     171.397 190.799 180.865  1.00  0.00     0.000 C 
BRANCH  16  17
ATOM     17  C   UNL     1     171.784 190.553 182.337  1.00  0.00     0.000 C 
BRANCH  17  18
ATOM     18  C   UNL     1     173.230 190.951 182.686  1.00  0.00    -0.000 C 
BRANCH  18  19
ATOM     19  C   UNL     1     174.209 191.011 181.497  1.00  0.00    -0.000 C 
BRANCH  19  20
ATOM     20  C   UNL     1     175.213 189.846 181.415  1.00  0.00    -0.000 C 
BRANCH  20  21
ATOM     21  C   UNL     1     175.420 189.129 182.761  1.00  0.00    -0.000 C 
BRANCH  21  22
ATOM     22  C   UNL     1     176.677 189.611 183.510  1.00  0.00    -0.000 C 
BRANCH  22  23
ATOM     23  C   UNL     1     176.462 190.836 184.421  1.00  0.00    -0.000 C 
BRANCH  23  24
ATOM     24  C   UNL     1     175.498 190.553 185.589  1.00  0.00    -0.000 C 
BRANCH  24  25
ATOM     25  C   UNL     1     175.972 191.181 186.911  1.00  0.00    -0.003 C 
ATOM     26  C   UNL     1     176.971 190.297 187.659  1.00  0.00     0.004 C 
ENDBRANCH  24  25
ENDBRANCH  23  24
ENDBRANCH  22  23
ENDBRANCH  21  22
ENDBRANCH  20  21
ENDBRANCH  19  20
ENDBRANCH  18  19
ENDBRANCH  17  18
ENDBRANCH  16  17
ENDBRANCH  15  16
ENDBRANCH   1  15
TORSDOF 22
ENDMDL
MODEL 8
REMARK VINA RESULT:    -1.426      2.141      4.449
REMARK INTER + INTRA:          -8.192
REMARK INTER:                  -3.520
REMARK INTRA:                  -4.672
REMARK UNBOUND:                -4.932
REMARK SMILES CCCCCCCCCCCCCCCCCCCCCCCC(=O)[O-]
REMARK SMILES IDX 13 1 14 2 15 3 16 4 17 5 18 6 19 7 20 8 21 9 22 10 23 11
REMARK SMILES IDX 24 12 25 13 26 14 12 15 11 16 10 17 9 18 8 19 7 20 6 21 5 22
REMARK SMILES IDX 4 23 3 24 2 25 1 26
REMARK H PARENT
REMARK Flexibility Score: inf
ROOT
ATOM      1  C   UNL     1     173.058 186.431 184.637  1.00  0.00     0.000 C 
ENDROOT
BRANCH   1   2
ATOM      2  C   UNL     1     173.628 186.029 186.015  1.00  0.00     0.000 C 
BRANCH   2   3
ATOM      3  C   UNL     1     174.157 187.239 186.802  1.00  0.00     0.000 C 
BRANCH   3   4
ATOM      4  C   UNL     1     175.127 188.109 185.981  1.00  0.00     0.000 C 
BRANCH   4   5
ATOM      5  C   UNL     1     174.654 189.555 185.728  1.00  0.00     0.000 C 
BRANCH   5   6
ATOM      6  C   UNL     1     175.650 190.609 186.243  1.00  0.00     0.000 C 
BRANCH   6   7
ATOM      7  C   UNL     1     176.920 189.982 186.838  1.00  0.00     0.000 C 
BRANCH   7   8
ATOM      8  C   UNL     1     178.213 190.634 186.310  1.00  0.00     0.000 C 
BRANCH   8   9
ATOM      9  C   UNL     1     178.113 190.990 184.809  1.00  0.00     0.000 C 
BRANCH   9  10
ATOM     10  C   UNL     1     179.224 190.348 183.957  1.00  0.00     0.006 C 
BRANCH  10  11
ATOM     11  C   UNL     1     179.894 189.156 184.653  1.00  0.00     0.053 C 
BRANCH  11  12
ATOM     12  C   UNL     1     179.326 187.862 184.155  1.00  0.00     0.041 C 
ATOM     13  O   UNL     1     179.679 187.401 183.037  1.00  0.00    -0.550 OA
ATOM     14  O   UNL     1     178.392 187.173 184.919  1.00  0.00    -0.550 OA
ENDBRANCH  11  12
ENDBRANCH  10  11
ENDBRANCH   9  10
ENDBRANCH   8   9
ENDBRANCH   7   8
ENDBRANCH   6   7
ENDBRANCH   5   6
ENDBRANCH   4   5
ENDBRANCH   3   4
ENDBRANCH   2   3
ENDBRANCH   1   2
BRANCH   1  15
ATOM     15  C   UNL     1     171.599 186.915 184.686  1.00  0.00     0.000 C 
BRANCH  15  16
ATOM     16  C   UNL     1     171.460 188.428 184.438  1.00  0.00     0.000 C 
BRANCH  16  17
ATOM     17  C   UNL     1     172.000 188.866 183.062  1.00  0.00     0.000 C 
BRANCH  17  18
ATOM     18  C   UNL     1     172.242 190.381 182.930  1.00  0.00    -0.000 C 
BRANCH  18  19
ATOM     19  C   UNL     1     172.765 190.856 181.560  1.00  0.00    -0.000 C 
BRANCH  19  20
ATOM     20  C   UNL     1     174.006 191.766 181.611  1.00  0.00    -0.000 C 
BRANCH  20  21
ATOM     21  C   UNL     1     175.138 191.198 182.485  1.00  0.00    -0.000 C 
BRANCH  21  22
ATOM     22  C   UNL     1     176.001 190.158 181.746  1.00  0.00    -0.000 C 
BRANCH  22  23
ATOM     23  C   UNL     1     176.179 188.816 182.485  1.00  0.00    -0.000 C 
BRANCH  23  24
ATOM     24  C   UNL     1     175.266 187.703 181.934  1.00  0.00    -0.000 C 
BRANCH  24  25
ATOM     25  C   UNL     1     174.839 187.956 180.479  1.00  0.00    -0.003 C 
ATOM     26  C   UNL     1     173.510 187.284 180.129  1.00  0.00     0.004 C 
ENDBRANCH  24  25
ENDBRANCH  23  24
ENDBRANCH  22  23
ENDBRANCH  21  22
ENDBRANCH  20  21
ENDBRANCH  19  20
ENDBRANCH  18  19
ENDBRANCH  17  18
ENDBRANCH  16  17
ENDBRANCH  15  16
ENDBRANCH   1  15
TORSDOF 22
ENDMDL
MODEL 9
REMARK VINA RESULT:    -1.422      3.658      6.272
REMARK INTER + INTRA:          -8.182
REMARK INTER:                  -3.973
REMARK INTRA:                  -4.210
REMARK UNBOUND:                -4.932
REMARK SMILES CCCCCCCCCCCCCCCCCCCCCCCC(=O)[O-]
REMARK SMILES IDX 13 1 14 2 15 3 16 4 17 5 18 6 19 7 20 8 21 9 22 10 23 11
REMARK SMILES IDX 24 12 25 13 26 14 12 15 11 16 10 17 9 18 8 19 7 20 6 21 5 22
REMARK SMILES IDX 4 23 3 24 2 25 1 26
REMARK H PARENT
REMARK Flexibility Score: inf
ROOT
ATOM      1  C   UNL     1     170.899 189.256 180.210  1.00  0.00     0.000 C 
ENDROOT
BRANCH   1   2
ATOM      2  C   UNL     1     170.882 190.774 180.491  1.00  0.00     0.000 C 
BRANCH   2   3
ATOM      3  C   UNL     1     172.298 191.372 180.545  1.00  0.00     0.000 C 
BRANCH   3   4
ATOM      4  C   UNL     1     172.759 191.690 181.979  1.00  0.00     0.000 C 
BRANCH   4   5
ATOM      5  C   UNL     1     173.740 190.670 182.592  1.00  0.00     0.000 C 
BRANCH   5   6
ATOM      6  C   UNL     1     175.120 190.683 181.912  1.00  0.00     0.000 C 
BRANCH   6   7
ATOM      7  C   UNL     1     175.391 189.408 181.098  1.00  0.00     0.000 C 
BRANCH   7   8
ATOM      8  C   UNL     1     175.463 189.670 179.582  1.00  0.00     0.000 C 
BRANCH   8   9
ATOM      9  C   UNL     1     174.369 188.900 178.807  1.00  0.00     0.000 C 
BRANCH   9  10
ATOM     10  C   UNL     1     174.218 189.365 177.346  1.00  0.00     0.006 C 
BRANCH  10  11
ATOM     11  C   UNL     1     172.768 189.704 176.977  1.00  0.00     0.053 C 
BRANCH  11  12
ATOM     12  C   UNL     1     172.062 188.500 176.433  1.00  0.00     0.041 C 
ATOM     13  O   UNL     1     170.963 188.131 176.925  1.00  0.00    -0.550 OA
ATOM     14  O   UNL     1     172.629 187.772 175.394  1.00  0.00    -0.550 OA
ENDBRANCH  11  12
ENDBRANCH  10  11
ENDBRANCH   9  10
ENDBRANCH   8   9
ENDBRANCH   7   8
ENDBRANCH   6   7
ENDBRANCH   5   6
ENDBRANCH   4   5
ENDBRANCH   3   4
ENDBRANCH   2   3
ENDBRANCH   1   2
BRANCH   1  15
ATOM     15  C   UNL     1     171.090 188.394 181.470  1.00  0.00     0.000 C 
BRANCH  15  16
ATOM     16  C   UNL     1     172.261 187.402 181.345  1.00  0.00     0.000 C 
BRANCH  16  17
ATOM     17  C   UNL     1     172.884 187.030 182.707  1.00  0.00     0.000 C 
BRANCH  17  18
ATOM     18  C   UNL     1     172.040 187.453 183.924  1.00  0.00    -0.000 C 
BRANCH  18  19
ATOM     19  C   UNL     1     172.795 188.233 185.019  1.00  0.00    -0.000 C 
BRANCH  19  20
ATOM     20  C   UNL     1     173.464 187.363 186.100  1.00  0.00    -0.000 C 
BRANCH  20  21
ATOM     21  C   UNL     1     174.997 187.497 186.122  1.00  0.00    -0.000 C 
BRANCH  21  22
ATOM     22  C   UNL     1     175.547 188.288 184.920  1.00  0.00    -0.000 C 
BRANCH  22  23
ATOM     23  C   UNL     1     176.328 189.566 185.285  1.00  0.00    -0.000 C 
BRANCH  23  24
ATOM     24  C   UNL     1     175.442 190.644 185.939  1.00  0.00    -0.000 C 
BRANCH  24  25
ATOM     25  C   UNL     1     176.070 191.230 187.215  1.00  0.00    -0.003 C 
ATOM     26  C   UNL     1     177.288 190.437 187.690  1.00  0.00     0.004 C 
ENDBRANCH  24  25
ENDBRANCH  23  24
ENDBRANCH  22  23
ENDBRANCH  21  22
ENDBRANCH  20  21
ENDBRANCH  19  20
ENDBRANCH  18  19
ENDBRANCH  17  18
ENDBRANCH  16  17
ENDBRANCH  15  16
ENDBRANCH   1  15
TORSDOF 22
ENDMDL
