MODEL 1
REMARK VINA RESULT:    -6.382      0.000      0.000
REMARK INTER + INTRA:          -8.005
REMARK INTER:                  -7.688
REMARK INTRA:                  -0.317
REMARK UNBOUND:                -0.317
REMARK SMILES O=c1c(O)c(-c2ccc(O)c(O)c2)oc2cc(O)cc(O)c12
REMARK SMILES IDX 5 1 3 2 2 3 1 4 22 5 20 6 19 7 17 8 16 9 15 10 14 11 6 12
REMARK SMILES IDX 7 13 8 14 9 15 13 16 11 17 10 18 12 20 4 22 21 24 18 26
REMARK H PARENT 10 19 12 21 4 23 21 25 18 27
REMARK Flexibility Score: inf
ROOT
ATOM      1  C   UNL     1      59.889  28.984  24.543  1.00  0.00     0.180 A 
ATOM      2  C   UNL     1      59.056  30.102  24.354  1.00  0.00     0.208 A 
ATOM      3  C   UNL     1      59.100  30.784  23.127  1.00  0.00     0.238 A 
ATOM      4  O   UNL     1      58.393  31.815  22.984  1.00  0.00    -0.285 OA
ATOM      5  C   UNL     1      59.963  30.332  22.101  1.00  0.00     0.111 A 
ATOM      6  C   UNL     1      60.059  30.922  20.804  1.00  0.00     0.134 A 
ATOM      7  C   UNL     1      61.041  30.474  19.912  1.00  0.00     0.093 A 
ATOM      8  C   UNL     1      61.884  29.413  20.243  1.00  0.00     0.123 A 
ATOM      9  C   UNL     1      61.759  28.789  21.484  1.00  0.00     0.094 A 
ATOM     10  C   UNL     1      60.813  29.239  22.410  1.00  0.00     0.146 A 
ATOM     11  O   UNL     1      60.734  28.625  23.584  1.00  0.00    -0.452 OA
ENDROOT
BRANCH   1  12
ATOM     12  C   UNL     1      59.881  28.199  25.798  1.00  0.00     0.025 A 
ATOM     13  C   UNL     1      60.777  28.479  26.841  1.00  0.00     0.016 A 
ATOM     14  C   UNL     1      60.734  27.741  28.025  1.00  0.00     0.051 A 
ATOM     15  C   UNL     1      59.793  26.721  28.198  1.00  0.00     0.157 A 
ATOM     16  C   UNL     1      58.921  27.191  25.977  1.00  0.00     0.062 A 
ATOM     17  C   UNL     1      58.871  26.444  27.161  1.00  0.00     0.158 A 
BRANCH  15  18
ATOM     18  O   UNL     1      59.807  26.018  29.405  1.00  0.00    -0.504 OA
ATOM     19  H   UNL     1      59.460  26.388  30.278  1.00  0.00     0.293 HD
ENDBRANCH  15  18
BRANCH  17  20
ATOM     20  O   UNL     1      57.897  25.449  27.264  1.00  0.00    -0.504 OA
ATOM     21  H   UNL     1      57.409  25.223  28.118  1.00  0.00     0.293 HD
ENDBRANCH  17  20
ENDBRANCH   1  12
BRANCH   2  22
ATOM     22  O   UNL     1      58.228  30.544  25.389  1.00  0.00    -0.502 OA
ATOM     23  H   UNL     1      57.243  30.315  25.433  1.00  0.00     0.293 HD
ENDBRANCH   2  22
BRANCH   6  24
ATOM     24  O   UNL     1      59.205  31.925  20.339  1.00  0.00    -0.507 OA
ATOM     25  H   UNL     1      58.680  32.554  20.929  1.00  0.00     0.293 HD
ENDBRANCH   6  24
BRANCH   8  26
ATOM     26  O   UNL     1      62.839  28.983  19.324  1.00  0.00    -0.508 OA
ATOM     27  H   UNL     1      63.120  28.011  19.267  1.00  0.00     0.293 HD
ENDBRANCH   8  26
TORSDOF 6
ENDMDL
MODEL 2
REMARK VINA RESULT:    -6.204      0.641      1.494
REMARK INTER + INTRA:          -7.791
REMARK INTER:                  -7.464
REMARK INTRA:                  -0.327
REMARK UNBOUND:                -0.317
REMARK SMILES O=c1c(O)c(-c2ccc(O)c(O)c2)oc2cc(O)cc(O)c12
REMARK SMILES IDX 5 1 3 2 2 3 1 4 22 5 20 6 19 7 17 8 16 9 15 10 14 11 6 12
REMARK SMILES IDX 7 13 8 14 9 15 13 16 11 17 10 18 12 20 4 22 21 24 18 26
REMARK H PARENT 10 19 12 21 4 23 21 25 18 27
REMARK Flexibility Score: inf
ROOT
ATOM      1  C   UNL     1      59.881  28.960  24.549  1.00  0.00     0.180 A 
ATOM      2  C   UNL     1      59.032  30.067  24.370  1.00  0.00     0.208 A 
ATOM      3  C   UNL     1      59.057  30.753  23.145  1.00  0.00     0.238 A 
ATOM      4  O   UNL     1      58.335  31.775  23.010  1.00  0.00    -0.285 OA
ATOM      5  C   UNL     1      59.918  30.315  22.110  1.00  0.00     0.111 A 
ATOM      6  C   UNL     1      59.996  30.910  20.814  1.00  0.00     0.134 A 
ATOM      7  C   UNL     1      60.977  30.477  19.913  1.00  0.00     0.093 A 
ATOM      8  C   UNL     1      61.836  29.428  20.235  1.00  0.00     0.123 A 
ATOM      9  C   UNL     1      61.730  28.799  21.476  1.00  0.00     0.094 A 
ATOM     10  C   UNL     1      60.785  29.233  22.411  1.00  0.00     0.146 A 
ATOM     11  O   UNL     1      60.723  28.615  23.583  1.00  0.00    -0.452 OA
ENDROOT
BRANCH   1  12
ATOM     12  C   UNL     1      59.893  28.172  25.803  1.00  0.00     0.025 A 
ATOM     13  C   UNL     1      58.970  27.138  26.025  1.00  0.00     0.016 A 
ATOM     14  C   UNL     1      59.017  26.392  27.204  1.00  0.00     0.051 A 
ATOM     15  C   UNL     1      59.988  26.652  28.176  1.00  0.00     0.157 A 
ATOM     16  C   UNL     1      60.883  28.421  26.766  1.00  0.00     0.062 A 
ATOM     17  C   UNL     1      60.937  27.678  27.953  1.00  0.00     0.158 A 
BRANCH  15  18
ATOM     18  O   UNL     1      59.977  25.873  29.335  1.00  0.00    -0.504 OA
ATOM     19  H   UNL     1      60.268  26.207  30.242  1.00  0.00     0.293 HD
ENDBRANCH  15  18
BRANCH  17  20
ATOM     20  O   UNL     1      61.942  27.989  28.871  1.00  0.00    -0.504 OA
ATOM     21  H   UNL     1      62.274  28.926  29.049  1.00  0.00     0.293 HD
ENDBRANCH  17  20
ENDBRANCH   1  12
BRANCH   2  22
ATOM     22  O   UNL     1      58.206  30.495  25.412  1.00  0.00    -0.502 OA
ATOM     23  H   UNL     1      58.572  30.838  26.292  1.00  0.00     0.293 HD
ENDBRANCH   2  22
BRANCH   6  24
ATOM     24  O   UNL     1      59.124  31.903  20.358  1.00  0.00    -0.507 OA
ATOM     25  H   UNL     1      59.351  32.885  20.298  1.00  0.00     0.293 HD
ENDBRANCH   6  24
BRANCH   8  26
ATOM     26  O   UNL     1      62.790  29.013  19.308  1.00  0.00    -0.508 OA
ATOM     27  H   UNL     1      63.726  28.746  19.592  1.00  0.00     0.293 HD
ENDBRANCH   8  26
TORSDOF 6
ENDMDL
MODEL 3
REMARK VINA RESULT:    -6.108      2.479      7.290
REMARK INTER + INTRA:          -7.676
REMARK INTER:                  -7.386
REMARK INTRA:                  -0.290
REMARK UNBOUND:                -0.317
REMARK SMILES O=c1c(O)c(-c2ccc(O)c(O)c2)oc2cc(O)cc(O)c12
REMARK SMILES IDX 5 1 3 2 2 3 1 4 22 5 20 6 19 7 17 8 16 9 15 10 14 11 6 12
REMARK SMILES IDX 7 13 8 14 9 15 13 16 11 17 10 18 12 20 4 22 21 24 18 26
REMARK H PARENT 10 19 12 21 4 23 21 25 18 27
REMARK Flexibility Score: inf
ROOT
ATOM      1  C   UNL     1      61.461  30.382  23.787  1.00  0.00     0.180 A 
ATOM      2  C   UNL     1      61.081  29.048  24.022  1.00  0.00     0.208 A 
ATOM      3  C   UNL     1      61.067  28.567  25.342  1.00  0.00     0.238 A 
ATOM      4  O   UNL     1      60.779  27.358  25.540  1.00  0.00    -0.285 OA
ATOM      5  C   UNL     1      61.419  29.427  26.409  1.00  0.00     0.111 A 
ATOM      6  C   UNL     1      61.401  29.057  27.788  1.00  0.00     0.134 A 
ATOM      7  C   UNL     1      61.893  29.948  28.749  1.00  0.00     0.093 A 
ATOM      8  C   UNL     1      62.339  31.220  28.390  1.00  0.00     0.123 A 
ATOM      9  C   UNL     1      62.305  31.614  27.052  1.00  0.00     0.094 A 
ATOM     10  C   UNL     1      61.854  30.733  26.065  1.00  0.00     0.146 A 
ATOM     11  O   UNL     1      61.847  31.144  24.803  1.00  0.00    -0.452 OA
ENDROOT
BRANCH   1  12
ATOM     12  C   UNL     1      61.476  30.969  22.428  1.00  0.00     0.025 A 
ATOM     13  C   UNL     1      62.668  31.092  21.698  1.00  0.00     0.016 A 
ATOM     14  C   UNL     1      62.653  31.626  20.409  1.00  0.00     0.051 A 
ATOM     15  C   UNL     1      61.454  32.036  19.818  1.00  0.00     0.157 A 
ATOM     16  C   UNL     1      60.267  31.358  21.831  1.00  0.00     0.062 A 
ATOM     17  C   UNL     1      60.243  31.896  20.538  1.00  0.00     0.158 A 
BRANCH  15  18
ATOM     18  O   UNL     1      61.508  32.566  18.527  1.00  0.00    -0.504 OA
ATOM     19  H   UNL     1      60.764  33.101  18.105  1.00  0.00     0.293 HD
ENDBRANCH  15  18
BRANCH  17  20
ATOM     20  O   UNL     1      59.005  32.273  20.011  1.00  0.00    -0.504 OA
ATOM     21  H   UNL     1      58.120  32.085  20.460  1.00  0.00     0.293 HD
ENDBRANCH  17  20
ENDBRANCH   1  12
BRANCH   2  22
ATOM     22  O   UNL     1      60.759  28.210  22.952  1.00  0.00    -0.502 OA
ATOM     23  H   UNL     1      60.321  28.552  22.105  1.00  0.00     0.293 HD
ENDBRANCH   2  22
BRANCH   6  24
ATOM     24  O   UNL     1      60.890  27.846  28.264  1.00  0.00    -0.507 OA
ATOM     25  H   UNL     1      61.360  26.955  28.194  1.00  0.00     0.293 HD
ENDBRANCH   6  24
BRANCH   8  26
ATOM     26  O   UNL     1      62.808  32.087  29.375  1.00  0.00    -0.508 OA
ATOM     27  H   UNL     1      63.710  32.541  29.295  1.00  0.00     0.293 HD
ENDBRANCH   8  26
TORSDOF 6
ENDMDL
MODEL 4
REMARK VINA RESULT:    -6.015      1.656      6.556
REMARK INTER + INTRA:          -7.563
REMARK INTER:                  -7.231
REMARK INTRA:                  -0.332
REMARK UNBOUND:                -0.317
REMARK SMILES O=c1c(O)c(-c2ccc(O)c(O)c2)oc2cc(O)cc(O)c12
REMARK SMILES IDX 5 1 3 2 2 3 1 4 22 5 20 6 19 7 17 8 16 9 15 10 14 11 6 12
REMARK SMILES IDX 7 13 8 14 9 15 13 16 11 17 10 18 12 20 4 22 21 24 18 26
REMARK H PARENT 10 19 12 21 4 23 21 25 18 27
REMARK Flexibility Score: inf
ROOT
ATOM      1  C   UNL     1      59.971  29.602  24.137  1.00  0.00     0.180 A 
ATOM      2  C   UNL     1      58.666  30.124  24.181  1.00  0.00     0.208 A 
ATOM      3  C   UNL     1      57.804  29.715  25.212  1.00  0.00     0.238 A 
ATOM      4  O   UNL     1      56.621  30.145  25.214  1.00  0.00    -0.285 OA
ATOM      5  C   UNL     1      58.260  28.802  26.191  1.00  0.00     0.111 A 
ATOM      6  C   UNL     1      57.485  28.350  27.302  1.00  0.00     0.134 A 
ATOM      7  C   UNL     1      57.992  27.346  28.136  1.00  0.00     0.093 A 
ATOM      8  C   UNL     1      59.271  26.826  27.940  1.00  0.00     0.123 A 
ATOM      9  C   UNL     1      60.061  27.303  26.893  1.00  0.00     0.094 A 
ATOM     10  C   UNL     1      59.568  28.278  26.022  1.00  0.00     0.146 A 
ATOM     11  O   UNL     1      60.347  28.697  25.033  1.00  0.00    -0.452 OA
ENDROOT
BRANCH   1  12
ATOM     12  C   UNL     1      60.946  30.004  23.097  1.00  0.00     0.025 A 
ATOM     13  C   UNL     1      61.750  31.143  23.252  1.00  0.00     0.016 A 
ATOM     14  C   UNL     1      62.679  31.489  22.269  1.00  0.00     0.051 A 
ATOM     15  C   UNL     1      62.834  30.703  21.123  1.00  0.00     0.157 A 
ATOM     16  C   UNL     1      61.113  29.200  21.959  1.00  0.00     0.062 A 
ATOM     17  C   UNL     1      62.043  29.540  20.968  1.00  0.00     0.158 A 
BRANCH  15  18
ATOM     18  O   UNL     1      63.778  31.106  20.176  1.00  0.00    -0.504 OA
ATOM     19  H   UNL     1      64.656  31.547  20.408  1.00  0.00     0.293 HD
ENDBRANCH  15  18
BRANCH  17  20
ATOM     20  O   UNL     1      62.147  28.699  19.857  1.00  0.00    -0.504 OA
ATOM     21  H   UNL     1      62.952  28.122  19.660  1.00  0.00     0.293 HD
ENDBRANCH  17  20
ENDBRANCH   1  12
BRANCH   2  22
ATOM     22  O   UNL     1      58.229  31.009  23.192  1.00  0.00    -0.502 OA
ATOM     23  H   UNL     1      58.691  31.891  23.007  1.00  0.00     0.293 HD
ENDBRANCH   2  22
BRANCH   6  24
ATOM     24  O   UNL     1      56.233  28.869  27.642  1.00  0.00    -0.507 OA
ATOM     25  H   UNL     1      55.898  29.784  27.376  1.00  0.00     0.293 HD
ENDBRANCH   6  24
BRANCH   8  26
ATOM     26  O   UNL     1      59.750  25.838  28.798  1.00  0.00    -0.508 OA
ATOM     27  H   UNL     1      59.632  25.906  29.803  1.00  0.00     0.293 HD
ENDBRANCH   8  26
TORSDOF 6
ENDMDL
MODEL 5
REMARK VINA RESULT:    -5.982      2.964      3.593
REMARK INTER + INTRA:          -7.523
REMARK INTER:                  -7.203
REMARK INTRA:                  -0.320
REMARK UNBOUND:                -0.317
REMARK SMILES O=c1c(O)c(-c2ccc(O)c(O)c2)oc2cc(O)cc(O)c12
REMARK SMILES IDX 5 1 3 2 2 3 1 4 22 5 20 6 19 7 17 8 16 9 15 10 14 11 6 12
REMARK SMILES IDX 7 13 8 14 9 15 13 16 11 17 10 18 12 20 4 22 21 24 18 26
REMARK H PARENT 10 19 12 21 4 23 21 25 18 27
REMARK Flexibility Score: inf
ROOT
ATOM      1  C   UNL     1      61.349  31.300  24.624  1.00  0.00     0.180 A 
ATOM      2  C   UNL     1      60.029  31.675  24.318  1.00  0.00     0.208 A 
ATOM      3  C   UNL     1      59.523  31.399  23.037  1.00  0.00     0.238 A 
ATOM      4  O   UNL     1      58.359  31.786  22.752  1.00  0.00    -0.285 OA
ATOM      5  C   UNL     1      60.336  30.740  22.085  1.00  0.00     0.111 A 
ATOM      6  C   UNL     1      59.914  30.375  20.771  1.00  0.00     0.134 A 
ATOM      7  C   UNL     1      60.843  29.843  19.869  1.00  0.00     0.093 A 
ATOM      8  C   UNL     1      62.161  29.601  20.253  1.00  0.00     0.123 A 
ATOM      9  C   UNL     1      62.571  29.899  21.553  1.00  0.00     0.094 A 
ATOM     10  C   UNL     1      61.675  30.465  22.465  1.00  0.00     0.146 A 
ATOM     11  O   UNL     1      62.108  30.742  23.689  1.00  0.00    -0.452 OA
ENDROOT
BRANCH   1  12
ATOM     12  C   UNL     1      61.944  31.534  25.960  1.00  0.00     0.025 A 
ATOM     13  C   UNL     1      62.563  32.752  26.281  1.00  0.00     0.016 A 
ATOM     14  C   UNL     1      63.096  32.958  27.555  1.00  0.00     0.051 A 
ATOM     15  C   UNL     1      63.012  31.963  28.534  1.00  0.00     0.157 A 
ATOM     16  C   UNL     1      61.838  30.542  26.947  1.00  0.00     0.062 A 
ATOM     17  C   UNL     1      62.371  30.739  28.227  1.00  0.00     0.158 A 
BRANCH  15  18
ATOM     18  O   UNL     1      63.569  32.230  29.787  1.00  0.00    -0.504 OA
ATOM     19  H   UNL     1      63.593  31.566  30.547  1.00  0.00     0.293 HD
ENDBRANCH  15  18
BRANCH  17  20
ATOM     20  O   UNL     1      62.238  29.703  29.155  1.00  0.00    -0.504 OA
ATOM     21  H   UNL     1      61.420  29.561  29.729  1.00  0.00     0.293 HD
ENDBRANCH  17  20
ENDBRANCH   1  12
BRANCH   2  22
ATOM     22  O   UNL     1      59.250  32.344  25.265  1.00  0.00    -0.502 OA
ATOM     23  H   UNL     1      58.838  31.874  26.062  1.00  0.00     0.293 HD
ENDBRANCH   2  22
BRANCH   6  24
ATOM     24  O   UNL     1      58.597  30.489  20.316  1.00  0.00    -0.507 OA
ATOM     25  H   UNL     1      57.786  30.147  20.810  1.00  0.00     0.293 HD
ENDBRANCH   6  24
BRANCH   8  26
ATOM     26  O   UNL     1      63.055  29.056  19.333  1.00  0.00    -0.508 OA
ATOM     27  H   UNL     1      64.025  28.886  19.574  1.00  0.00     0.293 HD
ENDBRANCH   8  26
TORSDOF 6
ENDMDL
MODEL 6
REMARK VINA RESULT:    -5.924      1.854      6.890
REMARK INTER + INTRA:          -7.453
REMARK INTER:                  -7.209
REMARK INTRA:                  -0.244
REMARK UNBOUND:                -0.317
REMARK SMILES O=c1c(O)c(-c2ccc(O)c(O)c2)oc2cc(O)cc(O)c12
REMARK SMILES IDX 5 1 3 2 2 3 1 4 22 5 20 6 19 7 17 8 16 9 15 10 14 11 6 12
REMARK SMILES IDX 7 13 8 14 9 15 13 16 11 17 10 18 12 20 4 22 21 24 18 26
REMARK H PARENT 10 19 12 21 4 23 21 25 18 27
REMARK Flexibility Score: inf
ROOT
ATOM      1  C   UNL     1      59.066  30.153  24.588  1.00  0.00     0.180 A 
ATOM      2  C   UNL     1      57.778  29.836  25.055  1.00  0.00     0.208 A 
ATOM      3  C   UNL     1      57.641  29.220  26.310  1.00  0.00     0.238 A 
ATOM      4  O   UNL     1      56.490  28.890  26.699  1.00  0.00    -0.285 OA
ATOM      5  C   UNL     1      58.791  28.942  27.087  1.00  0.00     0.111 A 
ATOM      6  C   UNL     1      58.768  28.357  28.390  1.00  0.00     0.134 A 
ATOM      7  C   UNL     1      59.972  28.008  29.012  1.00  0.00     0.093 A 
ATOM      8  C   UNL     1      61.199  28.282  28.410  1.00  0.00     0.123 A 
ATOM      9  C   UNL     1      61.236  28.908  27.163  1.00  0.00     0.094 A 
ATOM     10  C   UNL     1      60.049  29.236  26.501  1.00  0.00     0.146 A 
ATOM     11  O   UNL     1      60.128  29.821  25.312  1.00  0.00    -0.452 OA
ENDROOT
BRANCH   1  12
ATOM     12  C   UNL     1      59.289  30.826  23.288  1.00  0.00     0.025 A 
ATOM     13  C   UNL     1      58.940  32.171  23.092  1.00  0.00     0.016 A 
ATOM     14  C   UNL     1      59.182  32.791  21.865  1.00  0.00     0.051 A 
ATOM     15  C   UNL     1      59.785  32.090  20.817  1.00  0.00     0.157 A 
ATOM     16  C   UNL     1      59.914  30.125  22.246  1.00  0.00     0.062 A 
ATOM     17  C   UNL     1      60.161  30.739  21.011  1.00  0.00     0.158 A 
BRANCH  15  18
ATOM     18  O   UNL     1      59.996  32.766  19.613  1.00  0.00    -0.504 OA
ATOM     19  H   UNL     1      59.427  33.537  19.292  1.00  0.00     0.293 HD
ENDBRANCH  15  18
BRANCH  17  20
ATOM     20  O   UNL     1      60.777  29.977  20.016  1.00  0.00    -0.504 OA
ATOM     21  H   UNL     1      60.507  29.033  19.779  1.00  0.00     0.293 HD
ENDBRANCH  17  20
ENDBRANCH   1  12
BRANCH   2  22
ATOM     22  O   UNL     1      56.658  30.100  24.263  1.00  0.00    -0.502 OA
ATOM     23  H   UNL     1      56.449  29.573  23.424  1.00  0.00     0.293 HD
ENDBRANCH   2  22
BRANCH   6  24
ATOM     24  O   UNL     1      57.598  28.126  29.119  1.00  0.00    -0.507 OA
ATOM     25  H   UNL     1      57.479  28.337  30.099  1.00  0.00     0.293 HD
ENDBRANCH   6  24
BRANCH   8  26
ATOM     26  O   UNL     1      62.379  27.935  29.065  1.00  0.00    -0.508 OA
ATOM     27  H   UNL     1      63.285  28.056  28.627  1.00  0.00     0.293 HD
ENDBRANCH   8  26
TORSDOF 6
ENDMDL
MODEL 7
REMARK VINA RESULT:    -5.860      1.360      2.748
REMARK INTER + INTRA:          -7.377
REMARK INTER:                  -7.044
REMARK INTRA:                  -0.333
REMARK UNBOUND:                -0.317
REMARK SMILES O=c1c(O)c(-c2ccc(O)c(O)c2)oc2cc(O)cc(O)c12
REMARK SMILES IDX 5 1 3 2 2 3 1 4 22 5 20 6 19 7 17 8 16 9 15 10 14 11 6 12
REMARK SMILES IDX 7 13 8 14 9 15 13 16 11 17 10 18 12 20 4 22 21 24 18 26
REMARK H PARENT 10 19 12 21 4 23 21 25 18 27
REMARK Flexibility Score: inf
ROOT
ATOM      1  C   UNL     1      60.266  28.985  24.809  1.00  0.00     0.180 A 
ATOM      2  C   UNL     1      61.553  28.743  24.294  1.00  0.00     0.208 A 
ATOM      3  C   UNL     1      61.893  29.272  23.038  1.00  0.00     0.238 A 
ATOM      4  O   UNL     1      63.027  29.006  22.559  1.00  0.00    -0.285 OA
ATOM      5  C   UNL     1      60.951  30.047  22.320  1.00  0.00     0.111 A 
ATOM      6  C   UNL     1      61.203  30.664  21.058  1.00  0.00     0.134 A 
ATOM      7  C   UNL     1      60.156  31.299  20.378  1.00  0.00     0.093 A 
ATOM      8  C   UNL     1      58.885  31.396  20.944  1.00  0.00     0.123 A 
ATOM      9  C   UNL     1      58.643  30.848  22.204  1.00  0.00     0.094 A 
ATOM     10  C   UNL     1      59.659  30.177  22.891  1.00  0.00     0.146 A 
ATOM     11  O   UNL     1      59.384  29.661  24.082  1.00  0.00    -0.452 OA
ENDROOT
BRANCH   1  12
ATOM     12  C   UNL     1      59.842  28.483  26.135  1.00  0.00     0.025 A 
ATOM     13  C   UNL     1      60.085  29.217  27.307  1.00  0.00     0.016 A 
ATOM     14  C   UNL     1      59.654  28.735  28.543  1.00  0.00     0.051 A 
ATOM     15  C   UNL     1      58.964  27.523  28.637  1.00  0.00     0.157 A 
ATOM     16  C   UNL     1      59.130  27.277  26.223  1.00  0.00     0.062 A 
ATOM     17  C   UNL     1      58.694  26.785  27.459  1.00  0.00     0.158 A 
BRANCH  15  18
ATOM     18  O   UNL     1      58.564  27.094  29.905  1.00  0.00    -0.504 OA
ATOM     19  H   UNL     1      59.196  26.733  30.603  1.00  0.00     0.293 HD
ENDBRANCH  15  18
BRANCH  17  20
ATOM     20  O   UNL     1      58.002  25.572  27.471  1.00  0.00    -0.504 OA
ATOM     21  H   UNL     1      57.249  25.346  26.838  1.00  0.00     0.293 HD
ENDBRANCH  17  20
ENDBRANCH   1  12
BRANCH   2  22
ATOM     22  O   UNL     1      62.460  27.957  25.009  1.00  0.00    -0.502 OA
ATOM     23  H   UNL     1      63.361  28.305  25.311  1.00  0.00     0.293 HD
ENDBRANCH   2  22
BRANCH   6  24
ATOM     24  O   UNL     1      62.459  30.705  20.447  1.00  0.00    -0.507 OA
ATOM     25  H   UNL     1      63.219  30.073  20.651  1.00  0.00     0.293 HD
ENDBRANCH   6  24
BRANCH   8  26
ATOM     26  O   UNL     1      57.871  32.049  20.246  1.00  0.00    -0.508 OA
ATOM     27  H   UNL     1      57.786  31.971  19.239  1.00  0.00     0.293 HD
ENDBRANCH   8  26
TORSDOF 6
ENDMDL
MODEL 8
REMARK VINA RESULT:    -5.819      1.635      6.890
REMARK INTER + INTRA:          -7.327
REMARK INTER:                  -7.048
REMARK INTRA:                  -0.279
REMARK UNBOUND:                -0.317
REMARK SMILES O=c1c(O)c(-c2ccc(O)c(O)c2)oc2cc(O)cc(O)c12
REMARK SMILES IDX 5 1 3 2 2 3 1 4 22 5 20 6 19 7 17 8 16 9 15 10 14 11 6 12
REMARK SMILES IDX 7 13 8 14 9 15 13 16 11 17 10 18 12 20 4 22 21 24 18 26
REMARK H PARENT 10 19 12 21 4 23 21 25 18 27
REMARK Flexibility Score: inf
ROOT
ATOM      1  C   UNL     1      60.767  29.323  24.482  1.00  0.00     0.180 A 
ATOM      2  C   UNL     1      61.252  30.218  25.453  1.00  0.00     0.208 A 
ATOM      3  C   UNL     1      61.045  29.927  26.811  1.00  0.00     0.238 A 
ATOM      4  O   UNL     1      61.434  30.759  27.672  1.00  0.00    -0.285 OA
ATOM      5  C   UNL     1      60.370  28.740  27.182  1.00  0.00     0.111 A 
ATOM      6  C   UNL     1      60.140  28.326  28.529  1.00  0.00     0.134 A 
ATOM      7  C   UNL     1      59.347  27.199  28.780  1.00  0.00     0.093 A 
ATOM      8  C   UNL     1      58.833  26.434  27.733  1.00  0.00     0.123 A 
ATOM      9  C   UNL     1      59.100  26.796  26.413  1.00  0.00     0.094 A 
ATOM     10  C   UNL     1      59.858  27.937  26.131  1.00  0.00     0.146 A 
ATOM     11  O   UNL     1      60.081  28.252  24.861  1.00  0.00    -0.452 OA
ENDROOT
BRANCH   1  12
ATOM     12  C   UNL     1      60.969  29.548  23.033  1.00  0.00     0.025 A 
ATOM     13  C   UNL     1      62.217  29.337  22.427  1.00  0.00     0.016 A 
ATOM     14  C   UNL     1      62.377  29.532  21.054  1.00  0.00     0.051 A 
ATOM     15  C   UNL     1      61.297  29.928  20.258  1.00  0.00     0.157 A 
ATOM     16  C   UNL     1      59.878  29.924  22.234  1.00  0.00     0.062 A 
ATOM     17  C   UNL     1      60.029  30.123  20.855  1.00  0.00     0.158 A 
BRANCH  15  18
ATOM     18  O   UNL     1      61.525  30.110  18.892  1.00  0.00    -0.504 OA
ATOM     19  H   UNL     1      62.401  29.907  18.434  1.00  0.00     0.293 HD
ENDBRANCH  15  18
BRANCH  17  20
ATOM     20  O   UNL     1      58.902  30.507  20.125  1.00  0.00    -0.504 OA
ATOM     21  H   UNL     1      58.655  31.467  19.933  1.00  0.00     0.293 HD
ENDBRANCH  17  20
ENDBRANCH   1  12
BRANCH   2  22
ATOM     22  O   UNL     1      61.897  31.395  25.064  1.00  0.00    -0.502 OA
ATOM     23  H   UNL     1      62.298  32.042  25.731  1.00  0.00     0.293 HD
ENDBRANCH   2  22
BRANCH   6  24
ATOM     24  O   UNL     1      60.685  28.965  29.646  1.00  0.00    -0.507 OA
ATOM     25  H   UNL     1      61.612  28.798  30.010  1.00  0.00     0.293 HD
ENDBRANCH   6  24
BRANCH   8  26
ATOM     26  O   UNL     1      58.061  25.310  28.020  1.00  0.00    -0.508 OA
ATOM     27  H   UNL     1      57.206  25.378  28.561  1.00  0.00     0.293 HD
ENDBRANCH   8  26
TORSDOF 6
ENDMDL
MODEL 9
REMARK VINA RESULT:    -5.740      2.149      6.974
REMARK INTER + INTRA:          -7.232
REMARK INTER:                  -6.967
REMARK INTRA:                  -0.265
REMARK UNBOUND:                -0.317
REMARK SMILES O=c1c(O)c(-c2ccc(O)c(O)c2)oc2cc(O)cc(O)c12
REMARK SMILES IDX 5 1 3 2 2 3 1 4 22 5 20 6 19 7 17 8 16 9 15 10 14 11 6 12
REMARK SMILES IDX 7 13 8 14 9 15 13 16 11 17 10 18 12 20 4 22 21 24 18 26
REMARK H PARENT 10 19 12 21 4 23 21 25 18 27
REMARK Flexibility Score: inf
ROOT
ATOM      1  C   UNL     1      60.426  29.369  24.649  1.00  0.00     0.180 A 
ATOM      2  C   UNL     1      60.902  28.345  25.487  1.00  0.00     0.208 A 
ATOM      3  C   UNL     1      60.109  27.927  26.568  1.00  0.00     0.238 A 
ATOM      4  O   UNL     1      60.565  27.048  27.346  1.00  0.00    -0.285 OA
ATOM      5  C   UNL     1      58.847  28.526  26.789  1.00  0.00     0.111 A 
ATOM      6  C   UNL     1      57.943  28.153  27.830  1.00  0.00     0.134 A 
ATOM      7  C   UNL     1      56.778  28.902  28.035  1.00  0.00     0.093 A 
ATOM      8  C   UNL     1      56.450  29.966  27.196  1.00  0.00     0.123 A 
ATOM      9  C   UNL     1      57.296  30.303  26.139  1.00  0.00     0.094 A 
ATOM     10  C   UNL     1      58.485  29.597  25.932  1.00  0.00     0.146 A 
ATOM     11  O   UNL     1      59.267  29.955  24.921  1.00  0.00    -0.452 OA
ENDROOT
BRANCH   1  12
ATOM     12  C   UNL     1      61.192  29.846  23.475  1.00  0.00     0.025 A 
ATOM     13  C   UNL     1      61.912  31.050  23.512  1.00  0.00     0.016 A 
ATOM     14  C   UNL     1      62.647  31.468  22.401  1.00  0.00     0.051 A 
ATOM     15  C   UNL     1      62.689  30.691  21.239  1.00  0.00     0.157 A 
ATOM     16  C   UNL     1      61.250  29.053  22.318  1.00  0.00     0.062 A 
ATOM     17  C   UNL     1      61.984  29.464  21.198  1.00  0.00     0.158 A 
BRANCH  15  18
ATOM     18  O   UNL     1      63.439  31.167  20.161  1.00  0.00    -0.504 OA
ATOM     19  H   UNL     1      63.440  30.744  19.244  1.00  0.00     0.293 HD
ENDBRANCH  15  18
BRANCH  17  20
ATOM     20  O   UNL     1      61.986  28.629  20.079  1.00  0.00    -0.504 OA
ATOM     21  H   UNL     1      62.771  28.057  19.803  1.00  0.00     0.293 HD
ENDBRANCH  17  20
ENDBRANCH   1  12
BRANCH   2  22
ATOM     22  O   UNL     1      62.161  27.782  25.263  1.00  0.00    -0.502 OA
ATOM     23  H   UNL     1      62.797  28.133  24.558  1.00  0.00     0.293 HD
ENDBRANCH   2  22
BRANCH   6  24
ATOM     24  O   UNL     1      58.130  27.048  28.665  1.00  0.00    -0.507 OA
ATOM     25  H   UNL     1      57.697  26.931  29.570  1.00  0.00     0.293 HD
ENDBRANCH   6  24
BRANCH   8  26
ATOM     26  O   UNL     1      55.274  30.680  27.420  1.00  0.00    -0.508 OA
ATOM     27  H   UNL     1      54.645  30.440  28.178  1.00  0.00     0.293 HD
ENDBRANCH   8  26
TORSDOF 6
ENDMDL
