MODEL 1
REMARK VINA RESULT:    -3.142      0.000      0.000
REMARK INTER + INTRA:          -6.094
REMARK INTER:                  -4.979
REMARK INTRA:                  -1.115
REMARK UNBOUND:                -1.115
REMARK SMILES CCCCCCCCCCCC(=O)[O-]
REMARK SMILES IDX 7 1 8 2 9 3 10 4 11 5 12 6 13 7 14 8 6 9 5 10 4 11 3 12 2 13
REMARK SMILES IDX 1 14
REMARK H PARENT
REMARK Flexibility Score: inf
ROOT
ATOM      1  C   UNL     1       5.694  -7.369   6.824  1.00  0.00     0.000 C 
ENDROOT
BRANCH   1   2
ATOM      2  C   UNL     1       5.933  -8.479   5.788  1.00  0.00     0.000 C 
BRANCH   2   3
ATOM      3  C   UNL     1       5.078  -9.730   6.057  1.00  0.00     0.000 C 
BRANCH   3   4
ATOM      4  C   UNL     1       3.852  -9.432   6.934  1.00  0.00     0.006 C 
BRANCH   4   5
ATOM      5  C   UNL     1       3.928 -10.117   8.305  1.00  0.00     0.053 C 
BRANCH   5   6
ATOM      6  C   UNL     1       2.977  -9.473   9.263  1.00  0.00     0.041 C 
ATOM      7  O   UNL     1       3.386  -8.599  10.071  1.00  0.00    -0.550 OA
ATOM      8  O   UNL     1       1.648  -9.875   9.298  1.00  0.00    -0.550 OA
ENDBRANCH   5   6
ENDBRANCH   4   5
ENDBRANCH   3   4
ENDBRANCH   2   3
ENDBRANCH   1   2
BRANCH   1   9
ATOM      9  C   UNL     1       6.917  -7.132   7.726  1.00  0.00     0.000 C 
BRANCH   9  10
ATOM     10  C   UNL     1       6.876  -7.964   9.021  1.00  0.00    -0.000 C 
BRANCH  10  11
ATOM     11  C   UNL     1       8.249  -8.218   9.669  1.00  0.00    -0.000 C 
BRANCH  11  12
ATOM     12  C   UNL     1       9.392  -8.288   8.640  1.00  0.00    -0.000 C 
BRANCH  12  13
ATOM     13  C   UNL     1       9.474  -9.655   7.945  1.00  0.00    -0.003 C 
ATOM     14  C   UNL     1       9.500  -9.541   6.421  1.00  0.00     0.004 C 
ENDBRANCH  12  13
ENDBRANCH  11  12
ENDBRANCH  10  11
ENDBRANCH   9  10
ENDBRANCH   1   9
TORSDOF 10
ENDMDL
MODEL 2
REMARK VINA RESULT:    -2.969      1.084      2.332
REMARK INTER + INTRA:          -5.820
REMARK INTER:                  -4.830
REMARK INTRA:                  -0.990
REMARK UNBOUND:                -1.115
REMARK SMILES CCCCCCCCCCCC(=O)[O-]
REMARK SMILES IDX 7 1 8 2 9 3 10 4 11 5 12 6 13 7 14 8 6 9 5 10 4 11 3 12 2 13
REMARK SMILES IDX 1 14
REMARK H PARENT
REMARK Flexibility Score: inf
ROOT
ATOM      1  C   UNL     1       6.466  -9.568   6.238  1.00  0.00     0.000 C 
ENDROOT
BRANCH   1   2
ATOM      2  C   UNL     1       5.575  -8.360   5.913  1.00  0.00     0.000 C 
BRANCH   2   3
ATOM      3  C   UNL     1       4.108  -8.582   6.324  1.00  0.00     0.000 C 
BRANCH   3   4
ATOM      4  C   UNL     1       3.841 -10.013   6.814  1.00  0.00     0.006 C 
BRANCH   4   5
ATOM      5  C   UNL     1       2.950 -10.052   8.062  1.00  0.00     0.053 C 
BRANCH   5   6
ATOM      6  C   UNL     1       3.658  -9.439   9.228  1.00  0.00     0.041 C 
ATOM      7  O   UNL     1       3.067  -8.606   9.964  1.00  0.00    -0.550 OA
ATOM      8  O   UNL     1       4.990  -9.750   9.472  1.00  0.00    -0.550 OA
ENDBRANCH   5   6
ENDBRANCH   4   5
ENDBRANCH   3   4
ENDBRANCH   2   3
ENDBRANCH   1   2
BRANCH   1   9
ATOM      9  C   UNL     1       7.721  -9.631   5.351  1.00  0.00     0.000 C 
BRANCH   9  10
ATOM     10  C   UNL     1       9.028  -9.671   6.165  1.00  0.00    -0.000 C 
BRANCH  10  11
ATOM     11  C   UNL     1       8.835  -9.729   7.691  1.00  0.00    -0.000 C 
BRANCH  11  12
ATOM     12  C   UNL     1       9.788  -8.787   8.450  1.00  0.00    -0.000 C 
BRANCH  12  13
ATOM     13  C   UNL     1       9.045  -7.851   9.413  1.00  0.00    -0.003 C 
ATOM     14  C   UNL     1       7.656  -7.463   8.904  1.00  0.00     0.004 C 
ENDBRANCH  12  13
ENDBRANCH  11  12
ENDBRANCH  10  11
ENDBRANCH   9  10
ENDBRANCH   1   9
TORSDOF 10
ENDMDL
MODEL 3
REMARK VINA RESULT:    -2.861      2.341      5.184
REMARK INTER + INTRA:          -5.648
REMARK INTER:                  -4.628
REMARK INTRA:                  -1.020
REMARK UNBOUND:                -1.115
REMARK SMILES CCCCCCCCCCCC(=O)[O-]
REMARK SMILES IDX 7 1 8 2 9 3 10 4 11 5 12 6 13 7 14 8 6 9 5 10 4 11 3 12 2 13
REMARK SMILES IDX 1 14
REMARK H PARENT
REMARK Flexibility Score: inf
ROOT
ATOM      1  C   UNL     1       6.046  -8.012   5.685  1.00  0.00     0.000 C 
ENDROOT
BRANCH   1   2
ATOM      2  C   UNL     1       6.745  -9.375   5.567  1.00  0.00     0.000 C 
BRANCH   2   3
ATOM      3  C   UNL     1       8.222  -9.319   5.995  1.00  0.00     0.000 C 
BRANCH   3   4
ATOM      4  C   UNL     1       8.484 -10.056   7.317  1.00  0.00     0.006 C 
BRANCH   4   5
ATOM      5  C   UNL     1       7.596  -9.548   8.460  1.00  0.00     0.053 C 
BRANCH   5   6
ATOM      6  C   UNL     1       8.109  -8.243   8.979  1.00  0.00     0.041 C 
ATOM      7  O   UNL     1       7.450  -7.185   8.800  1.00  0.00    -0.550 OA
ATOM      8  O   UNL     1       9.342  -8.186   9.616  1.00  0.00    -0.550 OA
ENDBRANCH   5   6
ENDBRANCH   4   5
ENDBRANCH   3   4
ENDBRANCH   2   3
ENDBRANCH   1   2
BRANCH   1   9
ATOM      9  C   UNL     1       4.763  -8.078   6.531  1.00  0.00     0.000 C 
BRANCH   9  10
ATOM     10  C   UNL     1       4.068  -9.450   6.457  1.00  0.00    -0.000 C 
BRANCH  10  11
ATOM     11  C   UNL     1       3.821 -10.123   7.820  1.00  0.00    -0.000 C 
BRANCH  11  12
ATOM     12  C   UNL     1       3.430  -9.119   8.920  1.00  0.00    -0.000 C 
BRANCH  12  13
ATOM     13  C   UNL     1       2.692  -9.787  10.089  1.00  0.00    -0.003 C 
ATOM     14  C   UNL     1       1.239 -10.125   9.753  1.00  0.00     0.004 C 
ENDBRANCH  12  13
ENDBRANCH  11  12
ENDBRANCH  10  11
ENDBRANCH   9  10
ENDBRANCH   1   9
TORSDOF 10
ENDMDL
MODEL 4
REMARK VINA RESULT:    -2.828      2.441      3.309
REMARK INTER + INTRA:          -5.595
REMARK INTER:                  -4.865
REMARK INTRA:                  -0.731
REMARK UNBOUND:                -1.115
REMARK SMILES CCCCCCCCCCCC(=O)[O-]
REMARK SMILES IDX 7 1 8 2 9 3 10 4 11 5 12 6 13 7 14 8 6 9 5 10 4 11 3 12 2 13
REMARK SMILES IDX 1 14
REMARK H PARENT
REMARK Flexibility Score: inf
ROOT
ATOM      1  C   UNL     1       5.737  -9.428   9.220  1.00  0.00     0.000 C 
ENDROOT
BRANCH   1   2
ATOM      2  C   UNL     1       4.302  -8.895   9.086  1.00  0.00     0.000 C 
BRANCH   2   3
ATOM      3  C   UNL     1       3.488  -9.657   8.025  1.00  0.00     0.000 C 
BRANCH   3   4
ATOM      4  C   UNL     1       3.809  -9.201   6.593  1.00  0.00     0.006 C 
BRANCH   4   5
ATOM      5  C   UNL     1       4.907 -10.048   5.938  1.00  0.00     0.053 C 
BRANCH   5   6
ATOM      6  C   UNL     1       5.868  -9.174   5.197  1.00  0.00     0.041 C 
ATOM      7  O   UNL     1       6.660  -9.672   4.355  1.00  0.00    -0.550 OA
ATOM      8  O   UNL     1       5.923  -7.813   5.472  1.00  0.00    -0.550 OA
ENDBRANCH   5   6
ENDBRANCH   4   5
ENDBRANCH   3   4
ENDBRANCH   2   3
ENDBRANCH   1   2
BRANCH   1   9
ATOM      9  C   UNL     1       6.685  -8.409   9.875  1.00  0.00     0.000 C 
BRANCH   9  10
ATOM     10  C   UNL     1       7.436  -7.544   8.847  1.00  0.00    -0.000 C 
BRANCH  10  11
ATOM     11  C   UNL     1       8.955  -7.786   8.785  1.00  0.00    -0.000 C 
BRANCH  11  12
ATOM     12  C   UNL     1       9.342  -9.241   9.105  1.00  0.00    -0.000 C 
BRANCH  12  13
ATOM     13  C   UNL     1       9.963  -9.963   7.900  1.00  0.00    -0.003 C 
ATOM     14  C   UNL     1       9.380  -9.494   6.568  1.00  0.00     0.004 C 
ENDBRANCH  12  13
ENDBRANCH  11  12
ENDBRANCH  10  11
ENDBRANCH   9  10
ENDBRANCH   1   9
TORSDOF 10
ENDMDL
MODEL 5
REMARK VINA RESULT:    -2.583      2.585      4.458
REMARK INTER + INTRA:          -5.208
REMARK INTER:                  -4.344
REMARK INTRA:                  -0.864
REMARK UNBOUND:                -1.115
REMARK SMILES CCCCCCCCCCCC(=O)[O-]
REMARK SMILES IDX 7 1 8 2 9 3 10 4 11 5 12 6 13 7 14 8 6 9 5 10 4 11 3 12 2 13
REMARK SMILES IDX 1 14
REMARK H PARENT
REMARK Flexibility Score: inf
ROOT
ATOM      1  C   UNL     1       3.400 -10.121   7.983  1.00  0.00     0.000 C 
ENDROOT
BRANCH   1   2
ATOM      2  C   UNL     1       3.703  -9.149   9.133  1.00  0.00     0.000 C 
BRANCH   2   3
ATOM      3  C   UNL     1       4.856  -9.636  10.028  1.00  0.00     0.000 C 
BRANCH   3   4
ATOM      4  C   UNL     1       6.022  -8.636  10.086  1.00  0.00     0.006 C 
BRANCH   4   5
ATOM      5  C   UNL     1       7.342  -9.242   9.594  1.00  0.00     0.053 C 
BRANCH   5   6
ATOM      6  C   UNL     1       8.375  -8.174   9.424  1.00  0.00     0.041 C 
ATOM      7  O   UNL     1       8.119  -7.145   8.745  1.00  0.00    -0.550 OA
ATOM      8  O   UNL     1       9.640  -8.337   9.975  1.00  0.00    -0.550 OA
ENDBRANCH   5   6
ENDBRANCH   4   5
ENDBRANCH   3   4
ENDBRANCH   2   3
ENDBRANCH   1   2
BRANCH   1   9
ATOM      9  C   UNL     1       4.437 -10.034   6.850  1.00  0.00     0.000 C 
BRANCH   9  10
ATOM     10  C   UNL     1       4.515  -8.633   6.216  1.00  0.00    -0.000 C 
BRANCH  10  11
ATOM     11  C   UNL     1       5.934  -8.175   5.834  1.00  0.00    -0.000 C 
BRANCH  11  12
ATOM     12  C   UNL     1       6.715  -9.243   5.046  1.00  0.00    -0.000 C 
BRANCH  12  13
ATOM     13  C   UNL     1       7.584 -10.125   5.954  1.00  0.00    -0.003 C 
ATOM     14  C   UNL     1       8.935  -9.488   6.277  1.00  0.00     0.004 C 
ENDBRANCH  12  13
ENDBRANCH  11  12
ENDBRANCH  10  11
ENDBRANCH   9  10
ENDBRANCH   1   9
TORSDOF 10
ENDMDL
MODEL 6
REMARK VINA RESULT:    -2.550      2.101      4.329
REMARK INTER + INTRA:          -5.155
REMARK INTER:                  -4.210
REMARK INTRA:                  -0.945
REMARK UNBOUND:                -1.115
REMARK SMILES CCCCCCCCCCCC(=O)[O-]
REMARK SMILES IDX 7 1 8 2 9 3 10 4 11 5 12 6 13 7 14 8 6 9 5 10 4 11 3 12 2 13
REMARK SMILES IDX 1 14
REMARK H PARENT
REMARK Flexibility Score: inf
ROOT
ATOM      1  C   UNL     1       8.019  -8.026   8.460  1.00  0.00     0.000 C 
ENDROOT
BRANCH   1   2
ATOM      2  C   UNL     1       8.621  -9.425   8.264  1.00  0.00     0.000 C 
BRANCH   2   3
ATOM      3  C   UNL     1       8.127 -10.105   6.975  1.00  0.00     0.000 C 
BRANCH   3   4
ATOM      4  C   UNL     1       7.669  -9.094   5.912  1.00  0.00     0.006 C 
BRANCH   4   5
ATOM      5  C   UNL     1       6.217  -9.320   5.472  1.00  0.00     0.053 C 
BRANCH   5   6
ATOM      6  C   UNL     1       5.367  -8.151   5.859  1.00  0.00     0.041 C 
ATOM      7  O   UNL     1       5.897  -7.040   6.123  1.00  0.00    -0.550 OA
ATOM      8  O   UNL     1       3.991  -8.302   5.977  1.00  0.00    -0.550 OA
ENDBRANCH   5   6
ENDBRANCH   4   5
ENDBRANCH   3   4
ENDBRANCH   2   3
ENDBRANCH   1   2
BRANCH   1   9
ATOM      9  C   UNL     1       7.432  -7.828   9.869  1.00  0.00     0.000 C 
BRANCH   9  10
ATOM     10  C   UNL     1       5.908  -8.042   9.917  1.00  0.00    -0.000 C 
BRANCH  10  11
ATOM     11  C   UNL     1       5.468  -9.504  10.116  1.00  0.00    -0.000 C 
BRANCH  11  12
ATOM     12  C   UNL     1       4.862 -10.125   8.844  1.00  0.00    -0.000 C 
BRANCH  12  13
ATOM     13  C   UNL     1       3.334  -9.985   8.793  1.00  0.00    -0.003 C 
ATOM     14  C   UNL     1       2.770  -9.230   9.997  1.00  0.00     0.004 C 
ENDBRANCH  12  13
ENDBRANCH  11  12
ENDBRANCH  10  11
ENDBRANCH   9  10
ENDBRANCH   1   9
TORSDOF 10
ENDMDL
MODEL 7
REMARK VINA RESULT:    -2.490      1.885      2.781
REMARK INTER + INTRA:          -5.060
REMARK INTER:                  -4.295
REMARK INTRA:                  -0.766
REMARK UNBOUND:                -1.115
REMARK SMILES CCCCCCCCCCCC(=O)[O-]
REMARK SMILES IDX 7 1 8 2 9 3 10 4 11 5 12 6 13 7 14 8 6 9 5 10 4 11 3 12 2 13
REMARK SMILES IDX 1 14
REMARK H PARENT
REMARK Flexibility Score: inf
ROOT
ATOM      1  C   UNL     1       5.834  -8.885   5.468  1.00  0.00     0.000 C 
ENDROOT
BRANCH   1   2
ATOM      2  C   UNL     1       4.930  -9.960   6.091  1.00  0.00     0.000 C 
BRANCH   2   3
ATOM      3  C   UNL     1       3.729  -9.358   6.842  1.00  0.00     0.000 C 
BRANCH   3   4
ATOM      4  C   UNL     1       3.547  -9.958   8.245  1.00  0.00     0.006 C 
BRANCH   4   5
ATOM      5  C   UNL     1       3.987  -8.999   9.358  1.00  0.00     0.053 C 
BRANCH   5   6
ATOM      6  C   UNL     1       5.480  -8.942   9.436  1.00  0.00     0.041 C 
ATOM      7  O   UNL     1       6.113  -8.030   8.841  1.00  0.00    -0.550 OA
ATOM      8  O   UNL     1       6.177  -9.927  10.125  1.00  0.00    -0.550 OA
ENDBRANCH   5   6
ENDBRANCH   4   5
ENDBRANCH   3   4
ENDBRANCH   2   3
ENDBRANCH   1   2
BRANCH   1   9
ATOM      9  C   UNL     1       7.268  -9.388   5.230  1.00  0.00     0.000 C 
BRANCH   9  10
ATOM     10  C   UNL     1       7.903 -10.004   6.490  1.00  0.00    -0.000 C 
BRANCH  10  11
ATOM     11  C   UNL     1       9.430  -9.837   6.590  1.00  0.00    -0.000 C 
BRANCH  11  12
ATOM     12  C   UNL     1       9.916  -9.641   8.038  1.00  0.00    -0.000 C 
BRANCH  12  13
ATOM     13  C   UNL     1       9.545  -8.261   8.600  1.00  0.00    -0.003 C 
ATOM     14  C   UNL     1       9.421  -8.259  10.124  1.00  0.00     0.004 C 
ENDBRANCH  12  13
ENDBRANCH  11  12
ENDBRANCH  10  11
ENDBRANCH   9  10
ENDBRANCH   1   9
TORSDOF 10
ENDMDL
MODEL 8
REMARK VINA RESULT:    -2.350      2.717      5.298
REMARK INTER + INTRA:          -4.838
REMARK INTER:                  -4.177
REMARK INTRA:                  -0.661
REMARK UNBOUND:                -1.115
REMARK SMILES CCCCCCCCCCCC(=O)[O-]
REMARK SMILES IDX 7 1 8 2 9 3 10 4 11 5 12 6 13 7 14 8 6 9 5 10 4 11 3 12 2 13
REMARK SMILES IDX 1 14
REMARK H PARENT
REMARK Flexibility Score: inf
ROOT
ATOM      1  C   UNL     1       5.661  -7.026   6.049  1.00  0.00     0.000 C 
ENDROOT
BRANCH   1   2
ATOM      2  C   UNL     1       6.040  -6.783   7.518  1.00  0.00     0.000 C 
BRANCH   2   3
ATOM      3  C   UNL     1       7.479  -7.226   7.836  1.00  0.00     0.000 C 
BRANCH   3   4
ATOM      4  C   UNL     1       7.660  -7.637   9.305  1.00  0.00     0.006 C 
BRANCH   4   5
ATOM      5  C   UNL     1       9.112  -8.004   9.639  1.00  0.00     0.053 C 
BRANCH   5   6
ATOM      6  C   UNL     1       9.362  -9.451   9.355  1.00  0.00     0.041 C 
ATOM      7  O   UNL     1      10.116 -10.124  10.106  1.00  0.00    -0.550 OA
ATOM      8  O   UNL     1       8.803 -10.045   8.230  1.00  0.00    -0.550 OA
ENDBRANCH   5   6
ENDBRANCH   4   5
ENDBRANCH   3   4
ENDBRANCH   2   3
ENDBRANCH   1   2
BRANCH   1   9
ATOM      9  C   UNL     1       6.111  -8.408   5.544  1.00  0.00     0.000 C 
BRANCH   9  10
ATOM     10  C   UNL     1       5.176  -9.544   5.998  1.00  0.00    -0.000 C 
BRANCH  10  11
ATOM     11  C   UNL     1       3.804  -9.080   6.522  1.00  0.00    -0.000 C 
BRANCH  11  12
ATOM     12  C   UNL     1       3.189 -10.061   7.536  1.00  0.00    -0.000 C 
BRANCH  12  13
ATOM     13  C   UNL     1       3.039  -9.444   8.934  1.00  0.00    -0.003 C 
ATOM     14  C   UNL     1       4.380  -9.259   9.644  1.00  0.00     0.004 C 
ENDBRANCH  12  13
ENDBRANCH  11  12
ENDBRANCH  10  11
ENDBRANCH   9  10
ENDBRANCH   1   9
TORSDOF 10
ENDMDL
