MODEL 1
REMARK VINA RESULT:     7.222      0.000      0.000
REMARK INTER + INTRA:          12.648
REMARK INTER:                  13.132
REMARK INTRA:                  -0.484
REMARK UNBOUND:                -0.484
REMARK SMILES CCCCCCCCCCCCCCCC(=O)[O-]
REMARK SMILES IDX 9 1 10 2 11 3 12 4 13 5 14 6 15 7 16 8 17 9 18 10 8 11 7 12
REMARK SMILES IDX 6 13 5 14 4 15 3 16 2 17 1 18
REMARK H PARENT
REMARK Flexibility Score: inf
ROOT
ATOM      1  C   UNL     1     -33.447  12.825  17.026  1.00  0.00     0.000 C 
ENDROOT
BRANCH   1   2
ATOM      2  C   UNL     1     -33.920  14.113  16.339  1.00  0.00     0.000 C 
BRANCH   2   3
ATOM      3  C   UNL     1     -34.412  15.138  17.371  1.00  0.00     0.000 C 
BRANCH   3   4
ATOM      4  C   UNL     1     -34.709  16.515  16.751  1.00  0.00     0.000 C 
BRANCH   4   5
ATOM      5  C   UNL     1     -35.256  17.570  17.735  1.00  0.00     0.000 C 
BRANCH   5   6
ATOM      6  C   UNL     1     -36.792  17.690  17.780  1.00  0.00     0.006 C 
BRANCH   6   7
ATOM      7  C   UNL     1     -37.539  16.392  17.437  1.00  0.00     0.053 C 
BRANCH   7   8
ATOM      8  C   UNL     1     -38.814  16.259  18.211  1.00  0.00     0.041 C 
ATOM      9  O   UNL     1     -38.845  15.581  19.272  1.00  0.00    -0.550 OA
ATOM     10  O   UNL     1     -39.977  16.857  17.743  1.00  0.00    -0.550 OA
ENDBRANCH   7   8
ENDBRANCH   6   7
ENDBRANCH   5   6
ENDBRANCH   4   5
ENDBRANCH   3   4
ENDBRANCH   2   3
ENDBRANCH   1   2
BRANCH   1  11
ATOM     11  C   UNL     1     -32.895  13.119  18.426  1.00  0.00     0.000 C 
BRANCH  11  12
ATOM     12  C   UNL     1     -32.729  11.827  19.233  1.00  0.00    -0.000 C 
BRANCH  12  13
ATOM     13  C   UNL     1     -33.726  11.772  20.397  1.00  0.00    -0.000 C 
BRANCH  13  14
ATOM     14  C   UNL     1     -34.194  10.332  20.653  1.00  0.00    -0.000 C 
BRANCH  14  15
ATOM     15  C   UNL     1     -33.691   9.766  21.993  1.00  0.00    -0.000 C 
BRANCH  15  16
ATOM     16  C   UNL     1     -33.477   8.242  22.017  1.00  0.00    -0.000 C 
BRANCH  16  17
ATOM     17  C   UNL     1     -34.673   7.478  22.601  1.00  0.00    -0.003 C 
ATOM     18  C   UNL     1     -34.422   7.091  24.056  1.00  0.00     0.004 C 
ENDBRANCH  16  17
ENDBRANCH  15  16
ENDBRANCH  14  15
ENDBRANCH  13  14
ENDBRANCH  12  13
ENDBRANCH  11  12
ENDBRANCH   1  11
TORSDOF 14
ENDMDL
MODEL 2
REMARK VINA RESULT:     7.586      3.818      8.831
REMARK INTER + INTRA:          13.310
REMARK INTER:                  13.778
REMARK INTRA:                  -0.467
REMARK UNBOUND:                -0.484
REMARK SMILES CCCCCCCCCCCCCCCC(=O)[O-]
REMARK SMILES IDX 9 1 10 2 11 3 12 4 13 5 14 6 15 7 16 8 17 9 18 10 8 11 7 12
REMARK SMILES IDX 6 13 5 14 4 15 3 16 2 17 1 18
REMARK H PARENT
REMARK Flexibility Score: inf
ROOT
ATOM      1  C   UNL     1     -32.645  13.105  17.651  1.00  0.00     0.000 C 
ENDROOT
BRANCH   1   2
ATOM      2  C   UNL     1     -32.903  12.730  19.116  1.00  0.00     0.000 C 
BRANCH   2   3
ATOM      3  C   UNL     1     -33.294  11.251  19.244  1.00  0.00     0.000 C 
BRANCH   3   4
ATOM      4  C   UNL     1     -33.785  10.882  20.655  1.00  0.00     0.000 C 
BRANCH   4   5
ATOM      5  C   UNL     1     -33.356   9.486  21.152  1.00  0.00     0.000 C 
BRANCH   5   6
ATOM      6  C   UNL     1     -34.015   9.028  22.469  1.00  0.00     0.006 C 
BRANCH   6   7
ATOM      7  C   UNL     1     -34.247   7.513  22.569  1.00  0.00     0.053 C 
BRANCH   7   8
ATOM      8  C   UNL     1     -34.752   7.112  23.920  1.00  0.00     0.041 C 
ATOM      9  O   UNL     1     -35.985   7.151  24.175  1.00  0.00    -0.550 OA
ATOM     10  O   UNL     1     -33.857   6.728  24.910  1.00  0.00    -0.550 OA
ENDBRANCH   7   8
ENDBRANCH   6   7
ENDBRANCH   5   6
ENDBRANCH   4   5
ENDBRANCH   3   4
ENDBRANCH   2   3
ENDBRANCH   1   2
BRANCH   1  11
ATOM     11  C   UNL     1     -33.903  13.700  17.005  1.00  0.00     0.000 C 
BRANCH  11  12
ATOM     12  C   UNL     1     -34.355  14.964  17.745  1.00  0.00    -0.000 C 
BRANCH  12  13
ATOM     13  C   UNL     1     -34.977  15.976  16.776  1.00  0.00    -0.000 C 
BRANCH  13  14
ATOM     14  C   UNL     1     -35.294  17.299  17.490  1.00  0.00    -0.000 C 
BRANCH  14  15
ATOM     15  C   UNL     1     -36.801  17.507  17.727  1.00  0.00    -0.000 C 
BRANCH  15  16
ATOM     16  C   UNL     1     -37.624  16.213  17.855  1.00  0.00    -0.000 C 
BRANCH  16  17
ATOM     17  C   UNL     1     -39.092  16.471  18.225  1.00  0.00    -0.003 C 
ATOM     18  C   UNL     1     -39.819  17.216  17.109  1.00  0.00     0.004 C 
ENDBRANCH  16  17
ENDBRANCH  15  16
ENDBRANCH  14  15
ENDBRANCH  13  14
ENDBRANCH  12  13
ENDBRANCH  11  12
ENDBRANCH   1  11
TORSDOF 14
ENDMDL
MODEL 3
REMARK VINA RESULT:     8.653      1.764      2.186
REMARK INTER + INTRA:          15.250
REMARK INTER:                  15.933
REMARK INTRA:                  -0.683
REMARK UNBOUND:                -0.484
REMARK SMILES CCCCCCCCCCCCCCCC(=O)[O-]
REMARK SMILES IDX 9 1 10 2 11 3 12 4 13 5 14 6 15 7 16 8 17 9 18 10 8 11 7 12
REMARK SMILES IDX 6 13 5 14 4 15 3 16 2 17 1 18
REMARK H PARENT
REMARK Flexibility Score: inf
ROOT
ATOM      1  C   UNL     1     -32.696  12.756  17.663  1.00  0.00     0.000 C 
ENDROOT
BRANCH   1   2
ATOM      2  C   UNL     1     -33.561  13.688  16.805  1.00  0.00     0.000 C 
BRANCH   2   3
ATOM      3  C   UNL     1     -34.094  14.864  17.635  1.00  0.00     0.000 C 
BRANCH   3   4
ATOM      4  C   UNL     1     -34.664  15.999  16.766  1.00  0.00     0.000 C 
BRANCH   4   5
ATOM      5  C   UNL     1     -35.152  17.238  17.547  1.00  0.00     0.000 C 
BRANCH   5   6
ATOM      6  C   UNL     1     -36.683  17.368  17.677  1.00  0.00     0.006 C 
BRANCH   6   7
ATOM      7  C   UNL     1     -37.421  16.031  17.842  1.00  0.00     0.053 C 
BRANCH   7   8
ATOM      8  C   UNL     1     -38.846  16.227  18.260  1.00  0.00     0.041 C 
ATOM      9  O   UNL     1     -39.589  17.025  17.629  1.00  0.00    -0.550 OA
ATOM     10  O   UNL     1     -39.344  15.553  19.366  1.00  0.00    -0.550 OA
ENDBRANCH   7   8
ENDBRANCH   6   7
ENDBRANCH   5   6
ENDBRANCH   4   5
ENDBRANCH   3   4
ENDBRANCH   2   3
ENDBRANCH   1   2
BRANCH   1  11
ATOM     11  C   UNL     1     -33.182  12.740  19.118  1.00  0.00     0.000 C 
BRANCH  11  12
ATOM     12  C   UNL     1     -33.225  11.309  19.666  1.00  0.00    -0.000 C 
BRANCH  12  13
ATOM     13  C   UNL     1     -34.028  11.244  20.971  1.00  0.00    -0.000 C 
BRANCH  13  14
ATOM     14  C   UNL     1     -33.971  12.584  21.720  1.00  0.00    -0.000 C 
BRANCH  14  15
ATOM     15  C   UNL     1     -34.486  12.486  23.167  1.00  0.00    -0.000 C 
BRANCH  15  16
ATOM     16  C   UNL     1     -33.655  11.579  24.093  1.00  0.00    -0.000 C 
BRANCH  16  17
ATOM     17  C   UNL     1     -34.361  11.275  25.423  1.00  0.00    -0.003 C 
ATOM     18  C   UNL     1     -33.457  10.470  26.353  1.00  0.00     0.004 C 
ENDBRANCH  16  17
ENDBRANCH  15  16
ENDBRANCH  14  15
ENDBRANCH  13  14
ENDBRANCH  12  13
ENDBRANCH  11  12
ENDBRANCH   1  11
TORSDOF 14
ENDMDL
