MODEL 1
REMARK VINA RESULT:     0.000      0.000      0.000
REMARK INTER + INTRA:          -7.188
REMARK INTER:                   0.000
REMARK INTRA:                  -7.188
REMARK UNBOUND:                -7.188
REMARK SMILES CCCCCCCCCCCCCCCCCCCCCCCCCCCC(=O)[O-]
REMARK SMILES IDX 15 1 16 2 17 3 18 4 19 5 20 6 21 7 22 8 23 9 24 10 25 11
REMARK SMILES IDX 26 12 27 13 28 14 29 15 30 16 14 17 13 18 12 19 11 20 10 21
REMARK SMILES IDX 9 22 8 23 7 24 6 25 5 26 4 27 3 28 2 29 1 30
REMARK H PARENT
REMARK Flexibility Score: inf
ROOT
ATOM      1  C   UNL     1     179.519 190.968 197.890  1.00  0.00     0.000 C 
ENDROOT
BRANCH   1   2
ATOM      2  C   UNL     1     180.748 190.595 198.736  1.00  0.00     0.000 C 
BRANCH   2   3
ATOM      3  C   UNL     1     182.059 191.146 198.153  1.00  0.00     0.000 C 
BRANCH   3   4
ATOM      4  C   UNL     1     181.834 192.027 196.915  1.00  0.00     0.000 C 
BRANCH   4   5
ATOM      5  C   UNL     1     182.890 191.803 195.817  1.00  0.00     0.000 C 
BRANCH   5   6
ATOM      6  C   UNL     1     182.327 191.984 194.396  1.00  0.00     0.000 C 
BRANCH   6   7
ATOM      7  C   UNL     1     180.960 192.689 194.324  1.00  0.00     0.000 C 
BRANCH   7   8
ATOM      8  C   UNL     1     180.252 192.488 192.972  1.00  0.00     0.000 C 
BRANCH   8   9
ATOM      9  C   UNL     1     178.750 192.194 193.124  1.00  0.00     0.000 C 
BRANCH   9  10
ATOM     10  C   UNL     1     178.336 191.921 194.578  1.00  0.00     0.000 C 
BRANCH  10  11
ATOM     11  C   UNL     1     176.996 192.592 194.907  1.00  0.00     0.000 C 
BRANCH  11  12
ATOM     12  C   UNL     1     177.052 193.297 196.266  1.00  0.00     0.006 C 
BRANCH  12  13
ATOM     13  C   UNL     1     178.296 194.183 196.378  1.00  0.00     0.053 C 
BRANCH  13  14
ATOM     14  C   UNL     1     178.148 195.418 195.544  1.00  0.00     0.041 C 
ATOM     15  O   UNL     1     178.922 195.623 194.571  1.00  0.00    -0.550 OA
ATOM     16  O   UNL     1     177.171 196.354 195.853  1.00  0.00    -0.550 OA
ENDBRANCH  13  14
ENDBRANCH  12  13
ENDBRANCH  11  12
ENDBRANCH  10  11
ENDBRANCH   9  10
ENDBRANCH   8   9
ENDBRANCH   7   8
ENDBRANCH   6   7
ENDBRANCH   5   6
ENDBRANCH   4   5
ENDBRANCH   3   4
ENDBRANCH   2   3
ENDBRANCH   1   2
BRANCH   1  17
ATOM     17  C   UNL     1     178.202 190.347 198.406  1.00  0.00     0.000 C 
BRANCH  17  18
ATOM     18  C   UNL     1     177.407 189.657 197.287  1.00  0.00     0.000 C 
BRANCH  18  19
ATOM     19  C   UNL     1     177.488 188.130 197.419  1.00  0.00     0.000 C 
BRANCH  19  20
ATOM     20  C   UNL     1     178.138 187.681 198.738  1.00  0.00     0.000 C 
BRANCH  20  21
ATOM     21  C   UNL     1     179.401 186.829 198.516  1.00  0.00     0.000 C 
BRANCH  21  22
ATOM     22  C   UNL     1     179.908 186.878 197.059  1.00  0.00    -0.000 C 
BRANCH  22  23
ATOM     23  C   UNL     1     181.351 187.402 196.914  1.00  0.00    -0.000 C 
BRANCH  23  24
ATOM     24  C   UNL     1     181.581 188.384 195.751  1.00  0.00    -0.000 C 
BRANCH  24  25
ATOM     25  C   UNL     1     180.308 188.818 194.999  1.00  0.00    -0.000 C 
BRANCH  25  26
ATOM     26  C   UNL     1     180.481 188.817 193.472  1.00  0.00    -0.000 C 
BRANCH  26  27
ATOM     27  C   UNL     1     179.165 188.442 192.773  1.00  0.00    -0.000 C 
BRANCH  27  28
ATOM     28  C   UNL     1     177.971 188.378 193.742  1.00  0.00    -0.000 C 
BRANCH  28  29
ATOM     29  C   UNL     1     176.656 188.949 193.180  1.00  0.00    -0.003 C 
ATOM     30  C   UNL     1     175.526 188.965 194.209  1.00  0.00     0.004 C 
ENDBRANCH  28  29
ENDBRANCH  27  28
ENDBRANCH  26  27
ENDBRANCH  25  26
ENDBRANCH  24  25
ENDBRANCH  23  24
ENDBRANCH  22  23
ENDBRANCH  21  22
ENDBRANCH  20  21
ENDBRANCH  19  20
ENDBRANCH  18  19
ENDBRANCH  17  18
ENDBRANCH   1  17
TORSDOF 26
ENDMDL
MODEL 2
REMARK VINA RESULT:     0.013      1.838      2.430
REMARK INTER + INTRA:          -7.157
REMARK INTER:                   0.000
REMARK INTRA:                  -7.157
REMARK UNBOUND:                -7.188
REMARK SMILES CCCCCCCCCCCCCCCCCCCCCCCCCCCC(=O)[O-]
REMARK SMILES IDX 15 1 16 2 17 3 18 4 19 5 20 6 21 7 22 8 23 9 24 10 25 11
REMARK SMILES IDX 26 12 27 13 28 14 29 15 30 16 14 17 13 18 12 19 11 20 10 21
REMARK SMILES IDX 9 22 8 23 7 24 6 25 5 26 4 27 3 28 2 29 1 30
REMARK H PARENT
REMARK Flexibility Score: inf
ROOT
ATOM      1  C   UNL     1     178.187 189.825 197.898  1.00  0.00     0.000 C 
ENDROOT
BRANCH   1   2
ATOM      2  C   UNL     1     179.372 189.282 198.714  1.00  0.00     0.000 C 
BRANCH   2   3
ATOM      3  C   UNL     1     180.710 189.399 197.966  1.00  0.00     0.000 C 
BRANCH   3   4
ATOM      4  C   UNL     1     180.562 190.051 196.583  1.00  0.00     0.000 C 
BRANCH   4   5
ATOM      5  C   UNL     1     181.400 189.351 195.497  1.00  0.00     0.000 C 
BRANCH   5   6
ATOM      6  C   UNL     1     180.751 189.419 194.102  1.00  0.00     0.000 C 
BRANCH   6   7
ATOM      7  C   UNL     1     179.558 190.384 193.987  1.00  0.00     0.000 C 
BRANCH   7   8
ATOM      8  C   UNL     1     178.683 190.111 192.751  1.00  0.00     0.000 C 
BRANCH   8   9
ATOM      9  C   UNL     1     177.179 190.243 193.044  1.00  0.00     0.000 C 
BRANCH   9  10
ATOM     10  C   UNL     1     176.868 190.359 194.544  1.00  0.00     0.000 C 
BRANCH  10  11
ATOM     11  C   UNL     1     175.765 191.393 194.802  1.00  0.00     0.000 C 
BRANCH  11  12
ATOM     12  C   UNL     1     176.134 192.312 195.972  1.00  0.00     0.006 C 
BRANCH  12  13
ATOM     13  C   UNL     1     177.540 192.892 195.796  1.00  0.00     0.053 C 
BRANCH  13  14
ATOM     14  C   UNL     1     177.564 193.907 194.694  1.00  0.00     0.041 C 
ATOM     15  O   UNL     1     178.284 193.722 193.677  1.00  0.00    -0.550 OA
ATOM     16  O   UNL     1     176.808 195.066 194.799  1.00  0.00    -0.550 OA
ENDBRANCH  13  14
ENDBRANCH  12  13
ENDBRANCH  11  12
ENDBRANCH  10  11
ENDBRANCH   9  10
ENDBRANCH   8   9
ENDBRANCH   7   8
ENDBRANCH   6   7
ENDBRANCH   5   6
ENDBRANCH   4   5
ENDBRANCH   3   4
ENDBRANCH   2   3
ENDBRANCH   1   2
BRANCH   1  17
ATOM     17  C   UNL     1     176.823 189.659 198.603  1.00  0.00     0.000 C 
BRANCH  17  18
ATOM     18  C   UNL     1     175.785 188.967 197.705  1.00  0.00     0.000 C 
BRANCH  18  19
ATOM     19  C   UNL     1     175.508 187.537 198.190  1.00  0.00     0.000 C 
BRANCH  19  20
ATOM     20  C   UNL     1     176.207 187.215 199.520  1.00  0.00     0.000 C 
BRANCH  20  21
ATOM     21  C   UNL     1     177.197 186.042 199.401  1.00  0.00     0.000 C 
BRANCH  21  22
ATOM     22  C   UNL     1     177.523 185.681 197.936  1.00  0.00    -0.000 C 
BRANCH  22  23
ATOM     23  C   UNL     1     179.025 185.743 197.595  1.00  0.00    -0.000 C 
BRANCH  23  24
ATOM     24  C   UNL     1     179.368 186.412 196.250  1.00  0.00    -0.000 C 
BRANCH  24  25
ATOM     25  C   UNL     1     178.168 187.013 195.494  1.00  0.00    -0.000 C 
BRANCH  25  26
ATOM     26  C   UNL     1     178.155 186.651 194.001  1.00  0.00    -0.000 C 
BRANCH  26  27
ATOM     27  C   UNL     1     176.714 186.513 193.483  1.00  0.00    -0.000 C 
BRANCH  27  28
ATOM     28  C   UNL     1     175.662 186.878 194.545  1.00  0.00    -0.000 C 
BRANCH  28  29
ATOM     29  C   UNL     1     174.454 187.668 194.008  1.00  0.00    -0.003 C 
ATOM     30  C   UNL     1     173.384 187.916 195.071  1.00  0.00     0.004 C 
ENDBRANCH  28  29
ENDBRANCH  27  28
ENDBRANCH  26  27
ENDBRANCH  25  26
ENDBRANCH  24  25
ENDBRANCH  23  24
ENDBRANCH  22  23
ENDBRANCH  21  22
ENDBRANCH  20  21
ENDBRANCH  19  20
ENDBRANCH  18  19
ENDBRANCH  17  18
ENDBRANCH   1  17
TORSDOF 26
ENDMDL
MODEL 3
REMARK VINA RESULT:     0.057      3.538      5.848
REMARK INTER + INTRA:          -7.044
REMARK INTER:                   0.000
REMARK INTRA:                  -7.044
REMARK UNBOUND:                -7.188
REMARK SMILES CCCCCCCCCCCCCCCCCCCCCCCCCCCC(=O)[O-]
REMARK SMILES IDX 15 1 16 2 17 3 18 4 19 5 20 6 21 7 22 8 23 9 24 10 25 11
REMARK SMILES IDX 26 12 27 13 28 14 29 15 30 16 14 17 13 18 12 19 11 20 10 21
REMARK SMILES IDX 9 22 8 23 7 24 6 25 5 26 4 27 3 28 2 29 1 30
REMARK H PARENT
REMARK Flexibility Score: inf
ROOT
ATOM      1  C   UNL     1     174.776 191.271 195.761  1.00  0.00     0.000 C 
ENDROOT
BRANCH   1   2
ATOM      2  C   UNL     1     174.251 192.694 196.013  1.00  0.00     0.000 C 
BRANCH   2   3
ATOM      3  C   UNL     1     175.367 193.751 195.984  1.00  0.00     0.000 C 
BRANCH   3   4
ATOM      4  C   UNL     1     176.569 193.370 196.862  1.00  0.00     0.000 C 
BRANCH   4   5
ATOM      5  C   UNL     1     177.898 193.349 196.085  1.00  0.00     0.000 C 
BRANCH   5   6
ATOM      6  C   UNL     1     177.699 193.312 194.558  1.00  0.00     0.000 C 
BRANCH   6   7
ATOM      7  C   UNL     1     177.876 191.924 193.915  1.00  0.00     0.000 C 
BRANCH   7   8
ATOM      8  C   UNL     1     176.929 191.691 192.724  1.00  0.00     0.000 C 
BRANCH   8   9
ATOM      9  C   UNL     1     176.108 192.940 192.362  1.00  0.00     0.000 C 
BRANCH   9  10
ATOM     10  C   UNL     1     174.600 192.663 192.274  1.00  0.00     0.000 C 
BRANCH  10  11
ATOM     11  C   UNL     1     174.325 191.177 192.014  1.00  0.00     0.000 C 
BRANCH  11  12
ATOM     12  C   UNL     1     172.936 190.776 192.524  1.00  0.00     0.006 C 
BRANCH  12  13
ATOM     13  C   UNL     1     172.485 189.447 191.910  1.00  0.00     0.053 C 
BRANCH  13  14
ATOM     14  C   UNL     1     171.759 188.612 192.919  1.00  0.00     0.041 C 
ATOM     15  O   UNL     1     171.889 187.359 192.917  1.00  0.00    -0.550 OA
ATOM     16  O   UNL     1     170.923 189.215 193.849  1.00  0.00    -0.550 OA
ENDBRANCH  13  14
ENDBRANCH  12  13
ENDBRANCH  11  12
ENDBRANCH  10  11
ENDBRANCH   9  10
ENDBRANCH   8   9
ENDBRANCH   7   8
ENDBRANCH   6   7
ENDBRANCH   5   6
ENDBRANCH   4   5
ENDBRANCH   3   4
ENDBRANCH   2   3
ENDBRANCH   1   2
BRANCH   1  17
ATOM     17  C   UNL     1     173.759 190.164 196.119  1.00  0.00     0.000 C 
BRANCH  17  18
ATOM     18  C   UNL     1     174.186 188.787 195.588  1.00  0.00     0.000 C 
BRANCH  18  19
ATOM     19  C   UNL     1     175.463 188.898 194.743  1.00  0.00     0.000 C 
BRANCH  19  20
ATOM     20  C   UNL     1     175.465 187.941 193.540  1.00  0.00     0.000 C 
BRANCH  20  21
ATOM     21  C   UNL     1     176.786 187.984 192.751  1.00  0.00     0.000 C 
BRANCH  21  22
ATOM     22  C   UNL     1     177.759 186.854 193.152  1.00  0.00    -0.000 C 
BRANCH  22  23
ATOM     23  C   UNL     1     178.766 187.254 194.249  1.00  0.00    -0.000 C 
BRANCH  23  24
ATOM     24  C   UNL     1     178.697 186.419 195.541  1.00  0.00    -0.000 C 
BRANCH  24  25
ATOM     25  C   UNL     1     177.361 185.689 195.779  1.00  0.00    -0.000 C 
BRANCH  25  26
ATOM     26  C   UNL     1     176.594 186.221 197.000  1.00  0.00    -0.000 C 
BRANCH  26  27
ATOM     27  C   UNL     1     177.439 187.244 197.774  1.00  0.00    -0.000 C 
BRANCH  27  28
ATOM     28  C   UNL     1     176.599 188.398 198.351  1.00  0.00    -0.000 C 
BRANCH  28  29
ATOM     29  C   UNL     1     177.153 189.805 198.060  1.00  0.00    -0.003 C 
ATOM     30  C   UNL     1     178.248 189.805 196.993  1.00  0.00     0.004 C 
ENDBRANCH  28  29
ENDBRANCH  27  28
ENDBRANCH  26  27
ENDBRANCH  25  26
ENDBRANCH  24  25
ENDBRANCH  23  24
ENDBRANCH  22  23
ENDBRANCH  21  22
ENDBRANCH  20  21
ENDBRANCH  19  20
ENDBRANCH  18  19
ENDBRANCH  17  18
ENDBRANCH   1  17
TORSDOF 26
ENDMDL
MODEL 4
REMARK VINA RESULT:     0.085      5.962      9.271
REMARK INTER + INTRA:          -6.974
REMARK INTER:                   0.000
REMARK INTRA:                  -6.974
REMARK UNBOUND:                -7.188
REMARK SMILES CCCCCCCCCCCCCCCCCCCCCCCCCCCC(=O)[O-]
REMARK SMILES IDX 15 1 16 2 17 3 18 4 19 5 20 6 21 7 22 8 23 9 24 10 25 11
REMARK SMILES IDX 26 12 27 13 28 14 29 15 30 16 14 17 13 18 12 19 11 20 10 21
REMARK SMILES IDX 9 22 8 23 7 24 6 25 5 26 4 27 3 28 2 29 1 30
REMARK H PARENT
REMARK Flexibility Score: inf
ROOT
ATOM      1  C   UNL     1     174.128 184.379 190.398  1.00  0.00     0.000 C 
ENDROOT
BRANCH   1   2
ATOM      2  C   UNL     1     173.188 185.509 189.947  1.00  0.00     0.000 C 
BRANCH   2   3
ATOM      3  C   UNL     1     173.826 186.901 190.084  1.00  0.00     0.000 C 
BRANCH   3   4
ATOM      4  C   UNL     1     175.355 186.842 190.221  1.00  0.00     0.000 C 
BRANCH   4   5
ATOM      5  C   UNL     1     175.948 188.100 190.880  1.00  0.00     0.000 C 
BRANCH   5   6
ATOM      6  C   UNL     1     175.059 188.663 192.005  1.00  0.00     0.000 C 
BRANCH   6   7
ATOM      7  C   UNL     1     175.775 188.881 193.351  1.00  0.00     0.000 C 
BRANCH   7   8
ATOM      8  C   UNL     1     177.200 188.300 193.372  1.00  0.00     0.000 C 
BRANCH   8   9
ATOM      9  C   UNL     1     177.510 187.530 194.667  1.00  0.00     0.000 C 
BRANCH   9  10
ATOM     10  C   UNL     1     177.930 186.075 194.414  1.00  0.00     0.000 C 
BRANCH  10  11
ATOM     11  C   UNL     1     178.090 185.797 192.914  1.00  0.00     0.000 C 
BRANCH  11  12
ATOM     12  C   UNL     1     177.178 184.651 192.464  1.00  0.00     0.006 C 
BRANCH  12  13
ATOM     13  C   UNL     1     177.995 183.478 191.914  1.00  0.00     0.053 C 
BRANCH  13  14
ATOM     14  C   UNL     1     177.757 183.303 190.446  1.00  0.00     0.041 C 
ATOM     15  O   UNL     1     177.473 182.167 189.981  1.00  0.00    -0.550 OA
ATOM     16  O   UNL     1     177.867 184.388 189.588  1.00  0.00    -0.550 OA
ENDBRANCH  13  14
ENDBRANCH  12  13
ENDBRANCH  11  12
ENDBRANCH  10  11
ENDBRANCH   9  10
ENDBRANCH   8   9
ENDBRANCH   7   8
ENDBRANCH   6   7
ENDBRANCH   5   6
ENDBRANCH   4   5
ENDBRANCH   3   4
ENDBRANCH   2   3
ENDBRANCH   1   2
BRANCH   1  17
ATOM     17  C   UNL     1     173.425 183.287 191.235  1.00  0.00     0.000 C 
BRANCH  17  18
ATOM     18  C   UNL     1     174.416 182.248 191.785  1.00  0.00     0.000 C 
BRANCH  18  19
ATOM     19  C   UNL     1     174.230 182.061 193.297  1.00  0.00     0.000 C 
BRANCH  19  20
ATOM     20  C   UNL     1     175.529 181.655 194.010  1.00  0.00     0.000 C 
BRANCH  20  21
ATOM     21  C   UNL     1     175.866 182.575 195.198  1.00  0.00     0.000 C 
BRANCH  21  22
ATOM     22  C   UNL     1     174.648 183.383 195.693  1.00  0.00    -0.000 C 
BRANCH  22  23
ATOM     23  C   UNL     1     174.998 184.795 196.205  1.00  0.00    -0.000 C 
BRANCH  23  24
ATOM     24  C   UNL     1     174.296 185.954 195.472  1.00  0.00    -0.000 C 
BRANCH  24  25
ATOM     25  C   UNL     1     173.996 185.700 193.982  1.00  0.00    -0.000 C 
BRANCH  25  26
ATOM     26  C   UNL     1     172.649 186.285 193.532  1.00  0.00    -0.000 C 
BRANCH  26  27
ATOM     27  C   UNL     1     171.494 185.699 194.360  1.00  0.00    -0.000 C 
BRANCH  27  28
ATOM     28  C   UNL     1     171.288 184.194 194.116  1.00  0.00    -0.000 C 
BRANCH  28  29
ATOM     29  C   UNL     1     170.906 183.386 195.370  1.00  0.00    -0.003 C 
ATOM     30  C   UNL     1     171.214 184.125 196.672  1.00  0.00     0.004 C 
ENDBRANCH  28  29
ENDBRANCH  27  28
ENDBRANCH  26  27
ENDBRANCH  25  26
ENDBRANCH  24  25
ENDBRANCH  23  24
ENDBRANCH  22  23
ENDBRANCH  21  22
ENDBRANCH  20  21
ENDBRANCH  19  20
ENDBRANCH  18  19
ENDBRANCH  17  18
ENDBRANCH   1  17
TORSDOF 26
ENDMDL
MODEL 5
REMARK VINA RESULT:     0.088      6.174      9.180
REMARK INTER + INTRA:          -6.968
REMARK INTER:                   0.000
REMARK INTRA:                  -6.968
REMARK UNBOUND:                -7.188
REMARK SMILES CCCCCCCCCCCCCCCCCCCCCCCCCCCC(=O)[O-]
REMARK SMILES IDX 15 1 16 2 17 3 18 4 19 5 20 6 21 7 22 8 23 9 24 10 25 11
REMARK SMILES IDX 26 12 27 13 28 14 29 15 30 16 14 17 13 18 12 19 11 20 10 21
REMARK SMILES IDX 9 22 8 23 7 24 6 25 5 26 4 27 3 28 2 29 1 30
REMARK H PARENT
REMARK Flexibility Score: inf
ROOT
ATOM      1  C   UNL     1     169.824 189.289 195.892  1.00  0.00     0.000 C 
ENDROOT
BRANCH   1   2
ATOM      2  C   UNL     1     169.227 190.701 196.022  1.00  0.00     0.000 C 
BRANCH   2   3
ATOM      3  C   UNL     1     169.574 191.370 197.361  1.00  0.00     0.000 C 
BRANCH   3   4
ATOM      4  C   UNL     1     170.077 192.812 197.192  1.00  0.00     0.000 C 
BRANCH   4   5
ATOM      5  C   UNL     1     171.346 193.105 198.013  1.00  0.00     0.000 C 
BRANCH   5   6
ATOM      6  C   UNL     1     172.623 192.535 197.367  1.00  0.00     0.000 C 
BRANCH   6   7
ATOM      7  C   UNL     1     173.565 191.797 198.335  1.00  0.00     0.000 C 
BRANCH   7   8
ATOM      8  C   UNL     1     172.842 191.259 199.583  1.00  0.00     0.000 C 
BRANCH   8   9
ATOM      9  C   UNL     1     173.075 189.755 199.804  1.00  0.00     0.000 C 
BRANCH   9  10
ATOM     10  C   UNL     1     171.797 189.002 200.204  1.00  0.00     0.000 C 
BRANCH  10  11
ATOM     11  C   UNL     1     170.666 189.978 200.553  1.00  0.00     0.000 C 
BRANCH  11  12
ATOM     12  C   UNL     1     169.295 189.313 200.390  1.00  0.00     0.006 C 
BRANCH  12  13
ATOM     13  C   UNL     1     169.417 187.968 199.669  1.00  0.00     0.053 C 
BRANCH  13  14
ATOM     14  C   UNL     1     168.208 187.704 198.825  1.00  0.00     0.041 C 
ATOM     15  O   UNL     1     167.939 186.531 198.450  1.00  0.00    -0.550 OA
ATOM     16  O   UNL     1     167.389 188.754 198.434  1.00  0.00    -0.550 OA
ENDBRANCH  13  14
ENDBRANCH  12  13
ENDBRANCH  11  12
ENDBRANCH  10  11
ENDBRANCH   9  10
ENDBRANCH   8   9
ENDBRANCH   7   8
ENDBRANCH   6   7
ENDBRANCH   5   6
ENDBRANCH   4   5
ENDBRANCH   3   4
ENDBRANCH   2   3
ENDBRANCH   1   2
BRANCH   1  17
ATOM     17  C   UNL     1     171.165 189.114 196.637  1.00  0.00     0.000 C 
BRANCH  17  18
ATOM     18  C   UNL     1     171.627 187.649 196.667  1.00  0.00     0.000 C 
BRANCH  18  19
ATOM     19  C   UNL     1     173.135 187.544 196.401  1.00  0.00     0.000 C 
BRANCH  19  20
ATOM     20  C   UNL     1     173.803 188.916 196.216  1.00  0.00     0.000 C 
BRANCH  20  21
ATOM     21  C   UNL     1     175.334 188.818 196.091  1.00  0.00     0.000 C 
BRANCH  21  22
ATOM     22  C   UNL     1     175.923 189.868 195.125  1.00  0.00    -0.000 C 
BRANCH  22  23
ATOM     23  C   UNL     1     175.068 191.144 194.989  1.00  0.00    -0.000 C 
BRANCH  23  24
ATOM     24  C   UNL     1     174.817 191.618 193.545  1.00  0.00    -0.000 C 
BRANCH  24  25
ATOM     25  C   UNL     1     173.422 192.217 193.286  1.00  0.00    -0.000 C 
BRANCH  25  26
ATOM     26  C   UNL     1     172.286 191.386 193.904  1.00  0.00    -0.000 C 
BRANCH  26  27
ATOM     27  C   UNL     1     171.630 190.484 192.847  1.00  0.00    -0.000 C 
BRANCH  27  28
ATOM     28  C   UNL     1     172.062 189.012 192.967  1.00  0.00    -0.000 C 
BRANCH  28  29
ATOM     29  C   UNL     1     173.253 188.617 192.074  1.00  0.00    -0.003 C 
ATOM     30  C   UNL     1     174.186 187.606 192.739  1.00  0.00     0.004 C 
ENDBRANCH  28  29
ENDBRANCH  27  28
ENDBRANCH  26  27
ENDBRANCH  25  26
ENDBRANCH  24  25
ENDBRANCH  23  24
ENDBRANCH  22  23
ENDBRANCH  21  22
ENDBRANCH  20  21
ENDBRANCH  19  20
ENDBRANCH  18  19
ENDBRANCH  17  18
ENDBRANCH   1  17
TORSDOF 26
ENDMDL
MODEL 6
REMARK VINA RESULT:     0.088      2.383      5.233
REMARK INTER + INTRA:          -6.967
REMARK INTER:                   0.000
REMARK INTRA:                  -6.967
REMARK UNBOUND:                -7.188
REMARK SMILES CCCCCCCCCCCCCCCCCCCCCCCCCCCC(=O)[O-]
REMARK SMILES IDX 15 1 16 2 17 3 18 4 19 5 20 6 21 7 22 8 23 9 24 10 25 11
REMARK SMILES IDX 26 12 27 13 28 14 29 15 30 16 14 17 13 18 12 19 11 20 10 21
REMARK SMILES IDX 9 22 8 23 7 24 6 25 5 26 4 27 3 28 2 29 1 30
REMARK H PARENT
REMARK Flexibility Score: inf
ROOT
ATOM      1  C   UNL     1     178.322 190.909 192.607  1.00  0.00     0.000 C 
ENDROOT
BRANCH   1   2
ATOM      2  C   UNL     1     179.588 190.193 192.109  1.00  0.00     0.000 C 
BRANCH   2   3
ATOM      3  C   UNL     1     179.596 188.695 192.454  1.00  0.00     0.000 C 
BRANCH   3   4
ATOM      4  C   UNL     1     180.760 187.940 191.794  1.00  0.00     0.000 C 
BRANCH   4   5
ATOM      5  C   UNL     1     181.481 186.985 192.763  1.00  0.00     0.000 C 
BRANCH   5   6
ATOM      6  C   UNL     1     182.015 187.696 194.021  1.00  0.00     0.000 C 
BRANCH   6   7
ATOM      7  C   UNL     1     181.531 187.101 195.356  1.00  0.00     0.000 C 
BRANCH   7   8
ATOM      8  C   UNL     1     180.642 188.070 196.156  1.00  0.00     0.000 C 
BRANCH   8   9
ATOM      9  C   UNL     1     180.882 189.543 195.785  1.00  0.00     0.000 C 
BRANCH   9  10
ATOM     10  C   UNL     1     179.642 190.424 195.990  1.00  0.00     0.000 C 
BRANCH  10  11
ATOM     11  C   UNL     1     178.470 189.608 196.552  1.00  0.00     0.000 C 
BRANCH  11  12
ATOM     12  C   UNL     1     177.244 190.496 196.791  1.00  0.00     0.006 C 
BRANCH  12  13
ATOM     13  C   UNL     1     177.530 191.949 196.396  1.00  0.00     0.053 C 
BRANCH  13  14
ATOM     14  C   UNL     1     176.443 192.486 195.517  1.00  0.00     0.041 C 
ATOM     15  O   UNL     1     175.285 191.992 195.565  1.00  0.00    -0.550 OA
ATOM     16  O   UNL     1     176.713 193.517 194.628  1.00  0.00    -0.550 OA
ENDBRANCH  13  14
ENDBRANCH  12  13
ENDBRANCH  11  12
ENDBRANCH  10  11
ENDBRANCH   9  10
ENDBRANCH   8   9
ENDBRANCH   7   8
ENDBRANCH   6   7
ENDBRANCH   5   6
ENDBRANCH   4   5
ENDBRANCH   3   4
ENDBRANCH   2   3
ENDBRANCH   1   2
BRANCH   1  17
ATOM     17  C   UNL     1     177.212 189.945 193.082  1.00  0.00     0.000 C 
BRANCH  17  18
ATOM     18  C   UNL     1     175.895 190.154 192.318  1.00  0.00     0.000 C 
BRANCH  18  19
ATOM     19  C   UNL     1     175.908 189.393 190.985  1.00  0.00     0.000 C 
BRANCH  19  20
ATOM     20  C   UNL     1     176.164 187.888 191.163  1.00  0.00     0.000 C 
BRANCH  20  21
ATOM     21  C   UNL     1     177.115 187.318 190.094  1.00  0.00     0.000 C 
BRANCH  21  22
ATOM     22  C   UNL     1     177.836 186.035 190.560  1.00  0.00    -0.000 C 
BRANCH  22  23
ATOM     23  C   UNL     1     177.333 185.488 191.911  1.00  0.00    -0.000 C 
BRANCH  23  24
ATOM     24  C   UNL     1     178.399 184.794 192.778  1.00  0.00    -0.000 C 
BRANCH  24  25
ATOM     25  C   UNL     1     178.471 185.279 194.239  1.00  0.00    -0.000 C 
BRANCH  25  26
ATOM     26  C   UNL     1     177.727 186.603 194.470  1.00  0.00    -0.000 C 
BRANCH  26  27
ATOM     27  C   UNL     1     176.606 186.427 195.507  1.00  0.00    -0.000 C 
BRANCH  27  28
ATOM     28  C   UNL     1     175.521 187.513 195.404  1.00  0.00    -0.000 C 
BRANCH  28  29
ATOM     29  C   UNL     1     174.484 187.283 194.289  1.00  0.00    -0.003 C 
ATOM     30  C   UNL     1     174.216 185.802 194.022  1.00  0.00     0.004 C 
ENDBRANCH  28  29
ENDBRANCH  27  28
ENDBRANCH  26  27
ENDBRANCH  25  26
ENDBRANCH  24  25
ENDBRANCH  23  24
ENDBRANCH  22  23
ENDBRANCH  21  22
ENDBRANCH  20  21
ENDBRANCH  19  20
ENDBRANCH  18  19
ENDBRANCH  17  18
ENDBRANCH   1  17
TORSDOF 26
ENDMDL
MODEL 7
REMARK VINA RESULT:     0.145      2.174      4.831
REMARK INTER + INTRA:          -6.823
REMARK INTER:                   0.000
REMARK INTRA:                  -6.823
REMARK UNBOUND:                -7.188
REMARK SMILES CCCCCCCCCCCCCCCCCCCCCCCCCCCC(=O)[O-]
REMARK SMILES IDX 15 1 16 2 17 3 18 4 19 5 20 6 21 7 22 8 23 9 24 10 25 11
REMARK SMILES IDX 26 12 27 13 28 14 29 15 30 16 14 17 13 18 12 19 11 20 10 21
REMARK SMILES IDX 9 22 8 23 7 24 6 25 5 26 4 27 3 28 2 29 1 30
REMARK H PARENT
REMARK Flexibility Score: inf
ROOT
ATOM      1  C   UNL     1     178.648 191.952 192.298  1.00  0.00     0.000 C 
ENDROOT
BRANCH   1   2
ATOM      2  C   UNL     1     179.914 191.235 191.800  1.00  0.00     0.000 C 
BRANCH   2   3
ATOM      3  C   UNL     1     180.051 189.812 192.364  1.00  0.00     0.000 C 
BRANCH   3   4
ATOM      4  C   UNL     1     180.833 188.876 191.430  1.00  0.00     0.000 C 
BRANCH   4   5
ATOM      5  C   UNL     1     181.665 187.827 192.191  1.00  0.00     0.000 C 
BRANCH   5   6
ATOM      6  C   UNL     1     182.754 188.456 193.080  1.00  0.00     0.000 C 
BRANCH   6   7
ATOM      7  C   UNL     1     182.582 188.209 194.590  1.00  0.00     0.000 C 
BRANCH   7   8
ATOM      8  C   UNL     1     182.314 189.501 195.382  1.00  0.00     0.000 C 
BRANCH   8   9
ATOM      9  C   UNL     1     182.850 190.756 194.672  1.00  0.00     0.000 C 
BRANCH   9  10
ATOM     10  C   UNL     1     181.934 191.977 194.838  1.00  0.00     0.000 C 
BRANCH  10  11
ATOM     11  C   UNL     1     180.633 191.599 195.557  1.00  0.00     0.000 C 
BRANCH  11  12
ATOM     12  C   UNL     1     179.722 192.820 195.725  1.00  0.00     0.006 C 
BRANCH  12  13
ATOM     13  C   UNL     1     178.322 192.404 196.187  1.00  0.00     0.053 C 
BRANCH  13  14
ATOM     14  C   UNL     1     178.235 192.393 197.682  1.00  0.00     0.041 C 
ATOM     15  O   UNL     1     178.079 193.471 198.317  1.00  0.00    -0.550 OA
ATOM     16  O   UNL     1     178.347 191.197 198.378  1.00  0.00    -0.550 OA
ENDBRANCH  13  14
ENDBRANCH  12  13
ENDBRANCH  11  12
ENDBRANCH  10  11
ENDBRANCH   9  10
ENDBRANCH   8   9
ENDBRANCH   7   8
ENDBRANCH   6   7
ENDBRANCH   5   6
ENDBRANCH   4   5
ENDBRANCH   3   4
ENDBRANCH   2   3
ENDBRANCH   1   2
BRANCH   1  17
ATOM     17  C   UNL     1     177.538 190.988 192.772  1.00  0.00     0.000 C 
BRANCH  17  18
ATOM     18  C   UNL     1     176.420 190.831 191.730  1.00  0.00     0.000 C 
BRANCH  18  19
ATOM     19  C   UNL     1     176.534 189.484 191.004  1.00  0.00     0.000 C 
BRANCH  19  20
ATOM     20  C   UNL     1     176.765 188.308 191.965  1.00  0.00     0.000 C 
BRANCH  20  21
ATOM     21  C   UNL     1     177.402 187.090 191.271  1.00  0.00     0.000 C 
BRANCH  21  22
ATOM     22  C   UNL     1     178.326 186.283 192.208  1.00  0.00    -0.000 C 
BRANCH  22  23
ATOM     23  C   UNL     1     178.009 186.461 193.706  1.00  0.00    -0.000 C 
BRANCH  23  24
ATOM     24  C   UNL     1     179.235 186.539 194.634  1.00  0.00    -0.000 C 
BRANCH  24  25
ATOM     25  C   UNL     1     179.129 187.568 195.776  1.00  0.00    -0.000 C 
BRANCH  25  26
ATOM     26  C   UNL     1     178.205 188.748 195.437  1.00  0.00    -0.000 C 
BRANCH  26  27
ATOM     27  C   UNL     1     176.949 188.733 196.323  1.00  0.00    -0.000 C 
BRANCH  27  28
ATOM     28  C   UNL     1     175.857 189.698 195.829  1.00  0.00    -0.000 C 
BRANCH  28  29
ATOM     29  C   UNL     1     174.814 189.062 194.891  1.00  0.00    -0.003 C 
ATOM     30  C   UNL     1     174.711 187.546 195.055  1.00  0.00     0.004 C 
ENDBRANCH  28  29
ENDBRANCH  27  28
ENDBRANCH  26  27
ENDBRANCH  25  26
ENDBRANCH  24  25
ENDBRANCH  23  24
ENDBRANCH  22  23
ENDBRANCH  21  22
ENDBRANCH  20  21
ENDBRANCH  19  20
ENDBRANCH  18  19
ENDBRANCH  17  18
ENDBRANCH   1  17
TORSDOF 26
ENDMDL
MODEL 8
REMARK VINA RESULT:     0.147      5.187      8.087
REMARK INTER + INTRA:          -6.818
REMARK INTER:                   0.000
REMARK INTRA:                  -6.818
REMARK UNBOUND:                -7.188
REMARK SMILES CCCCCCCCCCCCCCCCCCCCCCCCCCCC(=O)[O-]
REMARK SMILES IDX 15 1 16 2 17 3 18 4 19 5 20 6 21 7 22 8 23 9 24 10 25 11
REMARK SMILES IDX 26 12 27 13 28 14 29 15 30 16 14 17 13 18 12 19 11 20 10 21
REMARK SMILES IDX 9 22 8 23 7 24 6 25 5 26 4 27 3 28 2 29 1 30
REMARK H PARENT
REMARK Flexibility Score: inf
ROOT
ATOM      1  C   UNL     1     178.728 195.143 192.538  1.00  0.00     0.000 C 
ENDROOT
BRANCH   1   2
ATOM      2  C   UNL     1     178.669 195.788 191.143  1.00  0.00     0.000 C 
BRANCH   2   3
ATOM      3  C   UNL     1     178.976 194.790 190.015  1.00  0.00     0.000 C 
BRANCH   3   4
ATOM      4  C   UNL     1     178.506 195.285 188.639  1.00  0.00     0.000 C 
BRANCH   4   5
ATOM      5  C   UNL     1     177.035 194.937 188.347  1.00  0.00     0.000 C 
BRANCH   5   6
ATOM      6  C   UNL     1     176.873 193.944 187.181  1.00  0.00     0.000 C 
BRANCH   6   7
ATOM      7  C   UNL     1     178.191 193.497 186.522  1.00  0.00     0.000 C 
BRANCH   7   8
ATOM      8  C   UNL     1     178.369 191.968 186.515  1.00  0.00     0.000 C 
BRANCH   8   9
ATOM      9  C   UNL     1     177.778 191.294 187.765  1.00  0.00     0.000 C 
BRANCH   9  10
ATOM     10  C   UNL     1     178.784 191.187 188.921  1.00  0.00     0.000 C 
BRANCH  10  11
ATOM     11  C   UNL     1     178.071 191.218 190.279  1.00  0.00     0.000 C 
BRANCH  11  12
ATOM     12  C   UNL     1     176.609 191.650 190.125  1.00  0.00     0.006 C 
BRANCH  12  13
ATOM     13  C   UNL     1     176.210 192.646 191.219  1.00  0.00     0.053 C 
BRANCH  13  14
ATOM     14  C   UNL     1     175.237 192.026 192.174  1.00  0.00     0.041 C 
ATOM     15  O   UNL     1     175.043 190.781 192.164  1.00  0.00    -0.550 OA
ATOM     16  O   UNL     1     174.528 192.823 193.062  1.00  0.00    -0.550 OA
ENDBRANCH  13  14
ENDBRANCH  12  13
ENDBRANCH  11  12
ENDBRANCH  10  11
ENDBRANCH   9  10
ENDBRANCH   8   9
ENDBRANCH   7   8
ENDBRANCH   6   7
ENDBRANCH   5   6
ENDBRANCH   4   5
ENDBRANCH   3   4
ENDBRANCH   2   3
ENDBRANCH   1   2
BRANCH   1  17
ATOM     17  C   UNL     1     179.540 193.830 192.578  1.00  0.00     0.000 C 
BRANCH  17  18
ATOM     18  C   UNL     1     180.923 194.019 193.221  1.00  0.00     0.000 C 
BRANCH  18  19
ATOM     19  C   UNL     1     181.960 193.093 192.572  1.00  0.00     0.000 C 
BRANCH  19  20
ATOM     20  C   UNL     1     181.370 192.243 191.436  1.00  0.00     0.000 C 
BRANCH  20  21
ATOM     21  C   UNL     1     182.352 191.173 190.924  1.00  0.00     0.000 C 
BRANCH  21  22
ATOM     22  C   UNL     1     183.724 191.761 190.530  1.00  0.00    -0.000 C 
BRANCH  22  23
ATOM     23  C   UNL     1     183.977 191.799 189.010  1.00  0.00    -0.000 C 
BRANCH  23  24
ATOM     24  C   UNL     1     182.890 191.135 188.145  1.00  0.00    -0.000 C 
BRANCH  24  25
ATOM     25  C   UNL     1     182.136 192.087 187.196  1.00  0.00    -0.000 C 
BRANCH  25  26
ATOM     26  C   UNL     1     181.559 193.318 187.913  1.00  0.00    -0.000 C 
BRANCH  26  27
ATOM     27  C   UNL     1     181.961 194.612 187.187  1.00  0.00    -0.000 C 
BRANCH  27  28
ATOM     28  C   UNL     1     182.412 195.722 188.153  1.00  0.00    -0.000 C 
BRANCH  28  29
ATOM     29  C   UNL     1     182.670 195.252 189.597  1.00  0.00    -0.003 C 
ATOM     30  C   UNL     1     182.359 196.328 190.637  1.00  0.00     0.004 C 
ENDBRANCH  28  29
ENDBRANCH  27  28
ENDBRANCH  26  27
ENDBRANCH  25  26
ENDBRANCH  24  25
ENDBRANCH  23  24
ENDBRANCH  22  23
ENDBRANCH  21  22
ENDBRANCH  20  21
ENDBRANCH  19  20
ENDBRANCH  18  19
ENDBRANCH  17  18
ENDBRANCH   1  17
TORSDOF 26
ENDMDL
MODEL 9
REMARK VINA RESULT:     0.148      7.461     11.017
REMARK INTER + INTRA:          -6.815
REMARK INTER:                   0.000
REMARK INTRA:                  -6.815
REMARK UNBOUND:                -7.188
REMARK SMILES CCCCCCCCCCCCCCCCCCCCCCCCCCCC(=O)[O-]
REMARK SMILES IDX 15 1 16 2 17 3 18 4 19 5 20 6 21 7 22 8 23 9 24 10 25 11
REMARK SMILES IDX 26 12 27 13 28 14 29 15 30 16 14 17 13 18 12 19 11 20 10 21
REMARK SMILES IDX 9 22 8 23 7 24 6 25 5 26 4 27 3 28 2 29 1 30
REMARK H PARENT
REMARK Flexibility Score: inf
ROOT
ATOM      1  C   UNL     1     173.861 199.165 201.333  1.00  0.00     0.000 C 
ENDROOT
BRANCH   1   2
ATOM      2  C   UNL     1     173.206 198.233 202.367  1.00  0.00     0.000 C 
BRANCH   2   3
ATOM      3  C   UNL     1     173.952 198.222 203.711  1.00  0.00     0.000 C 
BRANCH   3   4
ATOM      4  C   UNL     1     173.318 197.267 204.734  1.00  0.00     0.000 C 
BRANCH   4   5
ATOM      5  C   UNL     1     172.038 196.590 204.210  1.00  0.00     0.000 C 
BRANCH   5   6
ATOM      6  C   UNL     1     171.883 195.138 204.700  1.00  0.00     0.000 C 
BRANCH   6   7
ATOM      7  C   UNL     1     172.452 194.068 203.750  1.00  0.00     0.000 C 
BRANCH   7   8
ATOM      8  C   UNL     1     172.649 194.586 202.314  1.00  0.00     0.000 C 
BRANCH   8   9
ATOM      9  C   UNL     1     174.107 194.479 201.838  1.00  0.00     0.000 C 
BRANCH   9  10
ATOM     10  C   UNL     1     175.115 194.425 202.996  1.00  0.00     0.000 C 
BRANCH  10  11
ATOM     11  C   UNL     1     176.246 195.441 202.793  1.00  0.00     0.000 C 
BRANCH  11  12
ATOM     12  C   UNL     1     176.119 196.144 201.437  1.00  0.00     0.006 C 
BRANCH  12  13
ATOM     13  C   UNL     1     177.368 195.916 200.579  1.00  0.00     0.053 C 
BRANCH  13  14
ATOM     14  C   UNL     1     177.692 197.137 199.774  1.00  0.00     0.041 C 
ATOM     15  O   UNL     1     177.031 198.198 199.936  1.00  0.00    -0.550 OA
ATOM     16  O   UNL     1     178.709 197.099 198.831  1.00  0.00    -0.550 OA
ENDBRANCH  13  14
ENDBRANCH  12  13
ENDBRANCH  11  12
ENDBRANCH  10  11
ENDBRANCH   9  10
ENDBRANCH   8   9
ENDBRANCH   7   8
ENDBRANCH   6   7
ENDBRANCH   5   6
ENDBRANCH   4   5
ENDBRANCH   3   4
ENDBRANCH   2   3
ENDBRANCH   1   2
BRANCH   1  17
ATOM     17  C   UNL     1     173.555 198.777 199.870  1.00  0.00     0.000 C 
BRANCH  17  18
ATOM     18  C   UNL     1     173.076 197.322 199.742  1.00  0.00     0.000 C 
BRANCH  18  19
ATOM     19  C   UNL     1     173.231 196.820 198.299  1.00  0.00     0.000 C 
BRANCH  19  20
ATOM     20  C   UNL     1     174.540 196.046 198.077  1.00  0.00     0.000 C 
BRANCH  20  21
ATOM     21  C   UNL     1     174.346 194.520 198.145  1.00  0.00     0.000 C 
BRANCH  21  22
ATOM     22  C   UNL     1     172.913 194.083 197.771  1.00  0.00    -0.000 C 
BRANCH  22  23
ATOM     23  C   UNL     1     172.218 193.228 198.850  1.00  0.00    -0.000 C 
BRANCH  23  24
ATOM     24  C   UNL     1     170.793 193.674 199.226  1.00  0.00    -0.000 C 
BRANCH  24  25
ATOM     25  C   UNL     1     170.155 194.700 198.270  1.00  0.00    -0.000 C 
BRANCH  25  26
ATOM     26  C   UNL     1     169.661 195.966 198.987  1.00  0.00    -0.000 C 
BRANCH  26  27
ATOM     27  C   UNL     1     169.653 195.763 200.511  1.00  0.00    -0.000 C 
BRANCH  27  28
ATOM     28  C   UNL     1     169.807 197.082 201.289  1.00  0.00    -0.000 C 
BRANCH  28  29
ATOM     29  C   UNL     1     169.594 198.354 200.447  1.00  0.00    -0.003 C 
ATOM     30  C   UNL     1     169.981 199.632 201.191  1.00  0.00     0.004 C 
ENDBRANCH  28  29
ENDBRANCH  27  28
ENDBRANCH  26  27
ENDBRANCH  25  26
ENDBRANCH  24  25
ENDBRANCH  23  24
ENDBRANCH  22  23
ENDBRANCH  21  22
ENDBRANCH  20  21
ENDBRANCH  19  20
ENDBRANCH  18  19
ENDBRANCH  17  18
ENDBRANCH   1  17
TORSDOF 26
ENDMDL
