MODEL 1
REMARK VINA RESULT:    -4.033      0.000      0.000
REMARK INTER + INTRA:         -15.286
REMARK INTER:                 -10.635
REMARK INTRA:                  -4.651
REMARK UNBOUND:                -4.651
REMARK SMILES CCCCCCCCCCCCCCCCCCCCCCCCCCCCCC(=O)[O-]
REMARK SMILES IDX 16 1 17 2 18 3 19 4 20 5 21 6 22 7 23 8 24 9 25 10 26 11
REMARK SMILES IDX 27 12 28 13 29 14 30 15 31 16 32 17 15 18 14 19 13 20 12 21
REMARK SMILES IDX 11 22 10 23 9 24 8 25 7 26 6 27 5 28 4 29 3 30 2 31 1 32
REMARK H PARENT
REMARK Flexibility Score: inf
ROOT
ATOM      1  C   UNL     1     -16.333   5.887  30.883  1.00  0.00     0.000 C 
ENDROOT
BRANCH   1   2
ATOM      2  C   UNL     1     -15.976   7.295  30.383  1.00  0.00     0.000 C 
BRANCH   2   3
ATOM      3  C   UNL     1     -14.880   7.293  29.300  1.00  0.00     0.000 C 
BRANCH   3   4
ATOM      4  C   UNL     1     -14.452   8.683  28.796  1.00  0.00     0.000 C 
BRANCH   4   5
ATOM      5  C   UNL     1     -13.195   8.637  27.908  1.00  0.00     0.000 C 
BRANCH   5   6
ATOM      6  C   UNL     1     -11.894   8.866  28.699  1.00  0.00     0.000 C 
BRANCH   6   7
ATOM      7  C   UNL     1     -11.228   7.592  29.253  1.00  0.00     0.000 C 
BRANCH   7   8
ATOM      8  C   UNL     1     -10.471   6.796  28.179  1.00  0.00     0.000 C 
BRANCH   8   9
ATOM      9  C   UNL     1     -11.273   5.563  27.740  1.00  0.00     0.000 C 
BRANCH   9  10
ATOM     10  C   UNL     1     -10.384   4.333  27.489  1.00  0.00     0.000 C 
BRANCH  10  11
ATOM     11  C   UNL     1      -9.041   4.375  28.247  1.00  0.00     0.000 C 
BRANCH  11  12
ATOM     12  C   UNL     1      -8.732   3.045  28.956  1.00  0.00     0.000 C 
BRANCH  12  13
ATOM     13  C   UNL     1      -7.765   3.218  30.140  1.00  0.00     0.006 C 
BRANCH  13  14
ATOM     14  C   UNL     1      -7.987   4.537  30.890  1.00  0.00     0.053 C 
BRANCH  14  15
ATOM     15  C   UNL     1      -7.644   4.380  32.338  1.00  0.00     0.041 C 
ATOM     16  O   UNL     1      -8.358   3.659  33.085  1.00  0.00    -0.550 OA
ATOM     17  O   UNL     1      -6.517   5.006  32.856  1.00  0.00    -0.550 OA
ENDBRANCH  14  15
ENDBRANCH  13  14
ENDBRANCH  12  13
ENDBRANCH  11  12
ENDBRANCH  10  11
ENDBRANCH   9  10
ENDBRANCH   8   9
ENDBRANCH   7   8
ENDBRANCH   6   7
ENDBRANCH   5   6
ENDBRANCH   4   5
ENDBRANCH   3   4
ENDBRANCH   2   3
ENDBRANCH   1   2
BRANCH   1  18
ATOM     18  C   UNL     1     -16.012   4.830  29.815  1.00  0.00     0.000 C 
BRANCH  18  19
ATOM     19  C   UNL     1     -15.141   3.685  30.354  1.00  0.00     0.000 C 
BRANCH  19  20
ATOM     20  C   UNL     1     -14.121   4.163  31.404  1.00  0.00     0.000 C 
BRANCH  20  21
ATOM     21  C   UNL     1     -12.803   4.640  30.772  1.00  0.00     0.000 C 
BRANCH  21  22
ATOM     22  C   UNL     1     -11.580   3.864  31.293  1.00  0.00     0.000 C 
BRANCH  22  23
ATOM     23  C   UNL     1     -11.729   2.336  31.159  1.00  0.00     0.000 C 
BRANCH  23  24
ATOM     24  C   UNL     1     -12.007   1.820  29.731  1.00  0.00    -0.000 C 
BRANCH  24  25
ATOM     25  C   UNL     1     -12.190   0.291  29.611  1.00  0.00    -0.000 C 
BRANCH  25  26
ATOM     26  C   UNL     1     -12.858  -0.365  30.834  1.00  0.00    -0.000 C 
BRANCH  26  27
ATOM     27  C   UNL     1     -14.394  -0.245  30.851  1.00  0.00    -0.000 C 
BRANCH  27  28
ATOM     28  C   UNL     1     -14.893   0.661  31.990  1.00  0.00    -0.000 C 
BRANCH  28  29
ATOM     29  C   UNL     1     -16.385   0.457  32.309  1.00  0.00    -0.000 C 
BRANCH  29  30
ATOM     30  C   UNL     1     -17.104   1.703  32.855  1.00  0.00    -0.000 C 
BRANCH  30  31
ATOM     31  C   UNL     1     -16.430   2.280  34.108  1.00  0.00    -0.003 C 
ATOM     32  C   UNL     1     -16.218   1.199  35.166  1.00  0.00     0.004 C 
ENDBRANCH  30  31
ENDBRANCH  29  30
ENDBRANCH  28  29
ENDBRANCH  27  28
ENDBRANCH  26  27
ENDBRANCH  25  26
ENDBRANCH  24  25
ENDBRANCH  23  24
ENDBRANCH  22  23
ENDBRANCH  21  22
ENDBRANCH  20  21
ENDBRANCH  19  20
ENDBRANCH  18  19
ENDBRANCH   1  18
TORSDOF 28
ENDMDL
MODEL 2
REMARK VINA RESULT:    -3.965      2.123      6.121
REMARK INTER + INTRA:         -15.105
REMARK INTER:                 -10.511
REMARK INTRA:                  -4.594
REMARK UNBOUND:                -4.651
REMARK SMILES CCCCCCCCCCCCCCCCCCCCCCCCCCCCCC(=O)[O-]
REMARK SMILES IDX 16 1 17 2 18 3 19 4 20 5 21 6 22 7 23 8 24 9 25 10 26 11
REMARK SMILES IDX 27 12 28 13 29 14 30 15 31 16 32 17 15 18 14 19 13 20 12 21
REMARK SMILES IDX 11 22 10 23 9 24 8 25 7 26 6 27 5 28 4 29 3 30 2 31 1 32
REMARK H PARENT
REMARK Flexibility Score: inf
ROOT
ATOM      1  C   UNL     1      -8.266   5.738  28.771  1.00  0.00     0.000 C 
ENDROOT
BRANCH   1   2
ATOM      2  C   UNL     1      -7.644   6.121  30.122  1.00  0.00     0.000 C 
BRANCH   2   3
ATOM      3  C   UNL     1      -6.365   5.326  30.446  1.00  0.00     0.000 C 
BRANCH   3   4
ATOM      4  C   UNL     1      -6.310   4.717  31.859  1.00  0.00     0.000 C 
BRANCH   4   5
ATOM      5  C   UNL     1      -7.702   4.365  32.415  1.00  0.00     0.000 C 
BRANCH   5   6
ATOM      6  C   UNL     1      -8.166   2.952  32.017  1.00  0.00     0.000 C 
BRANCH   6   7
ATOM      7  C   UNL     1      -9.651   2.833  31.625  1.00  0.00     0.000 C 
BRANCH   7   8
ATOM      8  C   UNL     1     -10.357   4.194  31.533  1.00  0.00     0.000 C 
BRANCH   8   9
ATOM      9  C   UNL     1     -11.870   4.018  31.345  1.00  0.00     0.000 C 
BRANCH   9  10
ATOM     10  C   UNL     1     -12.420   4.826  30.157  1.00  0.00     0.000 C 
BRANCH  10  11
ATOM     11  C   UNL     1     -12.873   3.950  28.969  1.00  0.00     0.000 C 
BRANCH  11  12
ATOM     12  C   UNL     1     -12.782   2.448  29.288  1.00  0.00     0.000 C 
BRANCH  12  13
ATOM     13  C   UNL     1     -11.616   1.759  28.560  1.00  0.00     0.006 C 
BRANCH  13  14
ATOM     14  C   UNL     1     -11.952   0.321  28.147  1.00  0.00     0.053 C 
BRANCH  14  15
ATOM     15  C   UNL     1     -11.638  -0.631  29.259  1.00  0.00     0.041 C 
ATOM     16  O   UNL     1     -12.102  -1.802  29.242  1.00  0.00    -0.550 OA
ATOM     17  O   UNL     1     -10.807  -0.233  30.299  1.00  0.00    -0.550 OA
ENDBRANCH  14  15
ENDBRANCH  13  14
ENDBRANCH  12  13
ENDBRANCH  11  12
ENDBRANCH  10  11
ENDBRANCH   9  10
ENDBRANCH   8   9
ENDBRANCH   7   8
ENDBRANCH   6   7
ENDBRANCH   5   6
ENDBRANCH   4   5
ENDBRANCH   3   4
ENDBRANCH   2   3
ENDBRANCH   1   2
BRANCH   1  18
ATOM     18  C   UNL     1      -9.603   6.466  28.558  1.00  0.00     0.000 C 
BRANCH  18  19
ATOM     19  C   UNL     1      -9.909   7.484  29.668  1.00  0.00     0.000 C 
BRANCH  19  20
ATOM     20  C   UNL     1     -11.215   8.258  29.416  1.00  0.00     0.000 C 
BRANCH  20  21
ATOM     21  C   UNL     1     -11.543   8.392  27.920  1.00  0.00     0.000 C 
BRANCH  21  22
ATOM     22  C   UNL     1     -13.005   8.033  27.598  1.00  0.00     0.000 C 
BRANCH  22  23
ATOM     23  C   UNL     1     -13.967   8.298  28.773  1.00  0.00     0.000 C 
BRANCH  23  24
ATOM     24  C   UNL     1     -14.858   7.105  29.180  1.00  0.00    -0.000 C 
BRANCH  24  25
ATOM     25  C   UNL     1     -15.910   7.415  30.268  1.00  0.00    -0.000 C 
BRANCH  25  26
ATOM     26  C   UNL     1     -16.351   6.190  31.091  1.00  0.00    -0.000 C 
BRANCH  26  27
ATOM     27  C   UNL     1     -16.285   4.858  30.319  1.00  0.00    -0.000 C 
BRANCH  27  28
ATOM     28  C   UNL     1     -16.521   3.644  31.234  1.00  0.00    -0.000 C 
BRANCH  28  29
ATOM     29  C   UNL     1     -15.234   3.153  31.922  1.00  0.00    -0.000 C 
BRANCH  29  30
ATOM     30  C   UNL     1     -15.413   1.912  32.814  1.00  0.00    -0.000 C 
BRANCH  30  31
ATOM     31  C   UNL     1     -16.603   2.036  33.778  1.00  0.00    -0.003 C 
ATOM     32  C   UNL     1     -16.318   1.324  35.098  1.00  0.00     0.004 C 
ENDBRANCH  30  31
ENDBRANCH  29  30
ENDBRANCH  28  29
ENDBRANCH  27  28
ENDBRANCH  26  27
ENDBRANCH  25  26
ENDBRANCH  24  25
ENDBRANCH  23  24
ENDBRANCH  22  23
ENDBRANCH  21  22
ENDBRANCH  20  21
ENDBRANCH  19  20
ENDBRANCH  18  19
ENDBRANCH   1  18
TORSDOF 28
ENDMDL
MODEL 3
REMARK VINA RESULT:    -3.926      2.337      5.537
REMARK INTER + INTRA:         -15.003
REMARK INTER:                  -9.633
REMARK INTRA:                  -5.370
REMARK UNBOUND:                -4.651
REMARK SMILES CCCCCCCCCCCCCCCCCCCCCCCCCCCCCC(=O)[O-]
REMARK SMILES IDX 16 1 17 2 18 3 19 4 20 5 21 6 22 7 23 8 24 9 25 10 26 11
REMARK SMILES IDX 27 12 28 13 29 14 30 15 31 16 32 17 15 18 14 19 13 20 12 21
REMARK SMILES IDX 11 22 10 23 9 24 8 25 7 26 6 27 5 28 4 29 3 30 2 31 1 32
REMARK H PARENT
REMARK Flexibility Score: inf
ROOT
ATOM      1  C   UNL     1     -11.023   7.913  28.558  1.00  0.00     0.000 C 
ENDROOT
BRANCH   1   2
ATOM      2  C   UNL     1      -9.903   7.596  29.560  1.00  0.00     0.000 C 
BRANCH   2   3
ATOM      3  C   UNL     1     -10.240   6.416  30.492  1.00  0.00     0.000 C 
BRANCH   3   4
ATOM      4  C   UNL     1     -11.198   5.366  29.902  1.00  0.00     0.000 C 
BRANCH   4   5
ATOM      5  C   UNL     1     -12.336   4.985  30.865  1.00  0.00     0.000 C 
BRANCH   5   6
ATOM      6  C   UNL     1     -12.805   3.528  30.694  1.00  0.00     0.000 C 
BRANCH   6   7
ATOM      7  C   UNL     1     -11.779   2.455  31.104  1.00  0.00     0.000 C 
BRANCH   7   8
ATOM      8  C   UNL     1     -11.102   1.782  29.901  1.00  0.00     0.000 C 
BRANCH   8   9
ATOM      9  C   UNL     1      -9.583   1.694  30.102  1.00  0.00     0.000 C 
BRANCH   9  10
ATOM     10  C   UNL     1      -9.185   1.580  31.584  1.00  0.00     0.000 C 
BRANCH  10  11
ATOM     11  C   UNL     1      -7.907   2.368  31.943  1.00  0.00     0.000 C 
BRANCH  11  12
ATOM     12  C   UNL     1      -8.218   3.813  32.371  1.00  0.00     0.000 C 
BRANCH  12  13
ATOM     13  C   UNL     1      -7.016   4.754  32.185  1.00  0.00     0.006 C 
BRANCH  13  14
ATOM     14  C   UNL     1      -6.254   4.481  30.882  1.00  0.00     0.053 C 
BRANCH  14  15
ATOM     15  C   UNL     1      -6.804   5.318  29.768  1.00  0.00     0.041 C 
ATOM     16  O   UNL     1      -6.525   6.545  29.701  1.00  0.00    -0.550 OA
ATOM     17  O   UNL     1      -7.597   4.735  28.789  1.00  0.00    -0.550 OA
ENDBRANCH  14  15
ENDBRANCH  13  14
ENDBRANCH  12  13
ENDBRANCH  11  12
ENDBRANCH  10  11
ENDBRANCH   9  10
ENDBRANCH   8   9
ENDBRANCH   7   8
ENDBRANCH   6   7
ENDBRANCH   5   6
ENDBRANCH   4   5
ENDBRANCH   3   4
ENDBRANCH   2   3
ENDBRANCH   1   2
BRANCH   1  18
ATOM     18  C   UNL     1     -11.846   9.124  29.023  1.00  0.00     0.000 C 
BRANCH  18  19
ATOM     19  C   UNL     1     -13.323   9.034  28.608  1.00  0.00     0.000 C 
BRANCH  19  20
ATOM     20  C   UNL     1     -13.680   7.671  27.987  1.00  0.00     0.000 C 
BRANCH  20  21
ATOM     21  C   UNL     1     -14.557   6.812  28.912  1.00  0.00     0.000 C 
BRANCH  21  22
ATOM     22  C   UNL     1     -15.532   7.655  29.755  1.00  0.00     0.000 C 
BRANCH  22  23
ATOM     23  C   UNL     1     -16.378   6.812  30.729  1.00  0.00     0.000 C 
BRANCH  23  24
ATOM     24  C   UNL     1     -15.807   5.417  31.065  1.00  0.00    -0.000 C 
BRANCH  24  25
ATOM     25  C   UNL     1     -16.865   4.333  31.365  1.00  0.00    -0.000 C 
BRANCH  25  26
ATOM     26  C   UNL     1     -16.911   3.188  30.335  1.00  0.00    -0.000 C 
BRANCH  26  27
ATOM     27  C   UNL     1     -16.800   3.657  28.871  1.00  0.00    -0.000 C 
BRANCH  27  28
ATOM     28  C   UNL     1     -15.799   2.812  28.066  1.00  0.00    -0.000 C 
BRANCH  28  29
ATOM     29  C   UNL     1     -14.815   3.667  27.247  1.00  0.00    -0.000 C 
BRANCH  29  30
ATOM     30  C   UNL     1     -13.341   3.238  27.357  1.00  0.00    -0.000 C 
BRANCH  30  31
ATOM     31  C   UNL     1     -12.389   4.169  26.591  1.00  0.00    -0.003 C 
ATOM     32  C   UNL     1     -13.144   4.986  25.545  1.00  0.00     0.004 C 
ENDBRANCH  30  31
ENDBRANCH  29  30
ENDBRANCH  28  29
ENDBRANCH  27  28
ENDBRANCH  26  27
ENDBRANCH  25  26
ENDBRANCH  24  25
ENDBRANCH  23  24
ENDBRANCH  22  23
ENDBRANCH  21  22
ENDBRANCH  20  21
ENDBRANCH  19  20
ENDBRANCH  18  19
ENDBRANCH   1  18
TORSDOF 28
ENDMDL
MODEL 4
REMARK VINA RESULT:    -3.924      3.047      6.019
REMARK INTER + INTRA:         -14.997
REMARK INTER:                 -10.926
REMARK INTRA:                  -4.071
REMARK UNBOUND:                -4.651
REMARK SMILES CCCCCCCCCCCCCCCCCCCCCCCCCCCCCC(=O)[O-]
REMARK SMILES IDX 16 1 17 2 18 3 19 4 20 5 21 6 22 7 23 8 24 9 25 10 26 11
REMARK SMILES IDX 27 12 28 13 29 14 30 15 31 16 32 17 15 18 14 19 13 20 12 21
REMARK SMILES IDX 11 22 10 23 9 24 8 25 7 26 6 27 5 28 4 29 3 30 2 31 1 32
REMARK H PARENT
REMARK Flexibility Score: inf
ROOT
ATOM      1  C   UNL     1     -12.880   7.900  27.660  1.00  0.00     0.000 C 
ENDROOT
BRANCH   1   2
ATOM      2  C   UNL     1     -11.690   8.689  28.227  1.00  0.00     0.000 C 
BRANCH   2   3
ATOM      3  C   UNL     1     -10.933   7.930  29.333  1.00  0.00     0.000 C 
BRANCH   3   4
ATOM      4  C   UNL     1      -9.526   8.467  29.654  1.00  0.00     0.000 C 
BRANCH   4   5
ATOM      5  C   UNL     1      -8.406   7.651  28.984  1.00  0.00     0.000 C 
BRANCH   5   6
ATOM      6  C   UNL     1      -7.036   8.352  29.044  1.00  0.00     0.000 C 
BRANCH   6   7
ATOM      7  C   UNL     1      -5.984   7.666  29.934  1.00  0.00     0.000 C 
BRANCH   7   8
ATOM      8  C   UNL     1      -6.375   6.233  30.327  1.00  0.00     0.000 C 
BRANCH   8   9
ATOM      9  C   UNL     1      -5.135   5.333  30.430  1.00  0.00     0.000 C 
BRANCH   9  10
ATOM     10  C   UNL     1      -4.447   5.423  31.803  1.00  0.00     0.000 C 
BRANCH  10  11
ATOM     11  C   UNL     1      -5.434   5.448  32.989  1.00  0.00     0.000 C 
BRANCH  11  12
ATOM     12  C   UNL     1      -4.977   6.404  34.104  1.00  0.00     0.000 C 
BRANCH  12  13
ATOM     13  C   UNL     1      -3.787   7.281  33.678  1.00  0.00     0.006 C 
BRANCH  13  14
ATOM     14  C   UNL     1      -2.825   7.567  34.839  1.00  0.00     0.053 C 
BRANCH  14  15
ATOM     15  C   UNL     1      -1.623   6.679  34.753  1.00  0.00     0.041 C 
ATOM     16  O   UNL     1      -1.584   5.744  33.909  1.00  0.00    -0.550 OA
ATOM     17  O   UNL     1      -0.533   6.905  35.583  1.00  0.00    -0.550 OA
ENDBRANCH  14  15
ENDBRANCH  13  14
ENDBRANCH  12  13
ENDBRANCH  11  12
ENDBRANCH  10  11
ENDBRANCH   9  10
ENDBRANCH   8   9
ENDBRANCH   7   8
ENDBRANCH   6   7
ENDBRANCH   5   6
ENDBRANCH   4   5
ENDBRANCH   3   4
ENDBRANCH   2   3
ENDBRANCH   1   2
BRANCH   1  18
ATOM     18  C   UNL     1     -14.158   8.754  27.673  1.00  0.00     0.000 C 
BRANCH  18  19
ATOM     19  C   UNL     1     -14.965   8.596  28.971  1.00  0.00     0.000 C 
BRANCH  19  20
ATOM     20  C   UNL     1     -14.791   7.206  29.609  1.00  0.00     0.000 C 
BRANCH  20  21
ATOM     21  C   UNL     1     -16.018   6.776  30.431  1.00  0.00     0.000 C 
BRANCH  21  22
ATOM     22  C   UNL     1     -16.320   5.272  30.303  1.00  0.00     0.000 C 
BRANCH  22  23
ATOM     23  C   UNL     1     -15.074   4.428  29.971  1.00  0.00     0.000 C 
BRANCH  23  24
ATOM     24  C   UNL     1     -14.598   3.480  31.093  1.00  0.00    -0.000 C 
BRANCH  24  25
ATOM     25  C   UNL     1     -13.121   3.650  31.509  1.00  0.00    -0.000 C 
BRANCH  25  26
ATOM     26  C   UNL     1     -12.370   4.758  30.747  1.00  0.00    -0.000 C 
BRANCH  26  27
ATOM     27  C   UNL     1     -11.512   4.243  29.575  1.00  0.00    -0.000 C 
BRANCH  27  28
ATOM     28  C   UNL     1     -10.005   4.339  29.873  1.00  0.00    -0.000 C 
BRANCH  28  29
ATOM     29  C   UNL     1      -9.705   4.932  31.261  1.00  0.00    -0.000 C 
BRANCH  29  30
ATOM     30  C   UNL     1      -8.930   3.999  32.208  1.00  0.00    -0.000 C 
BRANCH  30  31
ATOM     31  C   UNL     1      -7.978   3.051  31.464  1.00  0.00    -0.003 C 
ATOM     32  C   UNL     1      -8.172   1.607  31.920  1.00  0.00     0.004 C 
ENDBRANCH  30  31
ENDBRANCH  29  30
ENDBRANCH  28  29
ENDBRANCH  27  28
ENDBRANCH  26  27
ENDBRANCH  25  26
ENDBRANCH  24  25
ENDBRANCH  23  24
ENDBRANCH  22  23
ENDBRANCH  21  22
ENDBRANCH  20  21
ENDBRANCH  19  20
ENDBRANCH  18  19
ENDBRANCH   1  18
TORSDOF 28
ENDMDL
MODEL 5
REMARK VINA RESULT:    -3.907      2.148      6.217
REMARK INTER + INTRA:         -14.954
REMARK INTER:                  -9.474
REMARK INTRA:                  -5.479
REMARK UNBOUND:                -4.651
REMARK SMILES CCCCCCCCCCCCCCCCCCCCCCCCCCCCCC(=O)[O-]
REMARK SMILES IDX 16 1 17 2 18 3 19 4 20 5 21 6 22 7 23 8 24 9 25 10 26 11
REMARK SMILES IDX 27 12 28 13 29 14 30 15 31 16 32 17 15 18 14 19 13 20 12 21
REMARK SMILES IDX 11 22 10 23 9 24 8 25 7 26 6 27 5 28 4 29 3 30 2 31 1 32
REMARK H PARENT
REMARK Flexibility Score: inf
ROOT
ATOM      1  C   UNL     1     -12.956   8.479  27.585  1.00  0.00     0.000 C 
ENDROOT
BRANCH   1   2
ATOM      2  C   UNL     1     -13.634   7.512  28.568  1.00  0.00     0.000 C 
BRANCH   2   3
ATOM      3  C   UNL     1     -14.877   8.115  29.249  1.00  0.00     0.000 C 
BRANCH   3   4
ATOM      4  C   UNL     1     -15.683   7.140  30.126  1.00  0.00     0.000 C 
BRANCH   4   5
ATOM      5  C   UNL     1     -15.467   5.666  29.738  1.00  0.00     0.000 C 
BRANCH   5   6
ATOM      6  C   UNL     1     -16.545   4.730  30.316  1.00  0.00     0.000 C 
BRANCH   6   7
ATOM      7  C   UNL     1     -16.569   4.623  31.852  1.00  0.00     0.000 C 
BRANCH   7   8
ATOM      8  C   UNL     1     -15.334   3.908  32.422  1.00  0.00     0.000 C 
BRANCH   8   9
ATOM      9  C   UNL     1     -15.693   2.499  32.916  1.00  0.00     0.000 C 
BRANCH   9  10
ATOM     10  C   UNL     1     -15.243   1.395  31.945  1.00  0.00     0.000 C 
BRANCH  10  11
ATOM     11  C   UNL     1     -14.256   1.886  30.864  1.00  0.00     0.000 C 
BRANCH  11  12
ATOM     12  C   UNL     1     -12.792   1.615  31.249  1.00  0.00     0.000 C 
BRANCH  12  13
ATOM     13  C   UNL     1     -12.127   0.566  30.343  1.00  0.00     0.006 C 
BRANCH  13  14
ATOM     14  C   UNL     1     -10.754   0.125  30.866  1.00  0.00     0.053 C 
BRANCH  14  15
ATOM     15  C   UNL     1     -10.385  -1.213  30.306  1.00  0.00     0.041 C 
ATOM     16  O   UNL     1     -11.272  -2.090  30.121  1.00  0.00    -0.550 OA
ATOM     17  O   UNL     1      -9.068  -1.481  29.959  1.00  0.00    -0.550 OA
ENDBRANCH  14  15
ENDBRANCH  13  14
ENDBRANCH  12  13
ENDBRANCH  11  12
ENDBRANCH  10  11
ENDBRANCH   9  10
ENDBRANCH   8   9
ENDBRANCH   7   8
ENDBRANCH   6   7
ENDBRANCH   5   6
ENDBRANCH   4   5
ENDBRANCH   3   4
ENDBRANCH   2   3
ENDBRANCH   1   2
BRANCH   1  18
ATOM     18  C   UNL     1     -11.454   8.604  27.888  1.00  0.00     0.000 C 
BRANCH  18  19
ATOM     19  C   UNL     1     -11.175   9.099  29.316  1.00  0.00     0.000 C 
BRANCH  19  20
ATOM     20  C   UNL     1      -9.991   8.368  29.974  1.00  0.00     0.000 C 
BRANCH  20  21
ATOM     21  C   UNL     1      -9.210   7.494  28.978  1.00  0.00     0.000 C 
BRANCH  21  22
ATOM     22  C   UNL     1      -7.814   7.107  29.498  1.00  0.00     0.000 C 
BRANCH  22  23
ATOM     23  C   UNL     1      -7.667   5.598  29.777  1.00  0.00     0.000 C 
BRANCH  23  24
ATOM     24  C   UNL     1      -7.894   5.170  31.242  1.00  0.00    -0.000 C 
BRANCH  24  25
ATOM     25  C   UNL     1      -8.504   3.763  31.426  1.00  0.00    -0.000 C 
BRANCH  25  26
ATOM     26  C   UNL     1     -10.032   3.755  31.625  1.00  0.00    -0.000 C 
BRANCH  26  27
ATOM     27  C   UNL     1     -10.690   5.141  31.485  1.00  0.00    -0.000 C 
BRANCH  27  28
ATOM     28  C   UNL     1     -11.858   5.131  30.485  1.00  0.00    -0.000 C 
BRANCH  28  29
ATOM     29  C   UNL     1     -11.621   4.182  29.295  1.00  0.00    -0.000 C 
BRANCH  29  30
ATOM     30  C   UNL     1     -11.169   4.875  27.998  1.00  0.00    -0.000 C 
BRANCH  30  31
ATOM     31  C   UNL     1     -10.148   4.047  27.203  1.00  0.00    -0.003 C 
ATOM     32  C   UNL     1      -9.622   2.879  28.034  1.00  0.00     0.004 C 
ENDBRANCH  30  31
ENDBRANCH  29  30
ENDBRANCH  28  29
ENDBRANCH  27  28
ENDBRANCH  26  27
ENDBRANCH  25  26
ENDBRANCH  24  25
ENDBRANCH  23  24
ENDBRANCH  22  23
ENDBRANCH  21  22
ENDBRANCH  20  21
ENDBRANCH  19  20
ENDBRANCH  18  19
ENDBRANCH   1  18
TORSDOF 28
ENDMDL
MODEL 6
REMARK VINA RESULT:    -3.897      2.302      5.455
REMARK INTER + INTRA:         -14.926
REMARK INTER:                 -10.190
REMARK INTRA:                  -4.736
REMARK UNBOUND:                -4.651
REMARK SMILES CCCCCCCCCCCCCCCCCCCCCCCCCCCCCC(=O)[O-]
REMARK SMILES IDX 16 1 17 2 18 3 19 4 20 5 21 6 22 7 23 8 24 9 25 10 26 11
REMARK SMILES IDX 27 12 28 13 29 14 30 15 31 16 32 17 15 18 14 19 13 20 12 21
REMARK SMILES IDX 11 22 10 23 9 24 8 25 7 26 6 27 5 28 4 29 3 30 2 31 1 32
REMARK H PARENT
REMARK Flexibility Score: inf
ROOT
ATOM      1  C   UNL     1     -10.473   5.721  29.180  1.00  0.00     0.000 C 
ENDROOT
BRANCH   1   2
ATOM      2  C   UNL     1     -11.756   4.892  29.344  1.00  0.00     0.000 C 
BRANCH   2   3
ATOM      3  C   UNL     1     -12.270   4.854  30.795  1.00  0.00     0.000 C 
BRANCH   3   4
ATOM      4  C   UNL     1     -12.567   3.450  31.351  1.00  0.00     0.000 C 
BRANCH   4   5
ATOM      5  C   UNL     1     -12.307   2.332  30.326  1.00  0.00     0.000 C 
BRANCH   5   6
ATOM      6  C   UNL     1     -11.452   1.183  30.894  1.00  0.00     0.000 C 
BRANCH   6   7
ATOM      7  C   UNL     1      -9.931   1.350  30.728  1.00  0.00     0.000 C 
BRANCH   7   8
ATOM      8  C   UNL     1      -9.274   2.078  31.911  1.00  0.00     0.000 C 
BRANCH   8   9
ATOM      9  C   UNL     1      -8.562   3.355  31.445  1.00  0.00     0.000 C 
BRANCH   9  10
ATOM     10  C   UNL     1      -7.804   4.062  32.582  1.00  0.00     0.000 C 
BRANCH  10  11
ATOM     11  C   UNL     1      -6.834   5.158  32.091  1.00  0.00     0.000 C 
BRANCH  11  12
ATOM     12  C   UNL     1      -6.903   5.353  30.567  1.00  0.00     0.000 C 
BRANCH  12  13
ATOM     13  C   UNL     1      -5.982   6.483  30.075  1.00  0.00     0.006 C 
BRANCH  13  14
ATOM     14  C   UNL     1      -6.738   7.545  29.267  1.00  0.00     0.053 C 
BRANCH  14  15
ATOM     15  C   UNL     1      -5.849   8.136  28.218  1.00  0.00     0.041 C 
ATOM     16  O   UNL     1      -4.689   8.528  28.517  1.00  0.00    -0.550 OA
ATOM     17  O   UNL     1      -6.290   8.225  26.904  1.00  0.00    -0.550 OA
ENDBRANCH  14  15
ENDBRANCH  13  14
ENDBRANCH  12  13
ENDBRANCH  11  12
ENDBRANCH  10  11
ENDBRANCH   9  10
ENDBRANCH   8   9
ENDBRANCH   7   8
ENDBRANCH   6   7
ENDBRANCH   5   6
ENDBRANCH   4   5
ENDBRANCH   3   4
ENDBRANCH   2   3
ENDBRANCH   1   2
BRANCH   1  18
ATOM     18  C   UNL     1     -10.386   6.814  30.258  1.00  0.00     0.000 C 
BRANCH  18  19
ATOM     19  C   UNL     1     -10.153   8.213  29.668  1.00  0.00     0.000 C 
BRANCH  19  20
ATOM     20  C   UNL     1     -11.061   8.504  28.460  1.00  0.00     0.000 C 
BRANCH  20  21
ATOM     21  C   UNL     1     -12.408   9.123  28.869  1.00  0.00     0.000 C 
BRANCH  21  22
ATOM     22  C   UNL     1     -13.580   8.610  28.014  1.00  0.00     0.000 C 
BRANCH  22  23
ATOM     23  C   UNL     1     -14.126   7.248  28.485  1.00  0.00     0.000 C 
BRANCH  23  24
ATOM     24  C   UNL     1     -15.012   7.290  29.748  1.00  0.00    -0.000 C 
BRANCH  24  25
ATOM     25  C   UNL     1     -15.996   6.109  29.897  1.00  0.00    -0.000 C 
BRANCH  25  26
ATOM     26  C   UNL     1     -15.992   5.451  31.290  1.00  0.00    -0.000 C 
BRANCH  26  27
ATOM     27  C   UNL     1     -16.704   4.086  31.342  1.00  0.00    -0.000 C 
BRANCH  27  28
ATOM     28  C   UNL     1     -16.006   3.034  30.463  1.00  0.00    -0.000 C 
BRANCH  28  29
ATOM     29  C   UNL     1     -16.231   1.594  30.958  1.00  0.00    -0.000 C 
BRANCH  29  30
ATOM     30  C   UNL     1     -15.416   1.205  32.205  1.00  0.00    -0.000 C 
BRANCH  30  31
ATOM     31  C   UNL     1     -16.292   0.987  33.446  1.00  0.00    -0.003 C 
ATOM     32  C   UNL     1     -16.001   2.035  34.518  1.00  0.00     0.004 C 
ENDBRANCH  30  31
ENDBRANCH  29  30
ENDBRANCH  28  29
ENDBRANCH  27  28
ENDBRANCH  26  27
ENDBRANCH  25  26
ENDBRANCH  24  25
ENDBRANCH  23  24
ENDBRANCH  22  23
ENDBRANCH  21  22
ENDBRANCH  20  21
ENDBRANCH  19  20
ENDBRANCH  18  19
ENDBRANCH   1  18
TORSDOF 28
ENDMDL
MODEL 7
REMARK VINA RESULT:    -3.870      1.603      3.644
REMARK INTER + INTRA:         -14.856
REMARK INTER:                  -9.222
REMARK INTRA:                  -5.633
REMARK UNBOUND:                -4.651
REMARK SMILES CCCCCCCCCCCCCCCCCCCCCCCCCCCCCC(=O)[O-]
REMARK SMILES IDX 16 1 17 2 18 3 19 4 20 5 21 6 22 7 23 8 24 9 25 10 26 11
REMARK SMILES IDX 27 12 28 13 29 14 30 15 31 16 32 17 15 18 14 19 13 20 12 21
REMARK SMILES IDX 11 22 10 23 9 24 8 25 7 26 6 27 5 28 4 29 3 30 2 31 1 32
REMARK H PARENT
REMARK Flexibility Score: inf
ROOT
ATOM      1  C   UNL     1     -14.591   6.971  28.966  1.00  0.00     0.000 C 
ENDROOT
BRANCH   1   2
ATOM      2  C   UNL     1     -14.460   8.501  28.988  1.00  0.00     0.000 C 
BRANCH   2   3
ATOM      3  C   UNL     1     -13.524   9.044  27.891  1.00  0.00     0.000 C 
BRANCH   3   4
ATOM      4  C   UNL     1     -12.048   8.629  28.023  1.00  0.00     0.000 C 
BRANCH   4   5
ATOM      5  C   UNL     1     -11.414   9.080  29.350  1.00  0.00     0.000 C 
BRANCH   5   6
ATOM      6  C   UNL     1      -9.874   9.031  29.327  1.00  0.00     0.000 C 
BRANCH   6   7
ATOM      7  C   UNL     1      -9.265   7.879  28.507  1.00  0.00     0.000 C 
BRANCH   7   8
ATOM      8  C   UNL     1      -7.936   7.370  29.085  1.00  0.00     0.000 C 
BRANCH   8   9
ATOM      9  C   UNL     1      -8.173   6.255  30.113  1.00  0.00     0.000 C 
BRANCH   9  10
ATOM     10  C   UNL     1      -7.108   5.147  30.047  1.00  0.00     0.000 C 
BRANCH  10  11
ATOM     11  C   UNL     1      -7.129   4.346  28.728  1.00  0.00     0.000 C 
BRANCH  11  12
ATOM     12  C   UNL     1      -8.314   3.367  28.663  1.00  0.00     0.000 C 
BRANCH  12  13
ATOM     13  C   UNL     1      -7.996   2.012  29.318  1.00  0.00     0.006 C 
BRANCH  13  14
ATOM     14  C   UNL     1      -9.011   1.635  30.405  1.00  0.00     0.053 C 
BRANCH  14  15
ATOM     15  C   UNL     1      -8.362   1.642  31.753  1.00  0.00     0.041 C 
ATOM     16  O   UNL     1      -8.169   2.731  32.358  1.00  0.00    -0.550 OA
ATOM     17  O   UNL     1      -8.000   0.445  32.356  1.00  0.00    -0.550 OA
ENDBRANCH  14  15
ENDBRANCH  13  14
ENDBRANCH  12  13
ENDBRANCH  11  12
ENDBRANCH  10  11
ENDBRANCH   9  10
ENDBRANCH   8   9
ENDBRANCH   7   8
ENDBRANCH   6   7
ENDBRANCH   5   6
ENDBRANCH   4   5
ENDBRANCH   3   4
ENDBRANCH   2   3
ENDBRANCH   1   2
BRANCH   1  18
ATOM     18  C   UNL     1     -15.640   6.497  29.984  1.00  0.00     0.000 C 
BRANCH  18  19
ATOM     19  C   UNL     1     -16.169   5.086  29.680  1.00  0.00     0.000 C 
BRANCH  19  20
ATOM     20  C   UNL     1     -16.560   4.314  30.953  1.00  0.00     0.000 C 
BRANCH  20  21
ATOM     21  C   UNL     1     -15.563   4.532  32.104  1.00  0.00     0.000 C 
BRANCH  21  22
ATOM     22  C   UNL     1     -14.466   3.453  32.151  1.00  0.00     0.000 C 
BRANCH  22  23
ATOM     23  C   UNL     1     -15.018   2.037  32.406  1.00  0.00     0.000 C 
BRANCH  23  24
ATOM     24  C   UNL     1     -14.790   1.022  31.265  1.00  0.00    -0.000 C 
BRANCH  24  25
ATOM     25  C   UNL     1     -13.315   0.826  30.850  1.00  0.00    -0.000 C 
BRANCH  25  26
ATOM     26  C   UNL     1     -13.028   1.130  29.368  1.00  0.00    -0.000 C 
BRANCH  26  27
ATOM     27  C   UNL     1     -14.008   2.134  28.731  1.00  0.00    -0.000 C 
BRANCH  27  28
ATOM     28  C   UNL     1     -13.283   3.343  28.116  1.00  0.00    -0.000 C 
BRANCH  28  29
ATOM     29  C   UNL     1     -11.907   3.606  28.754  1.00  0.00    -0.000 C 
BRANCH  29  30
ATOM     30  C   UNL     1     -11.589   5.089  29.016  1.00  0.00    -0.000 C 
BRANCH  30  31
ATOM     31  C   UNL     1     -11.727   5.477  30.495  1.00  0.00    -0.003 C 
ATOM     32  C   UNL     1     -11.050   4.449  31.399  1.00  0.00     0.004 C 
ENDBRANCH  30  31
ENDBRANCH  29  30
ENDBRANCH  28  29
ENDBRANCH  27  28
ENDBRANCH  26  27
ENDBRANCH  25  26
ENDBRANCH  24  25
ENDBRANCH  23  24
ENDBRANCH  22  23
ENDBRANCH  21  22
ENDBRANCH  20  21
ENDBRANCH  19  20
ENDBRANCH  18  19
ENDBRANCH   1  18
TORSDOF 28
ENDMDL
MODEL 8
REMARK VINA RESULT:    -3.829      2.219      6.871
REMARK INTER + INTRA:         -14.748
REMARK INTER:                  -9.845
REMARK INTRA:                  -4.903
REMARK UNBOUND:                -4.651
REMARK SMILES CCCCCCCCCCCCCCCCCCCCCCCCCCCCCC(=O)[O-]
REMARK SMILES IDX 16 1 17 2 18 3 19 4 20 5 21 6 22 7 23 8 24 9 25 10 26 11
REMARK SMILES IDX 27 12 28 13 29 14 30 15 31 16 32 17 15 18 14 19 13 20 12 21
REMARK SMILES IDX 11 22 10 23 9 24 8 25 7 26 6 27 5 28 4 29 3 30 2 31 1 32
REMARK H PARENT
REMARK Flexibility Score: inf
ROOT
ATOM      1  C   UNL     1     -16.468   4.785  29.999  1.00  0.00     0.000 C 
ENDROOT
BRANCH   1   2
ATOM      2  C   UNL     1     -16.881   3.569  30.843  1.00  0.00     0.000 C 
BRANCH   2   3
ATOM      3  C   UNL     1     -16.676   3.784  32.354  1.00  0.00     0.000 C 
BRANCH   3   4
ATOM      4  C   UNL     1     -15.570   2.926  32.996  1.00  0.00     0.000 C 
BRANCH   4   5
ATOM      5  C   UNL     1     -14.798   2.079  31.969  1.00  0.00     0.000 C 
BRANCH   5   6
ATOM      6  C   UNL     1     -13.475   2.732  31.526  1.00  0.00     0.000 C 
BRANCH   6   7
ATOM      7  C   UNL     1     -13.296   2.889  30.005  1.00  0.00     0.000 C 
BRANCH   7   8
ATOM      8  C   UNL     1     -12.478   4.131  29.622  1.00  0.00     0.000 C 
BRANCH   8   9
ATOM      9  C   UNL     1     -12.257   5.041  30.838  1.00  0.00     0.000 C 
BRANCH   9  10
ATOM     10  C   UNL     1     -10.768   5.301  31.124  1.00  0.00     0.000 C 
BRANCH  10  11
ATOM     11  C   UNL     1      -9.848   4.123  30.739  1.00  0.00     0.000 C 
BRANCH  11  12
ATOM     12  C   UNL     1      -9.243   3.431  31.973  1.00  0.00     0.000 C 
BRANCH  12  13
ATOM     13  C   UNL     1      -8.763   2.001  31.672  1.00  0.00     0.006 C 
BRANCH  13  14
ATOM     14  C   UNL     1      -9.211   1.512  30.289  1.00  0.00     0.053 C 
BRANCH  14  15
ATOM     15  C   UNL     1     -10.129   0.337  30.420  1.00  0.00     0.041 C 
ATOM     16  O   UNL     1     -11.029   0.332  31.303  1.00  0.00    -0.550 OA
ATOM     17  O   UNL     1     -10.010  -0.737  29.549  1.00  0.00    -0.550 OA
ENDBRANCH  14  15
ENDBRANCH  13  14
ENDBRANCH  12  13
ENDBRANCH  11  12
ENDBRANCH  10  11
ENDBRANCH   9  10
ENDBRANCH   8   9
ENDBRANCH   7   8
ENDBRANCH   6   7
ENDBRANCH   5   6
ENDBRANCH   4   5
ENDBRANCH   3   4
ENDBRANCH   2   3
ENDBRANCH   1   2
BRANCH   1  18
ATOM     18  C   UNL     1     -15.984   5.935  30.897  1.00  0.00     0.000 C 
BRANCH  18  19
ATOM     19  C   UNL     1     -15.880   7.271  30.147  1.00  0.00     0.000 C 
BRANCH  19  20
ATOM     20  C   UNL     1     -14.718   7.293  29.138  1.00  0.00     0.000 C 
BRANCH  20  21
ATOM     21  C   UNL     1     -14.257   8.721  28.799  1.00  0.00     0.000 C 
BRANCH  21  22
ATOM     22  C   UNL     1     -13.003   8.743  27.907  1.00  0.00     0.000 C 
BRANCH  22  23
ATOM     23  C   UNL     1     -11.687   8.705  28.707  1.00  0.00     0.000 C 
BRANCH  23  24
ATOM     24  C   UNL     1     -10.783   7.484  28.437  1.00  0.00    -0.000 C 
BRANCH  24  25
ATOM     25  C   UNL     1      -9.374   7.819  27.899  1.00  0.00    -0.000 C 
BRANCH  25  26
ATOM     26  C   UNL     1      -8.421   6.612  27.820  1.00  0.00    -0.000 C 
BRANCH  26  27
ATOM     27  C   UNL     1      -6.959   6.942  28.175  1.00  0.00    -0.000 C 
BRANCH  27  28
ATOM     28  C   UNL     1      -6.790   7.306  29.660  1.00  0.00    -0.000 C 
BRANCH  28  29
ATOM     29  C   UNL     1      -7.011   6.107  30.600  1.00  0.00    -0.000 C 
BRANCH  29  30
ATOM     30  C   UNL     1      -5.721   5.426  31.091  1.00  0.00    -0.000 C 
BRANCH  30  31
ATOM     31  C   UNL     1      -5.101   4.495  30.038  1.00  0.00    -0.003 C 
ATOM     32  C   UNL     1      -6.132   3.504  29.503  1.00  0.00     0.004 C 
ENDBRANCH  30  31
ENDBRANCH  29  30
ENDBRANCH  28  29
ENDBRANCH  27  28
ENDBRANCH  26  27
ENDBRANCH  25  26
ENDBRANCH  24  25
ENDBRANCH  23  24
ENDBRANCH  22  23
ENDBRANCH  21  22
ENDBRANCH  20  21
ENDBRANCH  19  20
ENDBRANCH  18  19
ENDBRANCH   1  18
TORSDOF 28
ENDMDL
MODEL 9
REMARK VINA RESULT:    -2.194      2.635      7.370
REMARK INTER + INTRA:         -10.436
REMARK INTER:                  -6.737
REMARK INTRA:                  -3.699
REMARK UNBOUND:                -4.651
REMARK SMILES CCCCCCCCCCCCCCCCCCCCCCCCCCCCCC(=O)[O-]
REMARK SMILES IDX 16 1 17 2 18 3 19 4 20 5 21 6 22 7 23 8 24 9 25 10 26 11
REMARK SMILES IDX 27 12 28 13 29 14 30 15 31 16 32 17 15 18 14 19 13 20 12 21
REMARK SMILES IDX 11 22 10 23 9 24 8 25 7 26 6 27 5 28 4 29 3 30 2 31 1 32
REMARK H PARENT
REMARK Flexibility Score: inf
ROOT
ATOM      1  C   UNL     1     -11.873   6.343  27.793  1.00  0.00     0.000 C 
ENDROOT
BRANCH   1   2
ATOM      2  C   UNL     1     -12.184   7.716  28.408  1.00  0.00     0.000 C 
BRANCH   2   3
ATOM      3  C   UNL     1     -13.694   7.978  28.573  1.00  0.00     0.000 C 
BRANCH   3   4
ATOM      4  C   UNL     1     -14.476   6.873  29.306  1.00  0.00     0.000 C 
BRANCH   4   5
ATOM      5  C   UNL     1     -15.668   7.417  30.112  1.00  0.00     0.000 C 
BRANCH   5   6
ATOM      6  C   UNL     1     -16.372   6.332  30.949  1.00  0.00     0.000 C 
BRANCH   6   7
ATOM      7  C   UNL     1     -16.301   4.906  30.372  1.00  0.00     0.000 C 
BRANCH   7   8
ATOM      8  C   UNL     1     -15.892   3.856  31.416  1.00  0.00     0.000 C 
BRANCH   8   9
ATOM      9  C   UNL     1     -16.961   3.724  32.510  1.00  0.00     0.000 C 
BRANCH   9  10
ATOM     10  C   UNL     1     -16.380   3.251  33.855  1.00  0.00     0.000 C 
BRANCH  10  11
ATOM     11  C   UNL     1     -17.037   1.963  34.394  1.00  0.00     0.000 C 
BRANCH  11  12
ATOM     12  C   UNL     1     -16.347   0.694  33.865  1.00  0.00     0.000 C 
BRANCH  12  13
ATOM     13  C   UNL     1     -17.125   0.037  32.712  1.00  0.00     0.006 C 
BRANCH  13  14
ATOM     14  C   UNL     1     -16.499   0.326  31.343  1.00  0.00     0.053 C 
BRANCH  14  15
ATOM     15  C   UNL     1     -15.689  -0.845  30.879  1.00  0.00     0.041 C 
ATOM     16  O   UNL     1     -16.188  -2.002  30.882  1.00  0.00    -0.550 OA
ATOM     17  O   UNL     1     -14.395  -0.653  30.414  1.00  0.00    -0.550 OA
ENDBRANCH  14  15
ENDBRANCH  13  14
ENDBRANCH  12  13
ENDBRANCH  11  12
ENDBRANCH  10  11
ENDBRANCH   9  10
ENDBRANCH   8   9
ENDBRANCH   7   8
ENDBRANCH   6   7
ENDBRANCH   5   6
ENDBRANCH   4   5
ENDBRANCH   3   4
ENDBRANCH   2   3
ENDBRANCH   1   2
BRANCH   1  18
ATOM     18  C   UNL     1     -10.825   5.594  28.632  1.00  0.00     0.000 C 
BRANCH  18  19
ATOM     19  C   UNL     1     -10.475   6.325  29.937  1.00  0.00     0.000 C 
BRANCH  19  20
ATOM     20  C   UNL     1     -10.852   5.512  31.189  1.00  0.00     0.000 C 
BRANCH  20  21
ATOM     21  C   UNL     1     -12.040   4.567  30.942  1.00  0.00     0.000 C 
BRANCH  21  22
ATOM     22  C   UNL     1     -11.743   3.117  31.367  1.00  0.00     0.000 C 
BRANCH  22  23
ATOM     23  C   UNL     1     -12.271   2.071  30.366  1.00  0.00     0.000 C 
BRANCH  23  24
ATOM     24  C   UNL     1     -11.194   1.364  29.517  1.00  0.00    -0.000 C 
BRANCH  24  25
ATOM     25  C   UNL     1      -9.879   2.155  29.337  1.00  0.00    -0.000 C 
BRANCH  25  26
ATOM     26  C   UNL     1      -8.670   1.553  30.075  1.00  0.00    -0.000 C 
BRANCH  26  27
ATOM     27  C   UNL     1      -7.683   2.602  30.624  1.00  0.00    -0.000 C 
BRANCH  27  28
ATOM     28  C   UNL     1      -8.126   3.157  31.988  1.00  0.00    -0.000 C 
BRANCH  28  29
ATOM     29  C   UNL     1      -7.558   4.558  32.278  1.00  0.00    -0.000 C 
BRANCH  29  30
ATOM     30  C   UNL     1      -6.022   4.644  32.281  1.00  0.00    -0.000 C 
BRANCH  30  31
ATOM     31  C   UNL     1      -5.481   5.634  33.324  1.00  0.00    -0.003 C 
ATOM     32  C   UNL     1      -3.972   5.480  33.498  1.00  0.00     0.004 C 
ENDBRANCH  30  31
ENDBRANCH  29  30
ENDBRANCH  28  29
ENDBRANCH  27  28
ENDBRANCH  26  27
ENDBRANCH  25  26
ENDBRANCH  24  25
ENDBRANCH  23  24
ENDBRANCH  22  23
ENDBRANCH  21  22
ENDBRANCH  20  21
ENDBRANCH  19  20
ENDBRANCH  18  19
ENDBRANCH   1  18
TORSDOF 28
ENDMDL
