MODEL 1
REMARK VINA RESULT:    -6.489      0.000      0.000
REMARK INTER + INTRA:          -9.687
REMARK INTER:                  -8.955
REMARK INTRA:                  -0.732
REMARK UNBOUND:                -0.732
REMARK SMILES CC[C@@H](CC[C@H](C)[C@@H]1CC[C@@H]2[C@@H]3CC=C4C[C@@H](O)CC[C@@]4(C)[C@@H]3CC[C@]21C)C(C)C
REMARK SMILES IDX 5 1 4 2 3 3 2 4 1 5 28 6 29 7 30 8 6 9 7 10 8 11 9 12 26 13
REMARK SMILES IDX 10 14 11 15 25 16 27 17 12 18 24 19 23 20 13 21 21 22 14 23
REMARK SMILES IDX 15 24 20 25 22 26 16 27 19 28 17 29 18 30
REMARK H PARENT 18 31
REMARK Flexibility Score: inf
ROOT
ATOM      1  C   UNL     1      20.854  29.913  28.762  1.00  0.00     0.004 C 
ENDROOT
BRANCH   1   2
ATOM      2  C   UNL     1      19.639  30.863  28.809  1.00  0.00     0.004 C 
BRANCH   2   3
ATOM      3  C   UNL     1      19.714  31.888  29.985  1.00  0.00    -0.009 C 
BRANCH   3   4
ATOM      4  C   UNL     1      20.830  31.482  30.987  1.00  0.00     0.000 C 
ATOM      5  C   UNL     1      21.970  32.498  31.110  1.00  0.00     0.004 C 
ENDBRANCH   3   4
BRANCH   3   6
ATOM      6  C   UNL     1      18.323  32.132  30.665  1.00  0.00    -0.014 C 
ATOM      7  C   UNL     1      17.340  30.979  30.394  1.00  0.00     0.007 C 
ATOM      8  C   UNL     1      17.669  33.447  30.194  1.00  0.00     0.007 C 
ENDBRANCH   3   6
ENDBRANCH   2   3
ENDBRANCH   1   2
BRANCH   1   9
ATOM      9  C   UNL     1      21.900  30.308  27.666  1.00  0.00    -0.011 C 
ATOM     10  C   UNL     1      22.149  31.827  27.723  1.00  0.00     0.008 C 
BRANCH   9  11
ATOM     11  C   UNL     1      21.417  29.845  26.248  1.00  0.00    -0.002 C 
ATOM     12  C   UNL     1      20.790  28.421  26.274  1.00  0.00     0.005 C 
ATOM     13  C   UNL     1      22.427  29.772  25.054  1.00  0.00    -0.026 C 
ATOM     14  C   UNL     1      20.954  27.827  24.863  1.00  0.00     0.005 C 
ATOM     15  C   UNL     1      21.551  28.971  24.065  1.00  0.00    -0.001 C 
ATOM     16  C   UNL     1      22.764  31.122  24.366  1.00  0.00     0.007 C 
ATOM     17  C   UNL     1      23.734  29.043  25.501  1.00  0.00     0.012 C 
ATOM     18  C   UNL     1      22.101  28.723  22.641  1.00  0.00     0.000 C 
ATOM     19  C   UNL     1      23.382  30.926  22.954  1.00  0.00     0.005 C 
ATOM     20  C   UNL     1      22.481  30.084  21.994  1.00  0.00     0.003 C 
ATOM     21  C   UNL     1      23.255  27.722  22.523  1.00  0.00     0.031 C 
ATOM     22  C   UNL     1      23.001  29.914  20.490  1.00  0.00    -0.008 C 
ATOM     23  C   UNL     1      23.590  27.508  21.084  1.00  0.00    -0.027 C 
ATOM     24  C   UNL     1      23.519  28.496  20.166  1.00  0.00    -0.065 C 
ATOM     25  C   UNL     1      21.790  30.179  19.540  1.00  0.00     0.014 C 
ATOM     26  C   UNL     1      24.125  30.933  20.159  1.00  0.00     0.016 C 
ATOM     27  C   UNL     1      23.803  28.153  18.715  1.00  0.00     0.063 C 
ATOM     28  C   UNL     1      22.061  29.866  18.054  1.00  0.00     0.033 C 
ATOM     29  C   UNL     1      22.566  28.427  17.851  1.00  0.00     0.118 C 
BRANCH  29  30
ATOM     30  O   UNL     1      21.555  27.504  18.172  1.00  0.00    -0.393 OA
ATOM     31  H   UNL     1      21.176  27.790  19.045  1.00  0.00     0.210 HD
ENDBRANCH  29  30
ENDBRANCH   9  11
ENDBRANCH   1   9
TORSDOF 7
ENDMDL
MODEL 2
REMARK VINA RESULT:    -6.282      1.974      3.974
REMARK INTER + INTRA:          -9.401
REMARK INTER:                  -7.981
REMARK INTRA:                  -1.420
REMARK UNBOUND:                -0.732
REMARK SMILES CC[C@@H](CC[C@H](C)[C@@H]1CC[C@@H]2[C@@H]3CC=C4C[C@@H](O)CC[C@@]4(C)[C@@H]3CC[C@]21C)C(C)C
REMARK SMILES IDX 5 1 4 2 3 3 2 4 1 5 28 6 29 7 30 8 6 9 7 10 8 11 9 12 26 13
REMARK SMILES IDX 10 14 11 15 25 16 27 17 12 18 24 19 23 20 13 21 21 22 14 23
REMARK SMILES IDX 15 24 20 25 22 26 16 27 19 28 17 29 18 30
REMARK H PARENT 18 31
REMARK Flexibility Score: inf
ROOT
ATOM      1  C   UNL     1      23.706  30.307  26.729  1.00  0.00     0.004 C 
ENDROOT
BRANCH   1   2
ATOM      2  C   UNL     1      22.460  30.826  27.475  1.00  0.00     0.004 C 
BRANCH   2   3
ATOM      3  C   UNL     1      21.392  29.714  27.724  1.00  0.00    -0.009 C 
BRANCH   3   4
ATOM      4  C   UNL     1      20.038  30.109  27.072  1.00  0.00     0.000 C 
ATOM      5  C   UNL     1      19.561  29.154  25.973  1.00  0.00     0.004 C 
ENDBRANCH   3   4
BRANCH   3   6
ATOM      6  C   UNL     1      21.267  29.322  29.237  1.00  0.00    -0.014 C 
ATOM      7  C   UNL     1      21.485  30.531  30.163  1.00  0.00     0.007 C 
ATOM      8  C   UNL     1      22.268  28.219  29.635  1.00  0.00     0.007 C 
ENDBRANCH   3   6
ENDBRANCH   2   3
ENDBRANCH   1   2
BRANCH   1   9
ATOM      9  C   UNL     1      23.365  29.260  25.616  1.00  0.00    -0.011 C 
ATOM     10  C   UNL     1      24.117  27.948  25.903  1.00  0.00     0.008 C 
BRANCH   9  11
ATOM     11  C   UNL     1      23.703  29.833  24.196  1.00  0.00    -0.002 C 
ATOM     12  C   UNL     1      23.597  31.385  24.145  1.00  0.00     0.005 C 
ATOM     13  C   UNL     1      22.883  29.376  22.943  1.00  0.00    -0.026 C 
ATOM     14  C   UNL     1      23.303  31.773  22.684  1.00  0.00     0.005 C 
ATOM     15  C   UNL     1      23.374  30.449  21.946  1.00  0.00    -0.001 C 
ATOM     16  C   UNL     1      23.269  27.996  22.346  1.00  0.00     0.007 C 
ATOM     17  C   UNL     1      21.354  29.430  23.254  1.00  0.00     0.012 C 
ATOM     18  C   UNL     1      22.901  30.350  20.477  1.00  0.00     0.000 C 
ATOM     19  C   UNL     1      22.758  27.820  20.890  1.00  0.00     0.005 C 
ATOM     20  C   UNL     1      23.250  28.942  19.920  1.00  0.00     0.003 C 
ATOM     21  C   UNL     1      21.431  30.692  20.214  1.00  0.00     0.031 C 
ATOM     22  C   UNL     1      22.846  28.785  18.379  1.00  0.00    -0.008 C 
ATOM     23  C   UNL     1      21.163  30.662  18.745  1.00  0.00    -0.027 C 
ATOM     24  C   UNL     1      21.762  29.783  17.914  1.00  0.00    -0.065 C 
ATOM     25  C   UNL     1      24.121  29.074  17.525  1.00  0.00     0.014 C 
ATOM     26  C   UNL     1      22.353  27.347  18.066  1.00  0.00     0.016 C 
ATOM     27  C   UNL     1      21.483  29.890  16.427  1.00  0.00     0.063 C 
ATOM     28  C   UNL     1      23.868  29.160  16.006  1.00  0.00     0.033 C 
ATOM     29  C   UNL     1      22.777  30.187  15.661  1.00  0.00     0.118 C 
BRANCH  29  30
ATOM     30  O   UNL     1      23.215  31.489  15.965  1.00  0.00    -0.393 OA
ATOM     31  H   UNL     1      22.691  31.786  16.756  1.00  0.00     0.210 HD
ENDBRANCH  29  30
ENDBRANCH   9  11
ENDBRANCH   1   9
TORSDOF 7
ENDMDL
MODEL 3
REMARK VINA RESULT:    -6.090      2.721      9.021
REMARK INTER + INTRA:          -9.136
REMARK INTER:                  -9.137
REMARK INTRA:                   0.001
REMARK UNBOUND:                -0.732
REMARK SMILES CC[C@@H](CC[C@H](C)[C@@H]1CC[C@@H]2[C@@H]3CC=C4C[C@@H](O)CC[C@@]4(C)[C@@H]3CC[C@]21C)C(C)C
REMARK SMILES IDX 5 1 4 2 3 3 2 4 1 5 28 6 29 7 30 8 6 9 7 10 8 11 9 12 26 13
REMARK SMILES IDX 10 14 11 15 25 16 27 17 12 18 24 19 23 20 13 21 21 22 14 23
REMARK SMILES IDX 15 24 20 25 22 26 16 27 19 28 17 29 18 30
REMARK H PARENT 18 31
REMARK Flexibility Score: inf
ROOT
ATOM      1  C   UNL     1      23.217  28.733  20.855  1.00  0.00     0.004 C 
ENDROOT
BRANCH   1   2
ATOM      2  C   UNL     1      23.561  28.887  19.359  1.00  0.00     0.004 C 
BRANCH   2   3
ATOM      3  C   UNL     1      22.296  28.930  18.445  1.00  0.00    -0.009 C 
BRANCH   3   4
ATOM      4  C   UNL     1      22.639  28.404  17.023  1.00  0.00     0.000 C 
ATOM      5  C   UNL     1      23.768  27.370  16.985  1.00  0.00     0.004 C 
ENDBRANCH   3   4
BRANCH   3   6
ATOM      6  C   UNL     1      21.599  30.334  18.440  1.00  0.00    -0.014 C 
ATOM      7  C   UNL     1      20.385  30.376  19.385  1.00  0.00     0.007 C 
ATOM      8  C   UNL     1      21.131  30.745  17.030  1.00  0.00     0.007 C 
ENDBRANCH   3   6
ENDBRANCH   2   3
ENDBRANCH   1   2
BRANCH   1   9
ATOM      9  C   UNL     1      24.125  27.688  21.589  1.00  0.00    -0.011 C 
ATOM     10  C   UNL     1      23.920  26.300  20.954  1.00  0.00     0.008 C 
BRANCH   9  11
ATOM     11  C   UNL     1      23.825  27.681  23.128  1.00  0.00    -0.002 C 
ATOM     12  C   UNL     1      23.017  26.425  23.566  1.00  0.00     0.005 C 
ATOM     13  C   UNL     1      23.034  28.863  23.784  1.00  0.00    -0.026 C 
ATOM     14  C   UNL     1      22.247  26.803  24.845  1.00  0.00     0.005 C 
ATOM     15  C   UNL     1      22.737  28.207  25.150  1.00  0.00    -0.001 C 
ATOM     16  C   UNL     1      23.853  30.150  24.071  1.00  0.00     0.007 C 
ATOM     17  C   UNL     1      21.767  29.198  22.935  1.00  0.00     0.012 C 
ATOM     18  C   UNL     1      22.032  29.059  26.230  1.00  0.00     0.000 C 
ATOM     19  C   UNL     1      23.154  31.076  25.104  1.00  0.00     0.005 C 
ATOM     20  C   UNL     1      22.841  30.366  26.461  1.00  0.00     0.003 C 
ATOM     21  C   UNL     1      20.551  29.370  25.989  1.00  0.00     0.031 C 
ATOM     22  C   UNL     1      22.205  31.275  27.615  1.00  0.00    -0.008 C 
ATOM     23  C   UNL     1      19.992  30.096  27.169  1.00  0.00    -0.027 C 
ATOM     24  C   UNL     1      20.712  30.986  27.884  1.00  0.00    -0.065 C 
ATOM     25  C   UNL     1      22.971  30.960  28.939  1.00  0.00     0.014 C 
ATOM     26  C   UNL     1      22.361  32.787  27.297  1.00  0.00     0.016 C 
ATOM     27  C   UNL     1      20.075  31.607  29.113  1.00  0.00     0.063 C 
ATOM     28  C   UNL     1      22.360  31.604  30.200  1.00  0.00     0.033 C 
ATOM     29  C   UNL     1      20.874  31.244  30.370  1.00  0.00     0.118 C 
BRANCH  29  30
ATOM     30  O   UNL     1      20.732  29.870  30.636  1.00  0.00    -0.393 OA
ATOM     31  H   UNL     1      20.002  29.785  31.306  1.00  0.00     0.210 HD
ENDBRANCH  29  30
ENDBRANCH   9  11
ENDBRANCH   1   9
TORSDOF 7
ENDMDL
MODEL 4
REMARK VINA RESULT:    -5.961      2.121      3.959
REMARK INTER + INTRA:          -8.957
REMARK INTER:                  -7.819
REMARK INTRA:                  -1.138
REMARK UNBOUND:                -0.732
REMARK SMILES CC[C@@H](CC[C@H](C)[C@@H]1CC[C@@H]2[C@@H]3CC=C4C[C@@H](O)CC[C@@]4(C)[C@@H]3CC[C@]21C)C(C)C
REMARK SMILES IDX 5 1 4 2 3 3 2 4 1 5 28 6 29 7 30 8 6 9 7 10 8 11 9 12 26 13
REMARK SMILES IDX 10 14 11 15 25 16 27 17 12 18 24 19 23 20 13 21 21 22 14 23
REMARK SMILES IDX 15 24 20 25 22 26 16 27 19 28 17 29 18 30
REMARK H PARENT 18 31
REMARK Flexibility Score: inf
ROOT
ATOM      1  C   UNL     1      24.061  30.202  26.594  1.00  0.00     0.004 C 
ENDROOT
BRANCH   1   2
ATOM      2  C   UNL     1      23.843  29.649  28.017  1.00  0.00     0.004 C 
BRANCH   2   3
ATOM      3  C   UNL     1      22.360  29.760  28.494  1.00  0.00    -0.009 C 
BRANCH   3   4
ATOM      4  C   UNL     1      21.725  28.346  28.616  1.00  0.00     0.000 C 
ATOM      5  C   UNL     1      22.573  27.336  29.395  1.00  0.00     0.004 C 
ENDBRANCH   3   4
BRANCH   3   6
ATOM      6  C   UNL     1      21.516  30.751  27.621  1.00  0.00    -0.014 C 
ATOM      7  C   UNL     1      21.665  32.206  28.097  1.00  0.00     0.007 C 
ATOM      8  C   UNL     1      20.017  30.391  27.621  1.00  0.00     0.007 C 
ENDBRANCH   3   6
ENDBRANCH   2   3
ENDBRANCH   1   2
BRANCH   1   9
ATOM      9  C   UNL     1      23.478  29.270  25.477  1.00  0.00    -0.011 C 
ATOM     10  C   UNL     1      24.045  27.849  25.654  1.00  0.00     0.008 C 
BRANCH   9  11
ATOM     11  C   UNL     1      23.787  29.853  24.055  1.00  0.00    -0.002 C 
ATOM     12  C   UNL     1      23.654  31.403  24.010  1.00  0.00     0.005 C 
ATOM     13  C   UNL     1      22.958  29.385  22.812  1.00  0.00    -0.026 C 
ATOM     14  C   UNL     1      23.333  31.789  22.555  1.00  0.00     0.005 C 
ATOM     15  C   UNL     1      23.417  30.469  21.812  1.00  0.00    -0.001 C 
ATOM     16  C   UNL     1      23.359  28.014  22.205  1.00  0.00     0.007 C 
ATOM     17  C   UNL     1      21.432  29.412  23.144  1.00  0.00     0.012 C 
ATOM     18  C   UNL     1      22.924  30.366  20.349  1.00  0.00     0.000 C 
ATOM     19  C   UNL     1      22.831  27.833  20.756  1.00  0.00     0.005 C 
ATOM     20  C   UNL     1      23.290  28.966  19.783  1.00  0.00     0.003 C 
ATOM     21  C   UNL     1      21.445  30.684  20.108  1.00  0.00     0.031 C 
ATOM     22  C   UNL     1      22.867  28.807  18.247  1.00  0.00    -0.008 C 
ATOM     23  C   UNL     1      21.158  30.653  18.642  1.00  0.00    -0.027 C 
ATOM     24  C   UNL     1      21.760  29.787  17.801  1.00  0.00    -0.065 C 
ATOM     25  C   UNL     1      24.125  29.120  17.377  1.00  0.00     0.014 C 
ATOM     26  C   UNL     1      22.394  27.361  17.936  1.00  0.00     0.016 C 
ATOM     27  C   UNL     1      21.458  29.894  16.317  1.00  0.00     0.063 C 
ATOM     28  C   UNL     1      23.850  29.206  15.862  1.00  0.00     0.033 C 
ATOM     29  C   UNL     1      22.736  30.215  15.534  1.00  0.00     0.118 C 
BRANCH  29  30
ATOM     30  O   UNL     1      23.156  31.523  15.837  1.00  0.00    -0.393 OA
ATOM     31  H   UNL     1      22.890  32.092  15.066  1.00  0.00     0.210 HD
ENDBRANCH  29  30
ENDBRANCH   9  11
ENDBRANCH   1   9
TORSDOF 7
ENDMDL
MODEL 5
REMARK VINA RESULT:    -5.744      2.529      4.486
REMARK INTER + INTRA:          -8.659
REMARK INTER:                  -8.675
REMARK INTRA:                   0.016
REMARK UNBOUND:                -0.732
REMARK SMILES CC[C@@H](CC[C@H](C)[C@@H]1CC[C@@H]2[C@@H]3CC=C4C[C@@H](O)CC[C@@]4(C)[C@@H]3CC[C@]21C)C(C)C
REMARK SMILES IDX 5 1 4 2 3 3 2 4 1 5 28 6 29 7 30 8 6 9 7 10 8 11 9 12 26 13
REMARK SMILES IDX 10 14 11 15 25 16 27 17 12 18 24 19 23 20 13 21 21 22 14 23
REMARK SMILES IDX 15 24 20 25 22 26 16 27 19 28 17 29 18 30
REMARK H PARENT 18 31
REMARK Flexibility Score: inf
ROOT
ATOM      1  C   UNL     1      23.843  28.668  25.678  1.00  0.00     0.004 C 
ENDROOT
BRANCH   1   2
ATOM      2  C   UNL     1      22.624  28.296  26.547  1.00  0.00     0.004 C 
BRANCH   2   3
ATOM      3  C   UNL     1      22.972  27.284  27.683  1.00  0.00    -0.009 C 
BRANCH   3   4
ATOM      4  C   UNL     1      23.129  25.851  27.101  1.00  0.00     0.000 C 
ATOM      5  C   UNL     1      22.758  25.724  25.621  1.00  0.00     0.004 C 
ENDBRANCH   3   4
BRANCH   3   6
ATOM      6  C   UNL     1      21.975  27.362  28.891  1.00  0.00    -0.014 C 
ATOM      7  C   UNL     1      21.492  28.801  29.145  1.00  0.00     0.007 C 
ATOM      8  C   UNL     1      22.599  26.822  30.193  1.00  0.00     0.007 C 
ENDBRANCH   3   6
ENDBRANCH   2   3
ENDBRANCH   1   2
BRANCH   1   9
ATOM      9  C   UNL     1      24.078  30.213  25.578  1.00  0.00    -0.011 C 
ATOM     10  C   UNL     1      22.981  30.947  26.371  1.00  0.00     0.008 C 
BRANCH   9  11
ATOM     11  C   UNL     1      24.123  30.669  24.078  1.00  0.00    -0.002 C 
ATOM     12  C   UNL     1      23.605  32.123  23.887  1.00  0.00     0.005 C 
ATOM     13  C   UNL     1      23.344  29.862  22.984  1.00  0.00    -0.026 C 
ATOM     14  C   UNL     1      23.088  32.235  22.440  1.00  0.00     0.005 C 
ATOM     15  C   UNL     1      23.441  30.889  21.834  1.00  0.00    -0.001 C 
ATOM     16  C   UNL     1      24.027  28.561  22.485  1.00  0.00     0.007 C 
ATOM     17  C   UNL     1      21.890  29.567  23.469  1.00  0.00     0.012 C 
ATOM     18  C   UNL     1      22.881  30.488  20.450  1.00  0.00     0.000 C 
ATOM     19  C   UNL     1      23.453  28.078  21.125  1.00  0.00     0.005 C 
ATOM     20  C   UNL     1      23.540  29.156  19.997  1.00  0.00     0.003 C 
ATOM     21  C   UNL     1      21.355  30.410  20.332  1.00  0.00     0.031 C 
ATOM     22  C   UNL     1      23.055  28.707  18.539  1.00  0.00    -0.008 C 
ATOM     23  C   UNL     1      20.974  30.127  18.916  1.00  0.00    -0.027 C 
ATOM     24  C   UNL     1      21.708  29.330  18.111  1.00  0.00    -0.065 C 
ATOM     25  C   UNL     1      24.125  29.199  17.514  1.00  0.00     0.014 C 
ATOM     26  C   UNL     1      22.935  27.162  18.431  1.00  0.00     0.016 C 
ATOM     27  C   UNL     1      21.277  29.173  16.664  1.00  0.00     0.063 C 
ATOM     28  C   UNL     1      23.723  29.024  16.035  1.00  0.00     0.033 C 
ATOM     29  C   UNL     1      22.372  29.688  15.723  1.00  0.00     0.118 C 
BRANCH  29  30
ATOM     30  O   UNL     1      22.474  31.086  15.842  1.00  0.00    -0.393 OA
ATOM     31  H   UNL     1      22.129  31.320  16.745  1.00  0.00     0.210 HD
ENDBRANCH  29  30
ENDBRANCH   9  11
ENDBRANCH   1   9
TORSDOF 7
ENDMDL
MODEL 6
REMARK VINA RESULT:    -5.290      0.728      2.009
REMARK INTER + INTRA:          -8.032
REMARK INTER:                  -7.592
REMARK INTRA:                  -0.440
REMARK UNBOUND:                -0.732
REMARK SMILES CC[C@@H](CC[C@H](C)[C@@H]1CC[C@@H]2[C@@H]3CC=C4C[C@@H](O)CC[C@@]4(C)[C@@H]3CC[C@]21C)C(C)C
REMARK SMILES IDX 5 1 4 2 3 3 2 4 1 5 28 6 29 7 30 8 6 9 7 10 8 11 9 12 26 13
REMARK SMILES IDX 10 14 11 15 25 16 27 17 12 18 24 19 23 20 13 21 21 22 14 23
REMARK SMILES IDX 15 24 20 25 22 26 16 27 19 28 17 29 18 30
REMARK H PARENT 18 31
REMARK Flexibility Score: inf
ROOT
ATOM      1  C   UNL     1      21.151  30.958  28.424  1.00  0.00     0.004 C 
ENDROOT
BRANCH   1   2
ATOM      2  C   UNL     1      21.241  30.664  29.936  1.00  0.00     0.004 C 
BRANCH   2   3
ATOM      3  C   UNL     1      21.128  31.951  30.814  1.00  0.00    -0.009 C 
BRANCH   3   4
ATOM      4  C   UNL     1      19.998  32.873  30.279  1.00  0.00     0.000 C 
ATOM      5  C   UNL     1      18.580  32.378  30.581  1.00  0.00     0.004 C 
ENDBRANCH   3   4
BRANCH   3   6
ATOM      6  C   UNL     1      22.502  32.685  30.992  1.00  0.00    -0.014 C 
ATOM      7  C   UNL     1      22.748  33.721  29.881  1.00  0.00     0.007 C 
ATOM      8  C   UNL     1      23.688  31.700  31.008  1.00  0.00     0.007 C 
ENDBRANCH   3   6
ENDBRANCH   2   3
ENDBRANCH   1   2
BRANCH   1   9
ATOM      9  C   UNL     1      22.268  30.243  27.592  1.00  0.00    -0.011 C 
ATOM     10  C   UNL     1      23.488  31.175  27.470  1.00  0.00     0.008 C 
BRANCH   9  11
ATOM     11  C   UNL     1      21.719  29.808  26.189  1.00  0.00    -0.002 C 
ATOM     12  C   UNL     1      21.102  28.379  26.214  1.00  0.00     0.005 C 
ATOM     13  C   UNL     1      22.670  29.767  24.946  1.00  0.00    -0.026 C 
ATOM     14  C   UNL     1      21.200  27.817  24.784  1.00  0.00     0.005 C 
ATOM     15  C   UNL     1      21.751  28.983  23.983  1.00  0.00    -0.001 C 
ATOM     16  C   UNL     1      22.965  31.134  24.272  1.00  0.00     0.007 C 
ATOM     17  C   UNL     1      24.001  29.038  25.312  1.00  0.00     0.012 C 
ATOM     18  C   UNL     1      22.232  28.770  22.529  1.00  0.00     0.000 C 
ATOM     19  C   UNL     1      23.515  30.974  22.829  1.00  0.00     0.005 C 
ATOM     20  C   UNL     1      22.572  30.147  21.895  1.00  0.00     0.003 C 
ATOM     21  C   UNL     1      23.385  27.779  22.333  1.00  0.00     0.031 C 
ATOM     22  C   UNL     1      23.019  30.014  20.363  1.00  0.00    -0.008 C 
ATOM     23  C   UNL     1      23.650  27.600  20.874  1.00  0.00    -0.027 C 
ATOM     24  C   UNL     1      23.529  28.607  19.983  1.00  0.00    -0.065 C 
ATOM     25  C   UNL     1      21.762  30.291  19.480  1.00  0.00     0.014 C 
ATOM     26  C   UNL     1      24.120  31.047  20.001  1.00  0.00     0.016 C 
ATOM     27  C   UNL     1      23.743  28.298  18.513  1.00  0.00     0.063 C 
ATOM     28  C   UNL     1      21.962  30.013  17.976  1.00  0.00     0.033 C 
ATOM     29  C   UNL     1      22.465  28.583  17.717  1.00  0.00     0.118 C 
BRANCH  29  30
ATOM     30  O   UNL     1      21.476  27.645  18.066  1.00  0.00    -0.393 OA
ATOM     31  H   UNL     1      20.610  28.134  18.067  1.00  0.00     0.210 HD
ENDBRANCH  29  30
ENDBRANCH   9  11
ENDBRANCH   1   9
TORSDOF 7
ENDMDL
MODEL 7
REMARK VINA RESULT:    -4.754      2.859      9.835
REMARK INTER + INTRA:          -7.293
REMARK INTER:                  -6.408
REMARK INTRA:                  -0.885
REMARK UNBOUND:                -0.732
REMARK SMILES CC[C@@H](CC[C@H](C)[C@@H]1CC[C@@H]2[C@@H]3CC=C4C[C@@H](O)CC[C@@]4(C)[C@@H]3CC[C@]21C)C(C)C
REMARK SMILES IDX 5 1 4 2 3 3 2 4 1 5 28 6 29 7 30 8 6 9 7 10 8 11 9 12 26 13
REMARK SMILES IDX 10 14 11 15 25 16 27 17 12 18 24 19 23 20 13 21 21 22 14 23
REMARK SMILES IDX 15 24 20 25 22 26 16 27 19 28 17 29 18 30
REMARK H PARENT 18 31
REMARK Flexibility Score: inf
ROOT
ATOM      1  C   UNL     1      22.938  30.511  18.603  1.00  0.00     0.004 C 
ENDROOT
BRANCH   1   2
ATOM      2  C   UNL     1      23.755  29.535  17.731  1.00  0.00     0.004 C 
BRANCH   2   3
ATOM      3  C   UNL     1      23.526  29.746  16.201  1.00  0.00    -0.009 C 
BRANCH   3   4
ATOM      4  C   UNL     1      22.024  30.025  15.913  1.00  0.00     0.000 C 
ATOM      5  C   UNL     1      21.676  31.506  15.739  1.00  0.00     0.004 C 
ENDBRANCH   3   4
BRANCH   3   6
ATOM      6  C   UNL     1      24.124  28.586  15.333  1.00  0.00    -0.014 C 
ATOM      7  C   UNL     1      23.584  28.609  13.893  1.00  0.00     0.007 C 
ATOM      8  C   UNL     1      23.833  27.199  15.939  1.00  0.00     0.007 C 
ENDBRANCH   3   6
ENDBRANCH   2   3
ENDBRANCH   1   2
BRANCH   1   9
ATOM      9  C   UNL     1      21.967  29.783  19.593  1.00  0.00    -0.011 C 
ATOM     10  C   UNL     1      20.538  29.813  19.019  1.00  0.00     0.008 C 
BRANCH   9  11
ATOM     11  C   UNL     1      22.041  30.435  21.017  1.00  0.00    -0.002 C 
ATOM     12  C   UNL     1      23.193  31.474  21.132  1.00  0.00     0.005 C 
ATOM     13  C   UNL     1      22.239  29.538  22.286  1.00  0.00    -0.026 C 
ATOM     14  C   UNL     1      23.590  31.552  22.617  1.00  0.00     0.005 C 
ATOM     15  C   UNL     1      22.576  30.653  23.301  1.00  0.00    -0.001 C 
ATOM     16  C   UNL     1      20.969  28.818  22.814  1.00  0.00     0.007 C 
ATOM     17  C   UNL     1      23.390  28.512  22.044  1.00  0.00     0.012 C 
ATOM     18  C   UNL     1      22.762  30.257  24.784  1.00  0.00     0.000 C 
ATOM     19  C   UNL     1      21.129  28.340  24.282  1.00  0.00     0.005 C 
ATOM     20  C   UNL     1      21.501  29.491  25.273  1.00  0.00     0.003 C 
ATOM     21  C   UNL     1      24.038  29.479  25.123  1.00  0.00     0.031 C 
ATOM     22  C   UNL     1      21.594  29.101  26.822  1.00  0.00    -0.008 C 
ATOM     23  C   UNL     1      24.125  29.275  26.601  1.00  0.00    -0.027 C 
ATOM     24  C   UNL     1      23.037  29.064  27.371  1.00  0.00    -0.065 C 
ATOM     25  C   UNL     1      20.832  30.199  27.631  1.00  0.00     0.014 C 
ATOM     26  C   UNL     1      20.929  27.726  27.102  1.00  0.00     0.016 C 
ATOM     27  C   UNL     1      23.227  28.950  28.872  1.00  0.00     0.063 C 
ATOM     28  C   UNL     1      20.986  30.088  29.161  1.00  0.00     0.033 C 
ATOM     29  C   UNL     1      22.462  30.066  29.592  1.00  0.00     0.118 C 
BRANCH  29  30
ATOM     30  O   UNL     1      23.070  31.305  29.319  1.00  0.00    -0.393 OA
ATOM     31  H   UNL     1      22.433  32.006  29.619  1.00  0.00     0.210 HD
ENDBRANCH  29  30
ENDBRANCH   9  11
ENDBRANCH   1   9
TORSDOF 7
ENDMDL
