MODEL 1
REMARK VINA RESULT:    -6.134      0.000      0.000
REMARK INTER + INTRA:          -7.678
REMARK INTER:                  -7.389
REMARK INTRA:                  -0.289
REMARK UNBOUND:                -0.289
REMARK SMILES O=c1c(O)c(-c2ccc(O)c(O)c2)oc2cc(O)cc(O)c12
REMARK SMILES IDX 5 1 3 2 2 3 1 4 22 5 20 6 19 7 17 8 16 9 15 10 14 11 6 12
REMARK SMILES IDX 7 13 8 14 9 15 13 16 11 17 10 18 12 20 4 22 21 24 18 26
REMARK H PARENT 10 19 12 21 4 23 21 25 18 27
REMARK Flexibility Score: inf
ROOT
ATOM      1  C   UNL     1      23.770  13.118  26.058  1.00  0.00     0.180 A 
ATOM      2  C   UNL     1      24.662  12.632  27.028  1.00  0.00     0.208 A 
ATOM      3  C   UNL     1      24.475  11.336  27.537  1.00  0.00     0.238 A 
ATOM      4  O   UNL     1      25.309  10.886  28.365  1.00  0.00    -0.285 OA
ATOM      5  C   UNL     1      23.389  10.551  27.082  1.00  0.00     0.111 A 
ATOM      6  C   UNL     1      23.080   9.241  27.559  1.00  0.00     0.134 A 
ATOM      7  C   UNL     1      22.059   8.506  26.944  1.00  0.00     0.093 A 
ATOM      8  C   UNL     1      21.294   9.055  25.917  1.00  0.00     0.123 A 
ATOM      9  C   UNL     1      21.548  10.357  25.483  1.00  0.00     0.094 A 
ATOM     10  C   UNL     1      22.583  11.102  26.051  1.00  0.00     0.146 A 
ATOM     11  O   UNL     1      22.800  12.333  25.603  1.00  0.00    -0.452 OA
ENDROOT
BRANCH   1  12
ATOM     12  C   UNL     1      23.887  14.482  25.492  1.00  0.00     0.025 A 
ATOM     13  C   UNL     1      23.476  15.611  26.216  1.00  0.00     0.016 A 
ATOM     14  C   UNL     1      23.575  16.885  25.653  1.00  0.00     0.051 A 
ATOM     15  C   UNL     1      24.071  17.056  24.356  1.00  0.00     0.157 A 
ATOM     16  C   UNL     1      24.365  14.649  24.183  1.00  0.00     0.062 A 
ATOM     17  C   UNL     1      24.468  15.922  23.609  1.00  0.00     0.158 A 
BRANCH  15  18
ATOM     18  O   UNL     1      24.147  18.356  23.853  1.00  0.00    -0.504 OA
ATOM     19  H   UNL     1      24.961  18.948  23.938  1.00  0.00     0.293 HD
ENDBRANCH  15  18
BRANCH  17  20
ATOM     20  O   UNL     1      24.963  16.012  22.307  1.00  0.00    -0.504 OA
ATOM     21  H   UNL     1      24.591  16.633  21.603  1.00  0.00     0.293 HD
ENDBRANCH  17  20
ENDBRANCH   1  12
BRANCH   2  22
ATOM     22  O   UNL     1      25.741  13.415  27.447  1.00  0.00    -0.502 OA
ATOM     23  H   UNL     1      26.521  13.033  27.968  1.00  0.00     0.293 HD
ENDBRANCH   2  22
BRANCH   6  24
ATOM     24  O   UNL     1      23.722   8.633  28.642  1.00  0.00    -0.507 OA
ATOM     25  H   UNL     1      24.580   8.962  29.060  1.00  0.00     0.293 HD
ENDBRANCH   6  24
BRANCH   8  26
ATOM     26  O   UNL     1      20.275   8.299  25.338  1.00  0.00    -0.508 OA
ATOM     27  H   UNL     1      19.709   7.664  25.889  1.00  0.00     0.293 HD
ENDBRANCH   8  26
TORSDOF 6
ENDMDL
MODEL 2
REMARK VINA RESULT:    -5.972      8.737     10.064
REMARK INTER + INTRA:          -7.483
REMARK INTER:                  -7.365
REMARK INTRA:                  -0.119
REMARK UNBOUND:                -0.289
REMARK SMILES O=c1c(O)c(-c2ccc(O)c(O)c2)oc2cc(O)cc(O)c12
REMARK SMILES IDX 5 1 3 2 2 3 1 4 22 5 20 6 19 7 17 8 16 9 15 10 14 11 6 12
REMARK SMILES IDX 7 13 8 14 9 15 13 16 11 17 10 18 12 20 4 22 21 24 18 26
REMARK H PARENT 10 19 12 21 4 23 21 25 18 27
REMARK Flexibility Score: inf
ROOT
ATOM      1  C   UNL     1      17.052  10.155  31.527  1.00  0.00     0.180 A 
ATOM      2  C   UNL     1      17.927  11.199  31.869  1.00  0.00     0.208 A 
ATOM      3  C   UNL     1      19.081  10.905  32.615  1.00  0.00     0.238 A 
ATOM      4  O   UNL     1      19.889  11.836  32.870  1.00  0.00    -0.285 OA
ATOM      5  C   UNL     1      19.334   9.574  33.023  1.00  0.00     0.111 A 
ATOM      6  C   UNL     1      20.450   9.168  33.817  1.00  0.00     0.134 A 
ATOM      7  C   UNL     1      20.670   7.806  34.052  1.00  0.00     0.093 A 
ATOM      8  C   UNL     1      19.783   6.840  33.580  1.00  0.00     0.123 A 
ATOM      9  C   UNL     1      18.656   7.230  32.854  1.00  0.00     0.094 A 
ATOM     10  C   UNL     1      18.428   8.579  32.572  1.00  0.00     0.146 A 
ATOM     11  O   UNL     1      17.351   8.907  31.869  1.00  0.00    -0.452 OA
ENDROOT
BRANCH   1  12
ATOM     12  C   UNL     1      15.804  10.391  30.764  1.00  0.00     0.025 A 
ATOM     13  C   UNL     1      15.607   9.829  29.494  1.00  0.00     0.016 A 
ATOM     14  C   UNL     1      14.432  10.084  28.784  1.00  0.00     0.051 A 
ATOM     15  C   UNL     1      13.440  10.912  29.319  1.00  0.00     0.157 A 
ATOM     16  C   UNL     1      14.820  11.240  31.294  1.00  0.00     0.062 A 
ATOM     17  C   UNL     1      13.638  11.501  30.589  1.00  0.00     0.158 A 
BRANCH  15  18
ATOM     18  O   UNL     1      12.287  11.124  28.559  1.00  0.00    -0.504 OA
ATOM     19  H   UNL     1      12.057  10.605  27.725  1.00  0.00     0.293 HD
ENDBRANCH  15  18
BRANCH  17  20
ATOM     20  O   UNL     1      12.699  12.346  31.184  1.00  0.00    -0.504 OA
ATOM     21  H   UNL     1      12.568  12.432  32.181  1.00  0.00     0.293 HD
ENDBRANCH  17  20
ENDBRANCH   1  12
BRANCH   2  22
ATOM     22  O   UNL     1      17.670  12.503  31.436  1.00  0.00    -0.502 OA
ATOM     23  H   UNL     1      16.893  12.731  30.826  1.00  0.00     0.293 HD
ENDBRANCH   2  22
BRANCH   6  24
ATOM     24  O   UNL     1      21.347  10.058  34.415  1.00  0.00    -0.507 OA
ATOM     25  H   UNL     1      21.584  10.968  34.048  1.00  0.00     0.293 HD
ENDBRANCH   6  24
BRANCH   8  26
ATOM     26  O   UNL     1      20.025   5.493  33.846  1.00  0.00    -0.508 OA
ATOM     27  H   UNL     1      19.267   4.834  33.973  1.00  0.00     0.293 HD
ENDBRANCH   8  26
TORSDOF 6
ENDMDL
MODEL 3
REMARK VINA RESULT:    -5.961      7.995     10.072
REMARK INTER + INTRA:          -7.470
REMARK INTER:                  -7.211
REMARK INTRA:                  -0.259
REMARK UNBOUND:                -0.289
REMARK SMILES O=c1c(O)c(-c2ccc(O)c(O)c2)oc2cc(O)cc(O)c12
REMARK SMILES IDX 5 1 3 2 2 3 1 4 22 5 20 6 19 7 17 8 16 9 15 10 14 11 6 12
REMARK SMILES IDX 7 13 8 14 9 15 13 16 11 17 10 18 12 20 4 22 21 24 18 26
REMARK H PARENT 10 19 12 21 4 23 21 25 18 27
REMARK Flexibility Score: inf
ROOT
ATOM      1  C   UNL     1      15.890  10.769  30.935  1.00  0.00     0.180 A 
ATOM      2  C   UNL     1      16.747  11.685  31.568  1.00  0.00     0.208 A 
ATOM      3  C   UNL     1      18.088  11.327  31.783  1.00  0.00     0.238 A 
ATOM      4  O   UNL     1      18.864  12.173  32.301  1.00  0.00    -0.285 OA
ATOM      5  C   UNL     1      18.550  10.052  31.376  1.00  0.00     0.111 A 
ATOM      6  C   UNL     1      19.878   9.569  31.580  1.00  0.00     0.134 A 
ATOM      7  C   UNL     1      20.260   8.344  31.021  1.00  0.00     0.093 A 
ATOM      8  C   UNL     1      19.347   7.554  30.323  1.00  0.00     0.123 A 
ATOM      9  C   UNL     1      18.030   7.989  30.170  1.00  0.00     0.094 A 
ATOM     10  C   UNL     1      17.628   9.224  30.684  1.00  0.00     0.146 A 
ATOM     11  O   UNL     1      16.370   9.607  30.507  1.00  0.00    -0.452 OA
ENDROOT
BRANCH   1  12
ATOM     12  C   UNL     1      14.458  11.064  30.698  1.00  0.00     0.025 A 
ATOM     13  C   UNL     1      13.532  11.087  31.751  1.00  0.00     0.016 A 
ATOM     14  C   UNL     1      12.183  11.345  31.500  1.00  0.00     0.051 A 
ATOM     15  C   UNL     1      11.730  11.570  30.195  1.00  0.00     0.157 A 
ATOM     16  C   UNL     1      14.003  11.268  29.386  1.00  0.00     0.062 A 
ATOM     17  C   UNL     1      12.652  11.527  29.123  1.00  0.00     0.158 A 
BRANCH  15  18
ATOM     18  O   UNL     1      10.370  11.825  30.012  1.00  0.00    -0.504 OA
ATOM     19  H   UNL     1       9.796  12.331  30.671  1.00  0.00     0.293 HD
ENDBRANCH  15  18
BRANCH  17  20
ATOM     20  O   UNL     1      12.274  11.731  27.795  1.00  0.00    -0.504 OA
ATOM     21  H   UNL     1      12.563  11.141  27.028  1.00  0.00     0.293 HD
ENDBRANCH  17  20
ENDBRANCH   1  12
BRANCH   2  22
ATOM     22  O   UNL     1      16.276  12.947  31.942  1.00  0.00    -0.502 OA
ATOM     23  H   UNL     1      15.877  13.130  32.855  1.00  0.00     0.293 HD
ENDBRANCH   2  22
BRANCH   6  24
ATOM     24  O   UNL     1      20.843  10.236  32.340  1.00  0.00    -0.507 OA
ATOM     25  H   UNL     1      21.006  11.231  32.318  1.00  0.00     0.293 HD
ENDBRANCH   6  24
BRANCH   8  26
ATOM     26  O   UNL     1      19.758   6.332  29.794  1.00  0.00    -0.508 OA
ATOM     27  H   UNL     1      20.006   5.552  30.392  1.00  0.00     0.293 HD
ENDBRANCH   8  26
TORSDOF 6
ENDMDL
MODEL 4
REMARK VINA RESULT:    -5.941      8.699     10.464
REMARK INTER + INTRA:          -7.445
REMARK INTER:                  -7.728
REMARK INTRA:                   0.283
REMARK UNBOUND:                -0.289
REMARK SMILES O=c1c(O)c(-c2ccc(O)c(O)c2)oc2cc(O)cc(O)c12
REMARK SMILES IDX 5 1 3 2 2 3 1 4 22 5 20 6 19 7 17 8 16 9 15 10 14 11 6 12
REMARK SMILES IDX 7 13 8 14 9 15 13 16 11 17 10 18 12 20 4 22 21 24 18 26
REMARK H PARENT 10 19 12 21 4 23 21 25 18 27
REMARK Flexibility Score: inf
ROOT
ATOM      1  C   UNL     1      17.271   9.606  31.391  1.00  0.00     0.180 A 
ATOM      2  C   UNL     1      17.004   8.584  30.464  1.00  0.00     0.208 A 
ATOM      3  C   UNL     1      15.753   8.554  29.826  1.00  0.00     0.238 A 
ATOM      4  O   UNL     1      15.539   7.668  28.957  1.00  0.00    -0.285 OA
ATOM      5  C   UNL     1      14.780   9.534  30.136  1.00  0.00     0.111 A 
ATOM      6  C   UNL     1      13.465   9.575  29.581  1.00  0.00     0.134 A 
ATOM      7  C   UNL     1      12.632  10.665  29.860  1.00  0.00     0.093 A 
ATOM      8  C   UNL     1      13.039  11.680  30.725  1.00  0.00     0.123 A 
ATOM      9  C   UNL     1      14.299  11.619  31.321  1.00  0.00     0.094 A 
ATOM     10  C   UNL     1      15.167  10.564  31.033  1.00  0.00     0.146 A 
ATOM     11  O   UNL     1      16.362  10.548  31.611  1.00  0.00    -0.452 OA
ENDROOT
BRANCH   1  12
ATOM     12  C   UNL     1      18.557   9.690  32.122  1.00  0.00     0.025 A 
ATOM     13  C   UNL     1      19.332   8.547  32.370  1.00  0.00     0.016 A 
ATOM     14  C   UNL     1      20.529   8.648  33.082  1.00  0.00     0.051 A 
ATOM     15  C   UNL     1      20.969   9.883  33.570  1.00  0.00     0.157 A 
ATOM     16  C   UNL     1      18.984  10.927  32.630  1.00  0.00     0.062 A 
ATOM     17  C   UNL     1      20.183  11.038  33.344  1.00  0.00     0.158 A 
BRANCH  15  18
ATOM     18  O   UNL     1      22.176   9.916  34.270  1.00  0.00    -0.504 OA
ATOM     19  H   UNL     1      22.985   9.364  34.028  1.00  0.00     0.293 HD
ENDBRANCH  15  18
BRANCH  17  20
ATOM     20  O   UNL     1      20.550  12.302  33.808  1.00  0.00    -0.504 OA
ATOM     21  H   UNL     1      20.765  12.509  34.773  1.00  0.00     0.293 HD
ENDBRANCH  17  20
ENDBRANCH   1  12
BRANCH   2  22
ATOM     22  O   UNL     1      17.986   7.639  30.156  1.00  0.00    -0.502 OA
ATOM     23  H   UNL     1      17.881   6.655  30.373  1.00  0.00     0.293 HD
ENDBRANCH   2  22
BRANCH   6  24
ATOM     24  O   UNL     1      12.925   8.567  28.778  1.00  0.00    -0.507 OA
ATOM     25  H   UNL     1      13.289   7.628  28.712  1.00  0.00     0.293 HD
ENDBRANCH   6  24
BRANCH   8  26
ATOM     26  O   UNL     1      12.177  12.742  30.993  1.00  0.00    -0.508 OA
ATOM     27  H   UNL     1      11.312  12.866  30.478  1.00  0.00     0.293 HD
ENDBRANCH   8  26
TORSDOF 6
ENDMDL
MODEL 5
REMARK VINA RESULT:    -5.856      8.211     10.431
REMARK INTER + INTRA:          -7.343
REMARK INTER:                  -7.259
REMARK INTRA:                  -0.084
REMARK UNBOUND:                -0.289
REMARK SMILES O=c1c(O)c(-c2ccc(O)c(O)c2)oc2cc(O)cc(O)c12
REMARK SMILES IDX 5 1 3 2 2 3 1 4 22 5 20 6 19 7 17 8 16 9 15 10 14 11 6 12
REMARK SMILES IDX 7 13 8 14 9 15 13 16 11 17 10 18 12 20 4 22 21 24 18 26
REMARK H PARENT 10 19 12 21 4 23 21 25 18 27
REMARK Flexibility Score: inf
ROOT
ATOM      1  C   UNL     1      15.799  10.360  30.843  1.00  0.00     0.180 A 
ATOM      2  C   UNL     1      16.215   9.137  30.292  1.00  0.00     0.208 A 
ATOM      3  C   UNL     1      17.531   8.701  30.515  1.00  0.00     0.238 A 
ATOM      4  O   UNL     1      17.881   7.579  30.064  1.00  0.00    -0.285 OA
ATOM      5  C   UNL     1      18.420   9.503  31.271  1.00  0.00     0.111 A 
ATOM      6  C   UNL     1      19.787   9.180  31.524  1.00  0.00     0.134 A 
ATOM      7  C   UNL     1      20.536   9.982  32.393  1.00  0.00     0.093 A 
ATOM      8  C   UNL     1      19.990  11.130  32.966  1.00  0.00     0.123 A 
ATOM      9  C   UNL     1      18.673  11.488  32.677  1.00  0.00     0.094 A 
ATOM     10  C   UNL     1      17.888  10.689  31.843  1.00  0.00     0.146 A 
ATOM     11  O   UNL     1      16.636  11.058  31.603  1.00  0.00    -0.452 OA
ENDROOT
BRANCH   1  12
ATOM     12  C   UNL     1      14.435  10.897  30.632  1.00  0.00     0.025 A 
ATOM     13  C   UNL     1      13.571  11.144  31.710  1.00  0.00     0.016 A 
ATOM     14  C   UNL     1      12.281  11.628  31.484  1.00  0.00     0.051 A 
ATOM     15  C   UNL     1      11.824  11.862  30.183  1.00  0.00     0.157 A 
ATOM     16  C   UNL     1      13.970  11.109  29.324  1.00  0.00     0.062 A 
ATOM     17  C   UNL     1      12.678  11.595  29.088  1.00  0.00     0.158 A 
BRANCH  15  18
ATOM     18  O   UNL     1      10.525  12.350  30.026  1.00  0.00    -0.504 OA
ATOM     19  H   UNL     1      10.284  13.330  30.038  1.00  0.00     0.293 HD
ENDBRANCH  15  18
BRANCH  17  20
ATOM     20  O   UNL     1      12.289  11.793  27.762  1.00  0.00    -0.504 OA
ATOM     21  H   UNL     1      12.727  12.455  27.137  1.00  0.00     0.293 HD
ENDBRANCH  17  20
ENDBRANCH   1  12
BRANCH   2  22
ATOM     22  O   UNL     1      15.315   8.350  29.568  1.00  0.00    -0.502 OA
ATOM     23  H   UNL     1      15.597   7.504  29.086  1.00  0.00     0.293 HD
ENDBRANCH   2  22
BRANCH   6  24
ATOM     24  O   UNL     1      20.459   8.108  30.930  1.00  0.00    -0.507 OA
ATOM     25  H   UNL     1      21.462   8.001  30.903  1.00  0.00     0.293 HD
ENDBRANCH   6  24
BRANCH   8  26
ATOM     26  O   UNL     1      20.770  11.913  33.815  1.00  0.00    -0.508 OA
ATOM     27  H   UNL     1      21.012  11.603  34.749  1.00  0.00     0.293 HD
ENDBRANCH   8  26
TORSDOF 6
ENDMDL
MODEL 6
REMARK VINA RESULT:    -5.839      8.142      9.422
REMARK INTER + INTRA:          -7.323
REMARK INTER:                  -7.007
REMARK INTRA:                  -0.316
REMARK UNBOUND:                -0.289
REMARK SMILES O=c1c(O)c(-c2ccc(O)c(O)c2)oc2cc(O)cc(O)c12
REMARK SMILES IDX 5 1 3 2 2 3 1 4 22 5 20 6 19 7 17 8 16 9 15 10 14 11 6 12
REMARK SMILES IDX 7 13 8 14 9 15 13 16 11 17 10 18 12 20 4 22 21 24 18 26
REMARK H PARENT 10 19 12 21 4 23 21 25 18 27
REMARK Flexibility Score: inf
ROOT
ATOM      1  C   UNL     1      18.066   8.140  30.738  1.00  0.00     0.180 A 
ATOM      2  C   UNL     1      16.941   7.426  31.185  1.00  0.00     0.208 A 
ATOM      3  C   UNL     1      16.327   6.509  30.316  1.00  0.00     0.238 A 
ATOM      4  O   UNL     1      15.353   5.833  30.741  1.00  0.00    -0.285 OA
ATOM      5  C   UNL     1      16.836   6.330  29.007  1.00  0.00     0.111 A 
ATOM      6  C   UNL     1      16.268   5.458  28.030  1.00  0.00     0.134 A 
ATOM      7  C   UNL     1      16.930   5.262  26.812  1.00  0.00     0.093 A 
ATOM      8  C   UNL     1      18.102   5.955  26.509  1.00  0.00     0.123 A 
ATOM      9  C   UNL     1      18.633   6.855  27.434  1.00  0.00     0.094 A 
ATOM     10  C   UNL     1      18.015   7.045  28.672  1.00  0.00     0.146 A 
ATOM     11  O   UNL     1      18.558   7.902  29.528  1.00  0.00    -0.452 OA
ENDROOT
BRANCH   1  12
ATOM     12  C   UNL     1      18.752   9.142  31.587  1.00  0.00     0.025 A 
ATOM     13  C   UNL     1      19.851   8.793  32.386  1.00  0.00     0.016 A 
ATOM     14  C   UNL     1      20.467   9.749  33.195  1.00  0.00     0.051 A 
ATOM     15  C   UNL     1      19.992  11.064  33.235  1.00  0.00     0.157 A 
ATOM     16  C   UNL     1      18.259  10.455  31.642  1.00  0.00     0.062 A 
ATOM     17  C   UNL     1      18.870  11.421  32.450  1.00  0.00     0.158 A 
BRANCH  15  18
ATOM     18  O   UNL     1      20.654  11.973  34.062  1.00  0.00    -0.504 OA
ATOM     19  H   UNL     1      21.383  12.597  33.748  1.00  0.00     0.293 HD
ENDBRANCH  15  18
BRANCH  17  20
ATOM     20  O   UNL     1      18.332  12.710  32.445  1.00  0.00    -0.504 OA
ATOM     21  H   UNL     1      18.880  13.550  32.325  1.00  0.00     0.293 HD
ENDBRANCH  17  20
ENDBRANCH   1  12
BRANCH   2  22
ATOM     22  O   UNL     1      16.469   7.602  32.489  1.00  0.00    -0.502 OA
ATOM     23  H   UNL     1      16.026   8.460  32.796  1.00  0.00     0.293 HD
ENDBRANCH   2  22
BRANCH   6  24
ATOM     24  O   UNL     1      15.052   4.788  28.194  1.00  0.00    -0.507 OA
ATOM     25  H   UNL     1      14.189   5.044  27.738  1.00  0.00     0.293 HD
ENDBRANCH   6  24
BRANCH   8  26
ATOM     26  O   UNL     1      18.726   5.747  25.280  1.00  0.00    -0.508 OA
ATOM     27  H   UNL     1      18.551   6.354  24.488  1.00  0.00     0.293 HD
ENDBRANCH   8  26
TORSDOF 6
ENDMDL
MODEL 7
REMARK VINA RESULT:    -5.821     12.022     14.157
REMARK INTER + INTRA:          -7.301
REMARK INTER:                  -6.990
REMARK INTRA:                  -0.311
REMARK UNBOUND:                -0.289
REMARK SMILES O=c1c(O)c(-c2ccc(O)c(O)c2)oc2cc(O)cc(O)c12
REMARK SMILES IDX 5 1 3 2 2 3 1 4 22 5 20 6 19 7 17 8 16 9 15 10 14 11 6 12
REMARK SMILES IDX 7 13 8 14 9 15 13 16 11 17 10 18 12 20 4 22 21 24 18 26
REMARK H PARENT 10 19 12 21 4 23 21 25 18 27
REMARK Flexibility Score: inf
ROOT
ATOM      1  C   UNL     1       9.855  12.371  27.629  1.00  0.00     0.180 A 
ATOM      2  C   UNL     1       9.048  12.961  28.617  1.00  0.00     0.208 A 
ATOM      3  C   UNL     1       9.472  12.922  29.955  1.00  0.00     0.238 A 
ATOM      4  O   UNL     1       8.772  13.500  30.828  1.00  0.00    -0.285 OA
ATOM      5  C   UNL     1      10.688  12.280  30.290  1.00  0.00     0.111 A 
ATOM      6  C   UNL     1      11.194  12.145  31.619  1.00  0.00     0.134 A 
ATOM      7  C   UNL     1      12.470  11.605  31.820  1.00  0.00     0.093 A 
ATOM      8  C   UNL     1      13.230  11.135  30.750  1.00  0.00     0.123 A 
ATOM      9  C   UNL     1      12.720  11.207  29.453  1.00  0.00     0.094 A 
ATOM     10  C   UNL     1      11.466  11.774  29.216  1.00  0.00     0.146 A 
ATOM     11  O   UNL     1      11.021  11.834  27.967  1.00  0.00    -0.452 OA
ENDROOT
BRANCH   1  12
ATOM     12  C   UNL     1       9.463  12.350  26.201  1.00  0.00     0.025 A 
ATOM     13  C   UNL     1       8.542  11.412  25.709  1.00  0.00     0.016 A 
ATOM     14  C   UNL     1       8.206  11.397  24.354  1.00  0.00     0.051 A 
ATOM     15  C   UNL     1       8.790  12.304  23.463  1.00  0.00     0.157 A 
ATOM     16  C   UNL     1      10.067  13.246  25.305  1.00  0.00     0.062 A 
ATOM     17  C   UNL     1       9.736  13.239  23.944  1.00  0.00     0.158 A 
BRANCH  15  18
ATOM     18  O   UNL     1       8.408  12.238  22.122  1.00  0.00    -0.504 OA
ATOM     19  H   UNL     1       7.845  12.937  21.659  1.00  0.00     0.293 HD
ENDBRANCH  15  18
BRANCH  17  20
ATOM     20  O   UNL     1      10.367  14.168  23.115  1.00  0.00    -0.504 OA
ATOM     21  H   UNL     1      10.743  13.947  22.204  1.00  0.00     0.293 HD
ENDBRANCH  17  20
ENDBRANCH   1  12
BRANCH   2  22
ATOM     22  O   UNL     1       7.862  13.610  28.261  1.00  0.00    -0.502 OA
ATOM     23  H   UNL     1       7.745  14.081  27.372  1.00  0.00     0.293 HD
ENDBRANCH   2  22
BRANCH   6  24
ATOM     24  O   UNL     1      10.478  12.497  32.766  1.00  0.00    -0.507 OA
ATOM     25  H   UNL     1       9.546  12.175  32.984  1.00  0.00     0.293 HD
ENDBRANCH   6  24
BRANCH   8  26
ATOM     26  O   UNL     1      14.491  10.590  30.989  1.00  0.00    -0.508 OA
ATOM     27  H   UNL     1      15.165  10.467  30.242  1.00  0.00     0.293 HD
ENDBRANCH   8  26
TORSDOF 6
ENDMDL
MODEL 8
REMARK VINA RESULT:    -5.785      7.869      9.944
REMARK INTER + INTRA:          -7.258
REMARK INTER:                  -7.016
REMARK INTRA:                  -0.241
REMARK UNBOUND:                -0.289
REMARK SMILES O=c1c(O)c(-c2ccc(O)c(O)c2)oc2cc(O)cc(O)c12
REMARK SMILES IDX 5 1 3 2 2 3 1 4 22 5 20 6 19 7 17 8 16 9 15 10 14 11 6 12
REMARK SMILES IDX 7 13 8 14 9 15 13 16 11 17 10 18 12 20 4 22 21 24 18 26
REMARK H PARENT 10 19 12 21 4 23 21 25 18 27
REMARK Flexibility Score: inf
ROOT
ATOM      1  C   UNL     1      18.174  10.135  31.568  1.00  0.00     0.180 A 
ATOM      2  C   UNL     1      17.661  11.440  31.650  1.00  0.00     0.208 A 
ATOM      3  C   UNL     1      16.387  11.706  31.122  1.00  0.00     0.238 A 
ATOM      4  O   UNL     1      15.910  12.864  31.247  1.00  0.00    -0.285 OA
ATOM      5  C   UNL     1      15.650  10.667  30.504  1.00  0.00     0.111 A 
ATOM      6  C   UNL     1      14.367  10.832  29.899  1.00  0.00     0.134 A 
ATOM      7  C   UNL     1      13.674   9.708  29.434  1.00  0.00     0.093 A 
ATOM      8  C   UNL     1      14.243   8.436  29.490  1.00  0.00     0.123 A 
ATOM      9  C   UNL     1      15.521   8.272  30.025  1.00  0.00     0.094 A 
ATOM     10  C   UNL     1      16.223   9.368  30.531  1.00  0.00     0.146 A 
ATOM     11  O   UNL     1      17.432   9.168  31.042  1.00  0.00    -0.452 OA
ENDROOT
BRANCH   1  12
ATOM     12  C   UNL     1      19.519   9.784  32.080  1.00  0.00     0.025 A 
ATOM     13  C   UNL     1      20.580   9.498  31.208  1.00  0.00     0.016 A 
ATOM     14  C   UNL     1      21.834   9.146  31.714  1.00  0.00     0.051 A 
ATOM     15  C   UNL     1      22.048   9.059  33.094  1.00  0.00     0.157 A 
ATOM     16  C   UNL     1      19.726   9.675  33.464  1.00  0.00     0.062 A 
ATOM     17  C   UNL     1      20.979   9.323  33.981  1.00  0.00     0.158 A 
BRANCH  15  18
ATOM     18  O   UNL     1      23.325   8.706  33.534  1.00  0.00    -0.504 OA
ATOM     19  H   UNL     1      23.595   7.767  33.789  1.00  0.00     0.293 HD
ENDBRANCH  15  18
BRANCH  17  20
ATOM     20  O   UNL     1      21.113   9.247  35.368  1.00  0.00    -0.504 OA
ATOM     21  H   UNL     1      20.429   8.825  35.980  1.00  0.00     0.293 HD
ENDBRANCH  17  20
ENDBRANCH   1  12
BRANCH   2  22
ATOM     22  O   UNL     1      18.395  12.446  32.284  1.00  0.00    -0.502 OA
ATOM     23  H   UNL     1      19.216  12.250  32.845  1.00  0.00     0.293 HD
ENDBRANCH   2  22
BRANCH   6  24
ATOM     24  O   UNL     1      13.748  12.070  29.708  1.00  0.00    -0.507 OA
ATOM     25  H   UNL     1      12.936  12.223  29.129  1.00  0.00     0.293 HD
ENDBRANCH   6  24
BRANCH   8  26
ATOM     26  O   UNL     1      13.530   7.342  29.003  1.00  0.00    -0.508 OA
ATOM     27  H   UNL     1      12.603   7.447  28.606  1.00  0.00     0.293 HD
ENDBRANCH   8  26
TORSDOF 6
ENDMDL
MODEL 9
REMARK VINA RESULT:    -5.759      5.697      8.286
REMARK INTER + INTRA:          -7.227
REMARK INTER:                  -6.974
REMARK INTRA:                  -0.253
REMARK UNBOUND:                -0.289
REMARK SMILES O=c1c(O)c(-c2ccc(O)c(O)c2)oc2cc(O)cc(O)c12
REMARK SMILES IDX 5 1 3 2 2 3 1 4 22 5 20 6 19 7 17 8 16 9 15 10 14 11 6 12
REMARK SMILES IDX 7 13 8 14 9 15 13 16 11 17 10 18 12 20 4 22 21 24 18 26
REMARK H PARENT 10 19 12 21 4 23 21 25 18 27
REMARK Flexibility Score: inf
ROOT
ATOM      1  C   UNL     1      21.930  18.952  27.604  1.00  0.00     0.180 A 
ATOM      2  C   UNL     1      22.151  20.041  28.464  1.00  0.00     0.208 A 
ATOM      3  C   UNL     1      21.072  20.560  29.197  1.00  0.00     0.238 A 
ATOM      4  O   UNL     1      21.287  21.500  30.006  1.00  0.00    -0.285 OA
ATOM      5  C   UNL     1      19.783  19.994  29.049  1.00  0.00     0.111 A 
ATOM      6  C   UNL     1      18.609  20.466  29.712  1.00  0.00     0.134 A 
ATOM      7  C   UNL     1      17.413  19.749  29.591  1.00  0.00     0.093 A 
ATOM      8  C   UNL     1      17.330  18.617  28.781  1.00  0.00     0.123 A 
ATOM      9  C   UNL     1      18.456  18.182  28.081  1.00  0.00     0.094 A 
ATOM     10  C   UNL     1      19.673  18.855  28.210  1.00  0.00     0.146 A 
ATOM     11  O   UNL     1      20.723  18.402  27.536  1.00  0.00    -0.452 OA
ENDROOT
BRANCH   1  12
ATOM     12  C   UNL     1      23.012  18.367  26.779  1.00  0.00     0.025 A 
ATOM     13  C   UNL     1      23.616  17.148  27.124  1.00  0.00     0.016 A 
ATOM     14  C   UNL     1      24.650  16.627  26.344  1.00  0.00     0.051 A 
ATOM     15  C   UNL     1      25.111  17.316  25.217  1.00  0.00     0.157 A 
ATOM     16  C   UNL     1      23.488  19.071  25.662  1.00  0.00     0.062 A 
ATOM     17  C   UNL     1      24.525  18.557  24.874  1.00  0.00     0.158 A 
BRANCH  15  18
ATOM     18  O   UNL     1      26.146  16.739  24.478  1.00  0.00    -0.504 OA
ATOM     19  H   UNL     1      26.362  15.753  24.482  1.00  0.00     0.293 HD
ENDBRANCH  15  18
BRANCH  17  20
ATOM     20  O   UNL     1      24.938  19.307  23.771  1.00  0.00    -0.504 OA
ATOM     21  H   UNL     1      25.410  18.917  22.967  1.00  0.00     0.293 HD
ENDBRANCH  17  20
ENDBRANCH   1  12
BRANCH   2  22
ATOM     22  O   UNL     1      23.436  20.571  28.612  1.00  0.00    -0.502 OA
ATOM     23  H   UNL     1      23.978  20.911  27.827  1.00  0.00     0.293 HD
ENDBRANCH   2  22
BRANCH   6  24
ATOM     24  O   UNL     1      18.560  21.638  30.471  1.00  0.00    -0.507 OA
ATOM     25  H   UNL     1      19.126  21.819  31.287  1.00  0.00     0.293 HD
ENDBRANCH   6  24
BRANCH   8  26
ATOM     26  O   UNL     1      16.118  17.937  28.672  1.00  0.00    -0.508 OA
ATOM     27  H   UNL     1      15.345  18.314  28.135  1.00  0.00     0.293 HD
ENDBRANCH   8  26
TORSDOF 6
ENDMDL
