MODEL 1
REMARK VINA RESULT:    -7.658      0.000      0.000
REMARK INTER + INTRA:          -9.478
REMARK INTER:                  -9.225
REMARK INTRA:                  -0.253
REMARK UNBOUND:                -0.253
REMARK SMILES O=c1c(O)c(-c2ccc(O)c(O)c2)oc2cc(O)cc(O)c12
REMARK SMILES IDX 5 1 3 2 2 3 1 4 22 5 20 6 19 7 17 8 16 9 15 10 14 11 6 12
REMARK SMILES IDX 7 13 8 14 9 15 13 16 11 17 10 18 12 20 4 22 21 24 18 26
REMARK H PARENT 10 19 12 21 4 23 21 25 18 27
REMARK Flexibility Score: inf
ROOT
ATOM      1  C   UNL     1      -3.925 -22.301  47.418  1.00  0.00     0.180 A 
ATOM      2  C   UNL     1      -4.354 -23.386  48.203  1.00  0.00     0.208 A 
ATOM      3  C   UNL     1      -3.503 -23.879  49.205  1.00  0.00     0.238 A 
ATOM      4  O   UNL     1      -3.870 -24.886  49.867  1.00  0.00    -0.285 OA
ATOM      5  C   UNL     1      -2.242 -23.273  49.421  1.00  0.00     0.111 A 
ATOM      6  C   UNL     1      -1.317 -23.665  50.436  1.00  0.00     0.134 A 
ATOM      7  C   UNL     1      -0.046 -23.080  50.474  1.00  0.00     0.093 A 
ATOM      8  C   UNL     1       0.310 -22.071  49.576  1.00  0.00     0.123 A 
ATOM      9  C   UNL     1      -0.607 -21.640  48.621  1.00  0.00     0.094 A 
ATOM     10  C   UNL     1      -1.871 -22.229  48.534  1.00  0.00     0.146 A 
ATOM     11  O   UNL     1      -2.711 -21.795  47.602  1.00  0.00    -0.452 OA
ENDROOT
BRANCH   1  12
ATOM     12  C   UNL     1      -4.775 -21.709  46.360  1.00  0.00     0.025 A 
ATOM     13  C   UNL     1      -4.407 -21.860  45.014  1.00  0.00     0.016 A 
ATOM     14  C   UNL     1      -5.184 -21.292  44.000  1.00  0.00     0.051 A 
ATOM     15  C   UNL     1      -6.330 -20.552  44.320  1.00  0.00     0.157 A 
ATOM     16  C   UNL     1      -5.915 -20.947  46.677  1.00  0.00     0.062 A 
ATOM     17  C   UNL     1      -6.693 -20.376  45.660  1.00  0.00     0.158 A 
BRANCH  15  18
ATOM     18  O   UNL     1      -7.108 -19.986  43.311  1.00  0.00    -0.504 OA
ATOM     19  H   UNL     1      -6.985 -20.244  42.339  1.00  0.00     0.293 HD
ENDBRANCH  15  18
BRANCH  17  20
ATOM     20  O   UNL     1      -7.827 -19.628  45.975  1.00  0.00    -0.504 OA
ATOM     21  H   UNL     1      -7.810 -18.917  46.696  1.00  0.00     0.293 HD
ENDBRANCH  17  20
ENDBRANCH   1  12
BRANCH   2  22
ATOM     22  O   UNL     1      -5.593 -23.984  47.958  1.00  0.00    -0.502 OA
ATOM     23  H   UNL     1      -5.683 -24.955  47.684  1.00  0.00     0.293 HD
ENDBRANCH   2  22
BRANCH   6  24
ATOM     24  O   UNL     1      -1.607 -24.597  51.437  1.00  0.00    -0.507 OA
ATOM     25  H   UNL     1      -0.915 -25.114  51.958  1.00  0.00     0.293 HD
ENDBRANCH   6  24
BRANCH   8  26
ATOM     26  O   UNL     1       1.572 -21.484  49.631  1.00  0.00    -0.508 OA
ATOM     27  H   UNL     1       2.178 -21.605  50.434  1.00  0.00     0.293 HD
ENDBRANCH   8  26
TORSDOF 6
ENDMDL
MODEL 2
REMARK VINA RESULT:    -7.619      0.732      1.449
REMARK INTER + INTRA:          -9.431
REMARK INTER:                  -9.115
REMARK INTRA:                  -0.315
REMARK UNBOUND:                -0.253
REMARK SMILES O=c1c(O)c(-c2ccc(O)c(O)c2)oc2cc(O)cc(O)c12
REMARK SMILES IDX 5 1 3 2 2 3 1 4 22 5 20 6 19 7 17 8 16 9 15 10 14 11 6 12
REMARK SMILES IDX 7 13 8 14 9 15 13 16 11 17 10 18 12 20 4 22 21 24 18 26
REMARK H PARENT 10 19 12 21 4 23 21 25 18 27
REMARK Flexibility Score: inf
ROOT
ATOM      1  C   UNL     1      -4.045 -21.939  47.895  1.00  0.00     0.180 A 
ATOM      2  C   UNL     1      -4.451 -23.090  48.592  1.00  0.00     0.208 A 
ATOM      3  C   UNL     1      -3.538 -23.724  49.450  1.00  0.00     0.238 A 
ATOM      4  O   UNL     1      -3.890 -24.785  50.029  1.00  0.00    -0.285 OA
ATOM      5  C   UNL     1      -2.237 -23.191  49.612  1.00  0.00     0.111 A 
ATOM      6  C   UNL     1      -1.243 -23.728  50.486  1.00  0.00     0.134 A 
ATOM      7  C   UNL     1       0.052 -23.197  50.469  1.00  0.00     0.093 A 
ATOM      8  C   UNL     1       0.371 -22.105  49.657  1.00  0.00     0.123 A 
ATOM      9  C   UNL     1      -0.607 -21.537  48.846  1.00  0.00     0.094 A 
ATOM     10  C   UNL     1      -1.898 -22.067  48.813  1.00  0.00     0.146 A 
ATOM     11  O   UNL     1      -2.798 -21.501  48.018  1.00  0.00    -0.452 OA
ENDROOT
BRANCH   1  12
ATOM     12  C   UNL     1      -4.959 -21.202  46.992  1.00  0.00     0.025 A 
ATOM     13  C   UNL     1      -5.850 -20.260  47.531  1.00  0.00     0.016 A 
ATOM     14  C   UNL     1      -6.735 -19.567  46.701  1.00  0.00     0.051 A 
ATOM     15  C   UNL     1      -6.753 -19.819  45.322  1.00  0.00     0.157 A 
ATOM     16  C   UNL     1      -4.995 -21.466  45.611  1.00  0.00     0.062 A 
ATOM     17  C   UNL     1      -5.885 -20.773  44.778  1.00  0.00     0.158 A 
BRANCH  15  18
ATOM     18  O   UNL     1      -7.634 -19.129  44.490  1.00  0.00    -0.504 OA
ATOM     19  H   UNL     1      -7.657 -18.117  44.467  1.00  0.00     0.293 HD
ENDBRANCH  15  18
BRANCH  17  20
ATOM     20  O   UNL     1      -5.914 -21.031  43.408  1.00  0.00    -0.504 OA
ATOM     21  H   UNL     1      -6.621 -20.625  42.807  1.00  0.00     0.293 HD
ENDBRANCH  17  20
ENDBRANCH   1  12
BRANCH   2  22
ATOM     22  O   UNL     1      -5.733 -23.613  48.400  1.00  0.00    -0.502 OA
ATOM     23  H   UNL     1      -6.376 -23.239  47.713  1.00  0.00     0.293 HD
ENDBRANCH   2  22
BRANCH   6  24
ATOM     24  O   UNL     1      -1.484 -24.757  51.401  1.00  0.00    -0.507 OA
ATOM     25  H   UNL     1      -1.199 -24.744  52.368  1.00  0.00     0.293 HD
ENDBRANCH   6  24
BRANCH   8  26
ATOM     26  O   UNL     1       1.659 -21.573  49.657  1.00  0.00    -0.508 OA
ATOM     27  H   UNL     1       1.851 -20.649  49.290  1.00  0.00     0.293 HD
ENDBRANCH   8  26
TORSDOF 6
ENDMDL
MODEL 3
REMARK VINA RESULT:    -7.611      1.401      6.954
REMARK INTER + INTRA:          -9.421
REMARK INTER:                  -9.187
REMARK INTRA:                  -0.234
REMARK UNBOUND:                -0.253
REMARK SMILES O=c1c(O)c(-c2ccc(O)c(O)c2)oc2cc(O)cc(O)c12
REMARK SMILES IDX 5 1 3 2 2 3 1 4 22 5 20 6 19 7 17 8 16 9 15 10 14 11 6 12
REMARK SMILES IDX 7 13 8 14 9 15 13 16 11 17 10 18 12 20 4 22 21 24 18 26
REMARK H PARENT 10 19 12 21 4 23 21 25 18 27
REMARK Flexibility Score: inf
ROOT
ATOM      1  C   UNL     1      -3.753 -21.515  47.797  1.00  0.00     0.180 A 
ATOM      2  C   UNL     1      -4.776 -20.732  48.361  1.00  0.00     0.208 A 
ATOM      3  C   UNL     1      -5.827 -20.293  47.540  1.00  0.00     0.238 A 
ATOM      4  O   UNL     1      -6.711 -19.546  48.039  1.00  0.00    -0.285 OA
ATOM      5  C   UNL     1      -5.853 -20.655  46.172  1.00  0.00     0.111 A 
ATOM      6  C   UNL     1      -6.891 -20.300  45.258  1.00  0.00     0.134 A 
ATOM      7  C   UNL     1      -6.747 -20.602  43.899  1.00  0.00     0.093 A 
ATOM      8  C   UNL     1      -5.634 -21.304  43.432  1.00  0.00     0.123 A 
ATOM      9  C   UNL     1      -4.645 -21.707  44.324  1.00  0.00     0.094 A 
ATOM     10  C   UNL     1      -4.741 -21.389  45.681  1.00  0.00     0.146 A 
ATOM     11  O   UNL     1      -3.771 -21.783  46.497  1.00  0.00    -0.452 OA
ENDROOT
BRANCH   1  12
ATOM     12  C   UNL     1      -2.625 -22.036  48.603  1.00  0.00     0.025 A 
ATOM     13  C   UNL     1      -1.325 -21.569  48.353  1.00  0.00     0.016 A 
ATOM     14  C   UNL     1      -0.243 -22.062  49.087  1.00  0.00     0.051 A 
ATOM     15  C   UNL     1      -0.444 -23.041  50.070  1.00  0.00     0.157 A 
ATOM     16  C   UNL     1      -2.819 -23.033  49.576  1.00  0.00     0.062 A 
ATOM     17  C   UNL     1      -1.734 -23.529  50.312  1.00  0.00     0.158 A 
BRANCH  15  18
ATOM     18  O   UNL     1       0.633 -23.534  50.805  1.00  0.00    -0.504 OA
ATOM     19  H   UNL     1       0.979 -24.476  50.672  1.00  0.00     0.293 HD
ENDBRANCH  15  18
BRANCH  17  20
ATOM     20  O   UNL     1      -1.929 -24.512  51.281  1.00  0.00    -0.504 OA
ATOM     21  H   UNL     1      -2.150 -24.274  52.240  1.00  0.00     0.293 HD
ENDBRANCH  17  20
ENDBRANCH   1  12
BRANCH   2  22
ATOM     22  O   UNL     1      -4.720 -20.366  49.709  1.00  0.00    -0.502 OA
ATOM     23  H   UNL     1      -5.344 -20.756  50.404  1.00  0.00     0.293 HD
ENDBRANCH   2  22
BRANCH   6  24
ATOM     24  O   UNL     1      -8.085 -19.679  45.637  1.00  0.00    -0.507 OA
ATOM     25  H   UNL     1      -8.282 -19.327  46.562  1.00  0.00     0.293 HD
ENDBRANCH   6  24
BRANCH   8  26
ATOM     26  O   UNL     1      -5.507 -21.614  42.079  1.00  0.00    -0.508 OA
ATOM     27  H   UNL     1      -4.601 -21.651  41.626  1.00  0.00     0.293 HD
ENDBRANCH   8  26
TORSDOF 6
ENDMDL
MODEL 4
REMARK VINA RESULT:    -7.422      4.082      6.121
REMARK INTER + INTRA:          -9.194
REMARK INTER:                  -9.095
REMARK INTRA:                  -0.099
REMARK UNBOUND:                -0.253
REMARK SMILES O=c1c(O)c(-c2ccc(O)c(O)c2)oc2cc(O)cc(O)c12
REMARK SMILES IDX 5 1 3 2 2 3 1 4 22 5 20 6 19 7 17 8 16 9 15 10 14 11 6 12
REMARK SMILES IDX 7 13 8 14 9 15 13 16 11 17 10 18 12 20 4 22 21 24 18 26
REMARK H PARENT 10 19 12 21 4 23 21 25 18 27
REMARK Flexibility Score: inf
ROOT
ATOM      1  C   UNL     1      -3.410 -25.144  46.228  1.00  0.00     0.180 A 
ATOM      2  C   UNL     1      -2.252 -24.388  45.975  1.00  0.00     0.208 A 
ATOM      3  C   UNL     1      -2.064 -23.181  46.666  1.00  0.00     0.238 A 
ATOM      4  O   UNL     1      -1.051 -22.481  46.395  1.00  0.00    -0.285 OA
ATOM      5  C   UNL     1      -3.026 -22.751  47.611  1.00  0.00     0.111 A 
ATOM      6  C   UNL     1      -2.917 -21.565  48.398  1.00  0.00     0.134 A 
ATOM      7  C   UNL     1      -3.990 -21.171  49.206  1.00  0.00     0.093 A 
ATOM      8  C   UNL     1      -5.142 -21.956  49.306  1.00  0.00     0.123 A 
ATOM      9  C   UNL     1      -5.232 -23.145  48.589  1.00  0.00     0.094 A 
ATOM     10  C   UNL     1      -4.194 -23.547  47.745  1.00  0.00     0.146 A 
ATOM     11  O   UNL     1      -4.326 -24.683  47.072  1.00  0.00    -0.452 OA
ENDROOT
BRANCH   1  12
ATOM     12  C   UNL     1      -3.667 -26.439  45.558  1.00  0.00     0.025 A 
ATOM     13  C   UNL     1      -4.880 -26.638  44.880  1.00  0.00     0.016 A 
ATOM     14  C   UNL     1      -5.152 -27.860  44.259  1.00  0.00     0.051 A 
ATOM     15  C   UNL     1      -4.221 -28.905  44.320  1.00  0.00     0.157 A 
ATOM     16  C   UNL     1      -2.744 -27.499  45.634  1.00  0.00     0.062 A 
ATOM     17  C   UNL     1      -3.018 -28.726  45.012  1.00  0.00     0.158 A 
BRANCH  15  18
ATOM     18  O   UNL     1      -4.489 -30.125  43.700  1.00  0.00    -0.504 OA
ATOM     19  H   UNL     1      -5.436 -30.463  43.582  1.00  0.00     0.293 HD
ENDBRANCH  15  18
BRANCH  17  20
ATOM     20  O   UNL     1      -2.100 -29.772  45.083  1.00  0.00    -0.504 OA
ATOM     21  H   UNL     1      -1.617 -30.111  44.259  1.00  0.00     0.293 HD
ENDBRANCH  17  20
ENDBRANCH   1  12
BRANCH   2  22
ATOM     22  O   UNL     1      -1.325 -24.819  45.022  1.00  0.00    -0.502 OA
ATOM     23  H   UNL     1      -1.408 -24.586  44.039  1.00  0.00     0.293 HD
ENDBRANCH   2  22
BRANCH   6  24
ATOM     24  O   UNL     1      -1.775 -20.760  48.441  1.00  0.00    -0.507 OA
ATOM     25  H   UNL     1      -0.829 -21.098  48.349  1.00  0.00     0.293 HD
ENDBRANCH   6  24
BRANCH   8  26
ATOM     26  O   UNL     1      -6.199 -21.564  50.125  1.00  0.00    -0.508 OA
ATOM     27  H   UNL     1      -6.120 -20.770  50.749  1.00  0.00     0.293 HD
ENDBRANCH   8  26
TORSDOF 6
ENDMDL
MODEL 5
REMARK VINA RESULT:    -7.385      2.894      3.829
REMARK INTER + INTRA:          -9.149
REMARK INTER:                  -8.815
REMARK INTRA:                  -0.334
REMARK UNBOUND:                -0.253
REMARK SMILES O=c1c(O)c(-c2ccc(O)c(O)c2)oc2cc(O)cc(O)c12
REMARK SMILES IDX 5 1 3 2 2 3 1 4 22 5 20 6 19 7 17 8 16 9 15 10 14 11 6 12
REMARK SMILES IDX 7 13 8 14 9 15 13 16 11 17 10 18 12 20 4 22 21 24 18 26
REMARK H PARENT 10 19 12 21 4 23 21 25 18 27
REMARK Flexibility Score: inf
ROOT
ATOM      1  C   UNL     1      -5.634 -20.659  46.238  1.00  0.00     0.180 A 
ATOM      2  C   UNL     1      -6.089 -20.481  47.556  1.00  0.00     0.208 A 
ATOM      3  C   UNL     1      -5.716 -21.415  48.536  1.00  0.00     0.238 A 
ATOM      4  O   UNL     1      -6.172 -21.280  49.703  1.00  0.00    -0.285 OA
ATOM      5  C   UNL     1      -4.882 -22.505  48.191  1.00  0.00     0.111 A 
ATOM      6  C   UNL     1      -4.408 -23.487  49.112  1.00  0.00     0.134 A 
ATOM      7  C   UNL     1      -3.695 -24.594  48.636  1.00  0.00     0.093 A 
ATOM      8  C   UNL     1      -3.381 -24.718  47.280  1.00  0.00     0.123 A 
ATOM      9  C   UNL     1      -3.786 -23.734  46.383  1.00  0.00     0.094 A 
ATOM     10  C   UNL     1      -4.531 -22.637  46.822  1.00  0.00     0.146 A 
ATOM     11  O   UNL     1      -4.906 -21.727  45.931  1.00  0.00    -0.452 OA
ENDROOT
BRANCH   1  12
ATOM     12  C   UNL     1      -5.964 -19.704  45.155  1.00  0.00     0.025 A 
ATOM     13  C   UNL     1      -7.063 -19.960  44.320  1.00  0.00     0.016 A 
ATOM     14  C   UNL     1      -7.380 -19.083  43.278  1.00  0.00     0.051 A 
ATOM     15  C   UNL     1      -6.593 -17.947  43.049  1.00  0.00     0.157 A 
ATOM     16  C   UNL     1      -5.165 -18.573  44.907  1.00  0.00     0.062 A 
ATOM     17  C   UNL     1      -5.482 -17.694  43.862  1.00  0.00     0.158 A 
BRANCH  15  18
ATOM     18  O   UNL     1      -6.907 -17.069  42.012  1.00  0.00    -0.504 OA
ATOM     19  H   UNL     1      -7.849 -16.722  41.879  1.00  0.00     0.293 HD
ENDBRANCH  15  18
BRANCH  17  20
ATOM     20  O   UNL     1      -4.693 -16.570  43.623  1.00  0.00    -0.504 OA
ATOM     21  H   UNL     1      -4.205 -16.441  42.744  1.00  0.00     0.293 HD
ENDBRANCH  17  20
ENDBRANCH   1  12
BRANCH   2  22
ATOM     22  O   UNL     1      -6.932 -19.411  47.871  1.00  0.00    -0.502 OA
ATOM     23  H   UNL     1      -7.227 -19.212  48.819  1.00  0.00     0.293 HD
ENDBRANCH   2  22
BRANCH   6  24
ATOM     24  O   UNL     1      -4.589 -23.410  50.496  1.00  0.00    -0.507 OA
ATOM     25  H   UNL     1      -5.246 -22.799  50.957  1.00  0.00     0.293 HD
ENDBRANCH   6  24
BRANCH   8  26
ATOM     26  O   UNL     1      -2.656 -25.814  46.817  1.00  0.00    -0.508 OA
ATOM     27  H   UNL     1      -2.894 -26.761  47.089  1.00  0.00     0.293 HD
ENDBRANCH   8  26
TORSDOF 6
ENDMDL
MODEL 6
REMARK VINA RESULT:    -7.289      2.069      6.701
REMARK INTER + INTRA:          -9.033
REMARK INTER:                  -8.745
REMARK INTRA:                  -0.288
REMARK UNBOUND:                -0.253
REMARK SMILES O=c1c(O)c(-c2ccc(O)c(O)c2)oc2cc(O)cc(O)c12
REMARK SMILES IDX 5 1 3 2 2 3 1 4 22 5 20 6 19 7 17 8 16 9 15 10 14 11 6 12
REMARK SMILES IDX 7 13 8 14 9 15 13 16 11 17 10 18 12 20 4 22 21 24 18 26
REMARK H PARENT 10 19 12 21 4 23 21 25 18 27
REMARK Flexibility Score: inf
ROOT
ATOM      1  C   UNL     1      -3.673 -21.706  47.197  1.00  0.00     0.180 A 
ATOM      2  C   UNL     1      -5.051 -21.445  47.107  1.00  0.00     0.208 A 
ATOM      3  C   UNL     1      -5.533 -20.704  46.017  1.00  0.00     0.238 A 
ATOM      4  O   UNL     1      -6.761 -20.426  45.970  1.00  0.00    -0.285 OA
ATOM      5  C   UNL     1      -4.636 -20.247  45.022  1.00  0.00     0.111 A 
ATOM      6  C   UNL     1      -5.019 -19.523  43.853  1.00  0.00     0.134 A 
ATOM      7  C   UNL     1      -4.032 -19.008  43.004  1.00  0.00     0.093 A 
ATOM      8  C   UNL     1      -2.678 -19.249  43.246  1.00  0.00     0.123 A 
ATOM      9  C   UNL     1      -2.296 -20.005  44.351  1.00  0.00     0.094 A 
ATOM     10  C   UNL     1      -3.255 -20.501  45.237  1.00  0.00     0.146 A 
ATOM     11  O   UNL     1      -2.848 -21.209  46.283  1.00  0.00    -0.452 OA
ENDROOT
BRANCH   1  12
ATOM     12  C   UNL     1      -3.092 -22.502  48.303  1.00  0.00     0.025 A 
ATOM     13  C   UNL     1      -2.857 -21.890  49.545  1.00  0.00     0.016 A 
ATOM     14  C   UNL     1      -2.291 -22.616  50.596  1.00  0.00     0.051 A 
ATOM     15  C   UNL     1      -1.938 -23.960  50.415  1.00  0.00     0.157 A 
ATOM     16  C   UNL     1      -2.716 -23.846  48.121  1.00  0.00     0.062 A 
ATOM     17  C   UNL     1      -2.147 -24.574  49.175  1.00  0.00     0.158 A 
BRANCH  15  18
ATOM     18  O   UNL     1      -1.375 -24.688  51.463  1.00  0.00    -0.504 OA
ATOM     19  H   UNL     1      -1.171 -25.676  51.372  1.00  0.00     0.293 HD
ENDBRANCH  15  18
BRANCH  17  20
ATOM     20  O   UNL     1      -1.782 -25.907  48.994  1.00  0.00    -0.504 OA
ATOM     21  H   UNL     1      -0.818 -26.177  48.840  1.00  0.00     0.293 HD
ENDBRANCH  17  20
ENDBRANCH   1  12
BRANCH   2  22
ATOM     22  O   UNL     1      -5.918 -21.886  48.111  1.00  0.00    -0.502 OA
ATOM     23  H   UNL     1      -5.585 -22.315  48.967  1.00  0.00     0.293 HD
ENDBRANCH   2  22
BRANCH   6  24
ATOM     24  O   UNL     1      -6.347 -19.306  43.471  1.00  0.00    -0.507 OA
ATOM     25  H   UNL     1      -7.066 -18.938  44.075  1.00  0.00     0.293 HD
ENDBRANCH   6  24
BRANCH   8  26
ATOM     26  O   UNL     1      -1.703 -18.746  42.387  1.00  0.00    -0.508 OA
ATOM     27  H   UNL     1      -1.245 -19.336  41.702  1.00  0.00     0.293 HD
ENDBRANCH   8  26
TORSDOF 6
ENDMDL
MODEL 7
REMARK VINA RESULT:    -7.261      1.879      7.261
REMARK INTER + INTRA:          -8.999
REMARK INTER:                  -8.711
REMARK INTRA:                  -0.289
REMARK UNBOUND:                -0.253
REMARK SMILES O=c1c(O)c(-c2ccc(O)c(O)c2)oc2cc(O)cc(O)c12
REMARK SMILES IDX 5 1 3 2 2 3 1 4 22 5 20 6 19 7 17 8 16 9 15 10 14 11 6 12
REMARK SMILES IDX 7 13 8 14 9 15 13 16 11 17 10 18 12 20 4 22 21 24 18 26
REMARK H PARENT 10 19 12 21 4 23 21 25 18 27
REMARK Flexibility Score: inf
ROOT
ATOM      1  C   UNL     1      -3.105 -21.712  47.105  1.00  0.00     0.180 A 
ATOM      2  C   UNL     1      -2.282 -21.252  46.062  1.00  0.00     0.208 A 
ATOM      3  C   UNL     1      -2.850 -20.479  45.037  1.00  0.00     0.238 A 
ATOM      4  O   UNL     1      -2.119 -20.116  44.078  1.00  0.00    -0.285 OA
ATOM      5  C   UNL     1      -4.229 -20.162  45.074  1.00  0.00     0.111 A 
ATOM      6  C   UNL     1      -4.902 -19.352  44.110  1.00  0.00     0.134 A 
ATOM      7  C   UNL     1      -6.293 -19.212  44.176  1.00  0.00     0.093 A 
ATOM      8  C   UNL     1      -7.028 -19.800  45.209  1.00  0.00     0.123 A 
ATOM      9  C   UNL     1      -6.373 -20.542  46.188  1.00  0.00     0.094 A 
ATOM     10  C   UNL     1      -4.990 -20.730  46.130  1.00  0.00     0.146 A 
ATOM     11  O   UNL     1      -4.407 -21.453  47.078  1.00  0.00    -0.452 OA
ENDROOT
BRANCH   1  12
ATOM     12  C   UNL     1      -2.575 -22.511  48.233  1.00  0.00     0.025 A 
ATOM     13  C   UNL     1      -2.272 -21.874  49.447  1.00  0.00     0.016 A 
ATOM     14  C   UNL     1      -1.750 -22.605  50.519  1.00  0.00     0.051 A 
ATOM     15  C   UNL     1      -1.510 -23.979  50.385  1.00  0.00     0.157 A 
ATOM     16  C   UNL     1      -2.312 -23.887  48.098  1.00  0.00     0.062 A 
ATOM     17  C   UNL     1      -1.788 -24.619  49.172  1.00  0.00     0.158 A 
BRANCH  15  18
ATOM     18  O   UNL     1      -0.992 -24.711  51.453  1.00  0.00    -0.504 OA
ATOM     19  H   UNL     1      -0.038 -25.050  51.449  1.00  0.00     0.293 HD
ENDBRANCH  15  18
BRANCH  17  20
ATOM     20  O   UNL     1      -1.536 -25.984  49.038  1.00  0.00    -0.504 OA
ATOM     21  H   UNL     1      -0.902 -26.340  48.333  1.00  0.00     0.293 HD
ENDBRANCH  17  20
ENDBRANCH   1  12
BRANCH   2  22
ATOM     22  O   UNL     1      -0.927 -21.595  46.032  1.00  0.00    -0.502 OA
ATOM     23  H   UNL     1      -0.232 -21.026  45.565  1.00  0.00     0.293 HD
ENDBRANCH   2  22
BRANCH   6  24
ATOM     24  O   UNL     1      -4.250 -18.648  43.093  1.00  0.00    -0.507 OA
ATOM     25  H   UNL     1      -3.679 -17.829  43.236  1.00  0.00     0.293 HD
ENDBRANCH   6  24
BRANCH   8  26
ATOM     26  O   UNL     1      -8.411 -19.642  45.275  1.00  0.00    -0.508 OA
ATOM     27  H   UNL     1      -8.834 -18.897  45.814  1.00  0.00     0.293 HD
ENDBRANCH   8  26
TORSDOF 6
ENDMDL
MODEL 8
REMARK VINA RESULT:    -7.101      2.251      2.659
REMARK INTER + INTRA:          -8.807
REMARK INTER:                  -8.721
REMARK INTRA:                  -0.085
REMARK UNBOUND:                -0.253
REMARK SMILES O=c1c(O)c(-c2ccc(O)c(O)c2)oc2cc(O)cc(O)c12
REMARK SMILES IDX 5 1 3 2 2 3 1 4 22 5 20 6 19 7 17 8 16 9 15 10 14 11 6 12
REMARK SMILES IDX 7 13 8 14 9 15 13 16 11 17 10 18 12 20 4 22 21 24 18 26
REMARK H PARENT 10 19 12 21 4 23 21 25 18 27
REMARK Flexibility Score: inf
ROOT
ATOM      1  C   UNL     1      -1.836 -21.803  46.778  1.00  0.00     0.180 A 
ATOM      2  C   UNL     1      -2.714 -22.818  47.196  1.00  0.00     0.208 A 
ATOM      3  C   UNL     1      -2.488 -23.448  48.430  1.00  0.00     0.238 A 
ATOM      4  O   UNL     1      -3.245 -24.394  48.773  1.00  0.00    -0.285 OA
ATOM      5  C   UNL     1      -1.397 -23.045  49.238  1.00  0.00     0.111 A 
ATOM      6  C   UNL     1      -1.098 -23.586  50.525  1.00  0.00     0.134 A 
ATOM      7  C   UNL     1       0.080 -23.204  51.178  1.00  0.00     0.093 A 
ATOM      8  C   UNL     1       0.936 -22.251  50.619  1.00  0.00     0.123 A 
ATOM      9  C   UNL     1       0.621 -21.673  49.392  1.00  0.00     0.094 A 
ATOM     10  C   UNL     1      -0.528 -22.061  48.699  1.00  0.00     0.146 A 
ATOM     11  O   UNL     1      -0.785 -21.492  47.528  1.00  0.00    -0.452 OA
ENDROOT
BRANCH   1  12
ATOM     12  C   UNL     1      -2.023 -21.075  45.502  1.00  0.00     0.025 A 
ATOM     13  C   UNL     1      -0.956 -20.987  44.594  1.00  0.00     0.016 A 
ATOM     14  C   UNL     1      -1.104 -20.288  43.393  1.00  0.00     0.051 A 
ATOM     15  C   UNL     1      -2.317 -19.654  43.091  1.00  0.00     0.157 A 
ATOM     16  C   UNL     1      -3.232 -20.419  45.203  1.00  0.00     0.062 A 
ATOM     17  C   UNL     1      -3.380 -19.716  43.999  1.00  0.00     0.158 A 
BRANCH  15  18
ATOM     18  O   UNL     1      -2.469 -18.957  41.893  1.00  0.00    -0.504 OA
ATOM     19  H   UNL     1      -2.452 -19.431  40.998  1.00  0.00     0.293 HD
ENDBRANCH  15  18
BRANCH  17  20
ATOM     20  O   UNL     1      -4.580 -19.072  43.702  1.00  0.00    -0.504 OA
ATOM     21  H   UNL     1      -5.009 -19.144  42.787  1.00  0.00     0.293 HD
ENDBRANCH  17  20
ENDBRANCH   1  12
BRANCH   2  22
ATOM     22  O   UNL     1      -3.771 -23.217  46.372  1.00  0.00    -0.502 OA
ATOM     23  H   UNL     1      -3.714 -24.028  45.769  1.00  0.00     0.293 HD
ENDBRANCH   2  22
BRANCH   6  24
ATOM     24  O   UNL     1      -1.932 -24.474  51.210  1.00  0.00    -0.507 OA
ATOM     25  H   UNL     1      -2.932 -24.376  51.293  1.00  0.00     0.293 HD
ENDBRANCH   6  24
BRANCH   8  26
ATOM     26  O   UNL     1       2.098 -21.865  51.283  1.00  0.00    -0.508 OA
ATOM     27  H   UNL     1       2.884 -21.462  50.786  1.00  0.00     0.293 HD
ENDBRANCH   8  26
TORSDOF 6
ENDMDL
MODEL 9
REMARK VINA RESULT:    -7.065      3.500      5.611
REMARK INTER + INTRA:          -8.764
REMARK INTER:                  -8.470
REMARK INTRA:                  -0.294
REMARK UNBOUND:                -0.253
REMARK SMILES O=c1c(O)c(-c2ccc(O)c(O)c2)oc2cc(O)cc(O)c12
REMARK SMILES IDX 5 1 3 2 2 3 1 4 22 5 20 6 19 7 17 8 16 9 15 10 14 11 6 12
REMARK SMILES IDX 7 13 8 14 9 15 13 16 11 17 10 18 12 20 4 22 21 24 18 26
REMARK H PARENT 10 19 12 21 4 23 21 25 18 27
REMARK Flexibility Score: inf
ROOT
ATOM      1  C   UNL     1      -3.731 -24.312  46.954  1.00  0.00     0.180 A 
ATOM      2  C   UNL     1      -3.206 -24.418  48.253  1.00  0.00     0.208 A 
ATOM      3  C   UNL     1      -3.583 -23.471  49.219  1.00  0.00     0.238 A 
ATOM      4  O   UNL     1      -3.066 -23.540  50.366  1.00  0.00    -0.285 OA
ATOM      5  C   UNL     1      -4.491 -22.440  48.880  1.00  0.00     0.111 A 
ATOM      6  C   UNL     1      -4.973 -21.452  49.790  1.00  0.00     0.134 A 
ATOM      7  C   UNL     1      -5.768 -20.402  49.312  1.00  0.00     0.093 A 
ATOM      8  C   UNL     1      -6.152 -20.343  47.970  1.00  0.00     0.123 A 
ATOM      9  C   UNL     1      -5.736 -21.336  47.088  1.00  0.00     0.094 A 
ATOM     10  C   UNL     1      -4.912 -22.376  47.525  1.00  0.00     0.146 A 
ATOM     11  O   UNL     1      -4.530 -23.296  46.648  1.00  0.00    -0.452 OA
ENDROOT
BRANCH   1  12
ATOM     12  C   UNL     1      -3.401 -25.285  45.889  1.00  0.00     0.025 A 
ATOM     13  C   UNL     1      -4.279 -26.350  45.630  1.00  0.00     0.016 A 
ATOM     14  C   UNL     1      -3.977 -27.293  44.643  1.00  0.00     0.051 A 
ATOM     15  C   UNL     1      -2.785 -27.193  43.913  1.00  0.00     0.157 A 
ATOM     16  C   UNL     1      -2.196 -25.202  45.167  1.00  0.00     0.062 A 
ATOM     17  C   UNL     1      -1.892 -26.148  44.178  1.00  0.00     0.158 A 
BRANCH  15  18
ATOM     18  O   UNL     1      -2.482 -28.130  42.927  1.00  0.00    -0.504 OA
ATOM     19  H   UNL     1      -2.007 -28.997  43.148  1.00  0.00     0.293 HD
ENDBRANCH  15  18
BRANCH  17  20
ATOM     20  O   UNL     1      -0.701 -26.059  43.459  1.00  0.00    -0.504 OA
ATOM     21  H   UNL     1      -0.433 -25.208  42.980  1.00  0.00     0.293 HD
ENDBRANCH  17  20
ENDBRANCH   1  12
BRANCH   2  22
ATOM     22  O   UNL     1      -2.292 -25.430  48.562  1.00  0.00    -0.502 OA
ATOM     23  H   UNL     1      -2.582 -26.339  48.901  1.00  0.00     0.293 HD
ENDBRANCH   2  22
BRANCH   6  24
ATOM     24  O   UNL     1      -4.724 -21.470  51.165  1.00  0.00    -0.507 OA
ATOM     25  H   UNL     1      -4.921 -22.249  51.775  1.00  0.00     0.293 HD
ENDBRANCH   6  24
BRANCH   8  26
ATOM     26  O   UNL     1      -6.956 -19.304  47.507  1.00  0.00    -0.508 OA
ATOM     27  H   UNL     1      -6.679 -18.335  47.606  1.00  0.00     0.293 HD
ENDBRANCH   8  26
TORSDOF 6
ENDMDL
