MODEL 1
REMARK VINA RESULT:    -4.623      0.000      0.000
REMARK INTER + INTRA:          -8.880
REMARK INTER:                  -7.326
REMARK INTRA:                  -1.554
REMARK UNBOUND:                -1.554
REMARK SMILES CCCCCCCCCCCC(=O)[O-]
REMARK SMILES IDX 7 1 8 2 9 3 10 4 11 5 12 6 13 7 14 8 6 9 5 10 4 11 3 12 2 13
REMARK SMILES IDX 1 14
REMARK H PARENT
REMARK Flexibility Score: inf
ROOT
ATOM      1  C   UNL     1      20.033  20.319  47.776  1.00  0.00     0.000 C 
ENDROOT
BRANCH   1   2
ATOM      2  C   UNL     1      18.579  20.779  47.568  1.00  0.00     0.000 C 
BRANCH   2   3
ATOM      3  C   UNL     1      18.191  20.853  46.082  1.00  0.00     0.000 C 
BRANCH   3   4
ATOM      4  C   UNL     1      19.342  20.437  45.150  1.00  0.00     0.006 C 
BRANCH   4   5
ATOM      5  C   UNL     1      18.833  19.899  43.806  1.00  0.00     0.053 C 
BRANCH   5   6
ATOM      6  C   UNL     1      18.086  20.945  43.036  1.00  0.00     0.041 C 
ATOM      7  O   UNL     1      18.628  22.052  42.783  1.00  0.00    -0.550 OA
ATOM      8  O   UNL     1      16.805  20.682  42.567  1.00  0.00    -0.550 OA
ENDBRANCH   5   6
ENDBRANCH   4   5
ENDBRANCH   3   4
ENDBRANCH   2   3
ENDBRANCH   1   2
BRANCH   1   9
ATOM      9  C   UNL     1      20.231  19.557  49.096  1.00  0.00     0.000 C 
BRANCH   9  10
ATOM     10  C   UNL     1      20.909  18.191  48.893  1.00  0.00    -0.000 C 
BRANCH  10  11
ATOM     11  C   UNL     1      21.019  17.802  47.409  1.00  0.00    -0.000 C 
BRANCH  11  12
ATOM     12  C   UNL     1      20.155  16.580  47.053  1.00  0.00    -0.000 C 
BRANCH  12  13
ATOM     13  C   UNL     1      18.833  16.972  46.375  1.00  0.00    -0.003 C 
ATOM     14  C   UNL     1      17.686  17.154  47.370  1.00  0.00     0.004 C 
ENDBRANCH  12  13
ENDBRANCH  11  12
ENDBRANCH  10  11
ENDBRANCH   9  10
ENDBRANCH   1   9
TORSDOF 10
ENDMDL
MODEL 2
REMARK VINA RESULT:    -4.487      2.133      4.347
REMARK INTER + INTRA:          -8.664
REMARK INTER:                  -7.171
REMARK INTRA:                  -1.492
REMARK UNBOUND:                -1.554
REMARK SMILES CCCCCCCCCCCC(=O)[O-]
REMARK SMILES IDX 7 1 8 2 9 3 10 4 11 5 12 6 13 7 14 8 6 9 5 10 4 11 3 12 2 13
REMARK SMILES IDX 1 14
REMARK H PARENT
REMARK Flexibility Score: inf
ROOT
ATOM      1  C   UNL     1      20.751  18.525  49.059  1.00  0.00     0.000 C 
ENDROOT
BRANCH   1   2
ATOM      2  C   UNL     1      21.099  18.088  47.624  1.00  0.00     0.000 C 
BRANCH   2   3
ATOM      3  C   UNL     1      20.425  16.763  47.232  1.00  0.00     0.000 C 
BRANCH   3   4
ATOM      4  C   UNL     1      19.103  16.974  46.474  1.00  0.00     0.006 C 
BRANCH   4   5
ATOM      5  C   UNL     1      17.907  17.118  47.424  1.00  0.00     0.053 C 
BRANCH   5   6
ATOM      6  C   UNL     1      16.602  17.023  46.693  1.00  0.00     0.041 C 
ATOM      7  O   UNL     1      16.207  17.980  45.977  1.00  0.00    -0.550 OA
ATOM      8  O   UNL     1      15.841  15.864  46.774  1.00  0.00    -0.550 OA
ENDBRANCH   5   6
ENDBRANCH   4   5
ENDBRANCH   3   4
ENDBRANCH   2   3
ENDBRANCH   1   2
BRANCH   1   9
ATOM      9  C   UNL     1      20.207  19.960  49.126  1.00  0.00     0.000 C 
BRANCH   9  10
ATOM     10  C   UNL     1      19.955  20.561  47.733  1.00  0.00    -0.000 C 
BRANCH  10  11
ATOM     11  C   UNL     1      18.460  20.783  47.447  1.00  0.00    -0.000 C 
BRANCH  11  12
ATOM     12  C   UNL     1      18.156  20.891  45.943  1.00  0.00    -0.000 C 
BRANCH  12  13
ATOM     13  C   UNL     1      19.277  20.302  45.072  1.00  0.00    -0.003 C 
ATOM     14  C   UNL     1      18.773  19.781  43.726  1.00  0.00     0.004 C 
ENDBRANCH  12  13
ENDBRANCH  11  12
ENDBRANCH  10  11
ENDBRANCH   9  10
ENDBRANCH   1   9
TORSDOF 10
ENDMDL
MODEL 3
REMARK VINA RESULT:    -4.381      1.464      3.189
REMARK INTER + INTRA:          -8.496
REMARK INTER:                  -7.084
REMARK INTRA:                  -1.412
REMARK UNBOUND:                -1.554
REMARK SMILES CCCCCCCCCCCC(=O)[O-]
REMARK SMILES IDX 7 1 8 2 9 3 10 4 11 5 12 6 13 7 14 8 6 9 5 10 4 11 3 12 2 13
REMARK SMILES IDX 1 14
REMARK H PARENT
REMARK Flexibility Score: inf
ROOT
ATOM      1  C   UNL     1      19.442  16.692  46.561  1.00  0.00     0.000 C 
ENDROOT
BRANCH   1   2
ATOM      2  C   UNL     1      18.090  16.964  47.246  1.00  0.00     0.000 C 
BRANCH   2   3
ATOM      3  C   UNL     1      17.311  18.110  46.580  1.00  0.00     0.000 C 
BRANCH   3   4
ATOM      4  C   UNL     1      17.449  18.104  45.048  1.00  0.00     0.006 C 
BRANCH   4   5
ATOM      5  C   UNL     1      18.084  19.397  44.519  1.00  0.00     0.053 C 
BRANCH   5   6
ATOM      6  C   UNL     1      17.160  20.568  44.659  1.00  0.00     0.041 C 
ATOM      7  O   UNL     1      16.046  20.568  44.074  1.00  0.00    -0.550 OA
ATOM      8  O   UNL     1      17.515  21.643  45.464  1.00  0.00    -0.550 OA
ENDBRANCH   5   6
ENDBRANCH   4   5
ENDBRANCH   3   4
ENDBRANCH   2   3
ENDBRANCH   1   2
BRANCH   1   9
ATOM      9  C   UNL     1      20.610  16.632  47.557  1.00  0.00     0.000 C 
BRANCH   9  10
ATOM     10  C   UNL     1      21.080  18.028  48.000  1.00  0.00    -0.000 C 
BRANCH  10  11
ATOM     11  C   UNL     1      20.987  19.068  46.871  1.00  0.00    -0.000 C 
BRANCH  11  12
ATOM     12  C   UNL     1      20.281  20.361  47.314  1.00  0.00    -0.000 C 
BRANCH  12  13
ATOM     13  C   UNL     1      19.455  20.170  48.596  1.00  0.00    -0.003 C 
ATOM     14  C   UNL     1      19.959  21.023  49.760  1.00  0.00     0.004 C 
ENDBRANCH  12  13
ENDBRANCH  11  12
ENDBRANCH  10  11
ENDBRANCH   9  10
ENDBRANCH   1   9
TORSDOF 10
ENDMDL
MODEL 4
REMARK VINA RESULT:    -4.373      1.163      2.353
REMARK INTER + INTRA:          -8.484
REMARK INTER:                  -6.985
REMARK INTRA:                  -1.498
REMARK UNBOUND:                -1.554
REMARK SMILES CCCCCCCCCCCC(=O)[O-]
REMARK SMILES IDX 7 1 8 2 9 3 10 4 11 5 12 6 13 7 14 8 6 9 5 10 4 11 3 12 2 13
REMARK SMILES IDX 1 14
REMARK H PARENT
REMARK Flexibility Score: inf
ROOT
ATOM      1  C   UNL     1      21.355  18.332  47.425  1.00  0.00     0.000 C 
ENDROOT
BRANCH   1   2
ATOM      2  C   UNL     1      20.696  19.408  46.543  1.00  0.00     0.000 C 
BRANCH   2   3
ATOM      3  C   UNL     1      19.689  20.271  47.320  1.00  0.00     0.000 C 
BRANCH   3   4
ATOM      4  C   UNL     1      18.713  21.018  46.394  1.00  0.00     0.006 C 
BRANCH   4   5
ATOM      5  C   UNL     1      19.108  20.894  44.916  1.00  0.00     0.053 C 
BRANCH   5   6
ATOM      6  C   UNL     1      18.065  21.477  44.012  1.00  0.00     0.041 C 
ATOM      7  O   UNL     1      16.843  21.330  44.278  1.00  0.00    -0.550 OA
ATOM      8  O   UNL     1      18.442  22.213  42.896  1.00  0.00    -0.550 OA
ENDBRANCH   5   6
ENDBRANCH   4   5
ENDBRANCH   3   4
ENDBRANCH   2   3
ENDBRANCH   1   2
BRANCH   1   9
ATOM      9  C   UNL     1      20.351  17.281  47.927  1.00  0.00     0.000 C 
BRANCH   9  10
ATOM     10  C   UNL     1      20.069  16.189  46.881  1.00  0.00    -0.000 C 
BRANCH  10  11
ATOM     11  C   UNL     1      18.572  16.061  46.551  1.00  0.00    -0.000 C 
BRANCH  11  12
ATOM     12  C   UNL     1      17.712  17.095  47.297  1.00  0.00    -0.000 C 
BRANCH  12  13
ATOM     13  C   UNL     1      16.738  17.832  46.364  1.00  0.00    -0.003 C 
ATOM     14  C   UNL     1      17.191  17.824  44.905  1.00  0.00     0.004 C 
ENDBRANCH  12  13
ENDBRANCH  11  12
ENDBRANCH  10  11
ENDBRANCH   9  10
ENDBRANCH   1   9
TORSDOF 10
ENDMDL
MODEL 5
REMARK VINA RESULT:    -4.313      1.360      3.136
REMARK INTER + INTRA:          -8.389
REMARK INTER:                  -6.780
REMARK INTRA:                  -1.610
REMARK UNBOUND:                -1.554
REMARK SMILES CCCCCCCCCCCC(=O)[O-]
REMARK SMILES IDX 7 1 8 2 9 3 10 4 11 5 12 6 13 7 14 8 6 9 5 10 4 11 3 12 2 13
REMARK SMILES IDX 1 14
REMARK H PARENT
REMARK Flexibility Score: inf
ROOT
ATOM      1  C   UNL     1      20.028  16.535  46.955  1.00  0.00     0.000 C 
ENDROOT
BRANCH   1   2
ATOM      2  C   UNL     1      18.582  16.248  46.508  1.00  0.00     0.000 C 
BRANCH   2   3
ATOM      3  C   UNL     1      17.570  17.227  47.126  1.00  0.00     0.000 C 
BRANCH   3   4
ATOM      4  C   UNL     1      16.790  18.019  46.062  1.00  0.00     0.006 C 
BRANCH   4   5
ATOM      5  C   UNL     1      17.566  18.137  44.743  1.00  0.00     0.053 C 
BRANCH   5   6
ATOM      6  C   UNL     1      17.398  19.489  44.119  1.00  0.00     0.041 C 
ATOM      7  O   UNL     1      18.314  19.975  43.405  1.00  0.00    -0.550 OA
ATOM      8  O   UNL     1      16.216  20.196  44.296  1.00  0.00    -0.550 OA
ENDBRANCH   5   6
ENDBRANCH   4   5
ENDBRANCH   3   4
ENDBRANCH   2   3
ENDBRANCH   1   2
BRANCH   1   9
ATOM      9  C   UNL     1      20.102  17.168  48.353  1.00  0.00     0.000 C 
BRANCH   9  10
ATOM     10  C   UNL     1      20.827  18.525  48.348  1.00  0.00    -0.000 C 
BRANCH  10  11
ATOM     11  C   UNL     1      21.046  19.072  46.927  1.00  0.00    -0.000 C 
BRANCH  11  12
ATOM     12  C   UNL     1      20.085  20.222  46.583  1.00  0.00    -0.000 C 
BRANCH  12  13
ATOM     13  C   UNL     1      19.106  20.534  47.726  1.00  0.00    -0.003 C 
ATOM     14  C   UNL     1      17.991  21.492  47.309  1.00  0.00     0.004 C 
ENDBRANCH  12  13
ENDBRANCH  11  12
ENDBRANCH  10  11
ENDBRANCH   9  10
ENDBRANCH   1   9
TORSDOF 10
ENDMDL
MODEL 6
REMARK VINA RESULT:    -4.207      1.262      1.935
REMARK INTER + INTRA:          -8.221
REMARK INTER:                  -7.069
REMARK INTRA:                  -1.152
REMARK UNBOUND:                -1.554
REMARK SMILES CCCCCCCCCCCC(=O)[O-]
REMARK SMILES IDX 7 1 8 2 9 3 10 4 11 5 12 6 13 7 14 8 6 9 5 10 4 11 3 12 2 13
REMARK SMILES IDX 1 14
REMARK H PARENT
REMARK Flexibility Score: inf
ROOT
ATOM      1  C   UNL     1      21.048  19.059  46.880  1.00  0.00     0.000 C 
ENDROOT
BRANCH   1   2
ATOM      2  C   UNL     1      20.216  20.301  47.246  1.00  0.00     0.000 C 
BRANCH   2   3
ATOM      3  C   UNL     1      19.054  20.541  46.268  1.00  0.00     0.000 C 
BRANCH   3   4
ATOM      4  C   UNL     1      19.292  19.886  44.896  1.00  0.00     0.006 C 
BRANCH   4   5
ATOM      5  C   UNL     1      18.593  20.647  43.762  1.00  0.00     0.053 C 
BRANCH   5   6
ATOM      6  C   UNL     1      17.124  20.355  43.720  1.00  0.00     0.041 C 
ATOM      7  O   UNL     1      16.710  19.244  43.298  1.00  0.00    -0.550 OA
ATOM      8  O   UNL     1      16.213  21.297  44.183  1.00  0.00    -0.550 OA
ENDBRANCH   5   6
ENDBRANCH   4   5
ENDBRANCH   3   4
ENDBRANCH   2   3
ENDBRANCH   1   2
BRANCH   1   9
ATOM      9  C   UNL     1      21.012  17.979  47.972  1.00  0.00     0.000 C 
BRANCH   9  10
ATOM     10  C   UNL     1      20.662  16.588  47.414  1.00  0.00    -0.000 C 
BRANCH  10  11
ATOM     11  C   UNL     1      19.375  16.596  46.573  1.00  0.00    -0.000 C 
BRANCH  11  12
ATOM     12  C   UNL     1      18.137  16.999  47.392  1.00  0.00    -0.000 C 
BRANCH  12  13
ATOM     13  C   UNL     1      16.892  17.205  46.515  1.00  0.00    -0.003 C 
ATOM     14  C   UNL     1      15.894  16.053  46.620  1.00  0.00     0.004 C 
ENDBRANCH  12  13
ENDBRANCH  11  12
ENDBRANCH  10  11
ENDBRANCH   9  10
ENDBRANCH   1   9
TORSDOF 10
ENDMDL
MODEL 7
REMARK VINA RESULT:    -4.117      4.122      6.202
REMARK INTER + INTRA:          -8.078
REMARK INTER:                  -6.966
REMARK INTRA:                  -1.113
REMARK UNBOUND:                -1.554
REMARK SMILES CCCCCCCCCCCC(=O)[O-]
REMARK SMILES IDX 7 1 8 2 9 3 10 4 11 5 12 6 13 7 14 8 6 9 5 10 4 11 3 12 2 13
REMARK SMILES IDX 1 14
REMARK H PARENT
REMARK Flexibility Score: inf
ROOT
ATOM      1  C   UNL     1      17.993  17.179  47.192  1.00  0.00     0.000 C 
ENDROOT
BRANCH   1   2
ATOM      2  C   UNL     1      18.960  16.338  46.338  1.00  0.00     0.000 C 
BRANCH   2   3
ATOM      3  C   UNL     1      20.200  15.886  47.126  1.00  0.00     0.000 C 
BRANCH   3   4
ATOM      4  C   UNL     1      21.102  17.063  47.535  1.00  0.00     0.006 C 
BRANCH   4   5
ATOM      5  C   UNL     1      21.453  17.033  49.028  1.00  0.00     0.053 C 
BRANCH   5   6
ATOM      6  C   UNL     1      22.376  15.901  49.359  1.00  0.00     0.041 C 
ATOM      7  O   UNL     1      23.467  15.773  48.744  1.00  0.00    -0.550 OA
ATOM      8  O   UNL     1      22.049  15.008  50.372  1.00  0.00    -0.550 OA
ENDBRANCH   5   6
ENDBRANCH   4   5
ENDBRANCH   3   4
ENDBRANCH   2   3
ENDBRANCH   1   2
BRANCH   1   9
ATOM      9  C   UNL     1      17.593  18.497  46.511  1.00  0.00     0.000 C 
BRANCH   9  10
ATOM     10  C   UNL     1      18.752  19.127  45.720  1.00  0.00    -0.000 C 
BRANCH  10  11
ATOM     11  C   UNL     1      19.068  20.561  46.178  1.00  0.00    -0.000 C 
BRANCH  11  12
ATOM     12  C   UNL     1      18.728  20.797  47.659  1.00  0.00    -0.000 C 
BRANCH  12  13
ATOM     13  C   UNL     1      19.850  20.334  48.601  1.00  0.00    -0.003 C 
ATOM     14  C   UNL     1      19.865  21.095  49.927  1.00  0.00     0.004 C 
ENDBRANCH  12  13
ENDBRANCH  11  12
ENDBRANCH  10  11
ENDBRANCH   9  10
ENDBRANCH   1   9
TORSDOF 10
ENDMDL
MODEL 8
REMARK VINA RESULT:    -4.048      3.060      5.134
REMARK INTER + INTRA:          -7.969
REMARK INTER:                  -6.459
REMARK INTRA:                  -1.510
REMARK UNBOUND:                -1.554
REMARK SMILES CCCCCCCCCCCC(=O)[O-]
REMARK SMILES IDX 7 1 8 2 9 3 10 4 11 5 12 6 13 7 14 8 6 9 5 10 4 11 3 12 2 13
REMARK SMILES IDX 1 14
REMARK H PARENT
REMARK Flexibility Score: inf
ROOT
ATOM      1  C   UNL     1      17.566  18.247  44.958  1.00  0.00     0.000 C 
ENDROOT
BRANCH   1   2
ATOM      2  C   UNL     1      17.065  18.067  46.402  1.00  0.00     0.000 C 
BRANCH   2   3
ATOM      3  C   UNL     1      17.803  16.941  47.146  1.00  0.00     0.000 C 
BRANCH   3   4
ATOM      4  C   UNL     1      18.801  16.193  46.244  1.00  0.00     0.006 C 
BRANCH   4   5
ATOM      5  C   UNL     1      18.499  14.690  46.169  1.00  0.00     0.053 C 
BRANCH   5   6
ATOM      6  C   UNL     1      17.116  14.426  45.658  1.00  0.00     0.041 C 
ATOM      7  O   UNL     1      16.792  14.781  44.495  1.00  0.00    -0.550 OA
ATOM      8  O   UNL     1      16.196  13.755  46.454  1.00  0.00    -0.550 OA
ENDBRANCH   5   6
ENDBRANCH   4   5
ENDBRANCH   3   4
ENDBRANCH   2   3
ENDBRANCH   1   2
BRANCH   1   9
ATOM      9  C   UNL     1      17.894  19.710  44.622  1.00  0.00     0.000 C 
BRANCH   9  10
ATOM     10  C   UNL     1      19.361  20.068  44.917  1.00  0.00    -0.000 C 
BRANCH  10  11
ATOM     11  C   UNL     1      19.521  20.891  46.206  1.00  0.00    -0.000 C 
BRANCH  11  12
ATOM     12  C   UNL     1      20.141  20.077  47.354  1.00  0.00    -0.000 C 
BRANCH  12  13
ATOM     13  C   UNL     1      21.121  19.005  46.852  1.00  0.00    -0.003 C 
ATOM     14  C   UNL     1      21.484  17.982  47.928  1.00  0.00     0.004 C 
ENDBRANCH  12  13
ENDBRANCH  11  12
ENDBRANCH  10  11
ENDBRANCH   9  10
ENDBRANCH   1   9
TORSDOF 10
ENDMDL
MODEL 9
REMARK VINA RESULT:    -3.988      4.619      6.222
REMARK INTER + INTRA:          -7.874
REMARK INTER:                  -6.713
REMARK INTRA:                  -1.161
REMARK UNBOUND:                -1.554
REMARK SMILES CCCCCCCCCCCC(=O)[O-]
REMARK SMILES IDX 7 1 8 2 9 3 10 4 11 5 12 6 13 7 14 8 6 9 5 10 4 11 3 12 2 13
REMARK SMILES IDX 1 14
REMARK H PARENT
REMARK Flexibility Score: inf
ROOT
ATOM      1  C   UNL     1      20.026  19.801  48.254  1.00  0.00     0.000 C 
ENDROOT
BRANCH   1   2
ATOM      2  C   UNL     1      20.413  18.365  48.651  1.00  0.00     0.000 C 
BRANCH   2   3
ATOM      3  C   UNL     1      21.384  17.718  47.649  1.00  0.00     0.000 C 
BRANCH   3   4
ATOM      4  C   UNL     1      21.740  16.268  48.024  1.00  0.00     0.006 C 
BRANCH   4   5
ATOM      5  C   UNL     1      23.216  16.117  48.414  1.00  0.00     0.053 C 
BRANCH   5   6
ATOM      6  C   UNL     1      23.399  15.131  49.527  1.00  0.00     0.041 C 
ATOM      7  O   UNL     1      24.305  14.260  49.459  1.00  0.00    -0.550 OA
ATOM      8  O   UNL     1      22.592  15.198  50.656  1.00  0.00    -0.550 OA
ENDBRANCH   5   6
ENDBRANCH   4   5
ENDBRANCH   3   4
ENDBRANCH   2   3
ENDBRANCH   1   2
BRANCH   1   9
ATOM      9  C   UNL     1      20.481  20.166  46.832  1.00  0.00     0.000 C 
BRANCH   9  10
ATOM     10  C   UNL     1      19.307  20.561  45.921  1.00  0.00    -0.000 C 
BRANCH  10  11
ATOM     11  C   UNL     1      19.125  19.594  44.739  1.00  0.00    -0.000 C 
BRANCH  11  12
ATOM     12  C   UNL     1      17.899  18.680  44.906  1.00  0.00    -0.000 C 
BRANCH  12  13
ATOM     13  C   UNL     1      18.224  17.396  45.686  1.00  0.00    -0.003 C 
ATOM     14  C   UNL     1      17.356  17.222  46.932  1.00  0.00     0.004 C 
ENDBRANCH  12  13
ENDBRANCH  11  12
ENDBRANCH  10  11
ENDBRANCH   9  10
ENDBRANCH   1   9
TORSDOF 10
ENDMDL
