MODEL 1
REMARK VINA RESULT:    -6.133      0.000      0.000
REMARK INTER + INTRA:          -6.313
REMARK INTER:                  -6.313
REMARK INTRA:                   0.000
REMARK UNBOUND:                 0.000
REMARK SMILES CC1(C)CC[C@]2(C)CC[C@@]3(C)C(=CC[C@@H]4[C@@]5(C)CC[C@H](O)C(C)(C)[C@@H]5CC[C@@]43C)[C@@H]2C1
REMARK SMILES IDX 1 1 2 2 4 3 5 4 6 5 8 6 9 7 10 8 12 9 13 10 14 11 15 12
REMARK SMILES IDX 28 13 27 14 26 15 25 16 16 17 18 18 19 19 20 20 22 21 23 22
REMARK SMILES IDX 24 23 17 24 29 25 30 26 31 27 11 28 7 29 3 30 21 31
REMARK H PARENT 21 32
REMARK Flexibility Score: inf
ROOT
ATOM      1  C   UNL     1      37.145   6.677 110.879  1.00  0.00     0.011 C 
ATOM      2  C   UNL     1      36.263   6.899 109.619  1.00  0.00    -0.035 C 
ATOM      3  C   UNL     1      37.163   6.864 108.357  1.00  0.00     0.007 C 
ATOM      4  C   UNL     1      36.505   7.579 107.173  1.00  0.00     0.008 C 
ATOM      5  C   UNL     1      36.355   9.123 107.402  1.00  0.00    -0.026 C 
ATOM      6  C   UNL     1      37.713   9.785 107.000  1.00  0.00     0.008 C 
ATOM      7  C   UNL     1      37.814  11.277 107.359  1.00  0.00     0.012 C 
ATOM      8  C   UNL     1      37.412  11.648 108.848  1.00  0.00    -0.006 C 
ATOM      9  C   UNL     1      37.044  10.345 109.552  1.00  0.00    -0.064 C 
ATOM     10  C   UNL     1      37.746   9.948 110.616  1.00  0.00    -0.027 C 
ATOM     11  C   UNL     1      39.201  10.242 110.752  1.00  0.00     0.032 C 
ATOM     12  C   UNL     1      39.776  11.495 109.985  1.00  0.00     0.006 C 
ATOM     13  C   UNL     1      38.567  12.459 109.616  1.00  0.00    -0.020 C 
ATOM     14  C   UNL     1      38.041  13.058 110.989  1.00  0.00     0.008 C 
ATOM     15  C   UNL     1      39.106  13.279 112.101  1.00  0.00     0.005 C 
ATOM     16  C   UNL     1      40.506  13.488 111.502  1.00  0.00     0.003 C 
ATOM     17  C   UNL     1      41.013  12.190 110.779  1.00  0.00    -0.025 C 
ATOM     18  C   UNL     1      42.171  12.641 109.829  1.00  0.00     0.010 C 
ATOM     19  C   UNL     1      43.282  13.456 110.546  1.00  0.00     0.033 C 
ATOM     20  C   UNL     1      42.749  14.650 111.371  1.00  0.00     0.120 C 
ATOM     21  C   UNL     1      41.560  14.302 112.345  1.00  0.00    -0.006 C 
ATOM     22  C   UNL     1      40.936  15.649 112.812  1.00  0.00     0.014 C 
ATOM     23  C   UNL     1      42.032  13.567 113.624  1.00  0.00     0.014 C 
ATOM     24  C   UNL     1      41.666  11.142 111.749  1.00  0.00     0.012 C 
ATOM     25  C   UNL     1      39.002  13.633 108.653  1.00  0.00     0.012 C 
ATOM     26  C   UNL     1      35.968   9.467 108.906  1.00  0.00     0.022 C 
ATOM     27  C   UNL     1      35.447   8.241 109.707  1.00  0.00     0.015 C 
ATOM     28  C   UNL     1      36.122  12.536 108.831  1.00  0.00     0.017 C 
ATOM     29  C   UNL     1      35.248   9.635 106.433  1.00  0.00     0.012 C 
ATOM     30  C   UNL     1      35.247   5.727 109.575  1.00  0.00     0.011 C 
ENDROOT
BRANCH  20  31
ATOM     31  O   UNL     1      43.801  15.298 112.041  1.00  0.00    -0.393 OA
ATOM     32  H   UNL     1      43.935  14.848 112.915  1.00  0.00     0.210 HD
ENDBRANCH  20  31
TORSDOF 1
ENDMDL
MODEL 2
REMARK VINA RESULT:    -6.104      6.957     10.399
REMARK INTER + INTRA:          -6.282
REMARK INTER:                  -6.282
REMARK INTRA:                   0.000
REMARK UNBOUND:                 0.000
REMARK SMILES CC1(C)CC[C@]2(C)CC[C@@]3(C)C(=CC[C@@H]4[C@@]5(C)CC[C@H](O)C(C)(C)[C@@H]5CC[C@@]43C)[C@@H]2C1
REMARK SMILES IDX 1 1 2 2 4 3 5 4 6 5 8 6 9 7 10 8 12 9 13 10 14 11 15 12
REMARK SMILES IDX 28 13 27 14 26 15 25 16 16 17 18 18 19 19 20 20 22 21 23 22
REMARK SMILES IDX 24 23 17 24 29 25 30 26 31 27 11 28 7 29 3 30 21 31
REMARK H PARENT 21 32
REMARK Flexibility Score: inf
ROOT
ATOM      1  C   UNL     1      40.683   1.947 113.620  1.00  0.00     0.011 C 
ATOM      2  C   UNL     1      39.816   1.309 114.740  1.00  0.00    -0.035 C 
ATOM      3  C   UNL     1      39.098   0.056 114.174  1.00  0.00     0.007 C 
ATOM      4  C   UNL     1      37.861  -0.308 115.000  1.00  0.00     0.008 C 
ATOM      5  C   UNL     1      36.725   0.768 114.900  1.00  0.00    -0.026 C 
ATOM      6  C   UNL     1      35.907   0.460 113.604  1.00  0.00     0.008 C 
ATOM      7  C   UNL     1      34.879   1.544 113.238  1.00  0.00     0.012 C 
ATOM      8  C   UNL     1      35.432   3.031 113.228  1.00  0.00    -0.006 C 
ATOM      9  C   UNL     1      36.916   2.961 113.578  1.00  0.00    -0.064 C 
ATOM     10  C   UNL     1      37.823   3.395 112.699  1.00  0.00    -0.027 C 
ATOM     11  C   UNL     1      37.610   3.281 111.229  1.00  0.00     0.032 C 
ATOM     12  C   UNL     1      36.124   3.218 110.701  1.00  0.00     0.006 C 
ATOM     13  C   UNL     1      35.162   3.782 111.834  1.00  0.00    -0.020 C 
ATOM     14  C   UNL     1      35.465   5.336 111.943  1.00  0.00     0.008 C 
ATOM     15  C   UNL     1      35.878   6.055 110.627  1.00  0.00     0.005 C 
ATOM     16  C   UNL     1      35.321   5.328 109.392  1.00  0.00     0.003 C 
ATOM     17  C   UNL     1      35.962   3.904 109.234  1.00  0.00    -0.025 C 
ATOM     18  C   UNL     1      35.013   3.098 108.287  1.00  0.00     0.010 C 
ATOM     19  C   UNL     1      34.712   3.823 106.947  1.00  0.00     0.033 C 
ATOM     20  C   UNL     1      34.215   5.277 107.118  1.00  0.00     0.120 C 
ATOM     21  C   UNL     1      35.093   6.167 108.078  1.00  0.00    -0.006 C 
ATOM     22  C   UNL     1      34.271   7.447 108.402  1.00  0.00     0.014 C 
ATOM     23  C   UNL     1      36.407   6.643 107.411  1.00  0.00     0.014 C 
ATOM     24  C   UNL     1      37.352   3.916 108.505  1.00  0.00     0.012 C 
ATOM     25  C   UNL     1      33.635   3.558 111.496  1.00  0.00     0.012 C 
ATOM     26  C   UNL     1      37.308   2.248 114.876  1.00  0.00     0.022 C 
ATOM     27  C   UNL     1      38.789   2.338 115.341  1.00  0.00     0.015 C 
ATOM     28  C   UNL     1      34.735   3.851 114.366  1.00  0.00     0.017 C 
ATOM     29  C   UNL     1      35.791   0.581 116.132  1.00  0.00     0.012 C 
ATOM     30  C   UNL     1      40.790   0.893 115.875  1.00  0.00     0.011 C 
ENDROOT
BRANCH  20  31
ATOM     31  O   UNL     1      34.027   5.887 105.866  1.00  0.00    -0.393 OA
ATOM     32  H   UNL     1      33.611   5.224 105.257  1.00  0.00     0.210 HD
ENDBRANCH  20  31
TORSDOF 1
ENDMDL
MODEL 3
REMARK VINA RESULT:    -6.021      2.723      7.729
REMARK INTER + INTRA:          -6.198
REMARK INTER:                  -6.198
REMARK INTRA:                   0.000
REMARK UNBOUND:                 0.000
REMARK SMILES CC1(C)CC[C@]2(C)CC[C@@]3(C)C(=CC[C@@H]4[C@@]5(C)CC[C@H](O)C(C)(C)[C@@H]5CC[C@@]43C)[C@@H]2C1
REMARK SMILES IDX 1 1 2 2 4 3 5 4 6 5 8 6 9 7 10 8 12 9 13 10 14 11 15 12
REMARK SMILES IDX 28 13 27 14 26 15 25 16 16 17 18 18 19 19 20 20 22 21 23 22
REMARK SMILES IDX 24 23 17 24 29 25 30 26 31 27 11 28 7 29 3 30 21 31
REMARK H PARENT 21 32
REMARK Flexibility Score: inf
ROOT
ATOM      1  C   UNL     1      42.956  12.825 110.318  1.00  0.00     0.011 C 
ATOM      2  C   UNL     1      42.482  14.184 110.904  1.00  0.00    -0.035 C 
ATOM      3  C   UNL     1      41.876  13.945 112.311  1.00  0.00     0.007 C 
ATOM      4  C   UNL     1      40.935  15.082 112.721  1.00  0.00     0.008 C 
ATOM      5  C   UNL     1      39.642  15.151 111.837  1.00  0.00    -0.026 C 
ATOM      6  C   UNL     1      38.616  14.134 112.435  1.00  0.00     0.008 C 
ATOM      7  C   UNL     1      37.366  13.919 111.565  1.00  0.00     0.012 C 
ATOM      8  C   UNL     1      37.647  13.618 110.033  1.00  0.00    -0.006 C 
ATOM      9  C   UNL     1      39.161  13.599 109.847  1.00  0.00    -0.064 C 
ATOM     10  C   UNL     1      39.761  12.485 109.422  1.00  0.00    -0.027 C 
ATOM     11  C   UNL     1      39.244  11.132 109.771  1.00  0.00     0.032 C 
ATOM     12  C   UNL     1      37.710  10.993 110.111  1.00  0.00     0.006 C 
ATOM     13  C   UNL     1      36.947  12.262 109.531  1.00  0.00    -0.020 C 
ATOM     14  C   UNL     1      37.004  12.129 107.950  1.00  0.00     0.008 C 
ATOM     15  C   UNL     1      36.984  10.684 107.375  1.00  0.00     0.005 C 
ATOM     16  C   UNL     1      36.291   9.707 108.338  1.00  0.00     0.003 C 
ATOM     17  C   UNL     1      37.109   9.547 109.669  1.00  0.00    -0.025 C 
ATOM     18  C   UNL     1      36.119   8.951 110.723  1.00  0.00     0.010 C 
ATOM     19  C   UNL     1      35.407   7.656 110.243  1.00  0.00     0.033 C 
ATOM     20  C   UNL     1      34.726   7.790 108.862  1.00  0.00     0.120 C 
ATOM     21  C   UNL     1      35.637   8.407 107.733  1.00  0.00    -0.006 C 
ATOM     22  C   UNL     1      34.707   8.787 106.545  1.00  0.00     0.014 C 
ATOM     23  C   UNL     1      36.668   7.394 107.180  1.00  0.00     0.014 C 
ATOM     24  C   UNL     1      38.277   8.503 109.570  1.00  0.00     0.012 C 
ATOM     25  C   UNL     1      35.443  12.333 110.008  1.00  0.00     0.012 C 
ATOM     26  C   UNL     1      39.949  14.830 110.309  1.00  0.00     0.022 C 
ATOM     27  C   UNL     1      41.460  14.906 109.952  1.00  0.00     0.015 C 
ATOM     28  C   UNL     1      37.096  14.799 109.163  1.00  0.00     0.017 C 
ATOM     29  C   UNL     1      39.054  16.587 111.974  1.00  0.00     0.012 C 
ATOM     30  C   UNL     1      43.742  15.083 111.018  1.00  0.00     0.011 C 
ENDROOT
BRANCH  20  31
ATOM     31  O   UNL     1      34.161   6.565 108.467  1.00  0.00    -0.393 OA
ATOM     32  H   UNL     1      34.896   5.965 108.177  1.00  0.00     0.210 HD
ENDBRANCH  20  31
TORSDOF 1
ENDMDL
MODEL 4
REMARK VINA RESULT:    -5.874      1.561      2.138
REMARK INTER + INTRA:          -6.045
REMARK INTER:                  -6.045
REMARK INTRA:                   0.000
REMARK UNBOUND:                 0.000
REMARK SMILES CC1(C)CC[C@]2(C)CC[C@@]3(C)C(=CC[C@@H]4[C@@]5(C)CC[C@H](O)C(C)(C)[C@@H]5CC[C@@]43C)[C@@H]2C1
REMARK SMILES IDX 1 1 2 2 4 3 5 4 6 5 8 6 9 7 10 8 12 9 13 10 14 11 15 12
REMARK SMILES IDX 28 13 27 14 26 15 25 16 16 17 18 18 19 19 20 20 22 21 23 22
REMARK SMILES IDX 24 23 17 24 29 25 30 26 31 27 11 28 7 29 3 30 21 31
REMARK H PARENT 21 32
REMARK Flexibility Score: inf
ROOT
ATOM      1  C   UNL     1      38.133   6.878 108.594  1.00  0.00     0.011 C 
ATOM      2  C   UNL     1      37.848   7.244 107.110  1.00  0.00    -0.035 C 
ATOM      3  C   UNL     1      39.191   7.545 106.396  1.00  0.00     0.007 C 
ATOM      4  C   UNL     1      38.984   8.401 105.143  1.00  0.00     0.008 C 
ATOM      5  C   UNL     1      38.479   9.848 105.470  1.00  0.00    -0.026 C 
ATOM      6  C   UNL     1      39.736  10.713 105.810  1.00  0.00     0.008 C 
ATOM      7  C   UNL     1      39.406  12.111 106.360  1.00  0.00     0.012 C 
ATOM      8  C   UNL     1      38.349  12.145 107.542  1.00  0.00    -0.006 C 
ATOM      9  C   UNL     1      37.955  10.701 107.835  1.00  0.00    -0.064 C 
ATOM     10  C   UNL     1      38.194  10.183 109.042  1.00  0.00    -0.027 C 
ATOM     11  C   UNL     1      39.374  10.595 109.855  1.00  0.00     0.032 C 
ATOM     12  C   UNL     1      39.988  12.024 109.592  1.00  0.00     0.006 C 
ATOM     13  C   UNL     1      38.901  12.910 108.843  1.00  0.00    -0.020 C 
ATOM     14  C   UNL     1      37.742  13.177 109.895  1.00  0.00     0.008 C 
ATOM     15  C   UNL     1      38.173  13.291 111.385  1.00  0.00     0.005 C 
ATOM     16  C   UNL     1      39.634  13.755 111.513  1.00  0.00     0.003 C 
ATOM     17  C   UNL     1      40.623  12.679 110.939  1.00  0.00    -0.025 C 
ATOM     18  C   UNL     1      41.974  13.422 110.676  1.00  0.00     0.010 C 
ATOM     19  C   UNL     1      42.508  14.196 111.913  1.00  0.00     0.033 C 
ATOM     20  C   UNL     1      41.471  15.148 112.552  1.00  0.00     0.120 C 
ATOM     21  C   UNL     1      40.063  14.498 112.834  1.00  0.00    -0.006 C 
ATOM     22  C   UNL     1      39.071  15.658 113.135  1.00  0.00     0.014 C 
ATOM     23  C   UNL     1      40.068  13.585 114.085  1.00  0.00     0.014 C 
ATOM     24  C   UNL     1      40.975  11.539 111.959  1.00  0.00     0.012 C 
ATOM     25  C   UNL     1      39.489  14.286 108.335  1.00  0.00     0.012 C 
ATOM     26  C   UNL     1      37.433   9.856 106.669  1.00  0.00     0.022 C 
ATOM     27  C   UNL     1      36.848   8.451 106.989  1.00  0.00     0.015 C 
ATOM     28  C   UNL     1      37.054  12.881 107.058  1.00  0.00     0.017 C 
ATOM     29  C   UNL     1      37.818  10.419 104.180  1.00  0.00     0.012 C 
ATOM     30  C   UNL     1      37.175   6.002 106.467  1.00  0.00     0.011 C 
ENDROOT
BRANCH  20  31
ATOM     31  O   UNL     1      42.003  15.761 113.700  1.00  0.00    -0.393 OA
ATOM     32  H   UNL     1      41.993  15.099 114.438  1.00  0.00     0.210 HD
ENDBRANCH  20  31
TORSDOF 1
ENDMDL
MODEL 5
REMARK VINA RESULT:    -5.858      2.945      7.339
REMARK INTER + INTRA:          -6.029
REMARK INTER:                  -6.029
REMARK INTRA:                   0.000
REMARK UNBOUND:                 0.000
REMARK SMILES CC1(C)CC[C@]2(C)CC[C@@]3(C)C(=CC[C@@H]4[C@@]5(C)CC[C@H](O)C(C)(C)[C@@H]5CC[C@@]43C)[C@@H]2C1
REMARK SMILES IDX 1 1 2 2 4 3 5 4 6 5 8 6 9 7 10 8 12 9 13 10 14 11 15 12
REMARK SMILES IDX 28 13 27 14 26 15 25 16 16 17 18 18 19 19 20 20 22 21 23 22
REMARK SMILES IDX 24 23 17 24 29 25 30 26 31 27 11 28 7 29 3 30 21 31
REMARK H PARENT 21 32
REMARK Flexibility Score: inf
ROOT
ATOM      1  C   UNL     1      41.182   9.363 112.960  1.00  0.00     0.011 C 
ATOM      2  C   UNL     1      42.069  10.629 113.121  1.00  0.00    -0.035 C 
ATOM      3  C   UNL     1      41.243  11.741 113.820  1.00  0.00     0.007 C 
ATOM      4  C   UNL     1      41.823  13.132 113.547  1.00  0.00     0.008 C 
ATOM      5  C   UNL     1      41.699  13.557 112.042  1.00  0.00    -0.026 C 
ATOM      6  C   UNL     1      40.268  14.153 111.845  1.00  0.00     0.008 C 
ATOM      7  C   UNL     1      39.901  14.431 110.378  1.00  0.00     0.012 C 
ATOM      8  C   UNL     1      40.168  13.235 109.371  1.00  0.00    -0.006 C 
ATOM      9  C   UNL     1      40.720  12.072 110.190  1.00  0.00    -0.064 C 
ATOM     10  C   UNL     1      40.049  10.918 110.235  1.00  0.00    -0.027 C 
ATOM     11  C   UNL     1      38.561  10.871 110.167  1.00  0.00     0.032 C 
ATOM     12  C   UNL     1      37.817  12.065 109.454  1.00  0.00     0.006 C 
ATOM     13  C   UNL     1      38.860  12.830 108.530  1.00  0.00    -0.020 C 
ATOM     14  C   UNL     1      39.217  11.836 107.344  1.00  0.00     0.008 C 
ATOM     15  C   UNL     1      38.082  10.880 106.877  1.00  0.00     0.005 C 
ATOM     16  C   UNL     1      36.694  11.470 107.175  1.00  0.00     0.003 C 
ATOM     17  C   UNL     1      36.446  11.587 108.720  1.00  0.00    -0.025 C 
ATOM     18  C   UNL     1      35.271  12.604 108.901  1.00  0.00     0.010 C 
ATOM     19  C   UNL     1      34.009  12.248 108.069  1.00  0.00     0.033 C 
ATOM     20  C   UNL     1      34.295  11.998 106.571  1.00  0.00     0.120 C 
ATOM     21  C   UNL     1      35.482  11.002 106.282  1.00  0.00    -0.006 C 
ATOM     22  C   UNL     1      35.848  11.143 104.777  1.00  0.00     0.014 C 
ATOM     23  C   UNL     1      35.085   9.522 106.504  1.00  0.00     0.014 C 
ATOM     24  C   UNL     1      35.937  10.255 109.379  1.00  0.00     0.012 C 
ATOM     25  C   UNL     1      38.275  14.175 107.942  1.00  0.00     0.012 C 
ATOM     26  C   UNL     1      41.956  12.335 111.056  1.00  0.00     0.022 C 
ATOM     27  C   UNL     1      42.642  11.120 111.741  1.00  0.00     0.015 C 
ATOM     28  C   UNL     1      41.289  13.650 108.358  1.00  0.00     0.017 C 
ATOM     29  C   UNL     1      42.745  14.682 111.785  1.00  0.00     0.012 C 
ATOM     30  C   UNL     1      43.269  10.221 114.016  1.00  0.00     0.011 C 
ENDROOT
BRANCH  20  31
ATOM     31  O   UNL     1      33.120  11.619 105.899  1.00  0.00    -0.393 OA
ATOM     32  H   UNL     1      33.097  12.088 105.025  1.00  0.00     0.210 HD
ENDBRANCH  20  31
TORSDOF 1
ENDMDL
MODEL 6
REMARK VINA RESULT:    -5.856      3.233      7.883
REMARK INTER + INTRA:          -6.028
REMARK INTER:                  -6.028
REMARK INTRA:                   0.000
REMARK UNBOUND:                 0.000
REMARK SMILES CC1(C)CC[C@]2(C)CC[C@@]3(C)C(=CC[C@@H]4[C@@]5(C)CC[C@H](O)C(C)(C)[C@@H]5CC[C@@]43C)[C@@H]2C1
REMARK SMILES IDX 1 1 2 2 4 3 5 4 6 5 8 6 9 7 10 8 12 9 13 10 14 11 15 12
REMARK SMILES IDX 28 13 27 14 26 15 25 16 16 17 18 18 19 19 20 20 22 21 23 22
REMARK SMILES IDX 24 23 17 24 29 25 30 26 31 27 11 28 7 29 3 30 21 31
REMARK H PARENT 21 32
REMARK Flexibility Score: inf
ROOT
ATOM      1  C   UNL     1      40.117  11.695 111.870  1.00  0.00     0.011 C 
ATOM      2  C   UNL     1      39.637  13.023 111.220  1.00  0.00    -0.035 C 
ATOM      3  C   UNL     1      38.127  13.214 111.514  1.00  0.00     0.007 C 
ATOM      4  C   UNL     1      37.471  14.166 110.509  1.00  0.00     0.008 C 
ATOM      5  C   UNL     1      37.430  13.580 109.055  1.00  0.00    -0.026 C 
ATOM      6  C   UNL     1      36.166  12.666 108.960  1.00  0.00     0.008 C 
ATOM      7  C   UNL     1      36.083  11.843 107.663  1.00  0.00     0.012 C 
ATOM      8  C   UNL     1      37.399  11.046 107.277  1.00  0.00    -0.006 C 
ATOM      9  C   UNL     1      38.424  11.312 108.375  1.00  0.00    -0.064 C 
ATOM     10  C   UNL     1      38.898  10.295 109.098  1.00  0.00    -0.027 C 
ATOM     11  C   UNL     1      38.063   9.103 109.419  1.00  0.00     0.032 C 
ATOM     12  C   UNL     1      36.873   8.751 108.444  1.00  0.00     0.006 C 
ATOM     13  C   UNL     1      37.129   9.478 107.054  1.00  0.00    -0.020 C 
ATOM     14  C   UNL     1      38.385   8.759 106.401  1.00  0.00     0.008 C 
ATOM     15  C   UNL     1      38.552   7.244 106.707  1.00  0.00     0.005 C 
ATOM     16  C   UNL     1      37.201   6.584 107.028  1.00  0.00     0.003 C 
ATOM     17  C   UNL     1      36.596   7.150 108.362  1.00  0.00    -0.025 C 
ATOM     18  C   UNL     1      35.073   6.796 108.338  1.00  0.00     0.010 C 
ATOM     19  C   UNL     1      34.790   5.289 108.089  1.00  0.00     0.033 C 
ATOM     20  C   UNL     1      35.509   4.713 106.848  1.00  0.00     0.120 C 
ATOM     21  C   UNL     1      37.050   5.038 106.767  1.00  0.00    -0.006 C 
ATOM     22  C   UNL     1      37.518   4.697 105.323  1.00  0.00     0.014 C 
ATOM     23  C   UNL     1      37.895   4.161 107.724  1.00  0.00     0.014 C 
ATOM     24  C   UNL     1      37.157   6.456 109.653  1.00  0.00     0.012 C 
ATOM     25  C   UNL     1      35.889   9.374 106.080  1.00  0.00     0.012 C 
ATOM     26  C   UNL     1      38.754  12.772 108.701  1.00  0.00     0.022 C 
ATOM     27  C   UNL     1      39.931  13.056 109.675  1.00  0.00     0.015 C 
ATOM     28  C   UNL     1      37.990  11.632 105.950  1.00  0.00     0.017 C 
ATOM     29  C   UNL     1      37.253  14.776 108.073  1.00  0.00     0.012 C 
ATOM     30  C   UNL     1      40.453  14.163 111.885  1.00  0.00     0.011 C 
ENDROOT
BRANCH  20  31
ATOM     31  O   UNL     1      35.259   3.335 106.725  1.00  0.00    -0.393 OA
ATOM     32  H   UNL     1      35.367   2.920 107.619  1.00  0.00     0.210 HD
ENDBRANCH  20  31
TORSDOF 1
ENDMDL
MODEL 7
REMARK VINA RESULT:    -5.709      2.894      7.625
REMARK INTER + INTRA:          -5.876
REMARK INTER:                  -5.876
REMARK INTRA:                   0.000
REMARK UNBOUND:                 0.000
REMARK SMILES CC1(C)CC[C@]2(C)CC[C@@]3(C)C(=CC[C@@H]4[C@@]5(C)CC[C@H](O)C(C)(C)[C@@H]5CC[C@@]43C)[C@@H]2C1
REMARK SMILES IDX 1 1 2 2 4 3 5 4 6 5 8 6 9 7 10 8 12 9 13 10 14 11 15 12
REMARK SMILES IDX 28 13 27 14 26 15 25 16 16 17 18 18 19 19 20 20 22 21 23 22
REMARK SMILES IDX 24 23 17 24 29 25 30 26 31 27 11 28 7 29 3 30 21 31
REMARK H PARENT 21 32
REMARK Flexibility Score: inf
ROOT
ATOM      1  C   UNL     1      41.722  11.968 113.054  1.00  0.00     0.011 C 
ATOM      2  C   UNL     1      41.257  13.407 112.696  1.00  0.00    -0.035 C 
ATOM      3  C   UNL     1      39.901  13.690 113.391  1.00  0.00     0.007 C 
ATOM      4  C   UNL     1      39.135  14.820 112.698  1.00  0.00     0.008 C 
ATOM      5  C   UNL     1      38.665  14.439 111.252  1.00  0.00    -0.026 C 
ATOM      6  C   UNL     1      37.317  13.660 111.392  1.00  0.00     0.008 C 
ATOM      7  C   UNL     1      36.818  13.027 110.082  1.00  0.00     0.012 C 
ATOM      8  C   UNL     1      37.893  12.175 109.285  1.00  0.00    -0.006 C 
ATOM      9  C   UNL     1      39.183  12.202 110.100  1.00  0.00    -0.064 C 
ATOM     10  C   UNL     1      39.696  11.060 110.564  1.00  0.00    -0.027 C 
ATOM     11  C   UNL     1      38.831   9.914 110.963  1.00  0.00     0.032 C 
ATOM     12  C   UNL     1      37.403   9.802 110.300  1.00  0.00     0.006 C 
ATOM     13  C   UNL     1      37.392  10.681 108.975  1.00  0.00    -0.020 C 
ATOM     14  C   UNL     1      38.352   9.947 107.946  1.00  0.00     0.008 C 
ATOM     15  C   UNL     1      38.408   8.395 108.036  1.00  0.00     0.005 C 
ATOM     16  C   UNL     1      37.110   7.821 108.627  1.00  0.00     0.003 C 
ATOM     17  C   UNL     1      36.926   8.256 110.124  1.00  0.00    -0.025 C 
ATOM     18  C   UNL     1      35.413   8.044 110.460  1.00  0.00     0.010 C 
ATOM     19  C   UNL     1      34.900   6.614 110.136  1.00  0.00     0.033 C 
ATOM     20  C   UNL     1      35.216   6.146 108.696  1.00  0.00     0.120 C 
ATOM     21  C   UNL     1      36.715   6.342 108.252  1.00  0.00    -0.006 C 
ATOM     22  C   UNL     1      36.768   6.155 106.709  1.00  0.00     0.014 C 
ATOM     23  C   UNL     1      37.661   5.275 108.858  1.00  0.00     0.014 C 
ATOM     24  C   UNL     1      37.702   7.350 111.144  1.00  0.00     0.012 C 
ATOM     25  C   UNL     1      35.946  10.816 108.353  1.00  0.00     0.012 C 
ATOM     26  C   UNL     1      39.754  13.572 110.481  1.00  0.00     0.022 C 
ATOM     27  C   UNL     1      41.162  13.619 111.140  1.00  0.00     0.015 C 
ATOM     28  C   UNL     1      38.203  12.877 107.920  1.00  0.00     0.017 C 
ATOM     29  C   UNL     1      38.394  15.765 110.481  1.00  0.00     0.012 C 
ATOM     30  C   UNL     1      42.342  14.373 113.241  1.00  0.00     0.011 C 
ENDROOT
BRANCH  20  31
ATOM     31  O   UNL     1      34.780   4.824 108.499  1.00  0.00    -0.393 OA
ATOM     32  H   UNL     1      35.513   4.318 108.063  1.00  0.00     0.210 HD
ENDBRANCH  20  31
TORSDOF 1
ENDMDL
MODEL 8
REMARK VINA RESULT:    -5.571      3.700      8.426
REMARK INTER + INTRA:          -5.734
REMARK INTER:                  -5.734
REMARK INTRA:                   0.000
REMARK UNBOUND:                 0.000
REMARK SMILES CC1(C)CC[C@]2(C)CC[C@@]3(C)C(=CC[C@@H]4[C@@]5(C)CC[C@H](O)C(C)(C)[C@@H]5CC[C@@]43C)[C@@H]2C1
REMARK SMILES IDX 1 1 2 2 4 3 5 4 6 5 8 6 9 7 10 8 12 9 13 10 14 11 15 12
REMARK SMILES IDX 28 13 27 14 26 15 25 16 16 17 18 18 19 19 20 20 22 21 23 22
REMARK SMILES IDX 24 23 17 24 29 25 30 26 31 27 11 28 7 29 3 30 21 31
REMARK H PARENT 21 32
REMARK Flexibility Score: inf
ROOT
ATOM      1  C   UNL     1      39.619  11.739 104.991  1.00  0.00     0.011 C 
ATOM      2  C   UNL     1      39.554  12.700 106.211  1.00  0.00    -0.035 C 
ATOM      3  C   UNL     1      40.479  12.159 107.332  1.00  0.00     0.007 C 
ATOM      4  C   UNL     1      40.085  12.711 108.705  1.00  0.00     0.008 C 
ATOM      5  C   UNL     1      38.684  12.199 109.188  1.00  0.00    -0.026 C 
ATOM      6  C   UNL     1      38.905  10.802 109.853  1.00  0.00     0.008 C 
ATOM      7  C   UNL     1      37.604  10.058 110.198  1.00  0.00     0.012 C 
ATOM      8  C   UNL     1      36.537   9.974 109.027  1.00  0.00    -0.006 C 
ATOM      9  C   UNL     1      37.146  10.670 107.813  1.00  0.00    -0.064 C 
ATOM     10  C   UNL     1      37.350   9.978 106.689  1.00  0.00    -0.027 C 
ATOM     11  C   UNL     1      37.697   8.529 106.710  1.00  0.00     0.032 C 
ATOM     12  C   UNL     1      37.245   7.680 107.960  1.00  0.00     0.006 C 
ATOM     13  C   UNL     1      36.084   8.466 108.711  1.00  0.00    -0.020 C 
ATOM     14  C   UNL     1      34.825   8.428 107.745  1.00  0.00     0.008 C 
ATOM     15  C   UNL     1      34.671   7.160 106.857  1.00  0.00     0.005 C 
ATOM     16  C   UNL     1      35.356   5.941 107.496  1.00  0.00     0.003 C 
ATOM     17  C   UNL     1      36.911   6.137 107.569  1.00  0.00    -0.025 C 
ATOM     18  C   UNL     1      37.433   5.113 108.630  1.00  0.00     0.010 C 
ATOM     19  C   UNL     1      36.978   3.652 108.359  1.00  0.00     0.033 C 
ATOM     20  C   UNL     1      35.454   3.500 108.150  1.00  0.00     0.120 C 
ATOM     21  C   UNL     1      34.825   4.507 107.113  1.00  0.00    -0.006 C 
ATOM     22  C   UNL     1      33.281   4.449 107.290  1.00  0.00     0.014 C 
ATOM     23  C   UNL     1      35.116   4.111 105.645  1.00  0.00     0.014 C 
ATOM     24  C   UNL     1      37.656   5.762 106.239  1.00  0.00     0.012 C 
ATOM     25  C   UNL     1      35.712   7.811 110.100  1.00  0.00     0.012 C 
ATOM     26  C   UNL     1      37.639  12.109 107.992  1.00  0.00     0.022 C 
ATOM     27  C   UNL     1      38.080  12.893 106.724  1.00  0.00     0.015 C 
ATOM     28  C   UNL     1      35.262  10.791 109.428  1.00  0.00     0.017 C 
ATOM     29  C   UNL     1      38.171  13.190 110.274  1.00  0.00     0.012 C 
ATOM     30  C   UNL     1      40.071  14.078 105.719  1.00  0.00     0.011 C 
ENDROOT
BRANCH  20  31
ATOM     31  O   UNL     1      35.127   2.166 107.847  1.00  0.00    -0.393 OA
ATOM     32  H   UNL     1      35.795   1.823 107.200  1.00  0.00     0.210 HD
ENDBRANCH  20  31
TORSDOF 1
ENDMDL
MODEL 9
REMARK VINA RESULT:    -5.372      3.066      7.785
REMARK INTER + INTRA:          -5.529
REMARK INTER:                  -5.529
REMARK INTRA:                   0.000
REMARK UNBOUND:                 0.000
REMARK SMILES CC1(C)CC[C@]2(C)CC[C@@]3(C)C(=CC[C@@H]4[C@@]5(C)CC[C@H](O)C(C)(C)[C@@H]5CC[C@@]43C)[C@@H]2C1
REMARK SMILES IDX 1 1 2 2 4 3 5 4 6 5 8 6 9 7 10 8 12 9 13 10 14 11 15 12
REMARK SMILES IDX 28 13 27 14 26 15 25 16 16 17 18 18 19 19 20 20 22 21 23 22
REMARK SMILES IDX 24 23 17 24 29 25 30 26 31 27 11 28 7 29 3 30 21 31
REMARK H PARENT 21 32
REMARK Flexibility Score: inf
ROOT
ATOM      1  C   UNL     1      41.148  12.876 111.803  1.00  0.00     0.011 C 
ATOM      2  C   UNL     1      41.594  13.880 110.704  1.00  0.00    -0.035 C 
ATOM      3  C   UNL     1      40.454  14.903 110.460  1.00  0.00     0.007 C 
ATOM      4  C   UNL     1      40.574  15.566 109.085  1.00  0.00     0.008 C 
ATOM      5  C   UNL     1      40.344  14.561 107.903  1.00  0.00    -0.026 C 
ATOM      6  C   UNL     1      38.801  14.456 107.677  1.00  0.00     0.008 C 
ATOM      7  C   UNL     1      38.384  13.353 106.691  1.00  0.00     0.012 C 
ATOM      8  C   UNL     1      39.024  11.925 106.956  1.00  0.00    -0.006 C 
ATOM      9  C   UNL     1      39.900  12.049 108.200  1.00  0.00    -0.064 C 
ATOM     10  C   UNL     1      39.622  11.316 109.280  1.00  0.00    -0.027 C 
ATOM     11  C   UNL     1      38.224  10.947 109.641  1.00  0.00     0.032 C 
ATOM     12  C   UNL     1      37.153  10.889 108.483  1.00  0.00     0.006 C 
ATOM     13  C   UNL     1      37.918  10.768 107.094  1.00  0.00    -0.020 C 
ATOM     14  C   UNL     1      38.582   9.326 107.077  1.00  0.00     0.008 C 
ATOM     15  C   UNL     1      37.808   8.198 107.817  1.00  0.00     0.005 C 
ATOM     16  C   UNL     1      36.301   8.498 107.877  1.00  0.00     0.003 C 
ATOM     17  C   UNL     1      36.009   9.765 108.757  1.00  0.00    -0.025 C 
ATOM     18  C   UNL     1      34.574  10.250 108.366  1.00  0.00     0.010 C 
ATOM     19  C   UNL     1      33.496   9.136 108.461  1.00  0.00     0.033 C 
ATOM     20  C   UNL     1      33.865   7.839 107.703  1.00  0.00     0.120 C 
ATOM     21  C   UNL     1      35.307   7.282 108.011  1.00  0.00    -0.006 C 
ATOM     22  C   UNL     1      35.630   6.213 106.928  1.00  0.00     0.014 C 
ATOM     23  C   UNL     1      35.389   6.563 109.380  1.00  0.00     0.014 C 
ATOM     24  C   UNL     1      35.933   9.461 110.295  1.00  0.00     0.012 C 
ATOM     25  C   UNL     1      36.951  10.926 105.856  1.00  0.00     0.012 C 
ATOM     26  C   UNL     1      40.981  13.134 108.202  1.00  0.00     0.022 C 
ATOM     27  C   UNL     1      42.003  13.146 109.374  1.00  0.00     0.015 C 
ATOM     28  C   UNL     1      39.973  11.553 105.767  1.00  0.00     0.017 C 
ATOM     29  C   UNL     1      40.990  15.180 106.628  1.00  0.00     0.012 C 
ATOM     30  C   UNL     1      42.850  14.609 111.250  1.00  0.00     0.011 C 
ENDROOT
BRANCH  20  31
ATOM     31  O   UNL     1      32.876   6.859 107.888  1.00  0.00    -0.393 OA
ATOM     32  H   UNL     1      32.011   7.227 107.572  1.00  0.00     0.210 HD
ENDBRANCH  20  31
TORSDOF 1
ENDMDL
