MODEL 1
REMARK VINA RESULT:    -4.551      0.000      0.000
REMARK INTER + INTRA:          -5.014
REMARK INTER:                  -4.950
REMARK INTRA:                  -0.064
REMARK UNBOUND:                -0.064
REMARK SMILES CC1(C)CC[C@@]2(C(=O)[O-])CC[C@@]3(C)C(=CC[C@@H]4[C@@]5(C)CC[C@@H](O)C(C)(C)[C@H]5CC[C@@]43C)[C@H]2C1
REMARK SMILES IDX 6 1 5 2 10 3 32 4 4 5 11 6 14 7 33 8 2 9 12 10 15 11 1 12
REMARK SMILES IDX 3 13 13 14 30 15 16 16 17 17 29 18 31 19 18 20 28 21 27 22
REMARK SMILES IDX 20 23 19 24 24 25 21 26 22 27 25 28 26 29 7 30 8 31 9 32
REMARK SMILES IDX 23 33
REMARK H PARENT 23 34
REMARK Flexibility Score: inf
ROOT
ATOM      1  C   UNL     1     -96.372  25.900 -27.743  1.00  0.00     0.017 C 
ATOM      2  C   UNL     1     -95.243  26.178 -28.780  1.00  0.00     0.014 C 
ATOM      3  C   UNL     1     -97.322  27.147 -27.703  1.00  0.00     0.014 C 
ATOM      4  C   UNL     1     -97.125  24.566 -28.134  1.00  0.00     0.028 C 
ATOM      5  C   UNL     1     -94.245  25.020 -28.915  1.00  0.00     0.007 C 
ATOM      6  C   UNL     1     -98.806  26.795 -27.838  1.00  0.00     0.013 C 
ATOM      7  C   UNL     1     -98.218  24.760 -29.211  1.00  0.00    -0.064 C 
ATOM      8  C   UNL     1     -96.110  23.396 -28.341  1.00  0.00     0.015 C 
ATOM      9  C   UNL     1     -94.925  23.689 -29.307  1.00  0.00    -0.035 C 
ATOM     10  C   UNL     1     -99.152  25.972 -29.133  1.00  0.00    -0.006 C 
ATOM     11  C   UNL     1     -98.532  23.789 -30.096  1.00  0.00    -0.027 C 
ATOM     12  C   UNL     1     -95.372  23.725 -30.785  1.00  0.00     0.011 C 
ATOM     13  C   UNL     1     -93.888  22.551 -29.166  1.00  0.00     0.011 C 
ATOM     14  C   UNL     1     -98.788  26.894 -30.344  1.00  0.00     0.017 C 
ATOM     15  C   UNL     1    -100.715  25.481 -29.133  1.00  0.00    -0.020 C 
ATOM     16  C   UNL     1     -99.773  23.855 -30.943  1.00  0.00     0.032 C 
ATOM     17  C   UNL     1    -101.002  24.201 -30.061  1.00  0.00     0.006 C 
ATOM     18  C   UNL     1    -101.661  26.654 -29.524  1.00  0.00     0.008 C 
ATOM     19  C   UNL     1    -101.107  25.053 -27.682  1.00  0.00     0.012 C 
ATOM     20  C   UNL     1    -102.432  24.139 -30.821  1.00  0.00    -0.025 C 
ATOM     21  C   UNL     1    -101.998  26.708 -31.015  1.00  0.00     0.005 C 
ATOM     22  C   UNL     1    -102.834  25.504 -31.532  1.00  0.00     0.003 C 
ATOM     23  C   UNL     1    -103.564  23.646 -29.832  1.00  0.00     0.010 C 
ATOM     24  C   UNL     1    -102.341  23.024 -31.918  1.00  0.00     0.012 C 
ATOM     25  C   UNL     1    -104.398  25.781 -31.627  1.00  0.00    -0.006 C 
ATOM     26  C   UNL     1    -104.524  24.698 -29.244  1.00  0.00     0.033 C 
ATOM     27  C   UNL     1    -105.065  25.781 -30.216  1.00  0.00     0.120 C 
ATOM     28  C   UNL     1    -105.101  24.708 -32.512  1.00  0.00     0.014 C 
ATOM     29  C   UNL     1    -104.696  27.127 -32.363  1.00  0.00     0.014 C 
ENDROOT
BRANCH   1  30
ATOM     30  C   UNL     1     -95.756  25.765 -26.350  1.00  0.00     0.048 C 
ATOM     31  O   UNL     1     -96.368  25.157 -25.431  1.00  0.00    -0.550 OA
ATOM     32  O   UNL     1     -94.567  26.417 -26.037  1.00  0.00    -0.550 OA
ENDBRANCH   1  30
BRANCH  27  33
ATOM     33  O   UNL     1    -104.941  27.044 -29.608  1.00  0.00    -0.393 OA
ATOM     34  H   UNL     1    -104.233  26.967 -28.915  1.00  0.00     0.210 HD
ENDBRANCH  27  33
TORSDOF 2
ENDMDL
MODEL 2
REMARK VINA RESULT:    -4.474      5.616      7.555
REMARK INTER + INTRA:          -4.930
REMARK INTER:                  -4.846
REMARK INTRA:                  -0.084
REMARK UNBOUND:                -0.064
REMARK SMILES CC1(C)CC[C@@]2(C(=O)[O-])CC[C@@]3(C)C(=CC[C@@H]4[C@@]5(C)CC[C@@H](O)C(C)(C)[C@H]5CC[C@@]43C)[C@H]2C1
REMARK SMILES IDX 6 1 5 2 10 3 32 4 4 5 11 6 14 7 33 8 2 9 12 10 15 11 1 12
REMARK SMILES IDX 3 13 13 14 30 15 16 16 17 17 29 18 31 19 18 20 28 21 27 22
REMARK SMILES IDX 20 23 19 24 24 25 21 26 22 27 25 28 26 29 7 30 8 31 9 32
REMARK SMILES IDX 23 33
REMARK H PARENT 23 34
REMARK Flexibility Score: inf
ROOT
ATOM      1  C   UNL     1     -95.972  25.200 -30.477  1.00  0.00     0.017 C 
ATOM      2  C   UNL     1     -96.169  23.747 -29.949  1.00  0.00     0.014 C 
ATOM      3  C   UNL     1     -94.675  25.233 -31.357  1.00  0.00     0.014 C 
ATOM      4  C   UNL     1     -97.265  25.649 -31.269  1.00  0.00     0.028 C 
ATOM      5  C   UNL     1     -97.418  23.585 -29.072  1.00  0.00     0.007 C 
ATOM      6  C   UNL     1     -94.877  25.888 -32.727  1.00  0.00     0.013 C 
ATOM      7  C   UNL     1     -97.295  25.164 -32.737  1.00  0.00    -0.064 C 
ATOM      8  C   UNL     1     -98.549  25.423 -30.409  1.00  0.00     0.015 C 
ATOM      9  C   UNL     1     -98.717  23.999 -29.801  1.00  0.00    -0.035 C 
ATOM     10  C   UNL     1     -96.020  25.233 -33.585  1.00  0.00    -0.006 C 
ATOM     11  C   UNL     1     -98.452  24.887 -33.377  1.00  0.00    -0.027 C 
ATOM     12  C   UNL     1     -99.097  22.949 -30.868  1.00  0.00     0.011 C 
ATOM     13  C   UNL     1     -99.864  24.042 -28.766  1.00  0.00     0.011 C 
ATOM     14  C   UNL     1     -95.576  23.756 -33.845  1.00  0.00     0.017 C 
ATOM     15  C   UNL     1     -96.301  26.082 -34.958  1.00  0.00    -0.020 C 
ATOM     16  C   UNL     1     -98.513  24.702 -34.867  1.00  0.00     0.032 C 
ATOM     17  C   UNL     1     -97.765  25.861 -35.580  1.00  0.00     0.006 C 
ATOM     18  C   UNL     1     -95.209  25.778 -36.026  1.00  0.00     0.008 C 
ATOM     19  C   UNL     1     -96.200  27.608 -34.635  1.00  0.00     0.012 C 
ATOM     20  C   UNL     1     -97.898  25.873 -37.194  1.00  0.00    -0.025 C 
ATOM     21  C   UNL     1     -95.591  24.664 -37.001  1.00  0.00     0.005 C 
ATOM     22  C   UNL     1     -96.790  25.000 -37.930  1.00  0.00     0.003 C 
ATOM     23  C   UNL     1     -97.918  27.359 -37.737  1.00  0.00     0.010 C 
ATOM     24  C   UNL     1     -99.305  25.290 -37.563  1.00  0.00     0.012 C 
ATOM     25  C   UNL     1     -96.377  25.514 -39.379  1.00  0.00    -0.006 C 
ATOM     26  C   UNL     1     -96.630  27.919 -38.371  1.00  0.00     0.033 C 
ATOM     27  C   UNL     1     -95.855  26.984 -39.337  1.00  0.00     0.120 C 
ATOM     28  C   UNL     1     -97.585  25.441 -40.361  1.00  0.00     0.014 C 
ATOM     29  C   UNL     1     -95.308  24.581 -40.032  1.00  0.00     0.014 C 
ENDROOT
BRANCH   1  30
ATOM     30  C   UNL     1     -95.731  26.139 -29.293  1.00  0.00     0.048 C 
ATOM     31  O   UNL     1     -96.078  27.349 -29.349  1.00  0.00    -0.550 OA
ATOM     32  O   UNL     1     -95.013  25.705 -28.183  1.00  0.00    -0.550 OA
ENDBRANCH   1  30
BRANCH  27  33
ATOM     33  O   UNL     1     -94.488  27.015 -39.004  1.00  0.00    -0.393 OA
ATOM     34  H   UNL     1     -94.202  26.075 -38.851  1.00  0.00     0.210 HD
ENDBRANCH  27  33
TORSDOF 2
ENDMDL
MODEL 3
REMARK VINA RESULT:    -4.437      9.535     11.708
REMARK INTER + INTRA:          -4.890
REMARK INTER:                  -4.811
REMARK INTRA:                  -0.079
REMARK UNBOUND:                -0.064
REMARK SMILES CC1(C)CC[C@@]2(C(=O)[O-])CC[C@@]3(C)C(=CC[C@@H]4[C@@]5(C)CC[C@@H](O)C(C)(C)[C@H]5CC[C@@]43C)[C@H]2C1
REMARK SMILES IDX 6 1 5 2 10 3 32 4 4 5 11 6 14 7 33 8 2 9 12 10 15 11 1 12
REMARK SMILES IDX 3 13 13 14 30 15 16 16 17 17 29 18 31 19 18 20 28 21 27 22
REMARK SMILES IDX 20 23 19 24 24 25 21 26 22 27 25 28 26 29 7 30 8 31 9 32
REMARK SMILES IDX 23 33
REMARK H PARENT 23 34
REMARK Flexibility Score: inf
ROOT
ATOM      1  C   UNL     1     -97.838  25.025 -39.643  1.00  0.00     0.017 C 
ATOM      2  C   UNL     1     -97.792  24.423 -38.206  1.00  0.00     0.014 C 
ATOM      3  C   UNL     1     -98.691  24.072 -40.549  1.00  0.00     0.014 C 
ATOM      4  C   UNL     1     -98.418  26.494 -39.577  1.00  0.00     0.028 C 
ATOM      5  C   UNL     1     -96.983  25.274 -37.218  1.00  0.00     0.007 C 
ATOM      6  C   UNL     1     -99.779  24.795 -41.349  1.00  0.00     0.013 C 
ATOM      7  C   UNL     1     -99.963  26.553 -39.547  1.00  0.00    -0.064 C 
ATOM      8  C   UNL     1     -97.645  27.349 -38.522  1.00  0.00     0.015 C 
ATOM      9  C   UNL     1     -97.514  26.722 -37.103  1.00  0.00    -0.035 C 
ATOM     10  C   UNL     1    -100.774  25.630 -40.464  1.00  0.00    -0.006 C 
ATOM     11  C   UNL     1    -100.632  27.538 -38.909  1.00  0.00    -0.027 C 
ATOM     12  C   UNL     1     -98.849  26.748 -36.327  1.00  0.00     0.011 C 
ATOM     13  C   UNL     1     -96.493  27.553 -36.294  1.00  0.00     0.011 C 
ATOM     14  C   UNL     1    -101.498  24.601 -39.534  1.00  0.00     0.017 C 
ATOM     15  C   UNL     1    -101.802  26.513 -41.385  1.00  0.00    -0.020 C 
ATOM     16  C   UNL     1    -102.102  27.767 -39.118  1.00  0.00     0.032 C 
ATOM     17  C   UNL     1    -102.429  27.787 -40.635  1.00  0.00     0.006 C 
ATOM     18  C   UNL     1    -102.936  25.613 -41.960  1.00  0.00     0.008 C 
ATOM     19  C   UNL     1    -101.016  27.081 -42.611  1.00  0.00     0.012 C 
ATOM     20  C   UNL     1    -103.953  28.192 -41.004  1.00  0.00    -0.025 C 
ATOM     21  C   UNL     1    -104.204  25.594 -41.107  1.00  0.00     0.005 C 
ATOM     22  C   UNL     1    -104.952  26.954 -41.030  1.00  0.00     0.003 C 
ATOM     23  C   UNL     1    -103.998  29.000 -42.364  1.00  0.00     0.010 C 
ATOM     24  C   UNL     1    -104.455  29.204 -39.917  1.00  0.00     0.012 C 
ATOM     25  C   UNL     1    -106.173  27.093 -42.041  1.00  0.00    -0.006 C 
ATOM     26  C   UNL     1    -104.452  28.259 -43.636  1.00  0.00     0.033 C 
ATOM     27  C   UNL     1    -105.681  27.319 -43.504  1.00  0.00     0.120 C 
ATOM     28  C   UNL     1    -107.100  28.278 -41.636  1.00  0.00     0.014 C 
ATOM     29  C   UNL     1    -107.112  25.845 -41.976  1.00  0.00     0.014 C 
ENDROOT
BRANCH   1  30
ATOM     30  C   UNL     1     -96.424  25.047 -40.226  1.00  0.00     0.048 C 
ATOM     31  O   UNL     1     -96.060  25.973 -41.000  1.00  0.00    -0.550 OA
ATOM     32  O   UNL     1     -95.556  23.979 -40.014  1.00  0.00    -0.550 OA
ENDBRANCH   1  30
BRANCH  27  33
ATOM     33  O   UNL     1    -105.386  26.091 -44.125  1.00  0.00    -0.393 OA
ATOM     34  H   UNL     1    -106.191  25.515 -44.029  1.00  0.00     0.210 HD
ENDBRANCH  27  33
TORSDOF 2
ENDMDL
MODEL 4
REMARK VINA RESULT:    -4.410      4.869      7.074
REMARK INTER + INTRA:          -4.860
REMARK INTER:                  -4.800
REMARK INTRA:                  -0.061
REMARK UNBOUND:                -0.064
REMARK SMILES CC1(C)CC[C@@]2(C(=O)[O-])CC[C@@]3(C)C(=CC[C@@H]4[C@@]5(C)CC[C@@H](O)C(C)(C)[C@H]5CC[C@@]43C)[C@H]2C1
REMARK SMILES IDX 6 1 5 2 10 3 32 4 4 5 11 6 14 7 33 8 2 9 12 10 15 11 1 12
REMARK SMILES IDX 3 13 13 14 30 15 16 16 17 17 29 18 31 19 18 20 28 21 27 22
REMARK SMILES IDX 20 23 19 24 24 25 21 26 22 27 25 28 26 29 7 30 8 31 9 32
REMARK SMILES IDX 23 33
REMARK H PARENT 23 34
REMARK Flexibility Score: inf
ROOT
ATOM      1  C   UNL     1     -99.096  24.565 -29.765  1.00  0.00     0.017 C 
ATOM      2  C   UNL     1     -99.194  25.830 -28.861  1.00  0.00     0.014 C 
ATOM      3  C   UNL     1    -100.102  24.731 -30.956  1.00  0.00     0.014 C 
ATOM      4  C   UNL     1     -97.601  24.377 -30.244  1.00  0.00     0.028 C 
ATOM      5  C   UNL     1     -98.248  25.787 -27.654  1.00  0.00     0.007 C 
ATOM      6  C   UNL     1     -99.477  24.470 -32.330  1.00  0.00     0.013 C 
ATOM      7  C   UNL     1     -97.229  25.236 -31.475  1.00  0.00    -0.064 C 
ATOM      8  C   UNL     1     -96.622  24.402 -29.026  1.00  0.00     0.015 C 
ATOM      9  C   UNL     1     -96.767  25.616 -28.063  1.00  0.00    -0.035 C 
ATOM     10  C   UNL     1     -98.219  25.360 -32.639  1.00  0.00    -0.006 C 
ATOM     11  C   UNL     1     -95.977  25.704 -31.671  1.00  0.00    -0.027 C 
ATOM     12  C   UNL     1     -96.223  26.922 -28.684  1.00  0.00     0.011 C 
ATOM     13  C   UNL     1     -95.939  25.331 -26.789  1.00  0.00     0.011 C 
ATOM     14  C   UNL     1     -98.723  26.841 -32.640  1.00  0.00     0.017 C 
ATOM     15  C   UNL     1     -97.497  24.914 -34.042  1.00  0.00    -0.020 C 
ATOM     16  C   UNL     1     -95.540  26.280 -32.988  1.00  0.00     0.032 C 
ATOM     17  C   UNL     1     -95.950  25.333 -34.147  1.00  0.00     0.006 C 
ATOM     18  C   UNL     1     -98.290  25.462 -35.265  1.00  0.00     0.008 C 
ATOM     19  C   UNL     1     -97.527  23.355 -34.149  1.00  0.00     0.012 C 
ATOM     20  C   UNL     1     -95.391  25.754 -35.609  1.00  0.00    -0.025 C 
ATOM     21  C   UNL     1     -97.776  26.805 -35.785  1.00  0.00     0.005 C 
ATOM     22  C   UNL     1     -96.344  26.760 -36.388  1.00  0.00     0.003 C 
ATOM     23  C   UNL     1     -95.078  24.466 -36.473  1.00  0.00     0.010 C 
ATOM     24  C   UNL     1     -94.003  26.451 -35.406  1.00  0.00     0.012 C 
ATOM     25  C   UNL     1     -96.302  26.639 -37.975  1.00  0.00    -0.006 C 
ATOM     26  C   UNL     1     -96.087  24.060 -37.565  1.00  0.00     0.033 C 
ATOM     27  C   UNL     1     -96.667  25.197 -38.448  1.00  0.00     0.120 C 
ATOM     28  C   UNL     1     -94.890  27.003 -38.523  1.00  0.00     0.014 C 
ATOM     29  C   UNL     1     -97.247  27.683 -38.652  1.00  0.00     0.014 C 
ENDROOT
BRANCH   1  30
ATOM     30  C   UNL     1     -99.549  23.339 -28.969  1.00  0.00     0.048 C 
ATOM     31  O   UNL     1     -98.954  22.235 -29.092  1.00  0.00    -0.550 OA
ATOM     32  O   UNL     1    -100.702  23.389 -28.191  1.00  0.00    -0.550 OA
ENDBRANCH   1  30
BRANCH  27  33
ATOM     33  O   UNL     1     -98.063  25.042 -38.535  1.00  0.00    -0.393 OA
ATOM     34  H   UNL     1     -98.473  25.869 -38.166  1.00  0.00     0.210 HD
ENDBRANCH  27  33
TORSDOF 2
ENDMDL
MODEL 5
REMARK VINA RESULT:    -4.390      7.843     12.291
REMARK INTER + INTRA:          -4.838
REMARK INTER:                  -4.757
REMARK INTRA:                  -0.081
REMARK UNBOUND:                -0.064
REMARK SMILES CC1(C)CC[C@@]2(C(=O)[O-])CC[C@@]3(C)C(=CC[C@@H]4[C@@]5(C)CC[C@@H](O)C(C)(C)[C@H]5CC[C@@]43C)[C@H]2C1
REMARK SMILES IDX 6 1 5 2 10 3 32 4 4 5 11 6 14 7 33 8 2 9 12 10 15 11 1 12
REMARK SMILES IDX 3 13 13 14 30 15 16 16 17 17 29 18 31 19 18 20 28 21 27 22
REMARK SMILES IDX 20 23 19 24 24 25 21 26 22 27 25 28 26 29 7 30 8 31 9 32
REMARK SMILES IDX 23 33
REMARK H PARENT 23 34
REMARK Flexibility Score: inf
ROOT
ATOM      1  C   UNL     1    -103.859  25.836 -38.972  1.00  0.00     0.017 C 
ATOM      2  C   UNL     1    -104.310  25.859 -40.464  1.00  0.00     0.014 C 
ATOM      3  C   UNL     1    -103.079  24.501 -38.714  1.00  0.00     0.014 C 
ATOM      4  C   UNL     1    -102.995  27.124 -38.667  1.00  0.00     0.028 C 
ATOM      5  C   UNL     1    -105.087  27.127 -40.843  1.00  0.00     0.007 C 
ATOM      6  C   UNL     1    -101.726  24.703 -38.024  1.00  0.00     0.013 C 
ATOM      7  C   UNL     1    -101.509  26.988 -39.075  1.00  0.00    -0.064 C 
ATOM      8  C   UNL     1    -103.749  28.417 -39.114  1.00  0.00     0.015 C 
ATOM      9  C   UNL     1    -104.284  28.421 -40.576  1.00  0.00    -0.035 C 
ATOM     10  C   UNL     1    -100.760  25.682 -38.786  1.00  0.00    -0.006 C 
ATOM     11  C   UNL     1    -100.776  28.049 -39.477  1.00  0.00    -0.027 C 
ATOM     12  C   UNL     1    -103.149  28.576 -41.612  1.00  0.00     0.011 C 
ATOM     13  C   UNL     1    -105.233  29.628 -40.746  1.00  0.00     0.011 C 
ATOM     14  C   UNL     1    -100.472  25.017 -40.173  1.00  0.00     0.017 C 
ATOM     15  C   UNL     1     -99.407  25.990 -37.915  1.00  0.00    -0.020 C 
ATOM     16  C   UNL     1     -99.279  27.985 -39.592  1.00  0.00     0.032 C 
ATOM     17  C   UNL     1     -98.672  27.364 -38.305  1.00  0.00     0.006 C 
ATOM     18  C   UNL     1     -98.409  24.798 -38.009  1.00  0.00     0.008 C 
ATOM     19  C   UNL     1     -99.800  26.128 -36.408  1.00  0.00     0.012 C 
ATOM     20  C   UNL     1     -97.054  27.390 -38.228  1.00  0.00    -0.025 C 
ATOM     21  C   UNL     1     -97.363  24.952 -39.114  1.00  0.00     0.005 C 
ATOM     22  C   UNL     1     -96.364  26.123 -38.900  1.00  0.00     0.003 C 
ATOM     23  C   UNL     1     -96.573  27.585 -36.734  1.00  0.00     0.010 C 
ATOM     24  C   UNL     1     -96.560  28.673 -38.981  1.00  0.00     0.012 C 
ATOM     25  C   UNL     1     -94.972  25.693 -38.260  1.00  0.00    -0.006 C 
ATOM     26  C   UNL     1     -96.058  26.351 -35.968  1.00  0.00     0.033 C 
ATOM     27  C   UNL     1     -95.114  25.388 -36.736  1.00  0.00     0.120 C 
ATOM     28  C   UNL     1     -93.903  26.810 -38.450  1.00  0.00     0.014 C 
ATOM     29  C   UNL     1     -94.360  24.460 -39.001  1.00  0.00     0.014 C 
ENDROOT
BRANCH   1  30
ATOM     30  C   UNL     1    -105.096  25.810 -38.072  1.00  0.00     0.048 C 
ATOM     31  O   UNL     1    -105.086  26.377 -36.946  1.00  0.00    -0.550 OA
ATOM     32  O   UNL     1    -106.210  25.054 -38.424  1.00  0.00    -0.550 OA
ENDBRANCH   1  30
BRANCH  27  33
ATOM     33  O   UNL     1     -95.546  24.064 -36.533  1.00  0.00    -0.393 OA
ATOM     34  H   UNL     1     -96.519  24.101 -36.333  1.00  0.00     0.210 HD
ENDBRANCH  27  33
TORSDOF 2
ENDMDL
MODEL 6
REMARK VINA RESULT:    -4.389      1.988      8.106
REMARK INTER + INTRA:          -4.837
REMARK INTER:                  -4.764
REMARK INTRA:                  -0.073
REMARK UNBOUND:                -0.064
REMARK SMILES CC1(C)CC[C@@]2(C(=O)[O-])CC[C@@]3(C)C(=CC[C@@H]4[C@@]5(C)CC[C@@H](O)C(C)(C)[C@H]5CC[C@@]43C)[C@H]2C1
REMARK SMILES IDX 6 1 5 2 10 3 32 4 4 5 11 6 14 7 33 8 2 9 12 10 15 11 1 12
REMARK SMILES IDX 3 13 13 14 30 15 16 16 17 17 29 18 31 19 18 20 28 21 27 22
REMARK SMILES IDX 20 23 19 24 24 25 21 26 22 27 25 28 26 29 7 30 8 31 9 32
REMARK SMILES IDX 23 33
REMARK H PARENT 23 34
REMARK Flexibility Score: inf
ROOT
ATOM      1  C   UNL     1    -103.420  24.408 -30.879  1.00  0.00     0.017 C 
ATOM      2  C   UNL     1    -104.075  25.775 -31.240  1.00  0.00     0.014 C 
ATOM      3  C   UNL     1    -102.365  24.060 -31.986  1.00  0.00     0.014 C 
ATOM      4  C   UNL     1    -102.789  24.495 -29.432  1.00  0.00     0.028 C 
ATOM      5  C   UNL     1    -105.130  26.229 -30.222  1.00  0.00     0.007 C 
ATOM      6  C   UNL     1    -100.994  23.668 -31.427  1.00  0.00     0.013 C 
ATOM      7  C   UNL     1    -101.380  25.130 -29.405  1.00  0.00    -0.064 C 
ATOM      8  C   UNL     1    -103.838  25.023 -28.401  1.00  0.00     0.015 C 
ATOM      9  C   UNL     1    -104.565  26.343 -28.788  1.00  0.00    -0.035 C 
ATOM     10  C   UNL     1    -100.357  24.752 -30.482  1.00  0.00    -0.006 C 
ATOM     11  C   UNL     1    -100.932  25.838 -28.345  1.00  0.00    -0.027 C 
ATOM     12  C   UNL     1    -103.642  27.576 -28.667  1.00  0.00     0.011 C 
ATOM     13  C   UNL     1    -105.747  26.553 -27.814  1.00  0.00     0.011 C 
ATOM     14  C   UNL     1    -100.144  26.027 -31.363  1.00  0.00     0.017 C 
ATOM     15  C   UNL     1     -98.979  24.204 -29.783  1.00  0.00    -0.020 C 
ATOM     16  C   UNL     1     -99.483  26.204 -28.186  1.00  0.00     0.032 C 
ATOM     17  C   UNL     1     -98.590  24.956 -28.419  1.00  0.00     0.006 C 
ATOM     18  C   UNL     1     -97.792  24.261 -30.789  1.00  0.00     0.008 C 
ATOM     19  C   UNL     1     -99.172  22.700 -29.402  1.00  0.00     0.012 C 
ATOM     20  C   UNL     1     -97.014  25.175 -28.113  1.00  0.00    -0.025 C 
ATOM     21  C   UNL     1     -96.964  25.543 -30.699  1.00  0.00     0.005 C 
ATOM     22  C   UNL     1     -96.193  25.722 -29.361  1.00  0.00     0.003 C 
ATOM     23  C   UNL     1     -96.372  23.848 -27.537  1.00  0.00     0.010 C 
ATOM     24  C   UNL     1     -96.892  26.219 -26.951  1.00  0.00     0.012 C 
ATOM     25  C   UNL     1     -94.667  25.274 -29.416  1.00  0.00    -0.006 C 
ATOM     26  C   UNL     1     -95.523  22.980 -28.484  1.00  0.00     0.033 C 
ATOM     27  C   UNL     1     -94.528  23.720 -29.417  1.00  0.00     0.120 C 
ATOM     28  C   UNL     1     -93.875  25.847 -28.202  1.00  0.00     0.014 C 
ATOM     29  C   UNL     1     -93.938  25.881 -30.658  1.00  0.00     0.014 C 
ENDROOT
BRANCH   1  30
ATOM     30  C   UNL     1    -104.487  23.311 -30.921  1.00  0.00     0.048 C 
ATOM     31  O   UNL     1    -104.461  22.356 -30.099  1.00  0.00    -0.550 OA
ATOM     32  O   UNL     1    -105.429  23.281 -31.944  1.00  0.00    -0.550 OA
ENDBRANCH   1  30
BRANCH  27  33
ATOM     33  O   UNL     1     -94.659  23.211 -30.723  1.00  0.00    -0.393 OA
ATOM     34  H   UNL     1     -95.397  23.714 -31.160  1.00  0.00     0.210 HD
ENDBRANCH  27  33
TORSDOF 2
ENDMDL
MODEL 7
REMARK VINA RESULT:    -4.369      9.503     11.240
REMARK INTER + INTRA:          -4.816
REMARK INTER:                  -4.758
REMARK INTRA:                  -0.059
REMARK UNBOUND:                -0.064
REMARK SMILES CC1(C)CC[C@@]2(C(=O)[O-])CC[C@@]3(C)C(=CC[C@@H]4[C@@]5(C)CC[C@@H](O)C(C)(C)[C@H]5CC[C@@]43C)[C@H]2C1
REMARK SMILES IDX 6 1 5 2 10 3 32 4 4 5 11 6 14 7 33 8 2 9 12 10 15 11 1 12
REMARK SMILES IDX 3 13 13 14 30 15 16 16 17 17 29 18 31 19 18 20 28 21 27 22
REMARK SMILES IDX 20 23 19 24 24 25 21 26 22 27 25 28 26 29 7 30 8 31 9 32
REMARK SMILES IDX 23 33
REMARK H PARENT 23 34
REMARK Flexibility Score: inf
ROOT
ATOM      1  C   UNL     1     -96.624  24.092 -40.194  1.00  0.00     0.017 C 
ATOM      2  C   UNL     1     -96.019  23.877 -38.774  1.00  0.00     0.014 C 
ATOM      3  C   UNL     1     -97.827  23.102 -40.371  1.00  0.00     0.014 C 
ATOM      4  C   UNL     1     -97.044  25.607 -40.361  1.00  0.00     0.028 C 
ATOM      5  C   UNL     1     -94.828  24.798 -38.477  1.00  0.00     0.007 C 
ATOM      6  C   UNL     1     -99.108  23.775 -40.875  1.00  0.00     0.013 C 
ATOM      7  C   UNL     1     -98.432  25.938 -39.764  1.00  0.00    -0.064 C 
ATOM      8  C   UNL     1     -95.857  26.555 -39.993  1.00  0.00     0.015 C 
ATOM      9  C   UNL     1     -95.184  26.296 -38.614  1.00  0.00    -0.035 C 
ATOM     10  C   UNL     1     -99.599  24.967 -39.976  1.00  0.00    -0.006 C 
ATOM     11  C   UNL     1     -98.720  27.154 -39.251  1.00  0.00    -0.027 C 
ATOM     12  C   UNL     1     -96.073  26.751 -37.435  1.00  0.00     0.011 C 
ATOM     13  C   UNL     1     -93.875  27.116 -38.548  1.00  0.00     0.011 C 
ATOM     14  C   UNL     1     -99.926  24.351 -38.576  1.00  0.00     0.017 C 
ATOM     15  C   UNL     1    -100.867  25.751 -40.657  1.00  0.00    -0.020 C 
ATOM     16  C   UNL     1    -100.130  27.574 -38.943  1.00  0.00     0.032 C 
ATOM     17  C   UNL     1    -101.055  27.263 -40.150  1.00  0.00     0.006 C 
ATOM     18  C   UNL     1    -102.184  24.946 -40.454  1.00  0.00     0.008 C 
ATOM     19  C   UNL     1    -100.631  25.844 -42.199  1.00  0.00     0.012 C 
ATOM     20  C   UNL     1    -102.571  27.819 -40.014  1.00  0.00    -0.025 C 
ATOM     21  C   UNL     1    -102.983  25.365 -39.220  1.00  0.00     0.005 C 
ATOM     22  C   UNL     1    -103.556  26.808 -39.280  1.00  0.00     0.003 C 
ATOM     23  C   UNL     1    -103.132  28.249 -41.429  1.00  0.00     0.010 C 
ATOM     24  C   UNL     1    -102.520  29.145 -39.181  1.00  0.00     0.012 C 
ATOM     25  C   UNL     1    -105.077  26.894 -39.741  1.00  0.00    -0.006 C 
ATOM     26  C   UNL     1    -104.112  27.299 -42.143  1.00  0.00     0.033 C 
ATOM     27  C   UNL     1    -105.225  26.652 -41.275  1.00  0.00     0.120 C 
ATOM     28  C   UNL     1    -105.686  28.286 -39.393  1.00  0.00     0.014 C 
ATOM     29  C   UNL     1    -105.971  25.887 -38.948  1.00  0.00     0.014 C 
ENDROOT
BRANCH   1  30
ATOM     30  C   UNL     1     -95.581  23.718 -41.248  1.00  0.00     0.048 C 
ATOM     31  O   UNL     1     -95.674  24.151 -42.428  1.00  0.00    -0.550 OA
ATOM     32  O   UNL     1     -94.583  22.793 -40.958  1.00  0.00    -0.550 OA
ENDBRANCH   1  30
BRANCH  27  33
ATOM     33  O   UNL     1    -105.282  25.274 -41.557  1.00  0.00    -0.393 OA
ATOM     34  H   UNL     1    -104.345  24.948 -41.614  1.00  0.00     0.210 HD
ENDBRANCH  27  33
TORSDOF 2
ENDMDL
MODEL 8
REMARK VINA RESULT:    -4.325      5.585      7.779
REMARK INTER + INTRA:          -4.768
REMARK INTER:                  -4.686
REMARK INTRA:                  -0.081
REMARK UNBOUND:                -0.064
REMARK SMILES CC1(C)CC[C@@]2(C(=O)[O-])CC[C@@]3(C)C(=CC[C@@H]4[C@@]5(C)CC[C@@H](O)C(C)(C)[C@H]5CC[C@@]43C)[C@H]2C1
REMARK SMILES IDX 6 1 5 2 10 3 32 4 4 5 11 6 14 7 33 8 2 9 12 10 15 11 1 12
REMARK SMILES IDX 3 13 13 14 30 15 16 16 17 17 29 18 31 19 18 20 28 21 27 22
REMARK SMILES IDX 20 23 19 24 24 25 21 26 22 27 25 28 26 29 7 30 8 31 9 32
REMARK SMILES IDX 23 33
REMARK H PARENT 23 34
REMARK Flexibility Score: inf
ROOT
ATOM      1  C   UNL     1     -96.307  26.508 -37.037  1.00  0.00     0.017 C 
ATOM      2  C   UNL     1     -96.868  27.835 -37.631  1.00  0.00     0.014 C 
ATOM      3  C   UNL     1     -95.422  26.861 -35.791  1.00  0.00     0.014 C 
ATOM      4  C   UNL     1     -97.508  25.542 -36.685  1.00  0.00     0.028 C 
ATOM      5  C   UNL     1     -97.759  27.619 -38.861  1.00  0.00     0.007 C 
ATOM      6  C   UNL     1     -95.764  26.043 -34.542  1.00  0.00     0.013 C 
ATOM      7  C   UNL     1     -98.159  25.832 -35.313  1.00  0.00    -0.064 C 
ATOM      8  C   UNL     1     -98.459  25.370 -37.912  1.00  0.00     0.015 C 
ATOM      9  C   UNL     1     -98.960  26.688 -38.573  1.00  0.00    -0.035 C 
ATOM     10  C   UNL     1     -97.271  26.147 -34.104  1.00  0.00    -0.006 C 
ATOM     11  C   UNL     1     -99.469  25.603 -35.078  1.00  0.00    -0.027 C 
ATOM     12  C   UNL     1    -100.010  27.415 -37.703  1.00  0.00     0.011 C 
ATOM     13  C   UNL     1     -99.637  26.335 -39.916  1.00  0.00     0.011 C 
ATOM     14  C   UNL     1     -97.518  27.650 -33.748  1.00  0.00     0.017 C 
ATOM     15  C   UNL     1     -97.610  25.120 -32.872  1.00  0.00    -0.020 C 
ATOM     16  C   UNL     1    -100.041  25.602 -33.688  1.00  0.00     0.032 C 
ATOM     17  C   UNL     1     -99.163  24.730 -32.751  1.00  0.00     0.006 C 
ATOM     18  C   UNL     1     -97.090  25.692 -31.520  1.00  0.00     0.008 C 
ATOM     19  C   UNL     1     -96.849  23.777 -33.114  1.00  0.00     0.012 C 
ATOM     20  C   UNL     1     -99.761  24.508 -31.261  1.00  0.00    -0.025 C 
ATOM     21  C   UNL     1     -98.138  26.487 -30.740  1.00  0.00     0.005 C 
ATOM     22  C   UNL     1     -99.341  25.645 -30.232  1.00  0.00     0.003 C 
ATOM     23  C   UNL     1     -99.381  23.070 -30.721  1.00  0.00     0.010 C 
ATOM     24  C   UNL     1    -101.324  24.498 -31.370  1.00  0.00     0.012 C 
ATOM     25  C   UNL     1     -99.222  25.174 -28.716  1.00  0.00    -0.006 C 
ATOM     26  C   UNL     1     -98.233  22.956 -29.700  1.00  0.00     0.033 C 
ATOM     27  C   UNL     1     -98.197  24.008 -28.559  1.00  0.00     0.120 C 
ATOM     28  C   UNL     1    -100.603  24.703 -28.169  1.00  0.00     0.014 C 
ATOM     29  C   UNL     1     -98.834  26.362 -27.778  1.00  0.00     0.014 C 
ENDROOT
BRANCH   1  30
ATOM     30  C   UNL     1     -95.385  25.846 -38.063  1.00  0.00     0.048 C 
ATOM     31  O   UNL     1     -95.256  24.593 -38.099  1.00  0.00    -0.550 OA
ATOM     32  O   UNL     1     -94.579  26.621 -38.891  1.00  0.00    -0.550 OA
ENDBRANCH   1  30
BRANCH  27  33
ATOM     33  O   UNL     1     -96.888  24.510 -28.441  1.00  0.00    -0.393 OA
ATOM     34  H   UNL     1     -96.720  25.079 -29.238  1.00  0.00     0.210 HD
ENDBRANCH  27  33
TORSDOF 2
ENDMDL
MODEL 9
REMARK VINA RESULT:    -4.267      5.923      8.474
REMARK INTER + INTRA:          -4.705
REMARK INTER:                  -4.625
REMARK INTRA:                  -0.080
REMARK UNBOUND:                -0.064
REMARK SMILES CC1(C)CC[C@@]2(C(=O)[O-])CC[C@@]3(C)C(=CC[C@@H]4[C@@]5(C)CC[C@@H](O)C(C)(C)[C@H]5CC[C@@]43C)[C@H]2C1
REMARK SMILES IDX 6 1 5 2 10 3 32 4 4 5 11 6 14 7 33 8 2 9 12 10 15 11 1 12
REMARK SMILES IDX 3 13 13 14 30 15 16 16 17 17 29 18 31 19 18 20 28 21 27 22
REMARK SMILES IDX 20 23 19 24 24 25 21 26 22 27 25 28 26 29 7 30 8 31 9 32
REMARK SMILES IDX 23 33
REMARK H PARENT 23 34
REMARK Flexibility Score: inf
ROOT
ATOM      1  C   UNL     1     -98.831  26.206 -38.279  1.00  0.00     0.017 C 
ATOM      2  C   UNL     1     -97.821  25.343 -39.094  1.00  0.00     0.014 C 
ATOM      3  C   UNL     1     -99.883  25.246 -37.624  1.00  0.00     0.014 C 
ATOM      4  C   UNL     1     -98.042  27.071 -37.216  1.00  0.00     0.028 C 
ATOM      5  C   UNL     1     -96.731  26.174 -39.784  1.00  0.00     0.007 C 
ATOM      6  C   UNL     1    -100.086  25.487 -36.125  1.00  0.00     0.013 C 
ATOM      7  C   UNL     1     -97.708  26.307 -35.915  1.00  0.00    -0.064 C 
ATOM      8  C   UNL     1     -96.885  27.869 -37.900  1.00  0.00     0.015 C 
ATOM      9  C   UNL     1     -95.918  27.034 -38.790  1.00  0.00    -0.035 C 
ATOM     10  C   UNL     1     -98.764  25.396 -35.278  1.00  0.00    -0.006 C 
ATOM     11  C   UNL     1     -96.601  26.576 -35.188  1.00  0.00    -0.027 C 
ATOM     12  C   UNL     1     -94.974  26.144 -37.951  1.00  0.00     0.011 C 
ATOM     13  C   UNL     1     -95.034  28.010 -39.599  1.00  0.00     0.011 C 
ATOM     14  C   UNL     1     -98.245  23.929 -35.440  1.00  0.00     0.017 C 
ATOM     15  C   UNL     1     -99.018  25.832 -33.719  1.00  0.00    -0.020 C 
ATOM     16  C   UNL     1     -96.420  26.054 -33.790  1.00  0.00     0.032 C 
ATOM     17  C   UNL     1     -97.697  26.324 -32.950  1.00  0.00     0.006 C 
ATOM     18  C   UNL     1     -99.703  24.676 -32.930  1.00  0.00     0.008 C 
ATOM     19  C   UNL     1    -100.007  27.042 -33.690  1.00  0.00     0.012 C 
ATOM     20  C   UNL     1     -97.573  25.962 -31.376  1.00  0.00    -0.025 C 
ATOM     21  C   UNL     1     -98.722  23.763 -32.194  1.00  0.00     0.005 C 
ATOM     22  C   UNL     1     -97.939  24.450 -31.041  1.00  0.00     0.003 C 
ATOM     23  C   UNL     1     -98.427  26.970 -30.506  1.00  0.00     0.010 C 
ATOM     24  C   UNL     1     -96.088  26.213 -30.944  1.00  0.00     0.012 C 
ATOM     25  C   UNL     1     -98.553  24.209 -29.593  1.00  0.00    -0.006 C 
ATOM     26  C   UNL     1     -99.787  26.491 -29.963  1.00  0.00     0.033 C 
ATOM     27  C   UNL     1     -99.844  25.058 -29.371  1.00  0.00     0.120 C 
ATOM     28  C   UNL     1     -97.521  24.570 -28.483  1.00  0.00     0.014 C 
ATOM     29  C   UNL     1     -98.854  22.696 -29.345  1.00  0.00     0.014 C 
ENDROOT
BRANCH   1  30
ATOM     30  C   UNL     1     -99.598  27.121 -39.235  1.00  0.00     0.048 C 
ATOM     31  O   UNL     1     -99.976  28.266 -38.866  1.00  0.00    -0.550 OA
ATOM     32  O   UNL     1    -100.001  26.659 -40.484  1.00  0.00    -0.550 OA
ENDBRANCH   1  30
BRANCH  27  33
ATOM     33  O   UNL     1    -100.970  24.393 -29.892  1.00  0.00    -0.393 OA
ATOM     34  H   UNL     1    -101.704  24.498 -29.230  1.00  0.00     0.210 HD
ENDBRANCH  27  33
TORSDOF 2
ENDMDL
