MODEL 1
REMARK VINA RESULT:    -4.729      0.000      0.000
REMARK INTER + INTRA:         -14.007
REMARK INTER:                 -10.811
REMARK INTRA:                  -3.196
REMARK UNBOUND:                -3.196
REMARK SMILES CCCCCCCCCCCCCCCCCCCCCCCC(=O)[O-]
REMARK SMILES IDX 13 1 14 2 15 3 16 4 17 5 18 6 19 7 20 8 21 9 22 10 23 11
REMARK SMILES IDX 24 12 25 13 26 14 12 15 11 16 10 17 9 18 8 19 7 20 6 21 5 22
REMARK SMILES IDX 4 23 3 24 2 25 1 26
REMARK H PARENT
REMARK Flexibility Score: inf
ROOT
ATOM      1  C   UNL     1       9.122   6.096  30.373  1.00  0.00     0.000 C 
ENDROOT
BRANCH   1   2
ATOM      2  C   UNL     1      10.317   5.298  30.926  1.00  0.00     0.000 C 
BRANCH   2   3
ATOM      3  C   UNL     1      11.052   4.505  29.834  1.00  0.00     0.000 C 
BRANCH   3   4
ATOM      4  C   UNL     1      10.174   4.256  28.593  1.00  0.00     0.000 C 
BRANCH   4   5
ATOM      5  C   UNL     1      10.794   4.828  27.309  1.00  0.00     0.000 C 
BRANCH   5   6
ATOM      6  C   UNL     1      12.224   5.354  27.522  1.00  0.00     0.000 C 
BRANCH   6   7
ATOM      7  C   UNL     1      13.160   4.982  26.353  1.00  0.00     0.000 C 
BRANCH   7   8
ATOM      8  C   UNL     1      13.521   6.172  25.447  1.00  0.00     0.000 C 
BRANCH   8   9
ATOM      9  C   UNL     1      14.351   7.244  26.171  1.00  0.00     0.000 C 
BRANCH   9  10
ATOM     10  C   UNL     1      15.143   8.141  25.200  1.00  0.00     0.006 C 
BRANCH  10  11
ATOM     11  C   UNL     1      16.413   8.760  25.803  1.00  0.00     0.053 C 
BRANCH  11  12
ATOM     12  C   UNL     1      17.658   8.204  25.180  1.00  0.00     0.041 C 
ATOM     13  O   UNL     1      18.790   8.565  25.595  1.00  0.00    -0.550 OA
ATOM     14  O   UNL     1      17.565   7.275  24.150  1.00  0.00    -0.550 OA
ENDBRANCH  11  12
ENDBRANCH  10  11
ENDBRANCH   9  10
ENDBRANCH   8   9
ENDBRANCH   7   8
ENDBRANCH   6   7
ENDBRANCH   5   6
ENDBRANCH   4   5
ENDBRANCH   3   4
ENDBRANCH   2   3
ENDBRANCH   1   2
BRANCH   1  15
ATOM     15  C   UNL     1       8.998   7.490  31.008  1.00  0.00     0.000 C 
BRANCH  15  16
ATOM     16  C   UNL     1       9.443   8.615  30.057  1.00  0.00     0.000 C 
BRANCH  16  17
ATOM     17  C   UNL     1       9.541   8.141  28.591  1.00  0.00     0.000 C 
BRANCH  17  18
ATOM     18  C   UNL     1      10.817   8.615  27.871  1.00  0.00    -0.000 C 
BRANCH  18  19
ATOM     19  C   UNL     1      10.828   8.386  26.348  1.00  0.00    -0.000 C 
BRANCH  19  20
ATOM     20  C   UNL     1      11.281   9.594  25.506  1.00  0.00    -0.000 C 
BRANCH  20  21
ATOM     21  C   UNL     1      11.498   9.244  24.024  1.00  0.00    -0.000 C 
BRANCH  21  22
ATOM     22  C   UNL     1      10.333   8.438  23.419  1.00  0.00    -0.000 C 
BRANCH  22  23
ATOM     23  C   UNL     1      10.741   7.175  22.635  1.00  0.00    -0.000 C 
BRANCH  23  24
ATOM     24  C   UNL     1      12.104   7.317  21.935  1.00  0.00    -0.000 C 
BRANCH  24  25
ATOM     25  C   UNL     1      11.970   7.441  20.409  1.00  0.00    -0.003 C 
ATOM     26  C   UNL     1      11.440   8.807  19.969  1.00  0.00     0.004 C 
ENDBRANCH  24  25
ENDBRANCH  23  24
ENDBRANCH  22  23
ENDBRANCH  21  22
ENDBRANCH  20  21
ENDBRANCH  19  20
ENDBRANCH  18  19
ENDBRANCH  17  18
ENDBRANCH  16  17
ENDBRANCH  15  16
ENDBRANCH   1  15
TORSDOF 22
ENDMDL
MODEL 2
REMARK VINA RESULT:    -4.605      2.228      5.332
REMARK INTER + INTRA:         -13.724
REMARK INTER:                 -10.580
REMARK INTRA:                  -3.143
REMARK UNBOUND:                -3.196
REMARK SMILES CCCCCCCCCCCCCCCCCCCCCCCC(=O)[O-]
REMARK SMILES IDX 13 1 14 2 15 3 16 4 17 5 18 6 19 7 20 8 21 9 22 10 23 11
REMARK SMILES IDX 24 12 25 13 26 14 12 15 11 16 10 17 9 18 8 19 7 20 6 21 5 22
REMARK SMILES IDX 4 23 3 24 2 25 1 26
REMARK H PARENT
REMARK Flexibility Score: inf
ROOT
ATOM      1  C   UNL     1       9.355   4.497  30.289  1.00  0.00     0.000 C 
ENDROOT
BRANCH   1   2
ATOM      2  C   UNL     1       9.970   5.798  30.835  1.00  0.00     0.000 C 
BRANCH   2   3
ATOM      3  C   UNL     1       9.029   7.004  30.684  1.00  0.00     0.000 C 
BRANCH   3   4
ATOM      4  C   UNL     1       9.734   8.342  30.972  1.00  0.00     0.000 C 
BRANCH   4   5
ATOM      5  C   UNL     1       9.737   9.280  29.755  1.00  0.00     0.000 C 
BRANCH   5   6
ATOM      6  C   UNL     1       9.691   8.519  28.419  1.00  0.00     0.000 C 
BRANCH   6   7
ATOM      7  C   UNL     1      10.981   8.712  27.595  1.00  0.00     0.000 C 
BRANCH   7   8
ATOM      8  C   UNL     1      10.801   8.437  26.091  1.00  0.00     0.000 C 
BRANCH   8   9
ATOM      9  C   UNL     1      11.255   9.613  25.211  1.00  0.00     0.000 C 
BRANCH   9  10
ATOM     10  C   UNL     1      11.240   9.272  23.708  1.00  0.00     0.006 C 
BRANCH  10  11
ATOM     11  C   UNL     1      10.076   8.367  23.276  1.00  0.00     0.053 C 
BRANCH  11  12
ATOM     12  C   UNL     1      10.526   7.278  22.350  1.00  0.00     0.041 C 
ATOM     13  O   UNL     1      11.635   6.711  22.530  1.00  0.00    -0.550 OA
ATOM     14  O   UNL     1       9.710   6.879  21.298  1.00  0.00    -0.550 OA
ENDBRANCH  11  12
ENDBRANCH  10  11
ENDBRANCH   9  10
ENDBRANCH   8   9
ENDBRANCH   7   8
ENDBRANCH   6   7
ENDBRANCH   5   6
ENDBRANCH   4   5
ENDBRANCH   3   4
ENDBRANCH   2   3
ENDBRANCH   1   2
BRANCH   1  15
ATOM     15  C   UNL     1      10.072   3.989  29.028  1.00  0.00     0.000 C 
BRANCH  15  16
ATOM     16  C   UNL     1       9.713   4.805  27.773  1.00  0.00     0.000 C 
BRANCH  16  17
ATOM     17  C   UNL     1      10.960   5.198  26.952  1.00  0.00     0.000 C 
BRANCH  17  18
ATOM     18  C   UNL     1      12.261   5.221  27.777  1.00  0.00    -0.000 C 
BRANCH  18  19
ATOM     19  C   UNL     1      13.426   5.996  27.132  1.00  0.00    -0.000 C 
BRANCH  19  20
ATOM     20  C   UNL     1      13.653   5.715  25.635  1.00  0.00    -0.000 C 
BRANCH  20  21
ATOM     21  C   UNL     1      14.131   6.954  24.858  1.00  0.00    -0.000 C 
BRANCH  21  22
ATOM     22  C   UNL     1      14.461   8.147  25.774  1.00  0.00    -0.000 C 
BRANCH  22  23
ATOM     23  C   UNL     1      15.674   8.995  25.342  1.00  0.00    -0.000 C 
BRANCH  23  24
ATOM     24  C   UNL     1      16.972   8.600  26.069  1.00  0.00    -0.000 C 
BRANCH  24  25
ATOM     25  C   UNL     1      18.053   8.088  25.105  1.00  0.00    -0.003 C 
ATOM     26  C   UNL     1      19.024   9.184  24.665  1.00  0.00     0.004 C 
ENDBRANCH  24  25
ENDBRANCH  23  24
ENDBRANCH  22  23
ENDBRANCH  21  22
ENDBRANCH  20  21
ENDBRANCH  19  20
ENDBRANCH  18  19
ENDBRANCH  17  18
ENDBRANCH  16  17
ENDBRANCH  15  16
ENDBRANCH   1  15
TORSDOF 22
ENDMDL
MODEL 3
REMARK VINA RESULT:    -4.416      3.167      6.199
REMARK INTER + INTRA:         -13.291
REMARK INTER:                  -9.777
REMARK INTRA:                  -3.514
REMARK UNBOUND:                -3.196
REMARK SMILES CCCCCCCCCCCCCCCCCCCCCCCC(=O)[O-]
REMARK SMILES IDX 13 1 14 2 15 3 16 4 17 5 18 6 19 7 20 8 21 9 22 10 23 11
REMARK SMILES IDX 24 12 25 13 26 14 12 15 11 16 10 17 9 18 8 19 7 20 6 21 5 22
REMARK SMILES IDX 4 23 3 24 2 25 1 26
REMARK H PARENT
REMARK Flexibility Score: inf
ROOT
ATOM      1  C   UNL     1       9.391   7.622  28.467  1.00  0.00     0.000 C 
ENDROOT
BRANCH   1   2
ATOM      2  C   UNL     1      10.508   8.550  27.956  1.00  0.00     0.000 C 
BRANCH   2   3
ATOM      3  C   UNL     1      10.887   8.267  26.493  1.00  0.00     0.000 C 
BRANCH   3   4
ATOM      4  C   UNL     1      11.284   9.544  25.730  1.00  0.00     0.000 C 
BRANCH   4   5
ATOM      5  C   UNL     1      10.964   9.457  24.229  1.00  0.00     0.000 C 
BRANCH   5   6
ATOM      6  C   UNL     1      10.983   8.012  23.701  1.00  0.00     0.000 C 
BRANCH   6   7
ATOM      7  C   UNL     1      11.798   7.881  22.397  1.00  0.00     0.000 C 
BRANCH   7   8
ATOM      8  C   UNL     1      12.579   9.154  22.026  1.00  0.00     0.000 C 
BRANCH   8   9
ATOM      9  C   UNL     1      12.183   9.719  20.652  1.00  0.00     0.000 C 
BRANCH   9  10
ATOM     10  C   UNL     1      10.982   8.982  20.029  1.00  0.00     0.006 C 
BRANCH  10  11
ATOM     11  C   UNL     1       9.657   9.755  20.102  1.00  0.00     0.053 C 
BRANCH  11  12
ATOM     12  C   UNL     1       8.586   8.969  20.796  1.00  0.00     0.041 C 
ATOM     13  O   UNL     1       8.079   7.960  20.238  1.00  0.00    -0.550 OA
ATOM     14  O   UNL     1       8.161   9.342  22.065  1.00  0.00    -0.550 OA
ENDBRANCH  11  12
ENDBRANCH  10  11
ENDBRANCH   9  10
ENDBRANCH   8   9
ENDBRANCH   7   8
ENDBRANCH   6   7
ENDBRANCH   5   6
ENDBRANCH   4   5
ENDBRANCH   3   4
ENDBRANCH   2   3
ENDBRANCH   1   2
BRANCH   1  15
ATOM     15  C   UNL     1       9.374   6.266  27.745  1.00  0.00     0.000 C 
BRANCH  15  16
ATOM     16  C   UNL     1       9.707   5.092  28.682  1.00  0.00     0.000 C 
BRANCH  16  17
ATOM     17  C   UNL     1      11.228   4.904  28.870  1.00  0.00     0.000 C 
BRANCH  17  18
ATOM     18  C   UNL     1      12.051   5.224  27.608  1.00  0.00    -0.000 C 
BRANCH  18  19
ATOM     19  C   UNL     1      13.527   5.580  27.867  1.00  0.00    -0.000 C 
BRANCH  19  20
ATOM     20  C   UNL     1      14.102   6.692  26.968  1.00  0.00    -0.000 C 
BRANCH  20  21
ATOM     21  C   UNL     1      13.847   6.444  25.472  1.00  0.00    -0.000 C 
BRANCH  21  22
ATOM     22  C   UNL     1      14.684   7.361  24.560  1.00  0.00    -0.000 C 
BRANCH  22  23
ATOM     23  C   UNL     1      14.761   8.836  25.000  1.00  0.00    -0.000 C 
BRANCH  23  24
ATOM     24  C   UNL     1      16.182   9.419  24.903  1.00  0.00    -0.000 C 
BRANCH  24  25
ATOM     25  C   UNL     1      17.237   8.346  24.588  1.00  0.00    -0.003 C 
ATOM     26  C   UNL     1      18.669   8.865  24.721  1.00  0.00     0.004 C 
ENDBRANCH  24  25
ENDBRANCH  23  24
ENDBRANCH  22  23
ENDBRANCH  21  22
ENDBRANCH  20  21
ENDBRANCH  19  20
ENDBRANCH  18  19
ENDBRANCH  17  18
ENDBRANCH  16  17
ENDBRANCH  15  16
ENDBRANCH   1  15
TORSDOF 22
ENDMDL
MODEL 4
REMARK VINA RESULT:    -4.317      4.370      8.904
REMARK INTER + INTRA:         -13.065
REMARK INTER:                 -10.311
REMARK INTRA:                  -2.755
REMARK UNBOUND:                -3.196
REMARK SMILES CCCCCCCCCCCCCCCCCCCCCCCC(=O)[O-]
REMARK SMILES IDX 13 1 14 2 15 3 16 4 17 5 18 6 19 7 20 8 21 9 22 10 23 11
REMARK SMILES IDX 24 12 25 13 26 14 12 15 11 16 10 17 9 18 8 19 7 20 6 21 5 22
REMARK SMILES IDX 4 23 3 24 2 25 1 26
REMARK H PARENT
REMARK Flexibility Score: inf
ROOT
ATOM      1  C   UNL     1      10.989   7.127  22.960  1.00  0.00     0.000 C 
ENDROOT
BRANCH   1   2
ATOM      2  C   UNL     1      11.756   7.051  21.629  1.00  0.00     0.000 C 
BRANCH   2   3
ATOM      3  C   UNL     1      12.678   8.261  21.408  1.00  0.00     0.000 C 
BRANCH   3   4
ATOM      4  C   UNL     1      12.125   9.238  20.354  1.00  0.00     0.000 C 
BRANCH   4   5
ATOM      5  C   UNL     1      10.974  10.100  20.897  1.00  0.00     0.000 C 
BRANCH   5   6
ATOM      6  C   UNL     1       9.670   9.921  20.099  1.00  0.00     0.000 C 
BRANCH   6   7
ATOM      7  C   UNL     1       8.558   9.266  20.944  1.00  0.00     0.000 C 
BRANCH   7   8
ATOM      8  C   UNL     1       8.231   7.821  20.523  1.00  0.00     0.000 C 
BRANCH   8   9
ATOM      9  C   UNL     1       6.749   7.623  20.169  1.00  0.00     0.000 C 
BRANCH   9  10
ATOM     10  C   UNL     1       5.950   6.955  21.304  1.00  0.00     0.006 C 
BRANCH  10  11
ATOM     11  C   UNL     1       4.621   7.650  21.637  1.00  0.00     0.053 C 
BRANCH  11  12
ATOM     12  C   UNL     1       4.831   9.030  22.183  1.00  0.00     0.041 C 
ATOM     13  O   UNL     1       4.152   9.995  21.745  1.00  0.00    -0.550 OA
ATOM     14  O   UNL     1       5.765   9.244  23.189  1.00  0.00    -0.550 OA
ENDBRANCH  11  12
ENDBRANCH  10  11
ENDBRANCH   9  10
ENDBRANCH   8   9
ENDBRANCH   7   8
ENDBRANCH   6   7
ENDBRANCH   5   6
ENDBRANCH   4   5
ENDBRANCH   3   4
ENDBRANCH   2   3
ENDBRANCH   1   2
BRANCH   1  15
ATOM     15  C   UNL     1      11.813   7.781  24.081  1.00  0.00     0.000 C 
BRANCH  15  16
ATOM     16  C   UNL     1      12.507   6.747  24.986  1.00  0.00     0.000 C 
BRANCH  16  17
ATOM     17  C   UNL     1      12.109   6.905  26.469  1.00  0.00     0.000 C 
BRANCH  17  18
ATOM     18  C   UNL     1      10.631   7.286  26.675  1.00  0.00    -0.000 C 
BRANCH  18  19
ATOM     19  C   UNL     1      10.323   8.005  28.003  1.00  0.00    -0.000 C 
BRANCH  19  20
ATOM     20  C   UNL     1       9.009   7.585  28.687  1.00  0.00    -0.000 C 
BRANCH  20  21
ATOM     21  C   UNL     1       9.142   7.455  30.214  1.00  0.00    -0.000 C 
BRANCH  21  22
ATOM     22  C   UNL     1       9.182   5.991  30.691  1.00  0.00    -0.000 C 
BRANCH  22  23
ATOM     23  C   UNL     1      10.585   5.356  30.757  1.00  0.00    -0.000 C 
BRANCH  23  24
ATOM     24  C   UNL     1      10.941   4.553  29.494  1.00  0.00    -0.000 C 
BRANCH  24  25
ATOM     25  C   UNL     1       9.725   3.827  28.898  1.00  0.00    -0.003 C 
ATOM     26  C   UNL     1       9.745   3.792  27.369  1.00  0.00     0.004 C 
ENDBRANCH  24  25
ENDBRANCH  23  24
ENDBRANCH  22  23
ENDBRANCH  21  22
ENDBRANCH  20  21
ENDBRANCH  19  20
ENDBRANCH  18  19
ENDBRANCH  17  18
ENDBRANCH  16  17
ENDBRANCH  15  16
ENDBRANCH   1  15
TORSDOF 22
ENDMDL
MODEL 5
REMARK VINA RESULT:    -4.308      7.209     10.965
REMARK INTER + INTRA:         -13.044
REMARK INTER:                 -10.374
REMARK INTRA:                  -2.670
REMARK UNBOUND:                -3.196
REMARK SMILES CCCCCCCCCCCCCCCCCCCCCCCC(=O)[O-]
REMARK SMILES IDX 13 1 14 2 15 3 16 4 17 5 18 6 19 7 20 8 21 9 22 10 23 11
REMARK SMILES IDX 24 12 25 13 26 14 12 15 11 16 10 17 9 18 8 19 7 20 6 21 5 22
REMARK SMILES IDX 4 23 3 24 2 25 1 26
REMARK H PARENT
REMARK Flexibility Score: inf
ROOT
ATOM      1  C   UNL     1       2.240   8.290  18.984  1.00  0.00     0.000 C 
ENDROOT
BRANCH   1   2
ATOM      2  C   UNL     1       2.822   9.489  19.754  1.00  0.00     0.000 C 
BRANCH   2   3
ATOM      3  C   UNL     1       4.276   9.257  20.196  1.00  0.00     0.000 C 
BRANCH   3   4
ATOM      4  C   UNL     1       5.098   8.493  19.141  1.00  0.00     0.000 C 
BRANCH   4   5
ATOM      5  C   UNL     1       5.700   7.192  19.693  1.00  0.00     0.000 C 
BRANCH   5   6
ATOM      6  C   UNL     1       7.189   7.331  20.052  1.00  0.00     0.000 C 
BRANCH   6   7
ATOM      7  C   UNL     1       7.395   8.026  21.415  1.00  0.00     0.000 C 
BRANCH   7   8
ATOM      8  C   UNL     1       8.391   9.199  21.367  1.00  0.00     0.000 C 
BRANCH   8   9
ATOM      9  C   UNL     1       8.900   9.492  19.947  1.00  0.00     0.000 C 
BRANCH   9  10
ATOM     10  C   UNL     1      10.421   9.293  19.806  1.00  0.00     0.006 C 
BRANCH  10  11
ATOM     11  C   UNL     1      11.129   8.883  21.106  1.00  0.00     0.053 C 
BRANCH  11  12
ATOM     12  C   UNL     1      11.469   7.423  21.123  1.00  0.00     0.041 C 
ATOM     13  O   UNL     1      12.068   6.901  20.146  1.00  0.00    -0.550 OA
ATOM     14  O   UNL     1      11.139   6.645  22.225  1.00  0.00    -0.550 OA
ENDBRANCH  11  12
ENDBRANCH  10  11
ENDBRANCH   9  10
ENDBRANCH   8   9
ENDBRANCH   7   8
ENDBRANCH   6   7
ENDBRANCH   5   6
ENDBRANCH   4   5
ENDBRANCH   3   4
ENDBRANCH   2   3
ENDBRANCH   1   2
BRANCH   1  15
ATOM     15  C   UNL     1       1.560   8.705  17.671  1.00  0.00     0.000 C 
BRANCH  15  16
ATOM     16  C   UNL     1       2.558   9.250  16.633  1.00  0.00     0.000 C 
BRANCH  16  17
ATOM     17  C   UNL     1       2.833   8.242  15.497  1.00  0.00     0.000 C 
BRANCH  17  18
ATOM     18  C   UNL     1       3.997   7.277  15.795  1.00  0.00    -0.000 C 
BRANCH  18  19
ATOM     19  C   UNL     1       5.294   7.562  15.015  1.00  0.00    -0.000 C 
BRANCH  19  20
ATOM     20  C   UNL     1       6.597   7.347  15.807  1.00  0.00    -0.000 C 
BRANCH  20  21
ATOM     21  C   UNL     1       7.859   7.516  14.944  1.00  0.00    -0.000 C 
BRANCH  21  22
ATOM     22  C   UNL     1       7.627   8.406  13.708  1.00  0.00    -0.000 C 
BRANCH  22  23
ATOM     23  C   UNL     1       7.983   7.761  12.354  1.00  0.00    -0.000 C 
BRANCH  23  24
ATOM     24  C   UNL     1       7.879   6.226  12.374  1.00  0.00    -0.000 C 
BRANCH  24  25
ATOM     25  C   UNL     1       6.871   5.693  11.344  1.00  0.00    -0.003 C 
ATOM     26  C   UNL     1       5.462   6.252  11.546  1.00  0.00     0.004 C 
ENDBRANCH  24  25
ENDBRANCH  23  24
ENDBRANCH  22  23
ENDBRANCH  21  22
ENDBRANCH  20  21
ENDBRANCH  19  20
ENDBRANCH  18  19
ENDBRANCH  17  18
ENDBRANCH  16  17
ENDBRANCH  15  16
ENDBRANCH   1  15
TORSDOF 22
ENDMDL
MODEL 6
REMARK VINA RESULT:    -4.297      5.410      8.861
REMARK INTER + INTRA:         -13.020
REMARK INTER:                  -9.639
REMARK INTRA:                  -3.380
REMARK UNBOUND:                -3.196
REMARK SMILES CCCCCCCCCCCCCCCCCCCCCCCC(=O)[O-]
REMARK SMILES IDX 13 1 14 2 15 3 16 4 17 5 18 6 19 7 20 8 21 9 22 10 23 11
REMARK SMILES IDX 24 12 25 13 26 14 12 15 11 16 10 17 9 18 8 19 7 20 6 21 5 22
REMARK SMILES IDX 4 23 3 24 2 25 1 26
REMARK H PARENT
REMARK Flexibility Score: inf
ROOT
ATOM      1  C   UNL     1       5.960   6.784  20.873  1.00  0.00     0.000 C 
ENDROOT
BRANCH   1   2
ATOM      2  C   UNL     1       7.414   7.263  21.036  1.00  0.00     0.000 C 
BRANCH   2   3
ATOM      3  C   UNL     1       7.521   8.551  21.868  1.00  0.00     0.000 C 
BRANCH   3   4
ATOM      4  C   UNL     1       7.829   9.788  21.003  1.00  0.00     0.000 C 
BRANCH   4   5
ATOM      5  C   UNL     1       8.842   9.488  19.887  1.00  0.00     0.000 C 
BRANCH   5   6
ATOM      6  C   UNL     1      10.281   9.873  20.272  1.00  0.00     0.000 C 
BRANCH   6   7
ATOM      7  C   UNL     1      11.327   8.958  19.601  1.00  0.00     0.000 C 
BRANCH   7   8
ATOM      8  C   UNL     1      12.101   8.072  20.593  1.00  0.00     0.000 C 
BRANCH   8   9
ATOM      9  C   UNL     1      11.322   6.812  21.003  1.00  0.00     0.000 C 
BRANCH   9  10
ATOM     10  C   UNL     1      10.846   6.856  22.467  1.00  0.00     0.006 C 
BRANCH  10  11
ATOM     11  C   UNL     1      11.906   7.351  23.463  1.00  0.00     0.053 C 
BRANCH  11  12
ATOM     12  C   UNL     1      11.438   8.551  24.230  1.00  0.00     0.041 C 
ATOM     13  O   UNL     1      10.381   9.145  23.893  1.00  0.00    -0.550 OA
ATOM     14  O   UNL     1      12.163   9.000  25.327  1.00  0.00    -0.550 OA
ENDBRANCH  11  12
ENDBRANCH  10  11
ENDBRANCH   9  10
ENDBRANCH   8   9
ENDBRANCH   7   8
ENDBRANCH   6   7
ENDBRANCH   5   6
ENDBRANCH   4   5
ENDBRANCH   3   4
ENDBRANCH   2   3
ENDBRANCH   1   2
BRANCH   1  15
ATOM     15  C   UNL     1       4.976   7.574  21.750  1.00  0.00     0.000 C 
BRANCH  15  16
ATOM     16  C   UNL     1       4.017   8.449  20.924  1.00  0.00     0.000 C 
BRANCH  16  17
ATOM     17  C   UNL     1       4.231   8.282  19.404  1.00  0.00     0.000 C 
BRANCH  17  18
ATOM     18  C   UNL     1       4.885   9.504  18.733  1.00  0.00    -0.000 C 
BRANCH  18  19
ATOM     19  C   UNL     1       5.878   9.173  17.603  1.00  0.00    -0.000 C 
BRANCH  19  20
ATOM     20  C   UNL     1       6.223   7.680  17.449  1.00  0.00    -0.000 C 
BRANCH  20  21
ATOM     21  C   UNL     1       6.752   7.327  16.048  1.00  0.00    -0.000 C 
BRANCH  21  22
ATOM     22  C   UNL     1       6.191   8.245  14.946  1.00  0.00    -0.000 C 
BRANCH  22  23
ATOM     23  C   UNL     1       7.244   9.048  14.156  1.00  0.00    -0.000 C 
BRANCH  23  24
ATOM     24  C   UNL     1       8.242   8.151  13.403  1.00  0.00    -0.000 C 
BRANCH  24  25
ATOM     25  C   UNL     1       7.547   7.172  12.446  1.00  0.00    -0.003 C 
ATOM     26  C   UNL     1       7.852   5.708  12.768  1.00  0.00     0.004 C 
ENDBRANCH  24  25
ENDBRANCH  23  24
ENDBRANCH  22  23
ENDBRANCH  21  22
ENDBRANCH  20  21
ENDBRANCH  19  20
ENDBRANCH  18  19
ENDBRANCH  17  18
ENDBRANCH  16  17
ENDBRANCH  15  16
ENDBRANCH   1  15
TORSDOF 22
ENDMDL
MODEL 7
REMARK VINA RESULT:    -4.245      4.662      7.558
REMARK INTER + INTRA:         -12.900
REMARK INTER:                  -9.682
REMARK INTRA:                  -3.219
REMARK UNBOUND:                -3.196
REMARK SMILES CCCCCCCCCCCCCCCCCCCCCCCC(=O)[O-]
REMARK SMILES IDX 13 1 14 2 15 3 16 4 17 5 18 6 19 7 20 8 21 9 22 10 23 11
REMARK SMILES IDX 24 12 25 13 26 14 12 15 11 16 10 17 9 18 8 19 7 20 6 21 5 22
REMARK SMILES IDX 4 23 3 24 2 25 1 26
REMARK H PARENT
REMARK Flexibility Score: inf
ROOT
ATOM      1  C   UNL     1       9.883   6.906  21.702  1.00  0.00     0.000 C 
ENDROOT
BRANCH   1   2
ATOM      2  C   UNL     1      11.331   6.599  21.279  1.00  0.00     0.000 C 
BRANCH   2   3
ATOM      3  C   UNL     1      12.080   7.849  20.789  1.00  0.00     0.000 C 
BRANCH   3   4
ATOM      4  C   UNL     1      13.225   8.258  21.734  1.00  0.00     0.000 C 
BRANCH   4   5
ATOM      5  C   UNL     1      12.744   9.147  22.892  1.00  0.00     0.000 C 
BRANCH   5   6
ATOM      6  C   UNL     1      13.562   8.939  24.178  1.00  0.00     0.000 C 
BRANCH   6   7
ATOM      7  C   UNL     1      12.667   8.580  25.383  1.00  0.00     0.000 C 
BRANCH   7   8
ATOM      8  C   UNL     1      11.312   7.968  24.986  1.00  0.00     0.000 C 
BRANCH   8   9
ATOM      9  C   UNL     1      10.908   6.782  25.876  1.00  0.00     0.000 C 
BRANCH   9  10
ATOM     10  C   UNL     1      10.218   7.223  27.181  1.00  0.00     0.006 C 
BRANCH  10  11
ATOM     11  C   UNL     1       9.168   6.234  27.708  1.00  0.00     0.053 C 
BRANCH  11  12
ATOM     12  C   UNL     1       9.780   4.927  28.110  1.00  0.00     0.041 C 
ATOM     13  O   UNL     1       9.280   3.843  27.709  1.00  0.00    -0.550 OA
ATOM     14  O   UNL     1      10.913   4.907  28.914  1.00  0.00    -0.550 OA
ENDBRANCH  11  12
ENDBRANCH  10  11
ENDBRANCH   9  10
ENDBRANCH   8   9
ENDBRANCH   7   8
ENDBRANCH   6   7
ENDBRANCH   5   6
ENDBRANCH   4   5
ENDBRANCH   3   4
ENDBRANCH   2   3
ENDBRANCH   1   2
BRANCH   1  15
ATOM     15  C   UNL     1       9.457   8.340  21.354  1.00  0.00     0.000 C 
BRANCH  15  16
ATOM     16  C   UNL     1       8.756   9.051  22.525  1.00  0.00     0.000 C 
BRANCH  16  17
ATOM     17  C   UNL     1       7.756  10.125  22.045  1.00  0.00     0.000 C 
BRANCH  17  18
ATOM     18  C   UNL     1       6.381  10.041  22.734  1.00  0.00    -0.000 C 
BRANCH  18  19
ATOM     19  C   UNL     1       5.969   8.631  23.196  1.00  0.00    -0.000 C 
BRANCH  19  20
ATOM     20  C   UNL     1       5.156   7.816  22.171  1.00  0.00    -0.000 C 
BRANCH  20  21
ATOM     21  C   UNL     1       6.003   6.766  21.433  1.00  0.00    -0.000 C 
BRANCH  21  22
ATOM     22  C   UNL     1       6.244   7.119  19.953  1.00  0.00    -0.000 C 
BRANCH  22  23
ATOM     23  C   UNL     1       5.463   8.341  19.431  1.00  0.00    -0.000 C 
BRANCH  23  24
ATOM     24  C   UNL     1       4.473   7.986  18.307  1.00  0.00    -0.000 C 
BRANCH  24  25
ATOM     25  C   UNL     1       3.254   8.920  18.281  1.00  0.00    -0.003 C 
ATOM     26  C   UNL     1       2.560   9.029  19.640  1.00  0.00     0.004 C 
ENDBRANCH  24  25
ENDBRANCH  23  24
ENDBRANCH  22  23
ENDBRANCH  21  22
ENDBRANCH  20  21
ENDBRANCH  19  20
ENDBRANCH  18  19
ENDBRANCH  17  18
ENDBRANCH  16  17
ENDBRANCH  15  16
ENDBRANCH   1  15
TORSDOF 22
ENDMDL
MODEL 8
REMARK VINA RESULT:    -4.240      3.821      7.211
REMARK INTER + INTRA:         -12.888
REMARK INTER:                 -10.329
REMARK INTRA:                  -2.559
REMARK UNBOUND:                -3.196
REMARK SMILES CCCCCCCCCCCCCCCCCCCCCCCC(=O)[O-]
REMARK SMILES IDX 13 1 14 2 15 3 16 4 17 5 18 6 19 7 20 8 21 9 22 10 23 11
REMARK SMILES IDX 24 12 25 13 26 14 12 15 11 16 10 17 9 18 8 19 7 20 6 21 5 22
REMARK SMILES IDX 4 23 3 24 2 25 1 26
REMARK H PARENT
REMARK Flexibility Score: inf
ROOT
ATOM      1  C   UNL     1      13.490   7.864  21.429  1.00  0.00     0.000 C 
ENDROOT
BRANCH   1   2
ATOM      2  C   UNL     1      13.738   8.757  22.657  1.00  0.00     0.000 C 
BRANCH   2   3
ATOM      3  C   UNL     1      14.923   8.275  23.509  1.00  0.00     0.000 C 
BRANCH   3   4
ATOM      4  C   UNL     1      14.586   8.218  25.010  1.00  0.00     0.000 C 
BRANCH   4   5
ATOM      5  C   UNL     1      13.949   6.882  25.421  1.00  0.00     0.000 C 
BRANCH   5   6
ATOM      6  C   UNL     1      12.934   7.035  26.567  1.00  0.00     0.000 C 
BRANCH   6   7
ATOM      7  C   UNL     1      11.687   7.835  26.136  1.00  0.00     0.000 C 
BRANCH   7   8
ATOM      8  C   UNL     1      10.360   7.208  26.596  1.00  0.00     0.000 C 
BRANCH   8   9
ATOM      9  C   UNL     1      10.120   7.358  28.107  1.00  0.00     0.000 C 
BRANCH   9  10
ATOM     10  C   UNL     1       9.020   6.416  28.632  1.00  0.00     0.006 C 
BRANCH  10  11
ATOM     11  C   UNL     1       9.369   5.708  29.951  1.00  0.00     0.053 C 
BRANCH  11  12
ATOM     12  C   UNL     1      10.028   4.383  29.719  1.00  0.00     0.041 C 
ATOM     13  O   UNL     1       9.822   3.751  28.650  1.00  0.00    -0.550 OA
ATOM     14  O   UNL     1      10.883   3.854  30.679  1.00  0.00    -0.550 OA
ENDBRANCH  11  12
ENDBRANCH  10  11
ENDBRANCH   9  10
ENDBRANCH   8   9
ENDBRANCH   7   8
ENDBRANCH   6   7
ENDBRANCH   5   6
ENDBRANCH   4   5
ENDBRANCH   3   4
ENDBRANCH   2   3
ENDBRANCH   1   2
BRANCH   1  15
ATOM     15  C   UNL     1      11.995   7.633  21.159  1.00  0.00     0.000 C 
BRANCH  15  16
ATOM     16  C   UNL     1      11.220   7.221  22.424  1.00  0.00     0.000 C 
BRANCH  16  17
ATOM     17  C   UNL     1      10.129   8.245  22.803  1.00  0.00     0.000 C 
BRANCH  17  18
ATOM     18  C   UNL     1      10.136   9.510  21.925  1.00  0.00    -0.000 C 
BRANCH  18  19
ATOM     19  C   UNL     1       8.786   9.853  21.267  1.00  0.00    -0.000 C 
BRANCH  19  20
ATOM     20  C   UNL     1       8.604   9.328  19.830  1.00  0.00    -0.000 C 
BRANCH  20  21
ATOM     21  C   UNL     1       7.127   9.230  19.410  1.00  0.00    -0.000 C 
BRANCH  21  22
ATOM     22  C   UNL     1       6.728   7.818  18.941  1.00  0.00    -0.000 C 
BRANCH  22  23
ATOM     23  C   UNL     1       5.809   7.039  19.901  1.00  0.00    -0.000 C 
BRANCH  23  24
ATOM     24  C   UNL     1       6.299   7.068  21.359  1.00  0.00    -0.000 C 
BRANCH  24  25
ATOM     25  C   UNL     1       5.287   7.733  22.306  1.00  0.00    -0.003 C 
ATOM     26  C   UNL     1       5.925   8.790  23.209  1.00  0.00     0.004 C 
ENDBRANCH  24  25
ENDBRANCH  23  24
ENDBRANCH  22  23
ENDBRANCH  21  22
ENDBRANCH  20  21
ENDBRANCH  19  20
ENDBRANCH  18  19
ENDBRANCH  17  18
ENDBRANCH  16  17
ENDBRANCH  15  16
ENDBRANCH   1  15
TORSDOF 22
ENDMDL
MODEL 9
REMARK VINA RESULT:    -4.208      4.815      9.023
REMARK INTER + INTRA:         -12.817
REMARK INTER:                  -9.721
REMARK INTRA:                  -3.096
REMARK UNBOUND:                -3.196
REMARK SMILES CCCCCCCCCCCCCCCCCCCCCCCC(=O)[O-]
REMARK SMILES IDX 13 1 14 2 15 3 16 4 17 5 18 6 19 7 20 8 21 9 22 10 23 11
REMARK SMILES IDX 24 12 25 13 26 14 12 15 11 16 10 17 9 18 8 19 7 20 6 21 5 22
REMARK SMILES IDX 4 23 3 24 2 25 1 26
REMARK H PARENT
REMARK Flexibility Score: inf
ROOT
ATOM      1  C   UNL     1      11.137   6.809  22.218  1.00  0.00     0.000 C 
ENDROOT
BRANCH   1   2
ATOM      2  C   UNL     1       9.741   7.193  21.696  1.00  0.00     0.000 C 
BRANCH   2   3
ATOM      3  C   UNL     1       9.770   8.440  20.797  1.00  0.00     0.000 C 
BRANCH   3   4
ATOM      4  C   UNL     1       9.259   9.700  21.520  1.00  0.00     0.000 C 
BRANCH   4   5
ATOM      5  C   UNL     1       8.389   9.366  22.742  1.00  0.00     0.000 C 
BRANCH   5   6
ATOM      6  C   UNL     1       6.888   9.575  22.477  1.00  0.00     0.000 C 
BRANCH   6   7
ATOM      7  C   UNL     1       6.013   8.592  23.284  1.00  0.00     0.000 C 
BRANCH   7   8
ATOM      8  C   UNL     1       5.277   7.560  22.412  1.00  0.00     0.000 C 
BRANCH   8   9
ATOM      9  C   UNL     1       6.096   7.118  21.189  1.00  0.00     0.000 C 
BRANCH   9  10
ATOM     10  C   UNL     1       5.418   7.483  19.855  1.00  0.00     0.006 C 
BRANCH  10  11
ATOM     11  C   UNL     1       6.363   8.102  18.813  1.00  0.00     0.053 C 
BRANCH  11  12
ATOM     12  C   UNL     1       6.061   7.622  17.426  1.00  0.00     0.041 C 
ATOM     13  O   UNL     1       4.919   7.171  17.146  1.00  0.00    -0.550 OA
ATOM     14  O   UNL     1       7.037   7.689  16.440  1.00  0.00    -0.550 OA
ENDBRANCH  11  12
ENDBRANCH  10  11
ENDBRANCH   9  10
ENDBRANCH   8   9
ENDBRANCH   7   8
ENDBRANCH   6   7
ENDBRANCH   5   6
ENDBRANCH   4   5
ENDBRANCH   3   4
ENDBRANCH   2   3
ENDBRANCH   1   2
BRANCH   1  15
ATOM     15  C   UNL     1      12.270   7.487  21.432  1.00  0.00     0.000 C 
BRANCH  15  16
ATOM     16  C   UNL     1      13.228   8.281  22.338  1.00  0.00     0.000 C 
BRANCH  16  17
ATOM     17  C   UNL     1      12.476   9.181  23.342  1.00  0.00     0.000 C 
BRANCH  17  18
ATOM     18  C   UNL     1      13.192   9.330  24.697  1.00  0.00    -0.000 C 
BRANCH  18  19
ATOM     19  C   UNL     1      14.506   8.538  24.829  1.00  0.00    -0.000 C 
BRANCH  19  20
ATOM     20  C   UNL     1      14.493   7.415  25.884  1.00  0.00    -0.000 C 
BRANCH  20  21
ATOM     21  C   UNL     1      13.441   6.330  25.592  1.00  0.00    -0.000 C 
BRANCH  21  22
ATOM     22  C   UNL     1      12.343   6.253  26.668  1.00  0.00    -0.000 C 
BRANCH  22  23
ATOM     23  C   UNL     1      10.938   6.692  26.210  1.00  0.00    -0.000 C 
BRANCH  23  24
ATOM     24  C   UNL     1       9.996   7.015  27.384  1.00  0.00    -0.000 C 
BRANCH  24  25
ATOM     25  C   UNL     1       9.085   5.833  27.749  1.00  0.00    -0.003 C 
ATOM     26  C   UNL     1       9.408   5.237  29.120  1.00  0.00     0.004 C 
ENDBRANCH  24  25
ENDBRANCH  23  24
ENDBRANCH  22  23
ENDBRANCH  21  22
ENDBRANCH  20  21
ENDBRANCH  19  20
ENDBRANCH  18  19
ENDBRANCH  17  18
ENDBRANCH  16  17
ENDBRANCH  15  16
ENDBRANCH   1  15
TORSDOF 22
ENDMDL
