MODEL 1
REMARK VINA RESULT:    -4.727      0.000      0.000
REMARK INTER + INTRA:          -5.834
REMARK INTER:                  -5.556
REMARK INTRA:                  -0.278
REMARK UNBOUND:                -0.278
REMARK SMILES O=c1cc(-c2ccc(O)c(O)c2)oc2cc(O)cc(O)c12
REMARK SMILES IDX 4 1 3 2 2 3 1 4 21 5 19 6 18 7 16 8 15 9 14 10 13 11 5 12
REMARK SMILES IDX 6 13 7 14 8 15 12 16 10 17 9 18 11 20 20 22 17 24
REMARK H PARENT 9 19 11 21 20 23 17 25
REMARK Flexibility Score: inf
ROOT
ATOM      1  C   UNL     1       9.697  -1.031  16.863  1.00  0.00     0.138 A 
ATOM      2  C   UNL     1      11.046  -0.777  17.147  1.00  0.00     0.100 A 
ATOM      3  C   UNL     1      11.383   0.254  18.027  1.00  0.00     0.197 A 
ATOM      4  O   UNL     1      12.603   0.498  18.215  1.00  0.00    -0.289 OA
ATOM      5  C   UNL     1      10.361   1.011  18.648  1.00  0.00     0.107 A 
ATOM      6  C   UNL     1      10.585   2.057  19.592  1.00  0.00     0.134 A 
ATOM      7  C   UNL     1       9.501   2.814  20.052  1.00  0.00     0.093 A 
ATOM      8  C   UNL     1       8.195   2.525  19.646  1.00  0.00     0.123 A 
ATOM      9  C   UNL     1       7.961   1.471  18.767  1.00  0.00     0.094 A 
ATOM     10  C   UNL     1       9.025   0.719  18.264  1.00  0.00     0.146 A 
ATOM     11  O   UNL     1       8.759  -0.269  17.416  1.00  0.00    -0.456 OA
ENDROOT
BRANCH   1  12
ATOM     12  C   UNL     1       9.283  -2.115  15.934  1.00  0.00     0.021 A 
ATOM     13  C   UNL     1       8.159  -2.921  16.194  1.00  0.00     0.016 A 
ATOM     14  C   UNL     1       7.786  -3.925  15.297  1.00  0.00     0.051 A 
ATOM     15  C   UNL     1       8.521  -4.137  14.125  1.00  0.00     0.157 A 
ATOM     16  C   UNL     1      10.008  -2.325  14.748  1.00  0.00     0.062 A 
ATOM     17  C   UNL     1       9.637  -3.331  13.850  1.00  0.00     0.158 A 
BRANCH  15  18
ATOM     18  O   UNL     1       8.147  -5.142  13.234  1.00  0.00    -0.504 OA
ATOM     19  H   UNL     1       8.549  -5.205  12.307  1.00  0.00     0.293 HD
ENDBRANCH  15  18
BRANCH  17  20
ATOM     20  O   UNL     1      10.389  -3.513  12.689  1.00  0.00    -0.504 OA
ATOM     21  H   UNL     1      11.295  -3.967  12.701  1.00  0.00     0.293 HD
ENDBRANCH  17  20
ENDBRANCH   1  12
BRANCH   6  22
ATOM     22  O   UNL     1      11.838   2.373  20.125  1.00  0.00    -0.507 OA
ATOM     23  H   UNL     1      12.166   2.091  21.036  1.00  0.00     0.293 HD
ENDBRANCH   6  22
BRANCH   8  24
ATOM     24  O   UNL     1       7.121   3.275  20.121  1.00  0.00    -0.508 OA
ATOM     25  H   UNL     1       6.167   3.064  19.852  1.00  0.00     0.293 HD
ENDBRANCH   8  24
TORSDOF 5
ENDMDL
MODEL 2
REMARK VINA RESULT:    -4.632      3.719      5.074
REMARK INTER + INTRA:          -5.723
REMARK INTER:                  -5.409
REMARK INTRA:                  -0.314
REMARK UNBOUND:                -0.278
REMARK SMILES O=c1cc(-c2ccc(O)c(O)c2)oc2cc(O)cc(O)c12
REMARK SMILES IDX 4 1 3 2 2 3 1 4 21 5 19 6 18 7 16 8 15 9 14 10 13 11 5 12
REMARK SMILES IDX 6 13 7 14 8 15 12 16 10 17 9 18 11 20 20 22 17 24
REMARK H PARENT 9 19 11 21 20 23 17 25
REMARK Flexibility Score: inf
ROOT
ATOM      1  C   UNL     1       9.043  -2.627  19.182  1.00  0.00     0.138 A 
ATOM      2  C   UNL     1       8.517  -1.460  18.611  1.00  0.00     0.100 A 
ATOM      3  C   UNL     1       9.351  -0.362  18.394  1.00  0.00     0.197 A 
ATOM      4  O   UNL     1       8.838   0.692  17.937  1.00  0.00    -0.289 OA
ATOM      5  C   UNL     1      10.725  -0.447  18.722  1.00  0.00     0.107 A 
ATOM      6  C   UNL     1      11.678   0.593  18.506  1.00  0.00     0.134 A 
ATOM      7  C   UNL     1      12.987   0.438  18.977  1.00  0.00     0.093 A 
ATOM      8  C   UNL     1      13.393  -0.743  19.603  1.00  0.00     0.123 A 
ATOM      9  C   UNL     1      12.485  -1.785  19.770  1.00  0.00     0.094 A 
ATOM     10  C   UNL     1      11.163  -1.648  19.341  1.00  0.00     0.146 A 
ATOM     11  O   UNL     1      10.324  -2.661  19.533  1.00  0.00    -0.456 OA
ENDROOT
BRANCH   1  12
ATOM     12  C   UNL     1       8.200  -3.824  19.436  1.00  0.00     0.021 A 
ATOM     13  C   UNL     1       6.793  -3.753  19.423  1.00  0.00     0.016 A 
ATOM     14  C   UNL     1       6.026  -4.898  19.654  1.00  0.00     0.051 A 
ATOM     15  C   UNL     1       6.645  -6.130  19.892  1.00  0.00     0.157 A 
ATOM     16  C   UNL     1       8.814  -5.068  19.662  1.00  0.00     0.062 A 
ATOM     17  C   UNL     1       8.047  -6.215  19.894  1.00  0.00     0.158 A 
BRANCH  15  18
ATOM     18  O   UNL     1       5.875  -7.269  20.123  1.00  0.00    -0.504 OA
ATOM     19  H   UNL     1       4.944  -7.209  20.518  1.00  0.00     0.293 HD
ENDBRANCH  15  18
BRANCH  17  20
ATOM     20  O   UNL     1       8.695  -7.428  20.124  1.00  0.00    -0.504 OA
ATOM     21  H   UNL     1       9.154  -7.634  21.003  1.00  0.00     0.293 HD
ENDBRANCH  17  20
ENDBRANCH   1  12
BRANCH   6  22
ATOM     22  O   UNL     1      11.398   1.778  17.818  1.00  0.00    -0.507 OA
ATOM     23  H   UNL     1      12.081   2.340  17.335  1.00  0.00     0.293 HD
ENDBRANCH   6  22
BRANCH   8  24
ATOM     24  O   UNL     1      14.703  -0.894  20.056  1.00  0.00    -0.508 OA
ATOM     25  H   UNL     1      15.493  -0.804  19.429  1.00  0.00     0.293 HD
ENDBRANCH   8  24
TORSDOF 5
ENDMDL
MODEL 3
REMARK VINA RESULT:    -4.515      3.171      5.486
REMARK INTER + INTRA:          -5.585
REMARK INTER:                  -5.297
REMARK INTRA:                  -0.288
REMARK UNBOUND:                -0.278
REMARK SMILES O=c1cc(-c2ccc(O)c(O)c2)oc2cc(O)cc(O)c12
REMARK SMILES IDX 4 1 3 2 2 3 1 4 21 5 19 6 18 7 16 8 15 9 14 10 13 11 5 12
REMARK SMILES IDX 6 13 7 14 8 15 12 16 10 17 9 18 11 20 20 22 17 24
REMARK H PARENT 9 19 11 21 20 23 17 25
REMARK Flexibility Score: inf
ROOT
ATOM      1  C   UNL     1      10.834  -0.455  19.072  1.00  0.00     0.138 A 
ATOM      2  C   UNL     1       9.860  -1.331  18.574  1.00  0.00     0.100 A 
ATOM      3  C   UNL     1       8.564  -0.865  18.345  1.00  0.00     0.197 A 
ATOM      4  O   UNL     1       7.697  -1.689  17.957  1.00  0.00    -0.289 OA
ATOM      5  C   UNL     1       8.253   0.494  18.588  1.00  0.00     0.107 A 
ATOM      6  C   UNL     1       6.978   1.090  18.352  1.00  0.00     0.134 A 
ATOM      7  C   UNL     1       6.755   2.417  18.740  1.00  0.00     0.093 A 
ATOM      8  C   UNL     1       7.778   3.186  19.300  1.00  0.00     0.123 A 
ATOM      9  C   UNL     1       9.041   2.630  19.483  1.00  0.00     0.094 A 
ATOM     10  C   UNL     1       9.286   1.299  19.139  1.00  0.00     0.146 A 
ATOM     11  O   UNL     1      10.501   0.803  19.345  1.00  0.00    -0.456 OA
ENDROOT
BRANCH   1  12
ATOM     12  C   UNL     1      12.228  -0.899  19.334  1.00  0.00     0.021 A 
ATOM     13  C   UNL     1      13.303   0.011  19.347  1.00  0.00     0.016 A 
ATOM     14  C   UNL     1      14.602  -0.433  19.607  1.00  0.00     0.051 A 
ATOM     15  C   UNL     1      14.850  -1.786  19.866  1.00  0.00     0.157 A 
ATOM     16  C   UNL     1      12.483  -2.254  19.608  1.00  0.00     0.062 A 
ATOM     17  C   UNL     1      13.783  -2.701  19.867  1.00  0.00     0.158 A 
BRANCH  15  18
ATOM     18  O   UNL     1      16.147  -2.225  20.122  1.00  0.00    -0.504 OA
ATOM     19  H   UNL     1      16.396  -3.206  20.069  1.00  0.00     0.293 HD
ENDBRANCH  15  18
BRANCH  17  20
ATOM     20  O   UNL     1      13.995  -4.055  20.125  1.00  0.00    -0.504 OA
ATOM     21  H   UNL     1      14.074  -4.416  21.068  1.00  0.00     0.293 HD
ENDBRANCH  17  20
ENDBRANCH   1  12
BRANCH   6  22
ATOM     22  O   UNL     1       5.915   0.435  17.723  1.00  0.00    -0.507 OA
ATOM     23  H   UNL     1       5.852   0.256  16.733  1.00  0.00     0.293 HD
ENDBRANCH   6  22
BRANCH   8  24
ATOM     24  O   UNL     1       7.550   4.511  19.668  1.00  0.00    -0.508 OA
ATOM     25  H   UNL     1       6.991   4.747  20.479  1.00  0.00     0.293 HD
ENDBRANCH   8  24
TORSDOF 5
ENDMDL
MODEL 4
REMARK VINA RESULT:    -4.382     11.140     14.048
REMARK INTER + INTRA:          -5.428
REMARK INTER:                  -5.166
REMARK INTRA:                  -0.262
REMARK UNBOUND:                -0.278
REMARK SMILES O=c1cc(-c2ccc(O)c(O)c2)oc2cc(O)cc(O)c12
REMARK SMILES IDX 4 1 3 2 2 3 1 4 21 5 19 6 18 7 16 8 15 9 14 10 13 11 5 12
REMARK SMILES IDX 6 13 7 14 8 15 12 16 10 17 9 18 11 20 20 22 17 24
REMARK H PARENT 9 19 11 21 20 23 17 25
REMARK Flexibility Score: inf
ROOT
ATOM      1  C   UNL     1      19.898  -6.264  18.860  1.00  0.00     0.138 A 
ATOM      2  C   UNL     1      18.861  -6.812  19.627  1.00  0.00     0.100 A 
ATOM      3  C   UNL     1      18.520  -8.156  19.466  1.00  0.00     0.197 A 
ATOM      4  O   UNL     1      17.545  -8.604  20.123  1.00  0.00    -0.289 OA
ATOM      5  C   UNL     1      19.242  -8.961  18.553  1.00  0.00     0.107 A 
ATOM      6  C   UNL     1      19.011 -10.352  18.335  1.00  0.00     0.134 A 
ATOM      7  C   UNL     1      19.711 -11.018  17.322  1.00  0.00     0.093 A 
ATOM      8  C   UNL     1      20.678 -10.357  16.560  1.00  0.00     0.123 A 
ATOM      9  C   UNL     1      20.950  -9.013  16.801  1.00  0.00     0.094 A 
ATOM     10  C   UNL     1      20.244  -8.312  17.781  1.00  0.00     0.146 A 
ATOM     11  O   UNL     1      20.524  -7.027  17.969  1.00  0.00    -0.456 OA
ENDROOT
BRANCH   1  12
ATOM     12  C   UNL     1      20.302  -4.840  18.991  1.00  0.00     0.021 A 
ATOM     13  C   UNL     1      21.372  -4.449  19.819  1.00  0.00     0.016 A 
ATOM     14  C   UNL     1      21.737  -3.104  19.915  1.00  0.00     0.051 A 
ATOM     15  C   UNL     1      21.049  -2.129  19.183  1.00  0.00     0.157 A 
ATOM     16  C   UNL     1      19.625  -3.857  18.249  1.00  0.00     0.062 A 
ATOM     17  C   UNL     1      19.988  -2.509  18.345  1.00  0.00     0.158 A 
BRANCH  15  18
ATOM     18  O   UNL     1      21.415  -0.788  19.283  1.00  0.00    -0.504 OA
ATOM     19  H   UNL     1      21.974  -0.447  20.056  1.00  0.00     0.293 HD
ENDBRANCH  15  18
BRANCH  17  20
ATOM     20  O   UNL     1      19.283  -1.564  17.599  1.00  0.00    -0.504 OA
ATOM     21  H   UNL     1      19.650  -1.177  16.738  1.00  0.00     0.293 HD
ENDBRANCH  17  20
ENDBRANCH   1  12
BRANCH   6  22
ATOM     22  O   UNL     1      18.129 -11.125  19.097  1.00  0.00    -0.507 OA
ATOM     23  H   UNL     1      17.881 -10.940  20.057  1.00  0.00     0.293 HD
ENDBRANCH   6  22
BRANCH   8  24
ATOM     24  O   UNL     1      21.381 -11.032  15.564  1.00  0.00    -0.508 OA
ATOM     25  H   UNL     1      21.021 -11.881  15.144  1.00  0.00     0.293 HD
ENDBRANCH   8  24
TORSDOF 5
ENDMDL
MODEL 5
REMARK VINA RESULT:    -4.073      1.515      3.103
REMARK INTER + INTRA:          -5.066
REMARK INTER:                  -4.786
REMARK INTRA:                  -0.279
REMARK UNBOUND:                -0.278
REMARK SMILES O=c1cc(-c2ccc(O)c(O)c2)oc2cc(O)cc(O)c12
REMARK SMILES IDX 4 1 3 2 2 3 1 4 21 5 19 6 18 7 16 8 15 9 14 10 13 11 5 12
REMARK SMILES IDX 6 13 7 14 8 15 12 16 10 17 9 18 11 20 20 22 17 24
REMARK H PARENT 9 19 11 21 20 23 17 25
REMARK Flexibility Score: inf
ROOT
ATOM      1  C   UNL     1       9.981  -1.417  16.897  1.00  0.00     0.138 A 
ATOM      2  C   UNL     1       9.193  -0.350  17.350  1.00  0.00     0.100 A 
ATOM      3  C   UNL     1       9.717   0.547  18.283  1.00  0.00     0.197 A 
ATOM      4  O   UNL     1       8.966   1.459  18.717  1.00  0.00    -0.289 OA
ATOM      5  C   UNL     1      11.048   0.391  18.739  1.00  0.00     0.107 A 
ATOM      6  C   UNL     1      11.701   1.267  19.656  1.00  0.00     0.134 A 
ATOM      7  C   UNL     1      12.980   0.946  20.125  1.00  0.00     0.093 A 
ATOM      8  C   UNL     1      13.654  -0.189  19.663  1.00  0.00     0.123 A 
ATOM      9  C   UNL     1      13.046  -1.021  18.727  1.00  0.00     0.094 A 
ATOM     10  C   UNL     1      11.757  -0.746  18.266  1.00  0.00     0.146 A 
ATOM     11  O   UNL     1      11.208  -1.574  17.384  1.00  0.00    -0.456 OA
ENDROOT
BRANCH   1  12
ATOM     12  C   UNL     1       9.473  -2.400  15.906  1.00  0.00     0.021 A 
ATOM     13  C   UNL     1       8.300  -3.145  16.138  1.00  0.00     0.016 A 
ATOM     14  C   UNL     1       7.840  -4.054  15.182  1.00  0.00     0.051 A 
ATOM     15  C   UNL     1       8.534  -4.231  13.980  1.00  0.00     0.157 A 
ATOM     16  C   UNL     1      10.156  -2.574  14.690  1.00  0.00     0.062 A 
ATOM     17  C   UNL     1       9.698  -3.485  13.733  1.00  0.00     0.158 A 
BRANCH  15  18
ATOM     18  O   UNL     1       8.072  -5.141  13.030  1.00  0.00    -0.504 OA
ATOM     19  H   UNL     1       7.123  -5.105  12.678  1.00  0.00     0.293 HD
ENDBRANCH  15  18
BRANCH  17  20
ATOM     20  O   UNL     1      10.411  -3.634  12.543  1.00  0.00    -0.504 OA
ATOM     21  H   UNL     1      10.470  -2.893  11.855  1.00  0.00     0.293 HD
ENDBRANCH  17  20
ENDBRANCH   1  12
BRANCH   6  22
ATOM     22  O   UNL     1      11.151   2.468  20.115  1.00  0.00    -0.507 OA
ATOM     23  H   UNL     1      10.173   2.617  20.310  1.00  0.00     0.293 HD
ENDBRANCH   6  22
BRANCH   8  24
ATOM     24  O   UNL     1      14.933  -0.492  20.124  1.00  0.00    -0.508 OA
ATOM     25  H   UNL     1      15.079  -0.995  20.992  1.00  0.00     0.293 HD
ENDBRANCH   8  24
TORSDOF 5
ENDMDL
MODEL 6
REMARK VINA RESULT:    -3.739      3.130      5.819
REMARK INTER + INTRA:          -4.673
REMARK INTER:                  -4.363
REMARK INTRA:                  -0.309
REMARK UNBOUND:                -0.278
REMARK SMILES O=c1cc(-c2ccc(O)c(O)c2)oc2cc(O)cc(O)c12
REMARK SMILES IDX 4 1 3 2 2 3 1 4 21 5 19 6 18 7 16 8 15 9 14 10 13 11 5 12
REMARK SMILES IDX 6 13 7 14 8 15 12 16 10 17 9 18 11 20 20 22 17 24
REMARK H PARENT 9 19 11 21 20 23 17 25
REMARK Flexibility Score: inf
ROOT
ATOM      1  C   UNL     1      11.172  -0.385  19.392  1.00  0.00     0.138 A 
ATOM      2  C   UNL     1      10.845   0.940  19.709  1.00  0.00     0.100 A 
ATOM      3  C   UNL     1       9.536   1.390  19.529  1.00  0.00     0.197 A 
ATOM      4  O   UNL     1       9.287   2.601  19.764  1.00  0.00    -0.289 OA
ATOM      5  C   UNL     1       8.544   0.498  19.057  1.00  0.00     0.107 A 
ATOM      6  C   UNL     1       7.169   0.833  18.874  1.00  0.00     0.134 A 
ATOM      7  C   UNL     1       6.303  -0.100  18.292  1.00  0.00     0.093 A 
ATOM      8  C   UNL     1       6.749  -1.377  17.941  1.00  0.00     0.123 A 
ATOM      9  C   UNL     1       8.076  -1.733  18.166  1.00  0.00     0.094 A 
ATOM     10  C   UNL     1       8.973  -0.813  18.714  1.00  0.00     0.146 A 
ATOM     11  O   UNL     1      10.234  -1.188  18.899  1.00  0.00    -0.456 OA
ENDROOT
BRANCH   1  12
ATOM     12  C   UNL     1      12.549  -0.916  19.565  1.00  0.00     0.021 A 
ATOM     13  C   UNL     1      13.673  -0.067  19.569  1.00  0.00     0.016 A 
ATOM     14  C   UNL     1      14.955  -0.593  19.746  1.00  0.00     0.051 A 
ATOM     15  C   UNL     1      15.138  -1.969  19.928  1.00  0.00     0.157 A 
ATOM     16  C   UNL     1      12.740  -2.295  19.763  1.00  0.00     0.062 A 
ATOM     17  C   UNL     1      14.024  -2.823  19.938  1.00  0.00     0.158 A 
BRANCH  15  18
ATOM     18  O   UNL     1      16.420  -2.489  20.101  1.00  0.00    -0.504 OA
ATOM     19  H   UNL     1      16.651  -3.078  20.893  1.00  0.00     0.293 HD
ENDBRANCH  15  18
BRANCH  17  20
ATOM     20  O   UNL     1      14.171  -4.198  20.121  1.00  0.00    -0.504 OA
ATOM     21  H   UNL     1      13.507  -4.864  19.746  1.00  0.00     0.293 HD
ENDBRANCH  17  20
ENDBRANCH   1  12
BRANCH   6  22
ATOM     22  O   UNL     1       6.604   2.050  19.267  1.00  0.00    -0.507 OA
ATOM     23  H   UNL     1       6.594   2.403  20.211  1.00  0.00     0.293 HD
ENDBRANCH   6  22
BRANCH   8  24
ATOM     24  O   UNL     1       5.875  -2.304  17.376  1.00  0.00    -0.508 OA
ATOM     25  H   UNL     1       5.067  -2.012  16.840  1.00  0.00     0.293 HD
ENDBRANCH   8  24
TORSDOF 5
ENDMDL
MODEL 7
REMARK VINA RESULT:    -3.288      2.044      3.588
REMARK INTER + INTRA:          -4.142
REMARK INTER:                  -3.838
REMARK INTRA:                  -0.304
REMARK UNBOUND:                -0.278
REMARK SMILES O=c1cc(-c2ccc(O)c(O)c2)oc2cc(O)cc(O)c12
REMARK SMILES IDX 4 1 3 2 2 3 1 4 21 5 19 6 18 7 16 8 15 9 14 10 13 11 5 12
REMARK SMILES IDX 6 13 7 14 8 15 12 16 10 17 9 18 11 20 20 22 17 24
REMARK H PARENT 9 19 11 21 20 23 17 25
REMARK Flexibility Score: inf
ROOT
ATOM      1  C   UNL     1       8.983  -2.070  15.685  1.00  0.00     0.138 A 
ATOM      2  C   UNL     1       7.968  -2.849  16.257  1.00  0.00     0.100 A 
ATOM      3  C   UNL     1       7.464  -2.510  17.514  1.00  0.00     0.197 A 
ATOM      4  O   UNL     1       6.598  -3.263  18.029  1.00  0.00    -0.289 OA
ATOM      5  C   UNL     1       7.957  -1.365  18.185  1.00  0.00     0.107 A 
ATOM      6  C   UNL     1       7.490  -0.900  19.450  1.00  0.00     0.134 A 
ATOM      7  C   UNL     1       8.134   0.178  20.069  1.00  0.00     0.093 A 
ATOM      8  C   UNL     1       9.191   0.843  19.442  1.00  0.00     0.123 A 
ATOM      9  C   UNL     1       9.619   0.431  18.183  1.00  0.00     0.094 A 
ATOM     10  C   UNL     1       9.019  -0.662  17.554  1.00  0.00     0.146 A 
ATOM     11  O   UNL     1       9.468  -1.033  16.360  1.00  0.00    -0.456 OA
ENDROOT
BRANCH   1  12
ATOM     12  C   UNL     1       9.555  -2.386  14.351  1.00  0.00     0.021 A 
ATOM     13  C   UNL     1       9.637  -3.710  13.876  1.00  0.00     0.016 A 
ATOM     14  C   UNL     1      10.169  -3.977  12.613  1.00  0.00     0.051 A 
ATOM     15  C   UNL     1      10.622  -2.931  11.799  1.00  0.00     0.157 A 
ATOM     16  C   UNL     1       9.998  -1.341  13.522  1.00  0.00     0.062 A 
ATOM     17  C   UNL     1      10.534  -1.606  12.257  1.00  0.00     0.158 A 
BRANCH  15  18
ATOM     18  O   UNL     1      11.154  -3.202  10.540  1.00  0.00    -0.504 OA
ATOM     19  H   UNL     1      11.226  -2.485   9.828  1.00  0.00     0.293 HD
ENDBRANCH  15  18
BRANCH  17  20
ATOM     20  O   UNL     1      10.972  -0.541  11.469  1.00  0.00    -0.504 OA
ATOM     21  H   UNL     1      10.349   0.202  11.177  1.00  0.00     0.293 HD
ENDBRANCH  17  20
ENDBRANCH   1  12
BRANCH   6  22
ATOM     22  O   UNL     1       6.389  -1.440  20.122  1.00  0.00    -0.507 OA
ATOM     23  H   UNL     1       5.487  -1.613  19.707  1.00  0.00     0.293 HD
ENDBRANCH   6  22
BRANCH   8  24
ATOM     24  O   UNL     1       9.816   1.925  20.060  1.00  0.00    -0.508 OA
ATOM     25  H   UNL     1      10.364   1.808  20.904  1.00  0.00     0.293 HD
ENDBRANCH   8  24
TORSDOF 5
ENDMDL
MODEL 8
REMARK VINA RESULT:    -3.252      3.651      6.235
REMARK INTER + INTRA:          -4.101
REMARK INTER:                  -3.806
REMARK INTRA:                  -0.295
REMARK UNBOUND:                -0.278
REMARK SMILES O=c1cc(-c2ccc(O)c(O)c2)oc2cc(O)cc(O)c12
REMARK SMILES IDX 4 1 3 2 2 3 1 4 21 5 19 6 18 7 16 8 15 9 14 10 13 11 5 12
REMARK SMILES IDX 6 13 7 14 8 15 12 16 10 17 9 18 11 20 20 22 17 24
REMARK H PARENT 9 19 11 21 20 23 17 25
REMARK Flexibility Score: inf
ROOT
ATOM      1  C   UNL     1      11.446  -1.622  18.997  1.00  0.00     0.138 A 
ATOM      2  C   UNL     1      11.000  -0.435  18.400  1.00  0.00     0.100 A 
ATOM      3  C   UNL     1       9.639  -0.263  18.138  1.00  0.00     0.197 A 
ATOM      4  O   UNL     1       9.276   0.786  17.546  1.00  0.00    -0.289 OA
ATOM      5  C   UNL     1       8.719  -1.273  18.506  1.00  0.00     0.107 A 
ATOM      6  C   UNL     1       7.305  -1.190  18.326  1.00  0.00     0.134 A 
ATOM      7  C   UNL     1       6.506  -2.300  18.622  1.00  0.00     0.093 A 
ATOM      8  C   UNL     1       7.062  -3.470  19.148  1.00  0.00     0.123 A 
ATOM      9  C   UNL     1       8.433  -3.541  19.378  1.00  0.00     0.094 A 
ATOM     10  C   UNL     1       9.262  -2.463  19.061  1.00  0.00     0.146 A 
ATOM     11  O   UNL     1      10.567  -2.578  19.282  1.00  0.00    -0.456 OA
ENDROOT
BRANCH   1  12
ATOM     12  C   UNL     1      12.881  -1.856  19.297  1.00  0.00     0.021 A 
ATOM     13  C   UNL     1      13.330  -3.065  19.864  1.00  0.00     0.016 A 
ATOM     14  C   UNL     1      14.688  -3.262  20.125  1.00  0.00     0.051 A 
ATOM     15  C   UNL     1      15.621  -2.264  19.819  1.00  0.00     0.157 A 
ATOM     16  C   UNL     1      13.826  -0.865  18.980  1.00  0.00     0.062 A 
ATOM     17  C   UNL     1      15.187  -1.060  19.242  1.00  0.00     0.158 A 
BRANCH  15  18
ATOM     18  O   UNL     1      16.975  -2.465  20.083  1.00  0.00    -0.504 OA
ATOM     19  H   UNL     1      17.539  -1.753  20.534  1.00  0.00     0.293 HD
ENDBRANCH  15  18
BRANCH  17  20
ATOM     20  O   UNL     1      16.090  -0.047  18.921  1.00  0.00    -0.504 OA
ATOM     21  H   UNL     1      16.322   0.693  19.573  1.00  0.00     0.293 HD
ENDBRANCH  17  20
ENDBRANCH   1  12
BRANCH   6  22
ATOM     22  O   UNL     1       6.641  -0.041  17.888  1.00  0.00    -0.507 OA
ATOM     23  H   UNL     1       6.794   0.411  16.999  1.00  0.00     0.293 HD
ENDBRANCH   6  22
BRANCH   8  24
ATOM     24  O   UNL     1       6.256  -4.565  19.454  1.00  0.00    -0.508 OA
ATOM     25  H   UNL     1       6.041  -5.274  18.763  1.00  0.00     0.293 HD
ENDBRANCH   8  24
TORSDOF 5
ENDMDL
