MODEL 1
REMARK VINA RESULT:    -7.181      0.000      0.000
REMARK INTER + INTRA:         -14.455
REMARK INTER:                 -11.799
REMARK INTRA:                  -2.656
REMARK UNBOUND:                -2.656
REMARK SMILES C[C@@H]1O[C@H](OC[C@@H]2O[C@H](Oc3c(-c4ccc(O)c(O)c4)oc4cc(O)cc(O)c4c3=O)[C@H](O)[C@@H](O)[C@H]2O)[C@H](O)[C@H](O)[C@@H]1O
REMARK SMILES IDX 7 1 36 2 34 3 32 4 9 5 8 6 6 7 5 8 4 9 1 10 2 11 42 12 3 13
REMARK SMILES IDX 40 14 38 15 43 16 41 18 39 20 37 22 35 24 10 26 11 27 12 28
REMARK SMILES IDX 30 29 21 30 29 31 31 32 22 33 27 34 23 35 26 36 24 37 13 38
REMARK SMILES IDX 20 39 14 40 18 41 15 42 16 43 19 44 17 46 28 48 25 50 33 52
REMARK H PARENT 43 17 41 19 39 21 37 23 35 25 19 45 17 47 28 49 25 51 33 53
REMARK Flexibility Score: inf
ROOT
ATOM      1  C   UNL     1     -37.042   8.096  81.890  1.00  0.00     0.180 C 
ATOM      2  C   UNL     1     -37.749   8.735  83.127  1.00  0.00     0.177 C 
ATOM      3  C   UNL     1     -38.614   7.695  83.872  1.00  0.00     0.180 C 
ATOM      4  C   UNL     1     -37.837   6.372  84.046  1.00  0.00     0.214 C 
ATOM      5  C   UNL     1     -37.196   5.911  82.700  1.00  0.00     0.339 C 
ATOM      6  O   UNL     1     -37.530   6.789  81.641  1.00  0.00    -0.332 OA
ENDROOT
BRANCH   1   7
ATOM      7  C   UNL     1     -37.205   8.953  80.610  1.00  0.00     0.198 C 
BRANCH   7   8
ATOM      8  O   UNL     1     -38.139   8.370  79.714  1.00  0.00    -0.347 OA
BRANCH   8   9
ATOM      9  C   UNL     1     -39.374   9.063  79.725  1.00  0.00     0.281 C 
ATOM     10  C   UNL     1     -37.947   9.250  76.964  1.00  0.00     0.041 C 
ATOM     11  C   UNL     1     -39.350   9.695  77.419  1.00  0.00     0.150 C 
ATOM     12  C   UNL     1     -40.489   8.701  77.074  1.00  0.00     0.174 C 
ATOM     13  O   UNL     1     -39.375  10.125  78.778  1.00  0.00    -0.344 OA
ATOM     14  C   UNL     1     -40.557   7.528  78.068  1.00  0.00     0.179 C 
ATOM     15  C   UNL     1     -40.544   8.088  79.503  1.00  0.00     0.202 C 
BRANCH  12  16
ATOM     16  O   UNL     1     -40.352   8.234  75.754  1.00  0.00    -0.388 OA
ATOM     17  H   UNL     1     -39.385   8.273  75.536  1.00  0.00     0.211 HD
ENDBRANCH  12  16
BRANCH  14  18
ATOM     18  O   UNL     1     -39.488   6.638  77.862  1.00  0.00    -0.387 OA
ATOM     19  H   UNL     1     -39.477   6.409  76.897  1.00  0.00     0.211 HD
ENDBRANCH  14  18
BRANCH  15  20
ATOM     20  O   UNL     1     -40.544   7.077  80.484  1.00  0.00    -0.385 OA
ATOM     21  H   UNL     1     -39.659   7.076  80.942  1.00  0.00     0.211 HD
ENDBRANCH  15  20
ENDBRANCH   8   9
ENDBRANCH   7   8
ENDBRANCH   1   7
BRANCH   2  22
ATOM     22  O   UNL     1     -36.771   9.262  83.991  1.00  0.00    -0.387 OA
ATOM     23  H   UNL     1     -37.203   9.985  84.519  1.00  0.00     0.211 HD
ENDBRANCH   2  22
BRANCH   3  24
ATOM     24  O   UNL     1     -38.998   8.200  85.125  1.00  0.00    -0.387 OA
ATOM     25  H   UNL     1     -38.290   8.826  85.421  1.00  0.00     0.211 HD
ENDBRANCH   3  24
BRANCH   5  26
ATOM     26  O   UNL     1     -37.660   4.603  82.350  1.00  0.00    -0.454 OA
BRANCH  26  27
ATOM     27  C   UNL     1     -38.437   4.305  81.218  1.00  0.00     0.214 A 
ATOM     28  C   UNL     1     -37.925   4.334  79.904  1.00  0.00     0.180 A 
ATOM     29  C   UNL     1     -39.783   3.961  81.404  1.00  0.00     0.239 A 
ATOM     30  O   UNL     1     -38.683   3.931  78.891  1.00  0.00    -0.452 OA
ATOM     31  C   UNL     1     -40.589   3.620  80.294  1.00  0.00     0.111 A 
ATOM     32  O   UNL     1     -40.231   3.924  82.580  1.00  0.00    -0.285 OA
ATOM     33  C   UNL     1     -39.951   3.565  79.029  1.00  0.00     0.146 A 
ATOM     34  C   UNL     1     -41.976   3.291  80.371  1.00  0.00     0.134 A 
ATOM     35  C   UNL     1     -40.650   3.139  77.897  1.00  0.00     0.094 A 
ATOM     36  C   UNL     1     -42.642   2.838  79.225  1.00  0.00     0.093 A 
ATOM     37  C   UNL     1     -41.987   2.761  77.995  1.00  0.00     0.123 A 
BRANCH  28  38
ATOM     38  C   UNL     1     -36.569   4.818  79.593  1.00  0.00     0.025 A 
ATOM     39  C   UNL     1     -36.401   5.925  78.749  1.00  0.00     0.062 A 
ATOM     40  C   UNL     1     -35.446   4.227  80.186  1.00  0.00     0.016 A 
ATOM     41  C   UNL     1     -35.115   6.407  78.458  1.00  0.00     0.158 A 
ATOM     42  C   UNL     1     -34.166   4.713  79.905  1.00  0.00     0.051 A 
ATOM     43  C   UNL     1     -33.993   5.790  79.032  1.00  0.00     0.157 A 
BRANCH  41  44
ATOM     44  O   UNL     1     -34.948   7.497  77.606  1.00  0.00    -0.504 OA
ATOM     45  H   UNL     1     -35.527   7.622  76.791  1.00  0.00     0.293 HD
ENDBRANCH  41  44
BRANCH  43  46
ATOM     46  O   UNL     1     -32.700   6.222  78.747  1.00  0.00    -0.504 OA
ATOM     47  H   UNL     1     -32.362   7.144  79.013  1.00  0.00     0.293 HD
ENDBRANCH  43  46
ENDBRANCH  28  38
BRANCH  34  48
ATOM     48  O   UNL     1     -42.747   3.417  81.530  1.00  0.00    -0.507 OA
ATOM     49  H   UNL     1     -43.490   4.088  81.654  1.00  0.00     0.293 HD
ENDBRANCH  34  48
BRANCH  37  50
ATOM     50  O   UNL     1     -42.660   2.311  76.861  1.00  0.00    -0.508 OA
ATOM     51  H   UNL     1     -43.534   1.802  76.932  1.00  0.00     0.293 HD
ENDBRANCH  37  50
ENDBRANCH  26  27
ENDBRANCH   5  26
BRANCH   4  52
ATOM     52  O   UNL     1     -38.660   5.380  84.610  1.00  0.00    -0.384 OA
ATOM     53  H   UNL     1     -39.080   4.873  83.863  1.00  0.00     0.211 HD
ENDBRANCH   4  52
TORSDOF 16
ENDMDL
MODEL 2
REMARK VINA RESULT:    -7.088      1.920      4.113
REMARK INTER + INTRA:         -14.302
REMARK INTER:                 -11.514
REMARK INTRA:                  -2.788
REMARK UNBOUND:                -2.656
REMARK SMILES C[C@@H]1O[C@H](OC[C@@H]2O[C@H](Oc3c(-c4ccc(O)c(O)c4)oc4cc(O)cc(O)c4c3=O)[C@H](O)[C@@H](O)[C@H]2O)[C@H](O)[C@H](O)[C@@H]1O
REMARK SMILES IDX 7 1 36 2 34 3 32 4 9 5 8 6 6 7 5 8 4 9 1 10 2 11 42 12 3 13
REMARK SMILES IDX 40 14 38 15 43 16 41 18 39 20 37 22 35 24 10 26 11 27 12 28
REMARK SMILES IDX 30 29 21 30 29 31 31 32 22 33 27 34 23 35 26 36 24 37 13 38
REMARK SMILES IDX 20 39 14 40 18 41 15 42 16 43 19 44 17 46 28 48 25 50 33 52
REMARK H PARENT 43 17 41 19 39 21 37 23 35 25 19 45 17 47 28 49 25 51 33 53
REMARK Flexibility Score: inf
ROOT
ATOM      1  C   UNL     1     -36.032   7.153  78.006  1.00  0.00     0.180 C 
ATOM      2  C   UNL     1     -34.647   7.732  78.436  1.00  0.00     0.177 C 
ATOM      3  C   UNL     1     -33.972   6.832  79.493  1.00  0.00     0.180 C 
ATOM      4  C   UNL     1     -34.074   5.347  79.082  1.00  0.00     0.214 C 
ATOM      5  C   UNL     1     -35.533   4.971  78.676  1.00  0.00     0.339 C 
ATOM      6  O   UNL     1     -36.412   6.069  78.836  1.00  0.00    -0.332 OA
ENDROOT
BRANCH   1   7
ATOM      7  C   UNL     1     -37.151   8.224  78.021  1.00  0.00     0.198 C 
BRANCH   7   8
ATOM      8  O   UNL     1     -38.267   7.792  78.784  1.00  0.00    -0.347 OA
BRANCH   8   9
ATOM      9  C   UNL     1     -38.802   8.844  79.566  1.00  0.00     0.281 C 
ATOM     10  C   UNL     1     -40.310   8.509  76.863  1.00  0.00     0.041 C 
ATOM     11  C   UNL     1     -40.604   9.389  78.092  1.00  0.00     0.150 C 
ATOM     12  C   UNL     1     -41.658   8.806  79.070  1.00  0.00     0.174 C 
ATOM     13  O   UNL     1     -39.418   9.831  78.747  1.00  0.00    -0.344 OA
ATOM     14  C   UNL     1     -41.057   7.736  80.000  1.00  0.00     0.179 C 
ATOM     15  C   UNL     1     -39.766   8.291  80.631  1.00  0.00     0.202 C 
BRANCH  12  16
ATOM     16  O   UNL     1     -42.758   8.293  78.359  1.00  0.00    -0.388 OA
ATOM     17  H   UNL     1     -43.561   8.775  78.689  1.00  0.00     0.211 HD
ENDBRANCH  12  16
BRANCH  14  18
ATOM     18  O   UNL     1     -40.805   6.547  79.294  1.00  0.00    -0.387 OA
ATOM     19  H   UNL     1     -40.220   5.985  79.865  1.00  0.00     0.211 HD
ENDBRANCH  14  18
BRANCH  15  20
ATOM     20  O   UNL     1     -39.114   7.354  81.455  1.00  0.00    -0.385 OA
ATOM     21  H   UNL     1     -38.948   7.772  82.344  1.00  0.00     0.211 HD
ENDBRANCH  15  20
ENDBRANCH   8   9
ENDBRANCH   7   8
ENDBRANCH   1   7
BRANCH   2  22
ATOM     22  O   UNL     1     -33.827   7.846  77.299  1.00  0.00    -0.387 OA
ATOM     23  H   UNL     1     -33.879   6.982  76.809  1.00  0.00     0.211 HD
ENDBRANCH   2  22
BRANCH   3  24
ATOM     24  O   UNL     1     -32.625   7.200  79.647  1.00  0.00    -0.387 OA
ATOM     25  H   UNL     1     -32.119   6.380  79.878  1.00  0.00     0.211 HD
ENDBRANCH   3  24
BRANCH   5  26
ATOM     26  O   UNL     1     -36.016   3.898  79.491  1.00  0.00    -0.454 OA
BRANCH  26  27
ATOM     27  C   UNL     1     -37.249   3.896  80.165  1.00  0.00     0.214 A 
ATOM     28  C   UNL     1     -37.412   4.401  81.471  1.00  0.00     0.180 A 
ATOM     29  C   UNL     1     -38.368   3.371  79.505  1.00  0.00     0.239 A 
ATOM     30  O   UNL     1     -38.626   4.472  82.004  1.00  0.00    -0.452 OA
ATOM     31  C   UNL     1     -39.634   3.383  80.135  1.00  0.00     0.111 A 
ATOM     32  O   UNL     1     -38.219   2.934  78.334  1.00  0.00    -0.285 OA
ATOM     33  C   UNL     1     -39.716   4.017  81.400  1.00  0.00     0.146 A 
ATOM     34  C   UNL     1     -40.826   2.841  79.566  1.00  0.00     0.134 A 
ATOM     35  C   UNL     1     -40.947   4.162  82.045  1.00  0.00     0.094 A 
ATOM     36  C   UNL     1     -42.049   3.029  80.221  1.00  0.00     0.093 A 
ATOM     37  C   UNL     1     -42.114   3.685  81.452  1.00  0.00     0.123 A 
BRANCH  28  38
ATOM     38  C   UNL     1     -36.277   4.842  82.298  1.00  0.00     0.025 A 
ATOM     39  C   UNL     1     -35.306   3.913  82.703  1.00  0.00     0.062 A 
ATOM     40  C   UNL     1     -36.115   6.194  82.628  1.00  0.00     0.016 A 
ATOM     41  C   UNL     1     -34.209   4.325  83.478  1.00  0.00     0.158 A 
ATOM     42  C   UNL     1     -35.018   6.606  83.389  1.00  0.00     0.051 A 
ATOM     43  C   UNL     1     -34.072   5.677  83.829  1.00  0.00     0.157 A 
BRANCH  41  44
ATOM     44  O   UNL     1     -33.256   3.399  83.894  1.00  0.00    -0.504 OA
ATOM     45  H   UNL     1     -33.519   2.536  84.342  1.00  0.00     0.293 HD
ENDBRANCH  41  44
BRANCH  43  46
ATOM     46  O   UNL     1     -33.013   6.119  84.618  1.00  0.00    -0.504 OA
ATOM     47  H   UNL     1     -33.074   6.175  85.631  1.00  0.00     0.293 HD
ENDBRANCH  43  46
ENDBRANCH  28  38
BRANCH  34  48
ATOM     48  O   UNL     1     -40.861   2.093  78.387  1.00  0.00    -0.507 OA
ATOM     49  H   UNL     1     -41.401   2.333  77.570  1.00  0.00     0.293 HD
ENDBRANCH  34  48
BRANCH  37  50
ATOM     50  O   UNL     1     -43.336   3.865  82.096  1.00  0.00    -0.508 OA
ATOM     51  H   UNL     1     -43.749   4.785  82.200  1.00  0.00     0.293 HD
ENDBRANCH  37  50
ENDBRANCH  26  27
ENDBRANCH   5  26
BRANCH   4  52
ATOM     52  O   UNL     1     -33.573   4.513  80.099  1.00  0.00    -0.384 OA
ATOM     53  H   UNL     1     -32.703   4.143  79.786  1.00  0.00     0.211 HD
ENDBRANCH   4  52
TORSDOF 16
ENDMDL
MODEL 3
REMARK VINA RESULT:    -6.875      1.671      6.864
REMARK INTER + INTRA:         -13.953
REMARK INTER:                 -11.088
REMARK INTRA:                  -2.865
REMARK UNBOUND:                -2.656
REMARK SMILES C[C@@H]1O[C@H](OC[C@@H]2O[C@H](Oc3c(-c4ccc(O)c(O)c4)oc4cc(O)cc(O)c4c3=O)[C@H](O)[C@@H](O)[C@H]2O)[C@H](O)[C@H](O)[C@@H]1O
REMARK SMILES IDX 7 1 36 2 34 3 32 4 9 5 8 6 6 7 5 8 4 9 1 10 2 11 42 12 3 13
REMARK SMILES IDX 40 14 38 15 43 16 41 18 39 20 37 22 35 24 10 26 11 27 12 28
REMARK SMILES IDX 30 29 21 30 29 31 31 32 22 33 27 34 23 35 26 36 24 37 13 38
REMARK SMILES IDX 20 39 14 40 18 41 15 42 16 43 19 44 17 46 28 48 25 50 33 52
REMARK H PARENT 43 17 41 19 39 21 37 23 35 25 19 45 17 47 28 49 25 51 33 53
REMARK Flexibility Score: inf
ROOT
ATOM      1  C   UNL     1     -40.209   4.246  81.794  1.00  0.00     0.180 C 
ATOM      2  C   UNL     1     -41.627   3.653  81.519  1.00  0.00     0.177 C 
ATOM      3  C   UNL     1     -42.002   3.777  80.026  1.00  0.00     0.180 C 
ATOM      4  C   UNL     1     -40.818   3.344  79.134  1.00  0.00     0.214 C 
ATOM      5  C   UNL     1     -39.492   4.036  79.580  1.00  0.00     0.339 C 
ATOM      6  O   UNL     1     -39.712   4.930  80.656  1.00  0.00    -0.332 OA
ENDROOT
BRANCH   1   7
ATOM      7  C   UNL     1     -40.195   5.203  83.011  1.00  0.00     0.198 C 
BRANCH   7   8
ATOM      8  O   UNL     1     -39.340   6.313  82.784  1.00  0.00    -0.347 OA
BRANCH   8   9
ATOM      9  C   UNL     1     -38.930   6.913  83.999  1.00  0.00     0.281 C 
ATOM     10  C   UNL     1     -36.616   5.350  82.623  1.00  0.00     0.041 C 
ATOM     11  C   UNL     1     -36.629   6.277  83.852  1.00  0.00     0.150 C 
ATOM     12  C   UNL     1     -36.183   7.735  83.571  1.00  0.00     0.174 C 
ATOM     13  O   UNL     1     -37.849   6.197  84.586  1.00  0.00    -0.344 OA
ATOM     14  C   UNL     1     -37.310   8.576  82.944  1.00  0.00     0.179 C 
ATOM     15  C   UNL     1     -38.591   8.398  83.782  1.00  0.00     0.202 C 
BRANCH  12  16
ATOM     16  O   UNL     1     -35.035   7.750  82.758  1.00  0.00    -0.388 OA
ATOM     17  H   UNL     1     -35.332   7.529  81.838  1.00  0.00     0.211 HD
ENDBRANCH  12  16
BRANCH  14  18
ATOM     18  O   UNL     1     -37.526   8.203  81.606  1.00  0.00    -0.387 OA
ATOM     19  H   UNL     1     -37.576   7.212  81.582  1.00  0.00     0.211 HD
ENDBRANCH  14  18
BRANCH  15  20
ATOM     20  O   UNL     1     -39.694   9.090  83.246  1.00  0.00    -0.385 OA
ATOM     21  H   UNL     1     -40.232   8.456  82.696  1.00  0.00     0.211 HD
ENDBRANCH  15  20
ENDBRANCH   8   9
ENDBRANCH   7   8
ENDBRANCH   1   7
BRANCH   2  22
ATOM     22  O   UNL     1     -41.643   2.303  81.914  1.00  0.00    -0.387 OA
ATOM     23  H   UNL     1     -41.989   1.775  81.145  1.00  0.00     0.211 HD
ENDBRANCH   2  22
BRANCH   3  24
ATOM     24  O   UNL     1     -43.131   2.989  79.748  1.00  0.00    -0.387 OA
ATOM     25  H   UNL     1     -43.932   3.544  79.932  1.00  0.00     0.211 HD
ENDBRANCH   3  24
BRANCH   5  26
ATOM     26  O   UNL     1     -38.932   4.783  78.495  1.00  0.00    -0.454 OA
BRANCH  26  27
ATOM     27  C   UNL     1     -37.846   5.668  78.609  1.00  0.00     0.214 A 
ATOM     28  C   UNL     1     -37.956   7.054  78.375  1.00  0.00     0.180 A 
ATOM     29  C   UNL     1     -36.597   5.147  78.974  1.00  0.00     0.239 A 
ATOM     30  O   UNL     1     -36.917   7.847  78.612  1.00  0.00    -0.452 OA
ATOM     31  C   UNL     1     -35.488   6.008  79.134  1.00  0.00     0.111 A 
ATOM     32  O   UNL     1     -36.509   3.911  79.195  1.00  0.00    -0.285 OA
ATOM     33  C   UNL     1     -35.728   7.399  78.990  1.00  0.00     0.146 A 
ATOM     34  C   UNL     1     -34.168   5.576  79.467  1.00  0.00     0.134 A 
ATOM     35  C   UNL     1     -34.710   8.325  79.231  1.00  0.00     0.094 A 
ATOM     36  C   UNL     1     -33.177   6.529  79.731  1.00  0.00     0.093 A 
ATOM     37  C   UNL     1     -33.442   7.895  79.616  1.00  0.00     0.123 A 
BRANCH  28  38
ATOM     38  C   UNL     1     -39.184   7.675  77.853  1.00  0.00     0.025 A 
ATOM     39  C   UNL     1     -40.314   7.787  78.676  1.00  0.00     0.062 A 
ATOM     40  C   UNL     1     -39.216   8.219  76.562  1.00  0.00     0.016 A 
ATOM     41  C   UNL     1     -41.486   8.393  78.195  1.00  0.00     0.158 A 
ATOM     42  C   UNL     1     -40.379   8.831  76.086  1.00  0.00     0.051 A 
ATOM     43  C   UNL     1     -41.519   8.908  76.890  1.00  0.00     0.157 A 
BRANCH  41  44
ATOM     44  O   UNL     1     -42.613   8.488  79.009  1.00  0.00    -0.504 OA
ATOM     45  H   UNL     1     -42.926   9.373  79.374  1.00  0.00     0.293 HD
ENDBRANCH  41  44
BRANCH  43  46
ATOM     46  O   UNL     1     -42.671   9.491  76.368  1.00  0.00    -0.504 OA
ATOM     47  H   UNL     1     -43.226  10.163  76.891  1.00  0.00     0.293 HD
ENDBRANCH  43  46
ENDBRANCH  28  38
BRANCH  34  48
ATOM     48  O   UNL     1     -33.774   4.237  79.522  1.00  0.00    -0.507 OA
ATOM     49  H   UNL     1     -33.363   3.792  80.329  1.00  0.00     0.293 HD
ENDBRANCH  34  48
BRANCH  37  50
ATOM     50  O   UNL     1     -32.448   8.835  79.880  1.00  0.00    -0.508 OA
ATOM     51  H   UNL     1     -31.674   8.979  79.240  1.00  0.00     0.293 HD
ENDBRANCH  37  50
ENDBRANCH  26  27
ENDBRANCH   5  26
BRANCH   4  52
ATOM     52  O   UNL     1     -41.107   3.573  77.777  1.00  0.00    -0.384 OA
ATOM     53  H   UNL     1     -40.414   4.193  77.419  1.00  0.00     0.211 HD
ENDBRANCH   4  52
TORSDOF 16
ENDMDL
MODEL 4
REMARK VINA RESULT:    -6.687      2.524      4.671
REMARK INTER + INTRA:         -13.643
REMARK INTER:                 -11.917
REMARK INTRA:                  -1.726
REMARK UNBOUND:                -2.656
REMARK SMILES C[C@@H]1O[C@H](OC[C@@H]2O[C@H](Oc3c(-c4ccc(O)c(O)c4)oc4cc(O)cc(O)c4c3=O)[C@H](O)[C@@H](O)[C@H]2O)[C@H](O)[C@H](O)[C@@H]1O
REMARK SMILES IDX 7 1 36 2 34 3 32 4 9 5 8 6 6 7 5 8 4 9 1 10 2 11 42 12 3 13
REMARK SMILES IDX 40 14 38 15 43 16 41 18 39 20 37 22 35 24 10 26 11 27 12 28
REMARK SMILES IDX 30 29 21 30 29 31 31 32 22 33 27 34 23 35 26 36 24 37 13 38
REMARK SMILES IDX 20 39 14 40 18 41 15 42 16 43 19 44 17 46 28 48 25 50 33 52
REMARK H PARENT 43 17 41 19 39 21 37 23 35 25 19 45 17 47 28 49 25 51 33 53
REMARK Flexibility Score: inf
ROOT
ATOM      1  C   UNL     1     -35.279   5.610  83.405  1.00  0.00     0.180 C 
ATOM      2  C   UNL     1     -35.202   4.280  84.219  1.00  0.00     0.177 C 
ATOM      3  C   UNL     1     -36.565   3.554  84.227  1.00  0.00     0.180 C 
ATOM      4  C   UNL     1     -37.176   3.536  82.809  1.00  0.00     0.214 C 
ATOM      5  C   UNL     1     -37.147   4.957  82.164  1.00  0.00     0.339 C 
ATOM      6  O   UNL     1     -36.618   5.919  83.056  1.00  0.00    -0.332 OA
ENDROOT
BRANCH   1   7
ATOM      7  C   UNL     1     -34.662   6.807  84.170  1.00  0.00     0.198 C 
BRANCH   7   8
ATOM      8  O   UNL     1     -33.780   7.549  83.341  1.00  0.00    -0.347 OA
BRANCH   8   9
ATOM      9  C   UNL     1     -34.213   8.888  83.185  1.00  0.00     0.281 C 
ATOM     10  C   UNL     1     -31.109   8.654  83.201  1.00  0.00     0.041 C 
ATOM     11  C   UNL     1     -32.040   9.846  82.912  1.00  0.00     0.150 C 
ATOM     12  C   UNL     1     -32.287  10.125  81.406  1.00  0.00     0.174 C 
ATOM     13  O   UNL     1     -33.241   9.803  83.678  1.00  0.00    -0.344 OA
ATOM     14  C   UNL     1     -33.342   9.177  80.806  1.00  0.00     0.179 C 
ATOM     15  C   UNL     1     -34.583   9.170  81.718  1.00  0.00     0.202 C 
BRANCH  12  16
ATOM     16  O   UNL     1     -31.081  10.054  80.687  1.00  0.00    -0.388 OA
ATOM     17  H   UNL     1     -30.492   9.423  81.179  1.00  0.00     0.211 HD
ENDBRANCH  12  16
BRANCH  14  18
ATOM     18  O   UNL     1     -32.818   7.881  80.655  1.00  0.00    -0.387 OA
ATOM     19  H   UNL     1     -32.261   7.694  81.455  1.00  0.00     0.211 HD
ENDBRANCH  14  18
BRANCH  15  20
ATOM     20  O   UNL     1     -35.581   8.280  81.275  1.00  0.00    -0.385 OA
ATOM     21  H   UNL     1     -35.215   7.737  80.524  1.00  0.00     0.211 HD
ENDBRANCH  15  20
ENDBRANCH   8   9
ENDBRANCH   7   8
ENDBRANCH   1   7
BRANCH   2  22
ATOM     22  O   UNL     1     -34.215   3.453  83.652  1.00  0.00    -0.387 OA
ATOM     23  H   UNL     1     -34.683   2.704  83.197  1.00  0.00     0.211 HD
ENDBRANCH   2  22
BRANCH   3  24
ATOM     24  O   UNL     1     -36.406   2.241  84.702  1.00  0.00    -0.387 OA
ATOM     25  H   UNL     1     -36.387   1.642  83.913  1.00  0.00     0.211 HD
ENDBRANCH   3  24
BRANCH   5  26
ATOM     26  O   UNL     1     -38.471   5.368  81.807  1.00  0.00    -0.454 OA
BRANCH  26  27
ATOM     27  C   UNL     1     -39.199   4.866  80.715  1.00  0.00     0.214 A 
ATOM     28  C   UNL     1     -38.689   4.834  79.400  1.00  0.00     0.180 A 
ATOM     29  C   UNL     1     -40.490   4.372  80.945  1.00  0.00     0.239 A 
ATOM     30  O   UNL     1     -39.385   4.242  78.437  1.00  0.00    -0.452 OA
ATOM     31  C   UNL     1     -41.241   3.826  79.879  1.00  0.00     0.111 A 
ATOM     32  O   UNL     1     -40.934   4.391  82.122  1.00  0.00    -0.285 OA
ATOM     33  C   UNL     1     -40.596   3.732  78.619  1.00  0.00     0.146 A 
ATOM     34  C   UNL     1     -42.575   3.330  79.999  1.00  0.00     0.134 A 
ATOM     35  C   UNL     1     -41.230   3.113  77.539  1.00  0.00     0.094 A 
ATOM     36  C   UNL     1     -43.173   2.689  78.907  1.00  0.00     0.093 A 
ATOM     37  C   UNL     1     -42.508   2.578  77.685  1.00  0.00     0.123 A 
BRANCH  28  38
ATOM     38  C   UNL     1     -37.406   5.455  79.032  1.00  0.00     0.025 A 
ATOM     39  C   UNL     1     -36.206   4.761  79.251  1.00  0.00     0.062 A 
ATOM     40  C   UNL     1     -37.372   6.706  78.401  1.00  0.00     0.016 A 
ATOM     41  C   UNL     1     -34.977   5.335  78.888  1.00  0.00     0.158 A 
ATOM     42  C   UNL     1     -36.150   7.273  78.031  1.00  0.00     0.051 A 
ATOM     43  C   UNL     1     -34.951   6.602  78.285  1.00  0.00     0.157 A 
BRANCH  41  44
ATOM     44  O   UNL     1     -33.786   4.652  79.121  1.00  0.00    -0.504 OA
ATOM     45  H   UNL     1     -33.742   3.646  79.095  1.00  0.00     0.293 HD
ENDBRANCH  41  44
BRANCH  43  46
ATOM     46  O   UNL     1     -33.751   7.216  77.935  1.00  0.00    -0.504 OA
ATOM     47  H   UNL     1     -33.018   7.405  78.614  1.00  0.00     0.293 HD
ENDBRANCH  43  46
ENDBRANCH  28  38
BRANCH  34  48
ATOM     48  O   UNL     1     -43.360   3.468  81.146  1.00  0.00    -0.507 OA
ATOM     49  H   UNL     1     -43.079   3.180  82.072  1.00  0.00     0.293 HD
ENDBRANCH  34  48
BRANCH  37  50
ATOM     50  O   UNL     1     -43.113   1.939  76.604  1.00  0.00    -0.508 OA
ATOM     51  H   UNL     1     -43.014   2.291  75.658  1.00  0.00     0.293 HD
ENDBRANCH  37  50
ENDBRANCH  26  27
ENDBRANCH   5  26
BRANCH   4  52
ATOM     52  O   UNL     1     -38.472   2.989  82.832  1.00  0.00    -0.384 OA
ATOM     53  H   UNL     1     -38.981   3.442  83.559  1.00  0.00     0.211 HD
ENDBRANCH   4  52
TORSDOF 16
ENDMDL
MODEL 5
REMARK VINA RESULT:    -6.655      1.671      6.474
REMARK INTER + INTRA:         -13.591
REMARK INTER:                 -10.599
REMARK INTRA:                  -2.992
REMARK UNBOUND:                -2.656
REMARK SMILES C[C@@H]1O[C@H](OC[C@@H]2O[C@H](Oc3c(-c4ccc(O)c(O)c4)oc4cc(O)cc(O)c4c3=O)[C@H](O)[C@@H](O)[C@H]2O)[C@H](O)[C@H](O)[C@@H]1O
REMARK SMILES IDX 7 1 36 2 34 3 32 4 9 5 8 6 6 7 5 8 4 9 1 10 2 11 42 12 3 13
REMARK SMILES IDX 40 14 38 15 43 16 41 18 39 20 37 22 35 24 10 26 11 27 12 28
REMARK SMILES IDX 30 29 21 30 29 31 31 32 22 33 27 34 23 35 26 36 24 37 13 38
REMARK SMILES IDX 20 39 14 40 18 41 15 42 16 43 19 44 17 46 28 48 25 50 33 52
REMARK H PARENT 43 17 41 19 39 21 37 23 35 25 19 45 17 47 28 49 25 51 33 53
REMARK Flexibility Score: inf
ROOT
ATOM      1  C   UNL     1     -37.974   9.237  78.641  1.00  0.00     0.180 C 
ATOM      2  C   UNL     1     -38.613   8.934  77.249  1.00  0.00     0.177 C 
ATOM      3  C   UNL     1     -39.718   7.862  77.366  1.00  0.00     0.180 C 
ATOM      4  C   UNL     1     -40.638   8.164  78.568  1.00  0.00     0.214 C 
ATOM      5  C   UNL     1     -39.808   8.452  79.857  1.00  0.00     0.339 C 
ATOM      6  O   UNL     1     -38.419   8.313  79.619  1.00  0.00    -0.332 OA
ENDROOT
BRANCH   1   7
ATOM      7  C   UNL     1     -36.426   9.225  78.596  1.00  0.00     0.198 C 
BRANCH   7   8
ATOM      8  O   UNL     1     -35.905   8.006  79.101  1.00  0.00    -0.347 OA
BRANCH   8   9
ATOM      9  C   UNL     1     -34.963   7.433  78.212  1.00  0.00     0.281 C 
ATOM     10  C   UNL     1     -34.055   7.217  81.182  1.00  0.00     0.041 C 
ATOM     11  C   UNL     1     -33.465   6.622  79.890  1.00  0.00     0.150 C 
ATOM     12  C   UNL     1     -33.861   5.148  79.614  1.00  0.00     0.174 C 
ATOM     13  O   UNL     1     -33.650   7.471  78.760  1.00  0.00    -0.344 OA
ATOM     14  C   UNL     1     -35.270   5.030  79.005  1.00  0.00     0.179 C 
ATOM     15  C   UNL     1     -35.386   6.007  77.820  1.00  0.00     0.202 C 
BRANCH  12  16
ATOM     16  O   UNL     1     -33.756   4.382  80.789  1.00  0.00    -0.388 OA
ATOM     17  H   UNL     1     -34.152   4.924  81.520  1.00  0.00     0.211 HD
ENDBRANCH  12  16
BRANCH  14  18
ATOM     18  O   UNL     1     -36.255   5.292  79.974  1.00  0.00    -0.387 OA
ATOM     19  H   UNL     1     -36.714   6.131  79.708  1.00  0.00     0.211 HD
ENDBRANCH  14  18
BRANCH  15  20
ATOM     20  O   UNL     1     -36.667   6.008  77.236  1.00  0.00    -0.385 OA
ATOM     21  H   UNL     1     -36.583   6.272  76.279  1.00  0.00     0.211 HD
ENDBRANCH  15  20
ENDBRANCH   8   9
ENDBRANCH   7   8
ENDBRANCH   1   7
BRANCH   2  22
ATOM     22  O   UNL     1     -39.145  10.125  76.721  1.00  0.00    -0.387 OA
ATOM     23  H   UNL     1     -38.447  10.526  76.137  1.00  0.00     0.211 HD
ENDBRANCH   2  22
BRANCH   3  24
ATOM     24  O   UNL     1     -40.470   7.817  76.180  1.00  0.00    -0.387 OA
ATOM     25  H   UNL     1     -40.702   6.868  76.013  1.00  0.00     0.211 HD
ENDBRANCH   3  24
BRANCH   5  26
ATOM     26  O   UNL     1     -40.170   7.538  80.897  1.00  0.00    -0.454 OA
BRANCH  26  27
ATOM     27  C   UNL     1     -39.265   6.723  81.598  1.00  0.00     0.214 A 
ATOM     28  C   UNL     1     -39.051   5.365  81.285  1.00  0.00     0.180 A 
ATOM     29  C   UNL     1     -38.539   7.288  82.656  1.00  0.00     0.239 A 
ATOM     30  O   UNL     1     -38.099   4.684  81.913  1.00  0.00    -0.452 OA
ATOM     31  C   UNL     1     -37.593   6.512  83.363  1.00  0.00     0.111 A 
ATOM     32  O   UNL     1     -38.724   8.505  82.922  1.00  0.00    -0.285 OA
ATOM     33  C   UNL     1     -37.367   5.191  82.896  1.00  0.00     0.146 A 
ATOM     34  C   UNL     1     -36.830   6.980  84.475  1.00  0.00     0.134 A 
ATOM     35  C   UNL     1     -36.378   4.392  83.474  1.00  0.00     0.094 A 
ATOM     36  C   UNL     1     -35.826   6.166  85.014  1.00  0.00     0.093 A 
ATOM     37  C   UNL     1     -35.597   4.881  84.518  1.00  0.00     0.123 A 
BRANCH  28  38
ATOM     38  C   UNL     1     -39.862   4.644  80.289  1.00  0.00     0.025 A 
ATOM     39  C   UNL     1     -41.121   4.139  80.648  1.00  0.00     0.062 A 
ATOM     40  C   UNL     1     -39.421   4.517  78.965  1.00  0.00     0.016 A 
ATOM     41  C   UNL     1     -41.911   3.465  79.704  1.00  0.00     0.158 A 
ATOM     42  C   UNL     1     -40.212   3.855  78.022  1.00  0.00     0.051 A 
ATOM     43  C   UNL     1     -41.448   3.315  78.387  1.00  0.00     0.157 A 
BRANCH  41  44
ATOM     44  O   UNL     1     -43.153   2.949  80.066  1.00  0.00    -0.504 OA
ATOM     45  H   UNL     1     -44.009   3.317  79.683  1.00  0.00     0.293 HD
ENDBRANCH  41  44
BRANCH  43  46
ATOM     46  O   UNL     1     -42.191   2.630  77.429  1.00  0.00    -0.504 OA
ATOM     47  H   UNL     1     -43.202   2.714  77.361  1.00  0.00     0.293 HD
ENDBRANCH  43  46
ENDBRANCH  28  38
BRANCH  34  48
ATOM     48  O   UNL     1     -37.037   8.211  85.103  1.00  0.00    -0.507 OA
ATOM     49  H   UNL     1     -36.990   8.362  86.099  1.00  0.00     0.293 HD
ENDBRANCH  34  48
BRANCH  37  50
ATOM     50  O   UNL     1     -34.596   4.080  85.063  1.00  0.00    -0.508 OA
ATOM     51  H   UNL     1     -33.624   4.192  84.795  1.00  0.00     0.293 HD
ENDBRANCH  37  50
ENDBRANCH  26  27
ENDBRANCH   5  26
BRANCH   4  52
ATOM     52  O   UNL     1     -41.569   7.126  78.756  1.00  0.00    -0.384 OA
ATOM     53  H   UNL     1     -41.495   6.507  77.979  1.00  0.00     0.211 HD
ENDBRANCH   4  52
TORSDOF 16
ENDMDL
MODEL 6
REMARK VINA RESULT:    -6.572      2.079      7.468
REMARK INTER + INTRA:         -13.454
REMARK INTER:                 -11.098
REMARK INTRA:                  -2.356
REMARK UNBOUND:                -2.656
REMARK SMILES C[C@@H]1O[C@H](OC[C@@H]2O[C@H](Oc3c(-c4ccc(O)c(O)c4)oc4cc(O)cc(O)c4c3=O)[C@H](O)[C@@H](O)[C@H]2O)[C@H](O)[C@H](O)[C@@H]1O
REMARK SMILES IDX 7 1 36 2 34 3 32 4 9 5 8 6 6 7 5 8 4 9 1 10 2 11 42 12 3 13
REMARK SMILES IDX 40 14 38 15 43 16 41 18 39 20 37 22 35 24 10 26 11 27 12 28
REMARK SMILES IDX 30 29 21 30 29 31 31 32 22 33 27 34 23 35 26 36 24 37 13 38
REMARK SMILES IDX 20 39 14 40 18 41 15 42 16 43 19 44 17 46 28 48 25 50 33 52
REMARK H PARENT 43 17 41 19 39 21 37 23 35 25 19 45 17 47 28 49 25 51 33 53
REMARK Flexibility Score: inf
ROOT
ATOM      1  C   UNL     1     -39.727   4.418  81.061  1.00  0.00     0.180 C 
ATOM      2  C   UNL     1     -41.187   3.993  80.706  1.00  0.00     0.177 C 
ATOM      3  C   UNL     1     -41.524   4.333  79.238  1.00  0.00     0.180 C 
ATOM      4  C   UNL     1     -40.368   3.909  78.307  1.00  0.00     0.214 C 
ATOM      5  C   UNL     1     -38.994   4.420  78.843  1.00  0.00     0.339 C 
ATOM      6  O   UNL     1     -39.153   5.190  80.020  1.00  0.00    -0.332 OA
ENDROOT
BRANCH   1   7
ATOM      7  C   UNL     1     -39.649   5.213  82.388  1.00  0.00     0.198 C 
BRANCH   7   8
ATOM      8  O   UNL     1     -38.395   5.028  83.027  1.00  0.00    -0.347 OA
BRANCH   8   9
ATOM      9  C   UNL     1     -37.783   3.814  82.632  1.00  0.00     0.281 C 
ATOM     10  C   UNL     1     -35.879   6.253  82.289  1.00  0.00     0.041 C 
ATOM     11  C   UNL     1     -35.632   4.739  82.148  1.00  0.00     0.150 C 
ATOM     12  C   UNL     1     -34.997   4.066  83.392  1.00  0.00     0.174 C 
ATOM     13  O   UNL     1     -36.774   4.041  81.656  1.00  0.00    -0.344 OA
ATOM     14  C   UNL     1     -36.037   3.777  84.490  1.00  0.00     0.179 C 
ATOM     15  C   UNL     1     -37.243   3.056  83.858  1.00  0.00     0.202 C 
BRANCH  12  16
ATOM     16  O   UNL     1     -33.943   4.851  83.893  1.00  0.00    -0.388 OA
ATOM     17  H   UNL     1     -33.833   4.605  84.848  1.00  0.00     0.211 HD
ENDBRANCH  12  16
BRANCH  14  18
ATOM     18  O   UNL     1     -36.435   4.967  85.125  1.00  0.00    -0.387 OA
ATOM     19  H   UNL     1     -36.049   4.955  86.039  1.00  0.00     0.211 HD
ENDBRANCH  14  18
BRANCH  15  20
ATOM     20  O   UNL     1     -38.275   2.804  84.783  1.00  0.00    -0.385 OA
ATOM     21  H   UNL     1     -38.353   1.819  84.913  1.00  0.00     0.211 HD
ENDBRANCH  15  20
ENDBRANCH   8   9
ENDBRANCH   7   8
ENDBRANCH   1   7
BRANCH   2  22
ATOM     22  O   UNL     1     -41.328   2.611  80.930  1.00  0.00    -0.387 OA
ATOM     23  H   UNL     1     -41.054   2.147  80.094  1.00  0.00     0.211 HD
ENDBRANCH   2  22
BRANCH   3  24
ATOM     24  O   UNL     1     -42.713   3.689  78.858  1.00  0.00    -0.387 OA
ATOM     25  H   UNL     1     -43.332   4.386  78.521  1.00  0.00     0.211 HD
ENDBRANCH   3  24
BRANCH   5  26
ATOM     26  O   UNL     1     -38.352   5.242  77.862  1.00  0.00    -0.454 OA
BRANCH  26  27
ATOM     27  C   UNL     1     -37.407   6.241  78.150  1.00  0.00     0.214 A 
ATOM     28  C   UNL     1     -37.699   7.619  78.079  1.00  0.00     0.180 A 
ATOM     29  C   UNL     1     -36.116   5.848  78.527  1.00  0.00     0.239 A 
ATOM     30  O   UNL     1     -36.793   8.506  78.474  1.00  0.00    -0.452 OA
ATOM     31  C   UNL     1     -35.146   6.822  78.858  1.00  0.00     0.111 A 
ATOM     32  O   UNL     1     -35.865   4.617  78.601  1.00  0.00    -0.285 OA
ATOM     33  C   UNL     1     -35.571   8.175  78.870  1.00  0.00     0.146 A 
ATOM     34  C   UNL     1     -33.795   6.530  79.219  1.00  0.00     0.134 A 
ATOM     35  C   UNL     1     -34.705   9.190  79.284  1.00  0.00     0.094 A 
ATOM     36  C   UNL     1     -32.960   7.565  79.658  1.00  0.00     0.093 A 
ATOM     37  C   UNL     1     -33.408   8.887  79.693  1.00  0.00     0.123 A 
BRANCH  28  38
ATOM     38  C   UNL     1     -38.977   8.133  77.560  1.00  0.00     0.025 A 
ATOM     39  C   UNL     1     -40.133   8.056  78.351  1.00  0.00     0.062 A 
ATOM     40  C   UNL     1     -39.039   8.762  76.310  1.00  0.00     0.016 A 
ATOM     41  C   UNL     1     -41.355   8.558  77.873  1.00  0.00     0.158 A 
ATOM     42  C   UNL     1     -40.252   9.271  75.838  1.00  0.00     0.051 A 
ATOM     43  C   UNL     1     -41.413   9.160  76.607  1.00  0.00     0.157 A 
BRANCH  41  44
ATOM     44  O   UNL     1     -42.505   8.466  78.653  1.00  0.00    -0.504 OA
ATOM     45  H   UNL     1     -43.292   7.906  78.367  1.00  0.00     0.293 HD
ENDBRANCH  41  44
BRANCH  43  46
ATOM     46  O   UNL     1     -42.611   9.645  76.088  1.00  0.00    -0.504 OA
ATOM     47  H   UNL     1     -42.643  10.297  75.308  1.00  0.00     0.293 HD
ENDBRANCH  43  46
ENDBRANCH  28  38
BRANCH  34  48
ATOM     48  O   UNL     1     -33.221   5.259  79.136  1.00  0.00    -0.507 OA
ATOM     49  H   UNL     1     -33.732   4.393  79.213  1.00  0.00     0.293 HD
ENDBRANCH  34  48
BRANCH  37  50
ATOM     50  O   UNL     1     -32.568   9.908  80.130  1.00  0.00    -0.508 OA
ATOM     51  H   UNL     1     -32.016   9.814  80.976  1.00  0.00     0.293 HD
ENDBRANCH  37  50
ENDBRANCH  26  27
ENDBRANCH   5  26
BRANCH   4  52
ATOM     52  O   UNL     1     -40.613   4.328  76.986  1.00  0.00    -0.384 OA
ATOM     53  H   UNL     1     -40.968   3.547  76.481  1.00  0.00     0.211 HD
ENDBRANCH   4  52
TORSDOF 16
ENDMDL
MODEL 7
REMARK VINA RESULT:    -6.183      2.168      4.965
REMARK INTER + INTRA:         -12.815
REMARK INTER:                 -10.049
REMARK INTRA:                  -2.766
REMARK UNBOUND:                -2.656
REMARK SMILES C[C@@H]1O[C@H](OC[C@@H]2O[C@H](Oc3c(-c4ccc(O)c(O)c4)oc4cc(O)cc(O)c4c3=O)[C@H](O)[C@@H](O)[C@H]2O)[C@H](O)[C@H](O)[C@@H]1O
REMARK SMILES IDX 7 1 36 2 34 3 32 4 9 5 8 6 6 7 5 8 4 9 1 10 2 11 42 12 3 13
REMARK SMILES IDX 40 14 38 15 43 16 41 18 39 20 37 22 35 24 10 26 11 27 12 28
REMARK SMILES IDX 30 29 21 30 29 31 31 32 22 33 27 34 23 35 26 36 24 37 13 38
REMARK SMILES IDX 20 39 14 40 18 41 15 42 16 43 19 44 17 46 28 48 25 50 33 52
REMARK H PARENT 43 17 41 19 39 21 37 23 35 25 19 45 17 47 28 49 25 51 33 53
REMARK Flexibility Score: inf
ROOT
ATOM      1  C   UNL     1     -39.085   7.776  83.600  1.00  0.00     0.180 C 
ATOM      2  C   UNL     1     -37.917   8.625  84.194  1.00  0.00     0.177 C 
ATOM      3  C   UNL     1     -36.977   9.134  83.080  1.00  0.00     0.180 C 
ATOM      4  C   UNL     1     -37.797   9.699  81.899  1.00  0.00     0.214 C 
ATOM      5  C   UNL     1     -38.920   8.707  81.464  1.00  0.00     0.339 C 
ATOM      6  O   UNL     1     -38.876   7.513  82.223  1.00  0.00    -0.332 OA
ENDROOT
BRANCH   1   7
ATOM      7  C   UNL     1     -39.281   6.435  84.351  1.00  0.00     0.198 C 
BRANCH   7   8
ATOM      8  O   UNL     1     -39.045   5.326  83.497  1.00  0.00    -0.347 OA
BRANCH   8   9
ATOM      9  C   UNL     1     -38.007   4.499  83.991  1.00  0.00     0.281 C 
ATOM     10  C   UNL     1     -40.828   3.361  84.652  1.00  0.00     0.041 C 
ATOM     11  C   UNL     1     -39.421   2.765  84.834  1.00  0.00     0.150 C 
ATOM     12  C   UNL     1     -38.982   1.783  83.717  1.00  0.00     0.174 C 
ATOM     13  O   UNL     1     -38.438   3.756  85.125  1.00  0.00    -0.344 OA
ATOM     14  C   UNL     1     -38.489   2.520  82.458  1.00  0.00     0.179 C 
ATOM     15  C   UNL     1     -37.462   3.590  82.875  1.00  0.00     0.202 C 
BRANCH  12  16
ATOM     16  O   UNL     1     -40.027   0.896  83.402  1.00  0.00    -0.388 OA
ATOM     17  H   UNL     1     -40.836   1.229  83.872  1.00  0.00     0.211 HD
ENDBRANCH  12  16
BRANCH  14  18
ATOM     18  O   UNL     1     -39.567   3.097  81.763  1.00  0.00    -0.387 OA
ATOM     19  H   UNL     1     -39.193   3.803  81.175  1.00  0.00     0.211 HD
ENDBRANCH  14  18
BRANCH  15  20
ATOM     20  O   UNL     1     -36.999   4.356  81.788  1.00  0.00    -0.385 OA
ATOM     21  H   UNL     1     -37.295   3.921  80.942  1.00  0.00     0.211 HD
ENDBRANCH  15  20
ENDBRANCH   8   9
ENDBRANCH   7   8
ENDBRANCH   1   7
BRANCH   2  22
ATOM     22  O   UNL     1     -38.458   9.710  84.907  1.00  0.00    -0.387 OA
ATOM     23  H   UNL     1     -38.293   9.541  85.873  1.00  0.00     0.211 HD
ENDBRANCH   2  22
BRANCH   3  24
ATOM     24  O   UNL     1     -36.119  10.123  83.590  1.00  0.00    -0.387 OA
ATOM     25  H   UNL     1     -35.249  10.028  83.125  1.00  0.00     0.211 HD
ENDBRANCH   3  24
BRANCH   5  26
ATOM     26  O   UNL     1     -38.768   8.357  80.085  1.00  0.00    -0.454 OA
BRANCH  26  27
ATOM     27  C   UNL     1     -38.559   7.052  79.607  1.00  0.00     0.214 A 
ATOM     28  C   UNL     1     -37.277   6.525  79.348  1.00  0.00     0.180 A 
ATOM     29  C   UNL     1     -39.677   6.238  79.382  1.00  0.00     0.239 A 
ATOM     30  O   UNL     1     -37.146   5.248  79.008  1.00  0.00    -0.452 OA
ATOM     31  C   UNL     1     -39.507   4.907  78.936  1.00  0.00     0.111 A 
ATOM     32  O   UNL     1     -40.818   6.709  79.629  1.00  0.00    -0.285 OA
ATOM     33  C   UNL     1     -38.176   4.434  78.817  1.00  0.00     0.146 A 
ATOM     34  C   UNL     1     -40.578   4.008  78.643  1.00  0.00     0.134 A 
ATOM     35  C   UNL     1     -37.921   3.102  78.480  1.00  0.00     0.094 A 
ATOM     36  C   UNL     1     -40.292   2.672  78.337  1.00  0.00     0.093 A 
ATOM     37  C   UNL     1     -38.974   2.218  78.257  1.00  0.00     0.123 A 
BRANCH  28  38
ATOM     38  C   UNL     1     -36.055   7.342  79.417  1.00  0.00     0.025 A 
ATOM     39  C   UNL     1     -35.213   7.244  80.535  1.00  0.00     0.062 A 
ATOM     40  C   UNL     1     -35.685   8.167  78.347  1.00  0.00     0.016 A 
ATOM     41  C   UNL     1     -34.035   8.006  80.606  1.00  0.00     0.158 A 
ATOM     42  C   UNL     1     -34.508   8.917  78.412  1.00  0.00     0.051 A 
ATOM     43  C   UNL     1     -33.688   8.853  79.541  1.00  0.00     0.157 A 
BRANCH  41  44
ATOM     44  O   UNL     1     -33.209   7.920  81.723  1.00  0.00    -0.504 OA
ATOM     45  H   UNL     1     -33.449   7.344  82.514  1.00  0.00     0.293 HD
ENDBRANCH  41  44
BRANCH  43  46
ATOM     46  O   UNL     1     -32.542   9.643  79.586  1.00  0.00    -0.504 OA
ATOM     47  H   UNL     1     -31.942   9.778  78.777  1.00  0.00     0.293 HD
ENDBRANCH  43  46
ENDBRANCH  28  38
BRANCH  34  48
ATOM     48  O   UNL     1     -41.924   4.380  78.608  1.00  0.00    -0.507 OA
ATOM     49  H   UNL     1     -42.699   3.734  78.638  1.00  0.00     0.293 HD
ENDBRANCH  34  48
BRANCH  37  50
ATOM     50  O   UNL     1     -38.701   0.886  77.950  1.00  0.00    -0.508 OA
ATOM     51  H   UNL     1     -38.604   0.185  78.677  1.00  0.00     0.293 HD
ENDBRANCH  37  50
ENDBRANCH  26  27
ENDBRANCH   5  26
BRANCH   4  52
ATOM     52  O   UNL     1     -36.953  10.049  80.829  1.00  0.00    -0.384 OA
ATOM     53  H   UNL     1     -36.182  10.556  81.204  1.00  0.00     0.211 HD
ENDBRANCH   4  52
TORSDOF 16
ENDMDL
MODEL 8
REMARK VINA RESULT:    -6.173      2.002      5.696
REMARK INTER + INTRA:         -12.799
REMARK INTER:                 -10.070
REMARK INTRA:                  -2.729
REMARK UNBOUND:                -2.656
REMARK SMILES C[C@@H]1O[C@H](OC[C@@H]2O[C@H](Oc3c(-c4ccc(O)c(O)c4)oc4cc(O)cc(O)c4c3=O)[C@H](O)[C@@H](O)[C@H]2O)[C@H](O)[C@H](O)[C@@H]1O
REMARK SMILES IDX 7 1 36 2 34 3 32 4 9 5 8 6 6 7 5 8 4 9 1 10 2 11 42 12 3 13
REMARK SMILES IDX 40 14 38 15 43 16 41 18 39 20 37 22 35 24 10 26 11 27 12 28
REMARK SMILES IDX 30 29 21 30 29 31 31 32 22 33 27 34 23 35 26 36 24 37 13 38
REMARK SMILES IDX 20 39 14 40 18 41 15 42 16 43 19 44 17 46 28 48 25 50 33 52
REMARK H PARENT 43 17 41 19 39 21 37 23 35 25 19 45 17 47 28 49 25 51 33 53
REMARK Flexibility Score: inf
ROOT
ATOM      1  C   UNL     1     -35.838   8.515  80.381  1.00  0.00     0.180 C 
ATOM      2  C   UNL     1     -34.300   8.295  80.222  1.00  0.00     0.177 C 
ATOM      3  C   UNL     1     -33.995   6.894  79.648  1.00  0.00     0.180 C 
ATOM      4  C   UNL     1     -34.930   6.583  78.458  1.00  0.00     0.214 C 
ATOM      5  C   UNL     1     -36.419   6.881  78.816  1.00  0.00     0.339 C 
ATOM      6  O   UNL     1     -36.552   7.311  80.158  1.00  0.00    -0.332 OA
ENDROOT
BRANCH   1   7
ATOM      7  C   UNL     1     -36.212   9.079  81.774  1.00  0.00     0.198 C 
BRANCH   7   8
ATOM      8  O   UNL     1     -36.426   8.036  82.712  1.00  0.00    -0.347 OA
BRANCH   8   9
ATOM      9  C   UNL     1     -36.673   8.544  84.011  1.00  0.00     0.281 C 
ATOM     10  C   UNL     1     -39.266   7.482  82.654  1.00  0.00     0.041 C 
ATOM     11  C   UNL     1     -38.994   7.977  84.086  1.00  0.00     0.150 C 
ATOM     12  C   UNL     1     -38.746   6.852  85.125  1.00  0.00     0.174 C 
ATOM     13  O   UNL     1     -38.012   9.009  84.133  1.00  0.00    -0.344 OA
ATOM     14  C   UNL     1     -37.307   6.308  85.059  1.00  0.00     0.179 C 
ATOM     15  C   UNL     1     -36.324   7.494  85.079  1.00  0.00     0.202 C 
BRANCH  12  16
ATOM     16  O   UNL     1     -39.683   5.816  84.962  1.00  0.00    -0.388 OA
ATOM     17  H   UNL     1     -39.383   5.279  84.183  1.00  0.00     0.211 HD
ENDBRANCH  12  16
BRANCH  14  18
ATOM     18  O   UNL     1     -37.125   5.520  83.908  1.00  0.00    -0.387 OA
ATOM     19  H   UNL     1     -37.727   4.735  83.992  1.00  0.00     0.211 HD
ENDBRANCH  14  18
BRANCH  15  20
ATOM     20  O   UNL     1     -34.980   7.090  84.962  1.00  0.00    -0.385 OA
ATOM     21  H   UNL     1     -34.956   6.148  84.638  1.00  0.00     0.211 HD
ENDBRANCH  15  20
ENDBRANCH   8   9
ENDBRANCH   7   8
ENDBRANCH   1   7
BRANCH   2  22
ATOM     22  O   UNL     1     -33.782   9.291  79.374  1.00  0.00    -0.387 OA
ATOM     23  H   UNL     1     -34.475   9.999  79.292  1.00  0.00     0.211 HD
ENDBRANCH   2  22
BRANCH   3  24
ATOM     24  O   UNL     1     -32.653   6.825  79.240  1.00  0.00    -0.387 OA
ATOM     25  H   UNL     1     -32.199   6.170  79.830  1.00  0.00     0.211 HD
ENDBRANCH   3  24
BRANCH   5  26
ATOM     26  O   UNL     1     -37.216   5.704  78.649  1.00  0.00    -0.454 OA
BRANCH  26  27
ATOM     27  C   UNL     1     -38.278   5.331  79.490  1.00  0.00     0.214 A 
ATOM     28  C   UNL     1     -39.591   5.823  79.334  1.00  0.00     0.180 A 
ATOM     29  C   UNL     1     -38.021   4.426  80.528  1.00  0.00     0.239 A 
ATOM     30  O   UNL     1     -40.570   5.342  80.091  1.00  0.00    -0.452 OA
ATOM     31  C   UNL     1     -39.070   3.998  81.373  1.00  0.00     0.111 A 
ATOM     32  O   UNL     1     -36.851   3.980  80.653  1.00  0.00    -0.285 OA
ATOM     33  C   UNL     1     -40.375   4.460  81.062  1.00  0.00     0.146 A 
ATOM     34  C   UNL     1     -38.909   3.110  82.479  1.00  0.00     0.134 A 
ATOM     35  C   UNL     1     -41.481   4.005  81.784  1.00  0.00     0.094 A 
ATOM     36  C   UNL     1     -40.039   2.649  83.165  1.00  0.00     0.093 A 
ATOM     37  C   UNL     1     -41.319   3.090  82.822  1.00  0.00     0.123 A 
BRANCH  28  38
ATOM     38  C   UNL     1     -39.932   6.880  78.367  1.00  0.00     0.025 A 
ATOM     39  C   UNL     1     -40.705   7.977  78.777  1.00  0.00     0.062 A 
ATOM     40  C   UNL     1     -39.433   6.839  77.059  1.00  0.00     0.016 A 
ATOM     41  C   UNL     1     -41.022   9.000  77.869  1.00  0.00     0.158 A 
ATOM     42  C   UNL     1     -39.740   7.863  76.158  1.00  0.00     0.051 A 
ATOM     43  C   UNL     1     -40.544   8.935  76.551  1.00  0.00     0.157 A 
BRANCH  41  44
ATOM     44  O   UNL     1     -41.804  10.080  78.273  1.00  0.00    -0.504 OA
ATOM     45  H   UNL     1     -42.633   9.952  78.830  1.00  0.00     0.293 HD
ENDBRANCH  41  44
BRANCH  43  46
ATOM     46  O   UNL     1     -40.859   9.917  75.615  1.00  0.00    -0.504 OA
ATOM     47  H   UNL     1     -41.508   9.753  74.850  1.00  0.00     0.293 HD
ENDBRANCH  43  46
ENDBRANCH  28  38
BRANCH  34  48
ATOM     48  O   UNL     1     -37.670   2.677  82.960  1.00  0.00    -0.507 OA
ATOM     49  H   UNL     1     -37.406   2.663  83.934  1.00  0.00     0.293 HD
ENDBRANCH  34  48
BRANCH  37  50
ATOM     50  O   UNL     1     -42.437   2.626  83.512  1.00  0.00    -0.508 OA
ATOM     51  H   UNL     1     -42.360   1.904  84.220  1.00  0.00     0.293 HD
ENDBRANCH  37  50
ENDBRANCH  26  27
ENDBRANCH   5  26
BRANCH   4  52
ATOM     52  O   UNL     1     -34.744   5.263  78.010  1.00  0.00    -0.384 OA
ATOM     53  H   UNL     1     -34.193   4.787  78.690  1.00  0.00     0.211 HD
ENDBRANCH   4  52
TORSDOF 16
ENDMDL
MODEL 9
REMARK VINA RESULT:    -5.870      1.812      7.306
REMARK INTER + INTRA:         -12.301
REMARK INTER:                 -10.003
REMARK INTRA:                  -2.298
REMARK UNBOUND:                -2.656
REMARK SMILES C[C@@H]1O[C@H](OC[C@@H]2O[C@H](Oc3c(-c4ccc(O)c(O)c4)oc4cc(O)cc(O)c4c3=O)[C@H](O)[C@@H](O)[C@H]2O)[C@H](O)[C@H](O)[C@@H]1O
REMARK SMILES IDX 7 1 36 2 34 3 32 4 9 5 8 6 6 7 5 8 4 9 1 10 2 11 42 12 3 13
REMARK SMILES IDX 40 14 38 15 43 16 41 18 39 20 37 22 35 24 10 26 11 27 12 28
REMARK SMILES IDX 30 29 21 30 29 31 31 32 22 33 27 34 23 35 26 36 24 37 13 38
REMARK SMILES IDX 20 39 14 40 18 41 15 42 16 43 19 44 17 46 28 48 25 50 33 52
REMARK H PARENT 43 17 41 19 39 21 37 23 35 25 19 45 17 47 28 49 25 51 33 53
REMARK Flexibility Score: inf
ROOT
ATOM      1  C   UNL     1     -40.824   3.694  80.976  1.00  0.00     0.180 C 
ATOM      2  C   UNL     1     -42.211   3.292  80.383  1.00  0.00     0.177 C 
ATOM      3  C   UNL     1     -42.330   3.719  78.905  1.00  0.00     0.180 C 
ATOM      4  C   UNL     1     -41.044   3.352  78.132  1.00  0.00     0.214 C 
ATOM      5  C   UNL     1     -39.770   3.829  78.896  1.00  0.00     0.339 C 
ATOM      6  O   UNL     1     -40.108   4.527  80.080  1.00  0.00    -0.332 OA
ENDROOT
BRANCH   1   7
ATOM      7  C   UNL     1     -40.951   4.408  82.345  1.00  0.00     0.198 C 
BRANCH   7   8
ATOM      8  O   UNL     1     -39.972   3.944  83.261  1.00  0.00    -0.347 OA
BRANCH   8   9
ATOM      9  C   UNL     1     -39.335   5.017  83.932  1.00  0.00     0.281 C 
ATOM     10  C   UNL     1     -37.986   2.280  84.551  1.00  0.00     0.041 C 
ATOM     11  C   UNL     1     -37.577   3.721  84.907  1.00  0.00     0.150 C 
ATOM     12  C   UNL     1     -36.515   4.346  83.966  1.00  0.00     0.174 C 
ATOM     13  O   UNL     1     -38.701   4.572  85.125  1.00  0.00    -0.344 OA
ATOM     14  C   UNL     1     -37.134   4.863  82.654  1.00  0.00     0.179 C 
ATOM     15  C   UNL     1     -38.356   5.739  82.990  1.00  0.00     0.202 C 
BRANCH  12  16
ATOM     16  O   UNL     1     -35.485   3.425  83.706  1.00  0.00    -0.388 OA
ATOM     17  H   UNL     1     -34.979   3.774  82.926  1.00  0.00     0.211 HD
ENDBRANCH  12  16
BRANCH  14  18
ATOM     18  O   UNL     1     -37.494   3.792  81.817  1.00  0.00    -0.387 OA
ATOM     19  H   UNL     1     -36.898   3.031  82.041  1.00  0.00     0.211 HD
ENDBRANCH  14  18
BRANCH  15  20
ATOM     20  O   UNL     1     -39.023   6.209  81.842  1.00  0.00    -0.385 OA
ATOM     21  H   UNL     1     -38.865   5.568  81.095  1.00  0.00     0.211 HD
ENDBRANCH  15  20
ENDBRANCH   8   9
ENDBRANCH   7   8
ENDBRANCH   1   7
BRANCH   2  22
ATOM     22  O   UNL     1     -42.371   1.899  80.501  1.00  0.00    -0.387 OA
ATOM     23  H   UNL     1     -42.116   1.649  81.429  1.00  0.00     0.211 HD
ENDBRANCH   2  22
BRANCH   3  24
ATOM     24  O   UNL     1     -43.443   3.099  78.314  1.00  0.00    -0.387 OA
ATOM     25  H   UNL     1     -43.897   3.779  77.753  1.00  0.00     0.211 HD
ENDBRANCH   3  24
BRANCH   5  26
ATOM     26  O   UNL     1     -38.996   4.709  78.073  1.00  0.00    -0.454 OA
BRANCH  26  27
ATOM     27  C   UNL     1     -37.993   5.572  78.545  1.00  0.00     0.214 A 
ATOM     28  C   UNL     1     -38.194   6.955  78.731  1.00  0.00     0.180 A 
ATOM     29  C   UNL     1     -36.736   5.031  78.848  1.00  0.00     0.239 A 
ATOM     30  O   UNL     1     -37.239   7.691  79.288  1.00  0.00    -0.452 OA
ATOM     31  C   UNL     1     -35.711   5.859  79.359  1.00  0.00     0.111 A 
ATOM     32  O   UNL     1     -36.567   3.793  78.693  1.00  0.00    -0.285 OA
ATOM     33  C   UNL     1     -36.047   7.212  79.620  1.00  0.00     0.146 A 
ATOM     34  C   UNL     1     -34.388   5.416  79.664  1.00  0.00     0.134 A 
ATOM     35  C   UNL     1     -35.124   8.072  80.219  1.00  0.00     0.094 A 
ATOM     36  C   UNL     1     -33.495   6.293  80.292  1.00  0.00     0.093 A 
ATOM     37  C   UNL     1     -33.857   7.612  80.570  1.00  0.00     0.123 A 
BRANCH  28  38
ATOM     38  C   UNL     1     -39.427   7.641  78.311  1.00  0.00     0.025 A 
ATOM     39  C   UNL     1     -39.504   8.217  77.034  1.00  0.00     0.062 A 
ATOM     40  C   UNL     1     -40.552   7.664  79.146  1.00  0.00     0.016 A 
ATOM     41  C   UNL     1     -40.681   8.859  76.615  1.00  0.00     0.158 A 
ATOM     42  C   UNL     1     -41.726   8.293  78.725  1.00  0.00     0.051 A 
ATOM     43  C   UNL     1     -41.792   8.904  77.471  1.00  0.00     0.157 A 
BRANCH  41  44
ATOM     44  O   UNL     1     -40.751   9.445  75.354  1.00  0.00    -0.504 OA
ATOM     45  H   UNL     1     -39.965   9.434  74.723  1.00  0.00     0.293 HD
ENDBRANCH  41  44
BRANCH  43  46
ATOM     46  O   UNL     1     -42.968   9.553  77.101  1.00  0.00    -0.504 OA
ATOM     47  H   UNL     1     -43.274   9.618  76.134  1.00  0.00     0.293 HD
ENDBRANCH  43  46
ENDBRANCH  28  38
BRANCH  34  48
ATOM     48  O   UNL     1     -33.896   4.147  79.349  1.00  0.00    -0.507 OA
ATOM     49  H   UNL     1     -32.996   3.793  79.635  1.00  0.00     0.293 HD
ENDBRANCH  34  48
BRANCH  37  50
ATOM     50  O   UNL     1     -32.959   8.477  81.193  1.00  0.00    -0.508 OA
ATOM     51  H   UNL     1     -32.055   8.686  80.783  1.00  0.00     0.293 HD
ENDBRANCH  37  50
ENDBRANCH  26  27
ENDBRANCH   5  26
BRANCH   4  52
ATOM     52  O   UNL     1     -41.093   3.850  76.817  1.00  0.00    -0.384 OA
ATOM     53  H   UNL     1     -41.920   3.495  76.389  1.00  0.00     0.211 HD
ENDBRANCH   4  52
TORSDOF 16
ENDMDL
