MODEL 1
REMARK VINA RESULT:    -3.025      0.000      0.000
REMARK INTER + INTRA:         -13.518
REMARK INTER:                  -7.975
REMARK INTRA:                  -5.543
REMARK UNBOUND:                -5.543
REMARK SMILES CCCCCCCCCCCCCCCCCCCCCCCCCCCCCC(=O)[O-]
REMARK SMILES IDX 16 1 17 2 18 3 19 4 20 5 21 6 22 7 23 8 24 9 25 10 26 11
REMARK SMILES IDX 27 12 28 13 29 14 30 15 31 16 32 17 15 18 14 19 13 20 12 21
REMARK SMILES IDX 11 22 10 23 9 24 8 25 7 26 6 27 5 28 4 29 3 30 2 31 1 32
REMARK H PARENT
REMARK Flexibility Score: inf
ROOT
ATOM      1  C   UNL     1      -0.568   8.629  39.621  1.00  0.00     0.000 C 
ENDROOT
BRANCH   1   2
ATOM      2  C   UNL     1       0.111   7.961  40.836  1.00  0.00     0.000 C 
BRANCH   2   3
ATOM      3  C   UNL     1       1.049   6.810  40.431  1.00  0.00     0.000 C 
BRANCH   3   4
ATOM      4  C   UNL     1       1.730   7.042  39.072  1.00  0.00     0.000 C 
BRANCH   4   5
ATOM      5  C   UNL     1       1.857   5.765  38.215  1.00  0.00     0.000 C 
BRANCH   5   6
ATOM      6  C   UNL     1       2.840   4.751  38.827  1.00  0.00     0.000 C 
BRANCH   6   7
ATOM      7  C   UNL     1       2.570   3.309  38.368  1.00  0.00     0.000 C 
BRANCH   7   8
ATOM      8  C   UNL     1       1.066   2.987  38.300  1.00  0.00     0.000 C 
BRANCH   8   9
ATOM      9  C   UNL     1       0.641   2.403  36.943  1.00  0.00     0.000 C 
BRANCH   9  10
ATOM     10  C   UNL     1       1.275   3.148  35.756  1.00  0.00     0.000 C 
BRANCH  10  11
ATOM     11  C   UNL     1       1.811   2.201  34.668  1.00  0.00     0.000 C 
BRANCH  11  12
ATOM     12  C   UNL     1       3.015   2.732  33.864  1.00  0.00     0.000 C 
BRANCH  12  13
ATOM     13  C   UNL     1       3.756   3.930  34.491  1.00  0.00     0.006 C 
BRANCH  13  14
ATOM     14  C   UNL     1       5.288   3.867  34.344  1.00  0.00     0.053 C 
BRANCH  14  15
ATOM     15  C   UNL     1       5.928   2.990  35.377  1.00  0.00     0.041 C 
ATOM     16  O   UNL     1       5.526   3.012  36.570  1.00  0.00    -0.550 OA
ATOM     17  O   UNL     1       6.953   2.124  35.015  1.00  0.00    -0.550 OA
ENDBRANCH  14  15
ENDBRANCH  13  14
ENDBRANCH  12  13
ENDBRANCH  11  12
ENDBRANCH  10  11
ENDBRANCH   9  10
ENDBRANCH   8   9
ENDBRANCH   7   8
ENDBRANCH   6   7
ENDBRANCH   5   6
ENDBRANCH   4   5
ENDBRANCH   3   4
ENDBRANCH   2   3
ENDBRANCH   1   2
BRANCH   1  18
ATOM     18  C   UNL     1      -2.107   8.644  39.687  1.00  0.00     0.000 C 
BRANCH  18  19
ATOM     19  C   UNL     1      -2.719   7.937  40.908  1.00  0.00     0.000 C 
BRANCH  19  20
ATOM     20  C   UNL     1      -4.062   7.226  40.649  1.00  0.00     0.000 C 
BRANCH  20  21
ATOM     21  C   UNL     1      -3.923   5.735  40.265  1.00  0.00     0.000 C 
BRANCH  21  22
ATOM     22  C   UNL     1      -2.478   5.193  40.273  1.00  0.00     0.000 C 
BRANCH  22  23
ATOM     23  C   UNL     1      -1.813   5.022  38.889  1.00  0.00     0.000 C 
BRANCH  23  24
ATOM     24  C   UNL     1      -2.790   4.913  37.702  1.00  0.00    -0.000 C 
BRANCH  24  25
ATOM     25  C   UNL     1      -2.134   4.504  36.369  1.00  0.00    -0.000 C 
BRANCH  25  26
ATOM     26  C   UNL     1      -1.832   5.670  35.405  1.00  0.00    -0.000 C 
BRANCH  26  27
ATOM     27  C   UNL     1      -0.549   6.461  35.721  1.00  0.00    -0.000 C 
BRANCH  27  28
ATOM     28  C   UNL     1       0.400   6.559  34.517  1.00  0.00    -0.000 C 
BRANCH  28  29
ATOM     29  C   UNL     1      -0.201   5.870  33.283  1.00  0.00    -0.000 C 
BRANCH  29  30
ATOM     30  C   UNL     1       0.886   5.318  32.335  1.00  0.00    -0.000 C 
BRANCH  30  31
ATOM     31  C   UNL     1       0.433   4.089  31.527  1.00  0.00    -0.003 C 
ATOM     32  C   UNL     1      -0.742   3.351  32.166  1.00  0.00     0.004 C 
ENDBRANCH  30  31
ENDBRANCH  29  30
ENDBRANCH  28  29
ENDBRANCH  27  28
ENDBRANCH  26  27
ENDBRANCH  25  26
ENDBRANCH  24  25
ENDBRANCH  23  24
ENDBRANCH  22  23
ENDBRANCH  21  22
ENDBRANCH  20  21
ENDBRANCH  19  20
ENDBRANCH  18  19
ENDBRANCH   1  18
TORSDOF 28
ENDMDL
MODEL 2
REMARK VINA RESULT:    -2.959      5.434     10.740
REMARK INTER + INTRA:         -13.345
REMARK INTER:                  -7.679
REMARK INTRA:                  -5.666
REMARK UNBOUND:                -5.543
REMARK SMILES CCCCCCCCCCCCCCCCCCCCCCCCCCCCCC(=O)[O-]
REMARK SMILES IDX 16 1 17 2 18 3 19 4 20 5 21 6 22 7 23 8 24 9 25 10 26 11
REMARK SMILES IDX 27 12 28 13 29 14 30 15 31 16 32 17 15 18 14 19 13 20 12 21
REMARK SMILES IDX 11 22 10 23 9 24 8 25 7 26 6 27 5 28 4 29 3 30 2 31 1 32
REMARK H PARENT
REMARK Flexibility Score: inf
ROOT
ATOM      1  C   UNL     1       1.059   8.403  26.084  1.00  0.00     0.000 C 
ENDROOT
BRANCH   1   2
ATOM      2  C   UNL     1       2.518   8.152  25.648  1.00  0.00     0.000 C 
BRANCH   2   3
ATOM      3  C   UNL     1       3.469   7.959  26.843  1.00  0.00     0.000 C 
BRANCH   3   4
ATOM      4  C   UNL     1       4.505   6.849  26.611  1.00  0.00     0.000 C 
BRANCH   4   5
ATOM      5  C   UNL     1       3.994   5.698  25.719  1.00  0.00     0.000 C 
BRANCH   5   6
ATOM      6  C   UNL     1       3.744   4.409  26.521  1.00  0.00     0.000 C 
BRANCH   6   7
ATOM      7  C   UNL     1       2.588   3.570  25.954  1.00  0.00     0.000 C 
BRANCH   7   8
ATOM      8  C   UNL     1       1.421   3.431  26.949  1.00  0.00     0.000 C 
BRANCH   8   9
ATOM      9  C   UNL     1       1.655   4.206  28.255  1.00  0.00     0.000 C 
BRANCH   9  10
ATOM     10  C   UNL     1       0.823   5.498  28.332  1.00  0.00     0.000 C 
BRANCH  10  11
ATOM     11  C   UNL     1       1.395   6.524  29.327  1.00  0.00     0.000 C 
BRANCH  11  12
ATOM     12  C   UNL     1       0.644   6.632  30.669  1.00  0.00     0.000 C 
BRANCH  12  13
ATOM     13  C   UNL     1       0.910   5.493  31.674  1.00  0.00     0.006 C 
BRANCH  13  14
ATOM     14  C   UNL     1       1.438   5.972  33.039  1.00  0.00     0.053 C 
BRANCH  14  15
ATOM     15  C   UNL     1       0.373   5.982  34.095  1.00  0.00     0.041 C 
ATOM     16  O   UNL     1       0.616   6.451  35.238  1.00  0.00    -0.550 OA
ATOM     17  O   UNL     1      -0.897   5.501  33.806  1.00  0.00    -0.550 OA
ENDBRANCH  14  15
ENDBRANCH  13  14
ENDBRANCH  12  13
ENDBRANCH  11  12
ENDBRANCH  10  11
ENDBRANCH   9  10
ENDBRANCH   8   9
ENDBRANCH   7   8
ENDBRANCH   6   7
ENDBRANCH   5   6
ENDBRANCH   4   5
ENDBRANCH   3   4
ENDBRANCH   2   3
ENDBRANCH   1   2
BRANCH   1  18
ATOM     18  C   UNL     1       0.030   7.474  25.411  1.00  0.00     0.000 C 
BRANCH  18  19
ATOM     19  C   UNL     1       0.594   6.556  24.314  1.00  0.00     0.000 C 
BRANCH  19  20
ATOM     20  C   UNL     1      -0.157   5.224  24.124  1.00  0.00     0.000 C 
BRANCH  20  21
ATOM     21  C   UNL     1      -1.316   5.005  25.123  1.00  0.00     0.000 C 
BRANCH  21  22
ATOM     22  C   UNL     1      -2.045   3.652  24.988  1.00  0.00     0.000 C 
BRANCH  22  23
ATOM     23  C   UNL     1      -2.959   3.256  26.169  1.00  0.00     0.000 C 
BRANCH  23  24
ATOM     24  C   UNL     1      -2.230   2.979  27.498  1.00  0.00    -0.000 C 
BRANCH  24  25
ATOM     25  C   UNL     1      -2.296   4.133  28.517  1.00  0.00    -0.000 C 
BRANCH  25  26
ATOM     26  C   UNL     1      -1.910   3.752  29.961  1.00  0.00    -0.000 C 
BRANCH  26  27
ATOM     27  C   UNL     1      -1.477   2.287  30.155  1.00  0.00    -0.000 C 
BRANCH  27  28
ATOM     28  C   UNL     1      -2.333   1.546  31.194  1.00  0.00    -0.000 C 
BRANCH  28  29
ATOM     29  C   UNL     1      -3.455   0.747  30.515  1.00  0.00    -0.000 C 
BRANCH  29  30
ATOM     30  C   UNL     1      -4.766   1.556  30.407  1.00  0.00    -0.000 C 
BRANCH  30  31
ATOM     31  C   UNL     1      -5.341   1.610  28.980  1.00  0.00    -0.003 C 
ATOM     32  C   UNL     1      -5.864   2.993  28.597  1.00  0.00     0.004 C 
ENDBRANCH  30  31
ENDBRANCH  29  30
ENDBRANCH  28  29
ENDBRANCH  27  28
ENDBRANCH  26  27
ENDBRANCH  25  26
ENDBRANCH  24  25
ENDBRANCH  23  24
ENDBRANCH  22  23
ENDBRANCH  21  22
ENDBRANCH  20  21
ENDBRANCH  19  20
ENDBRANCH  18  19
ENDBRANCH   1  18
TORSDOF 28
ENDMDL
MODEL 3
REMARK VINA RESULT:    -2.949      3.250      6.270
REMARK INTER + INTRA:         -13.319
REMARK INTER:                  -8.388
REMARK INTRA:                  -4.931
REMARK UNBOUND:                -5.543
REMARK SMILES CCCCCCCCCCCCCCCCCCCCCCCCCCCCCC(=O)[O-]
REMARK SMILES IDX 16 1 17 2 18 3 19 4 20 5 21 6 22 7 23 8 24 9 25 10 26 11
REMARK SMILES IDX 27 12 28 13 29 14 30 15 31 16 32 17 15 18 14 19 13 20 12 21
REMARK SMILES IDX 11 22 10 23 9 24 8 25 7 26 6 27 5 28 4 29 3 30 2 31 1 32
REMARK H PARENT
REMARK Flexibility Score: inf
ROOT
ATOM      1  C   UNL     1       1.340   5.989  39.372  1.00  0.00     0.000 C 
ENDROOT
BRANCH   1   2
ATOM      2  C   UNL     1       2.610   5.420  38.703  1.00  0.00     0.000 C 
BRANCH   2   3
ATOM      3  C   UNL     1       2.422   5.163  37.197  1.00  0.00     0.000 C 
BRANCH   3   4
ATOM      4  C   UNL     1       1.603   3.896  36.903  1.00  0.00     0.000 C 
BRANCH   4   5
ATOM      5  C   UNL     1       1.730   3.399  35.447  1.00  0.00     0.000 C 
BRANCH   5   6
ATOM      6  C   UNL     1       0.439   3.631  34.641  1.00  0.00     0.000 C 
BRANCH   6   7
ATOM      7  C   UNL     1       0.611   4.682  33.532  1.00  0.00     0.000 C 
BRANCH   7   8
ATOM      8  C   UNL     1      -0.540   4.650  32.510  1.00  0.00     0.000 C 
BRANCH   8   9
ATOM      9  C   UNL     1      -0.462   3.444  31.560  1.00  0.00     0.000 C 
BRANCH   9  10
ATOM     10  C   UNL     1       0.824   3.441  30.715  1.00  0.00     0.000 C 
BRANCH  10  11
ATOM     11  C   UNL     1       0.573   3.788  29.237  1.00  0.00     0.000 C 
BRANCH  11  12
ATOM     12  C   UNL     1       0.419   5.291  28.928  1.00  0.00     0.000 C 
BRANCH  12  13
ATOM     13  C   UNL     1       1.347   6.231  29.722  1.00  0.00     0.006 C 
BRANCH  13  14
ATOM     14  C   UNL     1       1.361   7.682  29.206  1.00  0.00     0.053 C 
BRANCH  14  15
ATOM     15  C   UNL     1       1.789   7.777  27.772  1.00  0.00     0.041 C 
ATOM     16  O   UNL     1       1.127   8.467  26.954  1.00  0.00    -0.550 OA
ATOM     17  O   UNL     1       2.939   7.124  27.345  1.00  0.00    -0.550 OA
ENDBRANCH  14  15
ENDBRANCH  13  14
ENDBRANCH  12  13
ENDBRANCH  11  12
ENDBRANCH  10  11
ENDBRANCH   9  10
ENDBRANCH   8   9
ENDBRANCH   7   8
ENDBRANCH   6   7
ENDBRANCH   5   6
ENDBRANCH   4   5
ENDBRANCH   3   4
ENDBRANCH   2   3
ENDBRANCH   1   2
BRANCH   1  18
ATOM     18  C   UNL     1       1.258   7.527  39.366  1.00  0.00     0.000 C 
BRANCH  18  19
ATOM     19  C   UNL     1       0.259   8.135  40.364  1.00  0.00     0.000 C 
BRANCH  19  20
ATOM     20  C   UNL     1      -0.780   9.093  39.750  1.00  0.00     0.000 C 
BRANCH  20  21
ATOM     21  C   UNL     1      -1.804   8.403  38.821  1.00  0.00     0.000 C 
BRANCH  21  22
ATOM     22  C   UNL     1      -1.872   8.974  37.389  1.00  0.00     0.000 C 
BRANCH  22  23
ATOM     23  C   UNL     1      -0.826   8.426  36.393  1.00  0.00     0.000 C 
BRANCH  23  24
ATOM     24  C   UNL     1      -0.740   6.889  36.312  1.00  0.00    -0.000 C 
BRANCH  24  25
ATOM     25  C   UNL     1      -1.960   6.215  35.655  1.00  0.00    -0.000 C 
BRANCH  25  26
ATOM     26  C   UNL     1      -2.616   5.097  36.491  1.00  0.00    -0.000 C 
BRANCH  26  27
ATOM     27  C   UNL     1      -1.864   4.720  37.781  1.00  0.00    -0.000 C 
BRANCH  27  28
ATOM     28  C   UNL     1      -2.624   5.124  39.053  1.00  0.00    -0.000 C 
BRANCH  28  29
ATOM     29  C   UNL     1      -1.770   4.883  40.307  1.00  0.00    -0.000 C 
BRANCH  29  30
ATOM     30  C   UNL     1      -2.246   5.728  41.509  1.00  0.00    -0.000 C 
BRANCH  30  31
ATOM     31  C   UNL     1      -3.699   6.218  41.381  1.00  0.00    -0.003 C 
ATOM     32  C   UNL     1      -3.891   7.656  41.861  1.00  0.00     0.004 C 
ENDBRANCH  30  31
ENDBRANCH  29  30
ENDBRANCH  28  29
ENDBRANCH  27  28
ENDBRANCH  26  27
ENDBRANCH  25  26
ENDBRANCH  24  25
ENDBRANCH  23  24
ENDBRANCH  22  23
ENDBRANCH  21  22
ENDBRANCH  20  21
ENDBRANCH  19  20
ENDBRANCH  18  19
ENDBRANCH   1  18
TORSDOF 28
ENDMDL
MODEL 4
REMARK VINA RESULT:    -2.928      5.291     10.653
REMARK INTER + INTRA:         -13.264
REMARK INTER:                  -7.655
REMARK INTRA:                  -5.609
REMARK UNBOUND:                -5.543
REMARK SMILES CCCCCCCCCCCCCCCCCCCCCCCCCCCCCC(=O)[O-]
REMARK SMILES IDX 16 1 17 2 18 3 19 4 20 5 21 6 22 7 23 8 24 9 25 10 26 11
REMARK SMILES IDX 27 12 28 13 29 14 30 15 31 16 32 17 15 18 14 19 13 20 12 21
REMARK SMILES IDX 11 22 10 23 9 24 8 25 7 26 6 27 5 28 4 29 3 30 2 31 1 32
REMARK H PARENT
REMARK Flexibility Score: inf
ROOT
ATOM      1  C   UNL     1      -2.373   3.849  26.180  1.00  0.00     0.000 C 
ENDROOT
BRANCH   1   2
ATOM      2  C   UNL     1      -3.166   3.261  27.368  1.00  0.00     0.000 C 
BRANCH   2   3
ATOM      3  C   UNL     1      -2.746   3.870  28.718  1.00  0.00     0.000 C 
BRANCH   3   4
ATOM      4  C   UNL     1      -2.871   2.879  29.886  1.00  0.00     0.000 C 
BRANCH   4   5
ATOM      5  C   UNL     1      -1.516   2.486  30.514  1.00  0.00     0.000 C 
BRANCH   5   6
ATOM      6  C   UNL     1      -0.334   2.777  29.572  1.00  0.00     0.000 C 
BRANCH   6   7
ATOM      7  C   UNL     1       0.623   3.842  30.130  1.00  0.00     0.000 C 
BRANCH   7   8
ATOM      8  C   UNL     1       1.095   4.831  29.048  1.00  0.00     0.000 C 
BRANCH   8   9
ATOM      9  C   UNL     1       1.187   6.277  29.560  1.00  0.00     0.000 C 
BRANCH   9  10
ATOM     10  C   UNL     1       0.415   6.488  30.874  1.00  0.00     0.000 C 
BRANCH  10  11
ATOM     11  C   UNL     1       1.336   6.770  32.074  1.00  0.00     0.000 C 
BRANCH  11  12
ATOM     12  C   UNL     1       0.875   6.166  33.416  1.00  0.00     0.000 C 
BRANCH  12  13
ATOM     13  C   UNL     1      -0.548   5.573  33.425  1.00  0.00     0.006 C 
BRANCH  13  14
ATOM     14  C   UNL     1      -0.789   4.537  34.539  1.00  0.00     0.053 C 
BRANCH  14  15
ATOM     15  C   UNL     1      -0.736   3.127  34.033  1.00  0.00     0.041 C 
ATOM     16  O   UNL     1      -1.763   2.400  34.064  1.00  0.00    -0.550 OA
ATOM     17  O   UNL     1       0.444   2.624  33.499  1.00  0.00    -0.550 OA
ENDBRANCH  14  15
ENDBRANCH  13  14
ENDBRANCH  12  13
ENDBRANCH  11  12
ENDBRANCH  10  11
ENDBRANCH   9  10
ENDBRANCH   8   9
ENDBRANCH   7   8
ENDBRANCH   6   7
ENDBRANCH   5   6
ENDBRANCH   4   5
ENDBRANCH   3   4
ENDBRANCH   2   3
ENDBRANCH   1   2
BRANCH   1  18
ATOM     18  C   UNL     1      -1.360   4.940  26.575  1.00  0.00     0.000 C 
BRANCH  18  19
ATOM     19  C   UNL     1      -1.148   6.047  25.529  1.00  0.00     0.000 C 
BRANCH  19  20
ATOM     20  C   UNL     1      -0.154   7.152  25.937  1.00  0.00     0.000 C 
BRANCH  20  21
ATOM     21  C   UNL     1       0.500   7.885  24.745  1.00  0.00     0.000 C 
BRANCH  21  22
ATOM     22  C   UNL     1       1.424   9.060  25.130  1.00  0.00     0.000 C 
BRANCH  22  23
ATOM     23  C   UNL     1       2.139   8.937  26.494  1.00  0.00     0.000 C 
BRANCH  23  24
ATOM     24  C   UNL     1       3.523   8.261  26.450  1.00  0.00    -0.000 C 
BRANCH  24  25
ATOM     25  C   UNL     1       3.515   6.764  26.816  1.00  0.00    -0.000 C 
BRANCH  25  26
ATOM     26  C   UNL     1       3.500   5.798  25.613  1.00  0.00    -0.000 C 
BRANCH  26  27
ATOM     27  C   UNL     1       2.647   4.530  25.806  1.00  0.00    -0.000 C 
BRANCH  27  28
ATOM     28  C   UNL     1       1.836   4.163  24.555  1.00  0.00    -0.000 C 
BRANCH  28  29
ATOM     29  C   UNL     1       1.101   2.828  24.745  1.00  0.00    -0.000 C 
BRANCH  29  30
ATOM     30  C   UNL     1       1.116   2.357  26.215  1.00  0.00    -0.000 C 
BRANCH  30  31
ATOM     31  C   UNL     1       0.790   0.863  26.387  1.00  0.00    -0.003 C 
ATOM     32  C   UNL     1      -0.701   0.593  26.578  1.00  0.00     0.004 C 
ENDBRANCH  30  31
ENDBRANCH  29  30
ENDBRANCH  28  29
ENDBRANCH  27  28
ENDBRANCH  26  27
ENDBRANCH  25  26
ENDBRANCH  24  25
ENDBRANCH  23  24
ENDBRANCH  22  23
ENDBRANCH  21  22
ENDBRANCH  20  21
ENDBRANCH  19  20
ENDBRANCH  18  19
ENDBRANCH   1  18
TORSDOF 28
ENDMDL
MODEL 5
REMARK VINA RESULT:    -2.902      2.225      3.066
REMARK INTER + INTRA:         -13.195
REMARK INTER:                  -7.719
REMARK INTRA:                  -5.477
REMARK UNBOUND:                -5.543
REMARK SMILES CCCCCCCCCCCCCCCCCCCCCCCCCCCCCC(=O)[O-]
REMARK SMILES IDX 16 1 17 2 18 3 19 4 20 5 21 6 22 7 23 8 24 9 25 10 26 11
REMARK SMILES IDX 27 12 28 13 29 14 30 15 31 16 32 17 15 18 14 19 13 20 12 21
REMARK SMILES IDX 11 22 10 23 9 24 8 25 7 26 6 27 5 28 4 29 3 30 2 31 1 32
REMARK H PARENT
REMARK Flexibility Score: inf
ROOT
ATOM      1  C   UNL     1      -0.535   8.757  39.173  1.00  0.00     0.000 C 
ENDROOT
BRANCH   1   2
ATOM      2  C   UNL     1       0.261   7.942  40.216  1.00  0.00     0.000 C 
BRANCH   2   3
ATOM      3  C   UNL     1       1.361   7.075  39.577  1.00  0.00     0.000 C 
BRANCH   3   4
ATOM      4  C   UNL     1       1.366   7.150  38.042  1.00  0.00     0.000 C 
BRANCH   4   5
ATOM      5  C   UNL     1       1.631   5.794  37.355  1.00  0.00     0.000 C 
BRANCH   5   6
ATOM      6  C   UNL     1       2.763   5.008  38.041  1.00  0.00     0.000 C 
BRANCH   6   7
ATOM      7  C   UNL     1       2.441   3.513  38.194  1.00  0.00     0.000 C 
BRANCH   7   8
ATOM      8  C   UNL     1       2.040   2.860  36.858  1.00  0.00     0.000 C 
BRANCH   8   9
ATOM      9  C   UNL     1       3.126   1.924  36.301  1.00  0.00     0.000 C 
BRANCH   9  10
ATOM     10  C   UNL     1       3.612   2.351  34.906  1.00  0.00     0.000 C 
BRANCH  10  11
ATOM     11  C   UNL     1       4.265   3.744  34.896  1.00  0.00     0.000 C 
BRANCH  11  12
ATOM     12  C   UNL     1       3.592   4.782  33.975  1.00  0.00     0.000 C 
BRANCH  12  13
ATOM     13  C   UNL     1       2.207   4.385  33.426  1.00  0.00     0.006 C 
BRANCH  13  14
ATOM     14  C   UNL     1       1.108   5.433  33.678  1.00  0.00     0.053 C 
BRANCH  14  15
ATOM     15  C   UNL     1       1.101   6.519  32.644  1.00  0.00     0.041 C 
ATOM     16  O   UNL     1       0.809   7.701  32.963  1.00  0.00    -0.550 OA
ATOM     17  O   UNL     1       1.448   6.229  31.330  1.00  0.00    -0.550 OA
ENDBRANCH  14  15
ENDBRANCH  13  14
ENDBRANCH  12  13
ENDBRANCH  11  12
ENDBRANCH  10  11
ENDBRANCH   9  10
ENDBRANCH   8   9
ENDBRANCH   7   8
ENDBRANCH   6   7
ENDBRANCH   5   6
ENDBRANCH   4   5
ENDBRANCH   3   4
ENDBRANCH   2   3
ENDBRANCH   1   2
BRANCH   1  18
ATOM     18  C   UNL     1      -2.055   8.787  39.421  1.00  0.00     0.000 C 
BRANCH  18  19
ATOM     19  C   UNL     1      -2.530   8.036  40.676  1.00  0.00     0.000 C 
BRANCH  19  20
ATOM     20  C   UNL     1      -3.845   7.249  40.509  1.00  0.00     0.000 C 
BRANCH  20  21
ATOM     21  C   UNL     1      -3.647   5.748  40.200  1.00  0.00     0.000 C 
BRANCH  21  22
ATOM     22  C   UNL     1      -2.195   5.242  40.333  1.00  0.00     0.000 C 
BRANCH  22  23
ATOM     23  C   UNL     1      -1.516   4.786  39.023  1.00  0.00     0.000 C 
BRANCH  23  24
ATOM     24  C   UNL     1      -1.940   5.561  37.760  1.00  0.00    -0.000 C 
BRANCH  24  25
ATOM     25  C   UNL     1      -2.767   4.739  36.753  1.00  0.00    -0.000 C 
BRANCH  25  26
ATOM     26  C   UNL     1      -1.972   4.186  35.552  1.00  0.00    -0.000 C 
BRANCH  26  27
ATOM     27  C   UNL     1      -1.207   2.877  35.825  1.00  0.00    -0.000 C 
BRANCH  27  28
ATOM     28  C   UNL     1      -0.619   2.256  34.549  1.00  0.00    -0.000 C 
BRANCH  28  29
ATOM     29  C   UNL     1      -1.637   2.289  33.399  1.00  0.00    -0.000 C 
BRANCH  29  30
ATOM     30  C   UNL     1      -1.303   1.263  32.295  1.00  0.00    -0.000 C 
BRANCH  30  31
ATOM     31  C   UNL     1      -0.157   1.705  31.368  1.00  0.00    -0.003 C 
ATOM     32  C   UNL     1      -0.296   3.149  30.890  1.00  0.00     0.004 C 
ENDBRANCH  30  31
ENDBRANCH  29  30
ENDBRANCH  28  29
ENDBRANCH  27  28
ENDBRANCH  26  27
ENDBRANCH  25  26
ENDBRANCH  24  25
ENDBRANCH  23  24
ENDBRANCH  22  23
ENDBRANCH  21  22
ENDBRANCH  20  21
ENDBRANCH  19  20
ENDBRANCH  18  19
ENDBRANCH   1  18
TORSDOF 28
ENDMDL
MODEL 6
REMARK VINA RESULT:    -2.901      2.829      5.560
REMARK INTER + INTRA:         -13.192
REMARK INTER:                  -7.358
REMARK INTRA:                  -5.833
REMARK UNBOUND:                -5.543
REMARK SMILES CCCCCCCCCCCCCCCCCCCCCCCCCCCCCC(=O)[O-]
REMARK SMILES IDX 16 1 17 2 18 3 19 4 20 5 21 6 22 7 23 8 24 9 25 10 26 11
REMARK SMILES IDX 27 12 28 13 29 14 30 15 31 16 32 17 15 18 14 19 13 20 12 21
REMARK SMILES IDX 11 22 10 23 9 24 8 25 7 26 6 27 5 28 4 29 3 30 2 31 1 32
REMARK H PARENT
REMARK Flexibility Score: inf
ROOT
ATOM      1  C   UNL     1      -0.873   8.190  36.660  1.00  0.00     0.000 C 
ENDROOT
BRANCH   1   2
ATOM      2  C   UNL     1      -1.865   8.556  37.785  1.00  0.00     0.000 C 
BRANCH   2   3
ATOM      3  C   UNL     1      -2.314   7.330  38.601  1.00  0.00     0.000 C 
BRANCH   3   4
ATOM      4  C   UNL     1      -1.681   6.019  38.109  1.00  0.00     0.000 C 
BRANCH   4   5
ATOM      5  C   UNL     1      -2.705   5.000  37.567  1.00  0.00     0.000 C 
BRANCH   5   6
ATOM      6  C   UNL     1      -2.066   4.003  36.584  1.00  0.00     0.000 C 
BRANCH   6   7
ATOM      7  C   UNL     1      -1.087   4.674  35.607  1.00  0.00     0.000 C 
BRANCH   7   8
ATOM      8  C   UNL     1       0.338   4.103  35.722  1.00  0.00     0.000 C 
BRANCH   8   9
ATOM      9  C   UNL     1       1.393   5.184  36.009  1.00  0.00     0.000 C 
BRANCH   9  10
ATOM     10  C   UNL     1       2.788   4.802  35.483  1.00  0.00     0.000 C 
BRANCH  10  11
ATOM     11  C   UNL     1       2.790   4.445  33.986  1.00  0.00     0.000 C 
BRANCH  11  12
ATOM     12  C   UNL     1       2.226   5.531  33.047  1.00  0.00     0.000 C 
BRANCH  12  13
ATOM     13  C   UNL     1       1.057   5.088  32.144  1.00  0.00     0.006 C 
BRANCH  13  14
ATOM     14  C   UNL     1       0.308   6.253  31.472  1.00  0.00     0.053 C 
BRANCH  14  15
ATOM     15  C   UNL     1       1.103   6.889  30.372  1.00  0.00     0.041 C 
ATOM     16  O   UNL     1       1.470   6.211  29.376  1.00  0.00    -0.550 OA
ATOM     17  O   UNL     1       1.416   8.241  30.432  1.00  0.00    -0.550 OA
ENDBRANCH  14  15
ENDBRANCH  13  14
ENDBRANCH  12  13
ENDBRANCH  11  12
ENDBRANCH  10  11
ENDBRANCH   9  10
ENDBRANCH   8   9
ENDBRANCH   7   8
ENDBRANCH   6   7
ENDBRANCH   5   6
ENDBRANCH   4   5
ENDBRANCH   3   4
ENDBRANCH   2   3
ENDBRANCH   1   2
BRANCH   1  18
ATOM     18  C   UNL     1       0.544   8.760  36.857  1.00  0.00     0.000 C 
BRANCH  18  19
ATOM     19  C   UNL     1       1.010   8.870  38.319  1.00  0.00     0.000 C 
BRANCH  19  20
ATOM     20  C   UNL     1       1.455   7.545  38.966  1.00  0.00     0.000 C 
BRANCH  20  21
ATOM     21  C   UNL     1       0.991   7.369  40.430  1.00  0.00     0.000 C 
BRANCH  21  22
ATOM     22  C   UNL     1       0.198   8.560  41.008  1.00  0.00     0.000 C 
BRANCH  22  23
ATOM     23  C   UNL     1      -0.997   8.197  41.918  1.00  0.00     0.000 C 
BRANCH  23  24
ATOM     24  C   UNL     1      -0.981   6.763  42.480  1.00  0.00    -0.000 C 
BRANCH  24  25
ATOM     25  C   UNL     1      -2.128   5.866  41.977  1.00  0.00    -0.000 C 
BRANCH  25  26
ATOM     26  C   UNL     1      -1.758   4.381  41.783  1.00  0.00    -0.000 C 
BRANCH  26  27
ATOM     27  C   UNL     1      -0.305   4.123  41.341  1.00  0.00    -0.000 C 
BRANCH  27  28
ATOM     28  C   UNL     1      -0.212   3.488  39.945  1.00  0.00    -0.000 C 
BRANCH  28  29
ATOM     29  C   UNL     1       1.105   3.867  39.253  1.00  0.00    -0.000 C 
BRANCH  29  30
ATOM     30  C   UNL     1       2.341   3.384  40.043  1.00  0.00    -0.000 C 
BRANCH  30  31
ATOM     31  C   UNL     1       3.470   2.841  39.150  1.00  0.00    -0.003 C 
ATOM     32  C   UNL     1       2.957   2.046  37.952  1.00  0.00     0.004 C 
ENDBRANCH  30  31
ENDBRANCH  29  30
ENDBRANCH  28  29
ENDBRANCH  27  28
ENDBRANCH  26  27
ENDBRANCH  25  26
ENDBRANCH  24  25
ENDBRANCH  23  24
ENDBRANCH  22  23
ENDBRANCH  21  22
ENDBRANCH  20  21
ENDBRANCH  19  20
ENDBRANCH  18  19
ENDBRANCH   1  18
TORSDOF 28
ENDMDL
MODEL 7
REMARK VINA RESULT:    -2.901      2.628      4.142
REMARK INTER + INTRA:         -13.191
REMARK INTER:                  -7.358
REMARK INTRA:                  -5.833
REMARK UNBOUND:                -5.543
REMARK SMILES CCCCCCCCCCCCCCCCCCCCCCCCCCCCCC(=O)[O-]
REMARK SMILES IDX 16 1 17 2 18 3 19 4 20 5 21 6 22 7 23 8 24 9 25 10 26 11
REMARK SMILES IDX 27 12 28 13 29 14 30 15 31 16 32 17 15 18 14 19 13 20 12 21
REMARK SMILES IDX 11 22 10 23 9 24 8 25 7 26 6 27 5 28 4 29 3 30 2 31 1 32
REMARK H PARENT
REMARK Flexibility Score: inf
ROOT
ATOM      1  C   UNL     1      -1.549   4.471  41.377  1.00  0.00     0.000 C 
ENDROOT
BRANCH   1   2
ATOM      2  C   UNL     1      -1.015   4.660  39.941  1.00  0.00     0.000 C 
BRANCH   2   3
ATOM      3  C   UNL     1       0.516   4.806  39.893  1.00  0.00     0.000 C 
BRANCH   3   4
ATOM      4  C   UNL     1       1.240   3.849  40.854  1.00  0.00     0.000 C 
BRANCH   4   5
ATOM      5  C   UNL     1       2.075   2.766  40.139  1.00  0.00     0.000 C 
BRANCH   5   6
ATOM      6  C   UNL     1       1.206   1.847  39.262  1.00  0.00     0.000 C 
BRANCH   6   7
ATOM      7  C   UNL     1       1.928   1.384  37.987  1.00  0.00     0.000 C 
BRANCH   7   8
ATOM      8  C   UNL     1       3.382   1.885  37.922  1.00  0.00     0.000 C 
BRANCH   8   9
ATOM      9  C   UNL     1       3.640   2.814  36.724  1.00  0.00     0.000 C 
BRANCH   9  10
ATOM     10  C   UNL     1       3.107   4.238  36.956  1.00  0.00     0.000 C 
BRANCH  10  11
ATOM     11  C   UNL     1       2.453   4.847  35.703  1.00  0.00     0.000 C 
BRANCH  11  12
ATOM     12  C   UNL     1       2.359   3.907  34.484  1.00  0.00     0.000 C 
BRANCH  12  13
ATOM     13  C   UNL     1       1.463   4.401  33.330  1.00  0.00     0.006 C 
BRANCH  13  14
ATOM     14  C   UNL     1       1.339   5.934  33.245  1.00  0.00     0.053 C 
BRANCH  14  15
ATOM     15  C   UNL     1       0.552   6.380  32.049  1.00  0.00     0.041 C 
ATOM     16  O   UNL     1      -0.182   5.567  31.430  1.00  0.00    -0.550 OA
ATOM     17  O   UNL     1       0.609   7.705  31.636  1.00  0.00    -0.550 OA
ENDBRANCH  14  15
ENDBRANCH  13  14
ENDBRANCH  12  13
ENDBRANCH  11  12
ENDBRANCH  10  11
ENDBRANCH   9  10
ENDBRANCH   8   9
ENDBRANCH   7   8
ENDBRANCH   6   7
ENDBRANCH   5   6
ENDBRANCH   4   5
ENDBRANCH   3   4
ENDBRANCH   2   3
ENDBRANCH   1   2
BRANCH   1  18
ATOM     18  C   UNL     1      -2.958   5.048  41.609  1.00  0.00     0.000 C 
BRANCH  18  19
ATOM     19  C   UNL     1      -3.595   5.734  40.389  1.00  0.00     0.000 C 
BRANCH  19  20
ATOM     20  C   UNL     1      -3.794   7.257  40.522  1.00  0.00     0.000 C 
BRANCH  20  21
ATOM     21  C   UNL     1      -2.612   8.097  39.987  1.00  0.00     0.000 C 
BRANCH  21  22
ATOM     22  C   UNL     1      -1.425   8.246  40.962  1.00  0.00     0.000 C 
BRANCH  22  23
ATOM     23  C   UNL     1      -0.049   8.513  40.314  1.00  0.00     0.000 C 
BRANCH  23  24
ATOM     24  C   UNL     1      -0.075   8.745  38.791  1.00  0.00    -0.000 C 
BRANCH  24  25
ATOM     25  C   UNL     1       0.875   7.836  37.988  1.00  0.00    -0.000 C 
BRANCH  25  26
ATOM     26  C   UNL     1       0.376   7.450  36.581  1.00  0.00    -0.000 C 
BRANCH  26  27
ATOM     27  C   UNL     1      -1.126   7.689  36.333  1.00  0.00    -0.000 C 
BRANCH  27  28
ATOM     28  C   UNL     1      -1.839   6.453  35.767  1.00  0.00    -0.000 C 
BRANCH  28  29
ATOM     29  C   UNL     1      -2.332   5.534  36.895  1.00  0.00    -0.000 C 
BRANCH  29  30
ATOM     30  C   UNL     1      -2.276   4.043  36.500  1.00  0.00    -0.000 C 
BRANCH  30  31
ATOM     31  C   UNL     1      -0.845   3.493  36.370  1.00  0.00    -0.003 C 
ATOM     32  C   UNL     1      -0.767   2.216  35.536  1.00  0.00     0.004 C 
ENDBRANCH  30  31
ENDBRANCH  29  30
ENDBRANCH  28  29
ENDBRANCH  27  28
ENDBRANCH  26  27
ENDBRANCH  25  26
ENDBRANCH  24  25
ENDBRANCH  23  24
ENDBRANCH  22  23
ENDBRANCH  21  22
ENDBRANCH  20  21
ENDBRANCH  19  20
ENDBRANCH  18  19
ENDBRANCH   1  18
TORSDOF 28
ENDMDL
MODEL 8
REMARK VINA RESULT:    -2.875      6.229     11.490
REMARK INTER + INTRA:         -13.124
REMARK INTER:                  -7.113
REMARK INTRA:                  -6.011
REMARK UNBOUND:                -5.543
REMARK SMILES CCCCCCCCCCCCCCCCCCCCCCCCCCCCCC(=O)[O-]
REMARK SMILES IDX 16 1 17 2 18 3 19 4 20 5 21 6 22 7 23 8 24 9 25 10 26 11
REMARK SMILES IDX 27 12 28 13 29 14 30 15 31 16 32 17 15 18 14 19 13 20 12 21
REMARK SMILES IDX 11 22 10 23 9 24 8 25 7 26 6 27 5 28 4 29 3 30 2 31 1 32
REMARK H PARENT
REMARK Flexibility Score: inf
ROOT
ATOM      1  C   UNL     1       1.024   8.674  26.345  1.00  0.00     0.000 C 
ENDROOT
BRANCH   1   2
ATOM      2  C   UNL     1       1.772   9.105  25.065  1.00  0.00     0.000 C 
BRANCH   2   3
ATOM      3  C   UNL     1       1.137   8.531  23.786  1.00  0.00     0.000 C 
BRANCH   3   4
ATOM      4  C   UNL     1      -0.142   7.725  24.062  1.00  0.00     0.000 C 
BRANCH   4   5
ATOM      5  C   UNL     1      -0.120   6.302  23.465  1.00  0.00     0.000 C 
BRANCH   5   6
ATOM      6  C   UNL     1      -1.054   5.341  24.223  1.00  0.00     0.000 C 
BRANCH   6   7
ATOM      7  C   UNL     1      -1.039   5.571  25.743  1.00  0.00     0.000 C 
BRANCH   7   8
ATOM      8  C   UNL     1      -2.019   4.645  26.486  1.00  0.00     0.000 C 
BRANCH   8   9
ATOM      9  C   UNL     1      -1.404   4.008  27.741  1.00  0.00     0.000 C 
BRANCH   9  10
ATOM     10  C   UNL     1      -2.459   3.662  28.806  1.00  0.00     0.000 C 
BRANCH  10  11
ATOM     11  C   UNL     1      -1.876   3.582  30.228  1.00  0.00     0.000 C 
BRANCH  11  12
ATOM     12  C   UNL     1      -0.877   4.698  30.596  1.00  0.00     0.000 C 
BRANCH  12  13
ATOM     13  C   UNL     1       0.209   4.307  31.618  1.00  0.00     0.006 C 
BRANCH  13  14
ATOM     14  C   UNL     1       1.258   5.406  31.868  1.00  0.00     0.053 C 
BRANCH  14  15
ATOM     15  C   UNL     1       0.666   6.634  32.492  1.00  0.00     0.041 C 
ATOM     16  O   UNL     1       0.178   6.588  33.651  1.00  0.00    -0.550 OA
ATOM     17  O   UNL     1       0.681   7.839  31.802  1.00  0.00    -0.550 OA
ENDBRANCH  14  15
ENDBRANCH  13  14
ENDBRANCH  12  13
ENDBRANCH  11  12
ENDBRANCH  10  11
ENDBRANCH   9  10
ENDBRANCH   8   9
ENDBRANCH   7   8
ENDBRANCH   6   7
ENDBRANCH   5   6
ENDBRANCH   4   5
ENDBRANCH   3   4
ENDBRANCH   2   3
ENDBRANCH   1   2
BRANCH   1  18
ATOM     18  C   UNL     1       1.740   9.054  27.655  1.00  0.00     0.000 C 
BRANCH  18  19
ATOM     19  C   UNL     1       2.178   7.869  28.531  1.00  0.00     0.000 C 
BRANCH  19  20
ATOM     20  C   UNL     1       1.301   6.607  28.412  1.00  0.00     0.000 C 
BRANCH  20  21
ATOM     21  C   UNL     1       2.028   5.389  27.798  1.00  0.00     0.000 C 
BRANCH  21  22
ATOM     22  C   UNL     1       3.192   5.738  26.846  1.00  0.00     0.000 C 
BRANCH  22  23
ATOM     23  C   UNL     1       2.894   5.599  25.336  1.00  0.00     0.000 C 
BRANCH  23  24
ATOM     24  C   UNL     1       3.813   4.626  24.573  1.00  0.00    -0.000 C 
BRANCH  24  25
ATOM     25  C   UNL     1       3.074   3.489  23.841  1.00  0.00    -0.000 C 
BRANCH  25  26
ATOM     26  C   UNL     1       1.705   3.108  24.440  1.00  0.00    -0.000 C 
BRANCH  26  27
ATOM     27  C   UNL     1       1.756   2.070  25.577  1.00  0.00    -0.000 C 
BRANCH  27  28
ATOM     28  C   UNL     1       2.991   1.161  25.496  1.00  0.00    -0.000 C 
BRANCH  28  29
ATOM     29  C   UNL     1       3.667   1.023  26.869  1.00  0.00    -0.000 C 
BRANCH  29  30
ATOM     30  C   UNL     1       3.091   2.012  27.905  1.00  0.00    -0.000 C 
BRANCH  30  31
ATOM     31  C   UNL     1       2.502   1.326  29.150  1.00  0.00    -0.003 C 
ATOM     32  C   UNL     1       0.996   1.537  29.295  1.00  0.00     0.004 C 
ENDBRANCH  30  31
ENDBRANCH  29  30
ENDBRANCH  28  29
ENDBRANCH  27  28
ENDBRANCH  26  27
ENDBRANCH  25  26
ENDBRANCH  24  25
ENDBRANCH  23  24
ENDBRANCH  22  23
ENDBRANCH  21  22
ENDBRANCH  20  21
ENDBRANCH  19  20
ENDBRANCH  18  19
ENDBRANCH   1  18
TORSDOF 28
ENDMDL
MODEL 9
REMARK VINA RESULT:    -2.858      4.504      9.429
REMARK INTER + INTRA:         -13.080
REMARK INTER:                  -8.222
REMARK INTRA:                  -4.858
REMARK UNBOUND:                -5.543
REMARK SMILES CCCCCCCCCCCCCCCCCCCCCCCCCCCCCC(=O)[O-]
REMARK SMILES IDX 16 1 17 2 18 3 19 4 20 5 21 6 22 7 23 8 24 9 25 10 26 11
REMARK SMILES IDX 27 12 28 13 29 14 30 15 31 16 32 17 15 18 14 19 13 20 12 21
REMARK SMILES IDX 11 22 10 23 9 24 8 25 7 26 6 27 5 28 4 29 3 30 2 31 1 32
REMARK H PARENT
REMARK Flexibility Score: inf
ROOT
ATOM      1  C   UNL     1       1.795   8.737  29.470  1.00  0.00     0.000 C 
ENDROOT
BRANCH   1   2
ATOM      2  C   UNL     1       0.996   7.996  30.564  1.00  0.00     0.000 C 
BRANCH   2   3
ATOM      3  C   UNL     1       1.367   6.506  30.661  1.00  0.00     0.000 C 
BRANCH   3   4
ATOM      4  C   UNL     1       0.453   5.604  29.818  1.00  0.00     0.000 C 
BRANCH   4   5
ATOM      5  C   UNL     1       0.901   4.127  29.779  1.00  0.00     0.000 C 
BRANCH   5   6
ATOM      6  C   UNL     1      -0.065   3.208  30.548  1.00  0.00     0.000 C 
BRANCH   6   7
ATOM      7  C   UNL     1      -0.972   3.977  31.521  1.00  0.00     0.000 C 
BRANCH   7   8
ATOM      8  C   UNL     1      -0.559   3.777  32.991  1.00  0.00     0.000 C 
BRANCH   8   9
ATOM      9  C   UNL     1       0.811   3.095  33.138  1.00  0.00     0.000 C 
BRANCH   9  10
ATOM     10  C   UNL     1       1.928   4.087  33.503  1.00  0.00     0.000 C 
BRANCH  10  11
ATOM     11  C   UNL     1       1.395   5.395  34.115  1.00  0.00     0.000 C 
BRANCH  11  12
ATOM     12  C   UNL     1       1.473   5.485  35.653  1.00  0.00     0.000 C 
BRANCH  12  13
ATOM     13  C   UNL     1       0.130   5.343  36.396  1.00  0.00     0.006 C 
BRANCH  13  14
ATOM     14  C   UNL     1      -0.103   6.411  37.480  1.00  0.00     0.053 C 
BRANCH  14  15
ATOM     15  C   UNL     1      -0.271   7.786  36.906  1.00  0.00     0.041 C 
ATOM     16  O   UNL     1      -1.378   8.146  36.428  1.00  0.00    -0.550 OA
ATOM     17  O   UNL     1       0.791   8.681  36.925  1.00  0.00    -0.550 OA
ENDBRANCH  14  15
ENDBRANCH  13  14
ENDBRANCH  12  13
ENDBRANCH  11  12
ENDBRANCH  10  11
ENDBRANCH   9  10
ENDBRANCH   8   9
ENDBRANCH   7   8
ENDBRANCH   6   7
ENDBRANCH   5   6
ENDBRANCH   4   5
ENDBRANCH   3   4
ENDBRANCH   2   3
ENDBRANCH   1   2
BRANCH   1  18
ATOM     18  C   UNL     1       1.047   8.886  28.132  1.00  0.00     0.000 C 
BRANCH  18  19
ATOM     19  C   UNL     1       1.886   8.598  26.876  1.00  0.00     0.000 C 
BRANCH  19  20
ATOM     20  C   UNL     1       3.392   8.392  27.127  1.00  0.00     0.000 C 
BRANCH  20  21
ATOM     21  C   UNL     1       3.919   7.003  26.703  1.00  0.00     0.000 C 
BRANCH  21  22
ATOM     22  C   UNL     1       3.026   5.814  27.116  1.00  0.00     0.000 C 
BRANCH  22  23
ATOM     23  C   UNL     1       2.446   4.971  25.958  1.00  0.00     0.000 C 
BRANCH  23  24
ATOM     24  C   UNL     1       0.999   4.482  26.164  1.00  0.00    -0.000 C 
BRANCH  24  25
ATOM     25  C   UNL     1      -0.065   5.594  26.114  1.00  0.00    -0.000 C 
BRANCH  25  26
ATOM     26  C   UNL     1      -1.526   5.099  26.097  1.00  0.00    -0.000 C 
BRANCH  26  27
ATOM     27  C   UNL     1      -1.984   4.373  27.376  1.00  0.00    -0.000 C 
BRANCH  27  28
ATOM     28  C   UNL     1      -2.616   3.003  27.088  1.00  0.00    -0.000 C 
BRANCH  28  29
ATOM     29  C   UNL     1      -3.975   2.863  27.791  1.00  0.00    -0.000 C 
BRANCH  29  30
ATOM     30  C   UNL     1      -3.910   3.284  29.276  1.00  0.00    -0.000 C 
BRANCH  30  31
ATOM     31  C   UNL     1      -4.214   2.136  30.255  1.00  0.00    -0.003 C 
ATOM     32  C   UNL     1      -3.116   1.075  30.294  1.00  0.00     0.004 C 
ENDBRANCH  30  31
ENDBRANCH  29  30
ENDBRANCH  28  29
ENDBRANCH  27  28
ENDBRANCH  26  27
ENDBRANCH  25  26
ENDBRANCH  24  25
ENDBRANCH  23  24
ENDBRANCH  22  23
ENDBRANCH  21  22
ENDBRANCH  20  21
ENDBRANCH  19  20
ENDBRANCH  18  19
ENDBRANCH   1  18
TORSDOF 28
ENDMDL
