MODEL 1
REMARK VINA RESULT:    -0.547      0.000      0.000
REMARK INTER + INTRA:          -3.137
REMARK INTER:                  -1.442
REMARK INTRA:                  -1.695
REMARK UNBOUND:                -1.695
REMARK SMILES CCCCCCCCCCCCCCCCCCCCCCCCCCCCCC(=O)[O-]
REMARK SMILES IDX 16 1 17 2 18 3 19 4 20 5 21 6 22 7 23 8 24 9 25 10 26 11
REMARK SMILES IDX 27 12 28 13 29 14 30 15 31 16 32 17 15 18 14 19 13 20 12 21
REMARK SMILES IDX 11 22 10 23 9 24 8 25 7 26 6 27 5 28 4 29 3 30 2 31 1 32
REMARK H PARENT
REMARK Flexibility Score: inf
ROOT
ATOM      1  C   UNL     1     -44.895   9.235  10.477  1.00  0.00     0.000 C 
ENDROOT
BRANCH   1   2
ATOM      2  C   UNL     1     -43.563   9.777  11.023  1.00  0.00     0.000 C 
BRANCH   2   3
ATOM      3  C   UNL     1     -42.547  10.086   9.912  1.00  0.00     0.000 C 
BRANCH   3   4
ATOM      4  C   UNL     1     -41.505   8.967   9.729  1.00  0.00     0.000 C 
BRANCH   4   5
ATOM      5  C   UNL     1     -41.299   8.059  10.957  1.00  0.00     0.000 C 
BRANCH   5   6
ATOM      6  C   UNL     1     -41.146   6.577  10.584  1.00  0.00     0.000 C 
BRANCH   6   7
ATOM      7  C   UNL     1     -41.844   6.260   9.254  1.00  0.00     0.000 C 
BRANCH   7   8
ATOM      8  C   UNL     1     -42.374   4.817   9.206  1.00  0.00     0.000 C 
BRANCH   8   9
ATOM      9  C   UNL     1     -43.909   4.749   9.275  1.00  0.00     0.000 C 
BRANCH   9  10
ATOM     10  C   UNL     1     -44.515   5.851  10.161  1.00  0.00     0.000 C 
BRANCH  10  11
ATOM     11  C   UNL     1     -46.058   5.815  10.211  1.00  0.00     0.000 C 
BRANCH  11  12
ATOM     12  C   UNL     1     -46.667   5.225   8.931  1.00  0.00     0.000 C 
BRANCH  12  13
ATOM     13  C   UNL     1     -47.567   4.024   9.253  1.00  0.00     0.006 C 
BRANCH  13  14
ATOM     14  C   UNL     1     -48.293   3.491   8.010  1.00  0.00     0.053 C 
BRANCH  14  15
ATOM     15  C   UNL     1     -48.717   2.065   8.185  1.00  0.00     0.041 C 
ATOM     16  O   UNL     1     -49.151   1.406   7.202  1.00  0.00    -0.550 OA
ATOM     17  O   UNL     1     -48.667   1.473   9.441  1.00  0.00    -0.550 OA
ENDBRANCH  14  15
ENDBRANCH  13  14
ENDBRANCH  12  13
ENDBRANCH  11  12
ENDBRANCH  10  11
ENDBRANCH   9  10
ENDBRANCH   8   9
ENDBRANCH   7   8
ENDBRANCH   6   7
ENDBRANCH   5   6
ENDBRANCH   4   5
ENDBRANCH   3   4
ENDBRANCH   2   3
ENDBRANCH   1   2
BRANCH   1  18
ATOM     18  C   UNL     1     -45.479  10.011   9.281  1.00  0.00     0.000 C 
BRANCH  18  19
ATOM     19  C   UNL     1     -45.702   9.147   8.021  1.00  0.00     0.000 C 
BRANCH  19  20
ATOM     20  C   UNL     1     -44.572   8.123   7.803  1.00  0.00     0.000 C 
BRANCH  20  21
ATOM     21  C   UNL     1     -44.587   7.529   6.383  1.00  0.00     0.000 C 
BRANCH  21  22
ATOM     22  C   UNL     1     -45.011   6.053   6.374  1.00  0.00     0.000 C 
BRANCH  22  23
ATOM     23  C   UNL     1     -43.978   5.184   5.644  1.00  0.00     0.000 C 
BRANCH  23  24
ATOM     24  C   UNL     1     -43.519   5.803   4.313  1.00  0.00    -0.000 C 
BRANCH  24  25
ATOM     25  C   UNL     1     -43.900   7.286   4.181  1.00  0.00    -0.000 C 
BRANCH  25  26
ATOM     26  C   UNL     1     -42.945   8.019   3.228  1.00  0.00    -0.000 C 
BRANCH  26  27
ATOM     27  C   UNL     1     -43.151   9.545   3.228  1.00  0.00    -0.000 C 
BRANCH  27  28
ATOM     28  C   UNL     1     -43.813  10.113   1.959  1.00  0.00    -0.000 C 
BRANCH  28  29
ATOM     29  C   UNL     1     -43.002   9.828   0.683  1.00  0.00    -0.000 C 
BRANCH  29  30
ATOM     30  C   UNL     1     -43.828  10.032  -0.598  1.00  0.00    -0.000 C 
BRANCH  30  31
ATOM     31  C   UNL     1     -43.059   9.639  -1.869  1.00  0.00    -0.003 C 
ATOM     32  C   UNL     1     -41.871   8.742  -1.536  1.00  0.00     0.004 C 
ENDBRANCH  30  31
ENDBRANCH  29  30
ENDBRANCH  28  29
ENDBRANCH  27  28
ENDBRANCH  26  27
ENDBRANCH  25  26
ENDBRANCH  24  25
ENDBRANCH  23  24
ENDBRANCH  22  23
ENDBRANCH  21  22
ENDBRANCH  20  21
ENDBRANCH  19  20
ENDBRANCH  18  19
ENDBRANCH   1  18
TORSDOF 28
ENDMDL
MODEL 2
REMARK VINA RESULT:    -0.373      2.917      4.132
REMARK INTER + INTRA:          -2.678
REMARK INTER:                   0.900
REMARK INTRA:                  -3.578
REMARK UNBOUND:                -1.695
REMARK SMILES CCCCCCCCCCCCCCCCCCCCCCCCCCCCCC(=O)[O-]
REMARK SMILES IDX 16 1 17 2 18 3 19 4 20 5 21 6 22 7 23 8 24 9 25 10 26 11
REMARK SMILES IDX 27 12 28 13 29 14 30 15 31 16 32 17 15 18 14 19 13 20 12 21
REMARK SMILES IDX 11 22 10 23 9 24 8 25 7 26 6 27 5 28 4 29 3 30 2 31 1 32
REMARK H PARENT
REMARK Flexibility Score: inf
ROOT
ATOM      1  C   UNL     1     -44.842   9.042  10.544  1.00  0.00     0.000 C 
ENDROOT
BRANCH   1   2
ATOM      2  C   UNL     1     -43.567   9.739  11.047  1.00  0.00     0.000 C 
BRANCH   2   3
ATOM      3  C   UNL     1     -42.610  10.124   9.907  1.00  0.00     0.000 C 
BRANCH   3   4
ATOM      4  C   UNL     1     -41.372   9.212   9.834  1.00  0.00     0.000 C 
BRANCH   4   5
ATOM      5  C   UNL     1     -41.200   8.248  11.024  1.00  0.00     0.000 C 
BRANCH   5   6
ATOM      6  C   UNL     1     -41.051   6.782  10.588  1.00  0.00     0.000 C 
BRANCH   6   7
ATOM      7  C   UNL     1     -41.633   6.555   9.185  1.00  0.00     0.000 C 
BRANCH   7   8
ATOM      8  C   UNL     1     -41.971   5.077   8.930  1.00  0.00     0.000 C 
BRANCH   8   9
ATOM      9  C   UNL     1     -43.439   4.743   9.249  1.00  0.00     0.000 C 
BRANCH   9  10
ATOM     10  C   UNL     1     -43.958   5.473  10.499  1.00  0.00     0.000 C 
BRANCH  10  11
ATOM     11  C   UNL     1     -45.471   5.276  10.737  1.00  0.00     0.000 C 
BRANCH  11  12
ATOM     12  C   UNL     1     -46.308   5.687   9.518  1.00  0.00     0.000 C 
BRANCH  12  13
ATOM     13  C   UNL     1     -47.455   4.694   9.278  1.00  0.00     0.006 C 
BRANCH  13  14
ATOM     14  C   UNL     1     -47.386   4.050   7.887  1.00  0.00     0.053 C 
BRANCH  14  15
ATOM     15  C   UNL     1     -48.362   2.921   7.751  1.00  0.00     0.041 C 
ATOM     16  O   UNL     1     -48.199   1.859   8.409  1.00  0.00    -0.550 OA
ATOM     17  O   UNL     1     -49.431   3.027   6.870  1.00  0.00    -0.550 OA
ENDBRANCH  14  15
ENDBRANCH  13  14
ENDBRANCH  12  13
ENDBRANCH  11  12
ENDBRANCH  10  11
ENDBRANCH   9  10
ENDBRANCH   8   9
ENDBRANCH   7   8
ENDBRANCH   6   7
ENDBRANCH   5   6
ENDBRANCH   4   5
ENDBRANCH   3   4
ENDBRANCH   2   3
ENDBRANCH   1   2
BRANCH   1  18
ATOM     18  C   UNL     1     -45.565   9.753   9.385  1.00  0.00     0.000 C 
BRANCH  18  19
ATOM     19  C   UNL     1     -45.713   8.890   8.113  1.00  0.00     0.000 C 
BRANCH  19  20
ATOM     20  C   UNL     1     -44.420   8.131   7.764  1.00  0.00     0.000 C 
BRANCH  20  21
ATOM     21  C   UNL     1     -44.424   7.599   6.320  1.00  0.00     0.000 C 
BRANCH  21  22
ATOM     22  C   UNL     1     -44.695   6.088   6.257  1.00  0.00     0.000 C 
BRANCH  22  23
ATOM     23  C   UNL     1     -43.516   5.341   5.619  1.00  0.00     0.000 C 
BRANCH  23  24
ATOM     24  C   UNL     1     -43.626   5.258   4.087  1.00  0.00    -0.000 C 
BRANCH  24  25
ATOM     25  C   UNL     1     -42.810   4.099   3.492  1.00  0.00    -0.000 C 
BRANCH  25  26
ATOM     26  C   UNL     1     -43.338   3.709   2.104  1.00  0.00    -0.000 C 
BRANCH  26  27
ATOM     27  C   UNL     1     -42.336   2.861   1.297  1.00  0.00    -0.000 C 
BRANCH  27  28
ATOM     28  C   UNL     1     -42.970   1.879   0.296  1.00  0.00    -0.000 C 
BRANCH  28  29
ATOM     29  C   UNL     1     -44.452   1.594   0.597  1.00  0.00    -0.000 C 
BRANCH  29  30
ATOM     30  C   UNL     1     -44.793   0.097   0.512  1.00  0.00    -0.000 C 
BRANCH  30  31
ATOM     31  C   UNL     1     -46.154  -0.165  -0.151  1.00  0.00    -0.003 C 
ATOM     32  C   UNL     1     -47.222   0.778   0.396  1.00  0.00     0.004 C 
ENDBRANCH  30  31
ENDBRANCH  29  30
ENDBRANCH  28  29
ENDBRANCH  27  28
ENDBRANCH  26  27
ENDBRANCH  25  26
ENDBRANCH  24  25
ENDBRANCH  23  24
ENDBRANCH  22  23
ENDBRANCH  21  22
ENDBRANCH  20  21
ENDBRANCH  19  20
ENDBRANCH  18  19
ENDBRANCH   1  18
TORSDOF 28
ENDMDL
MODEL 3
REMARK VINA RESULT:    -0.175      3.484      7.723
REMARK INTER + INTRA:          -2.155
REMARK INTER:                   0.827
REMARK INTRA:                  -2.982
REMARK UNBOUND:                -1.695
REMARK SMILES CCCCCCCCCCCCCCCCCCCCCCCCCCCCCC(=O)[O-]
REMARK SMILES IDX 16 1 17 2 18 3 19 4 20 5 21 6 22 7 23 8 24 9 25 10 26 11
REMARK SMILES IDX 27 12 28 13 29 14 30 15 31 16 32 17 15 18 14 19 13 20 12 21
REMARK SMILES IDX 11 22 10 23 9 24 8 25 7 26 6 27 5 28 4 29 3 30 2 31 1 32
REMARK H PARENT
REMARK Flexibility Score: inf
ROOT
ATOM      1  C   UNL     1     -42.474   5.872  11.114  1.00  0.00     0.000 C 
ENDROOT
BRANCH   1   2
ATOM      2  C   UNL     1     -42.834   4.951   9.937  1.00  0.00     0.000 C 
BRANCH   2   3
ATOM      3  C   UNL     1     -41.726   4.885   8.873  1.00  0.00     0.000 C 
BRANCH   3   4
ATOM      4  C   UNL     1     -42.217   5.304   7.474  1.00  0.00     0.000 C 
BRANCH   4   5
ATOM      5  C   UNL     1     -43.743   5.465   7.339  1.00  0.00     0.000 C 
BRANCH   5   6
ATOM      6  C   UNL     1     -44.275   4.991   5.978  1.00  0.00     0.000 C 
BRANCH   6   7
ATOM      7  C   UNL     1     -43.478   5.609   4.821  1.00  0.00     0.000 C 
BRANCH   7   8
ATOM      8  C   UNL     1     -42.718   4.548   4.008  1.00  0.00     0.000 C 
BRANCH   8   9
ATOM      9  C   UNL     1     -43.628   3.796   3.022  1.00  0.00     0.000 C 
BRANCH   9  10
ATOM     10  C   UNL     1     -42.838   3.052   1.931  1.00  0.00     0.000 C 
BRANCH  10  11
ATOM     11  C   UNL     1     -43.699   2.664   0.710  1.00  0.00     0.000 C 
BRANCH  11  12
ATOM     12  C   UNL     1     -43.566   1.176   0.354  1.00  0.00     0.000 C 
BRANCH  12  13
ATOM     13  C   UNL     1     -44.762   0.374   0.885  1.00  0.00     0.006 C 
BRANCH  13  14
ATOM     14  C   UNL     1     -45.635  -0.186  -0.246  1.00  0.00     0.053 C 
BRANCH  14  15
ATOM     15  C   UNL     1     -47.056   0.275  -0.129  1.00  0.00     0.041 C 
ATOM     16  O   UNL     1     -47.907  -0.067  -0.993  1.00  0.00    -0.550 OA
ATOM     17  O   UNL     1     -47.433   1.111   0.914  1.00  0.00    -0.550 OA
ENDBRANCH  14  15
ENDBRANCH  13  14
ENDBRANCH  12  13
ENDBRANCH  11  12
ENDBRANCH  10  11
ENDBRANCH   9  10
ENDBRANCH   8   9
ENDBRANCH   7   8
ENDBRANCH   6   7
ENDBRANCH   5   6
ENDBRANCH   4   5
ENDBRANCH   3   4
ENDBRANCH   2   3
ENDBRANCH   1   2
BRANCH   1  18
ATOM     18  C   UNL     1     -41.035   6.423  11.100  1.00  0.00     0.000 C 
BRANCH  18  19
ATOM     19  C   UNL     1     -40.953   7.965  11.120  1.00  0.00     0.000 C 
BRANCH  19  20
ATOM     20  C   UNL     1     -42.341   8.628  11.050  1.00  0.00     0.000 C 
BRANCH  20  21
ATOM     21  C   UNL     1     -42.310   9.976  10.309  1.00  0.00     0.000 C 
BRANCH  21  22
ATOM     22  C   UNL     1     -42.160   9.803   8.790  1.00  0.00     0.000 C 
BRANCH  22  23
ATOM     23  C   UNL     1     -43.097   8.707   8.263  1.00  0.00     0.000 C 
BRANCH  23  24
ATOM     24  C   UNL     1     -44.488   9.247   7.890  1.00  0.00    -0.000 C 
BRANCH  24  25
ATOM     25  C   UNL     1     -45.631   8.357   8.402  1.00  0.00    -0.000 C 
BRANCH  25  26
ATOM     26  C   UNL     1     -45.548   8.173   9.924  1.00  0.00    -0.000 C 
BRANCH  26  27
ATOM     27  C   UNL     1     -45.429   6.695  10.345  1.00  0.00    -0.000 C 
BRANCH  27  28
ATOM     28  C   UNL     1     -46.712   5.863  10.171  1.00  0.00    -0.000 C 
BRANCH  28  29
ATOM     29  C   UNL     1     -46.698   5.005   8.894  1.00  0.00    -0.000 C 
BRANCH  29  30
ATOM     30  C   UNL     1     -48.045   4.307   8.639  1.00  0.00    -0.000 C 
BRANCH  30  31
ATOM     31  C   UNL     1     -48.003   3.359   7.430  1.00  0.00    -0.003 C 
ATOM     32  C   UNL     1     -48.851   2.115   7.677  1.00  0.00     0.004 C 
ENDBRANCH  30  31
ENDBRANCH  29  30
ENDBRANCH  28  29
ENDBRANCH  27  28
ENDBRANCH  26  27
ENDBRANCH  25  26
ENDBRANCH  24  25
ENDBRANCH  23  24
ENDBRANCH  22  23
ENDBRANCH  21  22
ENDBRANCH  20  21
ENDBRANCH  19  20
ENDBRANCH  18  19
ENDBRANCH   1  18
TORSDOF 28
ENDMDL
MODEL 4
REMARK VINA RESULT:     0.079      3.516      7.493
REMARK INTER + INTRA:          -1.488
REMARK INTER:                   1.487
REMARK INTRA:                  -2.975
REMARK UNBOUND:                -1.695
REMARK SMILES CCCCCCCCCCCCCCCCCCCCCCCCCCCCCC(=O)[O-]
REMARK SMILES IDX 16 1 17 2 18 3 19 4 20 5 21 6 22 7 23 8 24 9 25 10 26 11
REMARK SMILES IDX 27 12 28 13 29 14 30 15 31 16 32 17 15 18 14 19 13 20 12 21
REMARK SMILES IDX 11 22 10 23 9 24 8 25 7 26 6 27 5 28 4 29 3 30 2 31 1 32
REMARK H PARENT
REMARK Flexibility Score: inf
ROOT
ATOM      1  C   UNL     1     -43.535  10.016   9.642  1.00  0.00     0.000 C 
ENDROOT
BRANCH   1   2
ATOM      2  C   UNL     1     -44.301  10.125   8.313  1.00  0.00     0.000 C 
BRANCH   2   3
ATOM      3  C   UNL     1     -43.395   9.930   7.086  1.00  0.00     0.000 C 
BRANCH   3   4
ATOM      4  C   UNL     1     -43.396   8.479   6.569  1.00  0.00     0.000 C 
BRANCH   4   5
ATOM      5  C   UNL     1     -44.683   7.683   6.860  1.00  0.00     0.000 C 
BRANCH   5   6
ATOM      6  C   UNL     1     -44.967   6.602   5.806  1.00  0.00     0.000 C 
BRANCH   6   7
ATOM      7  C   UNL     1     -43.709   6.270   4.993  1.00  0.00     0.000 C 
BRANCH   7   8
ATOM      8  C   UNL     1     -43.120   4.900   5.369  1.00  0.00     0.000 C 
BRANCH   8   9
ATOM      9  C   UNL     1     -42.300   4.275   4.227  1.00  0.00     0.000 C 
BRANCH   9  10
ATOM     10  C   UNL     1     -43.044   4.293   2.880  1.00  0.00     0.000 C 
BRANCH  10  11
ATOM     11  C   UNL     1     -43.649   2.926   2.499  1.00  0.00     0.000 C 
BRANCH  11  12
ATOM     12  C   UNL     1     -43.828   2.773   0.981  1.00  0.00     0.000 C 
BRANCH  12  13
ATOM     13  C   UNL     1     -43.773   1.296   0.567  1.00  0.00     0.006 C 
BRANCH  13  14
ATOM     14  C   UNL     1     -45.000   0.510   1.050  1.00  0.00     0.053 C 
BRANCH  14  15
ATOM     15  C   UNL     1     -45.807  -0.016  -0.097  1.00  0.00     0.041 C 
ATOM     16  O   UNL     1     -45.307  -0.855  -0.893  1.00  0.00    -0.550 OA
ATOM     17  O   UNL     1     -47.100   0.447  -0.308  1.00  0.00    -0.550 OA
ENDBRANCH  14  15
ENDBRANCH  13  14
ENDBRANCH  12  13
ENDBRANCH  11  12
ENDBRANCH  10  11
ENDBRANCH   9  10
ENDBRANCH   8   9
ENDBRANCH   7   8
ENDBRANCH   6   7
ENDBRANCH   5   6
ENDBRANCH   4   5
ENDBRANCH   3   4
ENDBRANCH   2   3
ENDBRANCH   1   2
BRANCH   1  18
ATOM     18  C   UNL     1     -42.002  10.117   9.526  1.00  0.00     0.000 C 
BRANCH  18  19
ATOM     19  C   UNL     1     -41.241   9.523  10.731  1.00  0.00     0.000 C 
BRANCH  19  20
ATOM     20  C   UNL     1     -41.713   8.100  11.081  1.00  0.00     0.000 C 
BRANCH  20  21
ATOM     21  C   UNL     1     -40.944   7.019  10.301  1.00  0.00     0.000 C 
BRANCH  21  22
ATOM     22  C   UNL     1     -41.626   6.664   8.972  1.00  0.00     0.000 C 
BRANCH  22  23
ATOM     23  C   UNL     1     -41.942   5.164   8.895  1.00  0.00     0.000 C 
BRANCH  23  24
ATOM     24  C   UNL     1     -43.038   4.738   9.887  1.00  0.00    -0.000 C 
BRANCH  24  25
ATOM     25  C   UNL     1     -44.120   5.812  10.079  1.00  0.00    -0.000 C 
BRANCH  25  26
ATOM     26  C   UNL     1     -45.333   5.245  10.829  1.00  0.00    -0.000 C 
BRANCH  26  27
ATOM     27  C   UNL     1     -46.663   5.487  10.090  1.00  0.00    -0.000 C 
BRANCH  27  28
ATOM     28  C   UNL     1     -46.544   5.619   8.560  1.00  0.00    -0.000 C 
BRANCH  28  29
ATOM     29  C   UNL     1     -46.725   4.278   7.829  1.00  0.00    -0.000 C 
BRANCH  29  30
ATOM     30  C   UNL     1     -47.886   3.447   8.401  1.00  0.00    -0.000 C 
BRANCH  30  31
ATOM     31  C   UNL     1     -48.853   2.954   7.314  1.00  0.00    -0.003 C 
ATOM     32  C   UNL     1     -49.070   1.446   7.415  1.00  0.00     0.004 C 
ENDBRANCH  30  31
ENDBRANCH  29  30
ENDBRANCH  28  29
ENDBRANCH  27  28
ENDBRANCH  26  27
ENDBRANCH  25  26
ENDBRANCH  24  25
ENDBRANCH  23  24
ENDBRANCH  22  23
ENDBRANCH  21  22
ENDBRANCH  20  21
ENDBRANCH  19  20
ENDBRANCH  18  19
ENDBRANCH   1  18
TORSDOF 28
ENDMDL
MODEL 5
REMARK VINA RESULT:     0.354      3.929      5.840
REMARK INTER + INTRA:          -0.761
REMARK INTER:                   1.470
REMARK INTRA:                  -2.230
REMARK UNBOUND:                -1.695
REMARK SMILES CCCCCCCCCCCCCCCCCCCCCCCCCCCCCC(=O)[O-]
REMARK SMILES IDX 16 1 17 2 18 3 19 4 20 5 21 6 22 7 23 8 24 9 25 10 26 11
REMARK SMILES IDX 27 12 28 13 29 14 30 15 31 16 32 17 15 18 14 19 13 20 12 21
REMARK SMILES IDX 11 22 10 23 9 24 8 25 7 26 6 27 5 28 4 29 3 30 2 31 1 32
REMARK H PARENT
REMARK Flexibility Score: inf
ROOT
ATOM      1  C   UNL     1     -43.625   9.174   6.118  1.00  0.00     0.000 C 
ENDROOT
BRANCH   1   2
ATOM      2  C   UNL     1     -44.130  10.125   7.216  1.00  0.00     0.000 C 
BRANCH   2   3
ATOM      3  C   UNL     1     -45.314   9.544   8.007  1.00  0.00     0.000 C 
BRANCH   3   4
ATOM      4  C   UNL     1     -45.419  10.121   9.431  1.00  0.00     0.000 C 
BRANCH   4   5
ATOM      5  C   UNL     1     -44.629   9.352  10.508  1.00  0.00     0.000 C 
BRANCH   5   6
ATOM      6  C   UNL     1     -43.400  10.125  11.011  1.00  0.00     0.000 C 
BRANCH   6   7
ATOM      7  C   UNL     1     -42.207   9.958  10.060  1.00  0.00     0.000 C 
BRANCH   7   8
ATOM      8  C   UNL     1     -41.516   8.594  10.230  1.00  0.00     0.000 C 
BRANCH   8   9
ATOM      9  C   UNL     1     -41.510   7.768   8.932  1.00  0.00     0.000 C 
BRANCH   9  10
ATOM     10  C   UNL     1     -41.617   6.255   9.188  1.00  0.00     0.000 C 
BRANCH  10  11
ATOM     11  C   UNL     1     -41.572   5.884  10.686  1.00  0.00     0.000 C 
BRANCH  11  12
ATOM     12  C   UNL     1     -42.734   4.967  11.092  1.00  0.00     0.000 C 
BRANCH  12  13
ATOM     13  C   UNL     1     -43.787   4.887   9.978  1.00  0.00     0.006 C 
BRANCH  13  14
ATOM     14  C   UNL     1     -45.219   4.989  10.521  1.00  0.00     0.053 C 
BRANCH  14  15
ATOM     15  C   UNL     1     -46.180   5.449   9.468  1.00  0.00     0.041 C 
ATOM     16  O   UNL     1     -47.216   4.778   9.217  1.00  0.00    -0.550 OA
ATOM     17  O   UNL     1     -45.913   6.601   8.738  1.00  0.00    -0.550 OA
ENDBRANCH  14  15
ENDBRANCH  13  14
ENDBRANCH  12  13
ENDBRANCH  11  12
ENDBRANCH  10  11
ENDBRANCH   9  10
ENDBRANCH   8   9
ENDBRANCH   7   8
ENDBRANCH   6   7
ENDBRANCH   5   6
ENDBRANCH   4   5
ENDBRANCH   3   4
ENDBRANCH   2   3
ENDBRANCH   1   2
BRANCH   1  18
ATOM     18  C   UNL     1     -43.620   7.680   6.494  1.00  0.00     0.000 C 
BRANCH  18  19
ATOM     19  C   UNL     1     -43.942   6.735   5.317  1.00  0.00     0.000 C 
BRANCH  19  20
ATOM     20  C   UNL     1     -44.211   5.291   5.779  1.00  0.00     0.000 C 
BRANCH  20  21
ATOM     21  C   UNL     1     -43.062   4.335   5.410  1.00  0.00     0.000 C 
BRANCH  21  22
ATOM     22  C   UNL     1     -42.535   4.580   3.989  1.00  0.00     0.000 C 
BRANCH  22  23
ATOM     23  C   UNL     1     -43.394   3.851   2.946  1.00  0.00     0.000 C 
BRANCH  23  24
ATOM     24  C   UNL     1     -42.551   3.058   1.933  1.00  0.00    -0.000 C 
BRANCH  24  25
ATOM     25  C   UNL     1     -43.341   2.671   0.673  1.00  0.00    -0.000 C 
BRANCH  25  26
ATOM     26  C   UNL     1     -42.410   2.107  -0.410  1.00  0.00    -0.000 C 
BRANCH  26  27
ATOM     27  C   UNL     1     -42.533   0.580  -0.573  1.00  0.00    -0.000 C 
BRANCH  27  28
ATOM     28  C   UNL     1     -43.860   0.095  -1.185  1.00  0.00    -0.000 C 
BRANCH  28  29
ATOM     29  C   UNL     1     -44.816  -0.503  -0.139  1.00  0.00    -0.000 C 
BRANCH  29  30
ATOM     30  C   UNL     1     -45.377   0.559   0.822  1.00  0.00    -0.000 C 
BRANCH  30  31
ATOM     31  C   UNL     1     -46.880   0.806   0.620  1.00  0.00    -0.003 C 
ATOM     32  C   UNL     1     -47.402   0.053  -0.600  1.00  0.00     0.004 C 
ENDBRANCH  30  31
ENDBRANCH  29  30
ENDBRANCH  28  29
ENDBRANCH  27  28
ENDBRANCH  26  27
ENDBRANCH  25  26
ENDBRANCH  24  25
ENDBRANCH  23  24
ENDBRANCH  22  23
ENDBRANCH  21  22
ENDBRANCH  20  21
ENDBRANCH  19  20
ENDBRANCH  18  19
ENDBRANCH   1  18
TORSDOF 28
ENDMDL
MODEL 6
REMARK VINA RESULT:     0.402      3.691      5.089
REMARK INTER + INTRA:          -0.635
REMARK INTER:                   2.169
REMARK INTRA:                  -2.803
REMARK UNBOUND:                -1.695
REMARK SMILES CCCCCCCCCCCCCCCCCCCCCCCCCCCCCC(=O)[O-]
REMARK SMILES IDX 16 1 17 2 18 3 19 4 20 5 21 6 22 7 23 8 24 9 25 10 26 11
REMARK SMILES IDX 27 12 28 13 29 14 30 15 31 16 32 17 15 18 14 19 13 20 12 21
REMARK SMILES IDX 11 22 10 23 9 24 8 25 7 26 6 27 5 28 4 29 3 30 2 31 1 32
REMARK H PARENT
REMARK Flexibility Score: inf
ROOT
ATOM      1  C   UNL     1     -45.481   8.150   7.490  1.00  0.00     0.000 C 
ENDROOT
BRANCH   1   2
ATOM      2  C   UNL     1     -45.115   9.217   8.535  1.00  0.00     0.000 C 
BRANCH   2   3
ATOM      3  C   UNL     1     -44.722   8.611   9.892  1.00  0.00     0.000 C 
BRANCH   3   4
ATOM      4  C   UNL     1     -43.340   9.085  10.379  1.00  0.00     0.000 C 
BRANCH   4   5
ATOM      5  C   UNL     1     -42.153   8.653   9.497  1.00  0.00     0.000 C 
BRANCH   5   6
ATOM      6  C   UNL     1     -41.452   7.390  10.018  1.00  0.00     0.000 C 
BRANCH   6   7
ATOM      7  C   UNL     1     -41.611   6.218   9.039  1.00  0.00     0.000 C 
BRANCH   7   8
ATOM      8  C   UNL     1     -42.339   5.023   9.678  1.00  0.00     0.000 C 
BRANCH   8   9
ATOM      9  C   UNL     1     -43.825   4.958   9.286  1.00  0.00     0.000 C 
BRANCH   9  10
ATOM     10  C   UNL     1     -44.765   5.295  10.457  1.00  0.00     0.000 C 
BRANCH  10  11
ATOM     11  C   UNL     1     -46.230   5.512  10.021  1.00  0.00     0.000 C 
BRANCH  11  12
ATOM     12  C   UNL     1     -46.597   4.679   8.784  1.00  0.00     0.000 C 
BRANCH  12  13
ATOM     13  C   UNL     1     -48.077   4.272   8.815  1.00  0.00     0.006 C 
BRANCH  13  14
ATOM     14  C   UNL     1     -48.460   3.381   7.625  1.00  0.00     0.053 C 
BRANCH  14  15
ATOM     15  C   UNL     1     -48.568   1.941   8.023  1.00  0.00     0.041 C 
ATOM     16  O   UNL     1     -48.042   1.538   9.096  1.00  0.00    -0.550 OA
ATOM     17  O   UNL     1     -49.218   1.036   7.194  1.00  0.00    -0.550 OA
ENDBRANCH  14  15
ENDBRANCH  13  14
ENDBRANCH  12  13
ENDBRANCH  11  12
ENDBRANCH  10  11
ENDBRANCH   9  10
ENDBRANCH   8   9
ENDBRANCH   7   8
ENDBRANCH   6   7
ENDBRANCH   5   6
ENDBRANCH   4   5
ENDBRANCH   3   4
ENDBRANCH   2   3
ENDBRANCH   1   2
BRANCH   1  18
ATOM     18  C   UNL     1     -44.304   7.292   6.989  1.00  0.00     0.000 C 
BRANCH  18  19
ATOM     19  C   UNL     1     -43.748   7.728   5.616  1.00  0.00     0.000 C 
BRANCH  19  20
ATOM     20  C   UNL     1     -43.768   6.586   4.584  1.00  0.00     0.000 C 
BRANCH  20  21
ATOM     21  C   UNL     1     -43.356   5.236   5.196  1.00  0.00     0.000 C 
BRANCH  21  22
ATOM     22  C   UNL     1     -42.531   4.382   4.222  1.00  0.00     0.000 C 
BRANCH  22  23
ATOM     23  C   UNL     1     -43.335   4.052   2.956  1.00  0.00     0.000 C 
BRANCH  23  24
ATOM     24  C   UNL     1     -42.624   3.030   2.053  1.00  0.00    -0.000 C 
BRANCH  24  25
ATOM     25  C   UNL     1     -43.361   2.795   0.725  1.00  0.00    -0.000 C 
BRANCH  25  26
ATOM     26  C   UNL     1     -42.457   2.075  -0.287  1.00  0.00    -0.000 C 
BRANCH  26  27
ATOM     27  C   UNL     1     -42.681   0.551  -0.315  1.00  0.00    -0.000 C 
BRANCH  27  28
ATOM     28  C   UNL     1     -43.948   0.092  -1.059  1.00  0.00    -0.000 C 
BRANCH  28  29
ATOM     29  C   UNL     1     -45.035  -0.446  -0.113  1.00  0.00    -0.000 C 
BRANCH  29  30
ATOM     30  C   UNL     1     -45.685   0.665   0.730  1.00  0.00    -0.000 C 
BRANCH  30  31
ATOM     31  C   UNL     1     -47.205   0.753   0.524  1.00  0.00    -0.003 C 
ATOM     32  C   UNL     1     -47.632   0.014  -0.741  1.00  0.00     0.004 C 
ENDBRANCH  30  31
ENDBRANCH  29  30
ENDBRANCH  28  29
ENDBRANCH  27  28
ENDBRANCH  26  27
ENDBRANCH  25  26
ENDBRANCH  24  25
ENDBRANCH  23  24
ENDBRANCH  22  23
ENDBRANCH  21  22
ENDBRANCH  20  21
ENDBRANCH  19  20
ENDBRANCH  18  19
ENDBRANCH   1  18
TORSDOF 28
ENDMDL
MODEL 7
REMARK VINA RESULT:     0.405      2.857      4.335
REMARK INTER + INTRA:          -0.628
REMARK INTER:                   2.333
REMARK INTRA:                  -2.961
REMARK UNBOUND:                -1.695
REMARK SMILES CCCCCCCCCCCCCCCCCCCCCCCCCCCCCC(=O)[O-]
REMARK SMILES IDX 16 1 17 2 18 3 19 4 20 5 21 6 22 7 23 8 24 9 25 10 26 11
REMARK SMILES IDX 27 12 28 13 29 14 30 15 31 16 32 17 15 18 14 19 13 20 12 21
REMARK SMILES IDX 11 22 10 23 9 24 8 25 7 26 6 27 5 28 4 29 3 30 2 31 1 32
REMARK H PARENT
REMARK Flexibility Score: inf
ROOT
ATOM      1  C   UNL     1     -42.217   9.019   7.921  1.00  0.00     0.000 C 
ENDROOT
BRANCH   1   2
ATOM      2  C   UNL     1     -42.952  10.124   8.697  1.00  0.00     0.000 C 
BRANCH   2   3
ATOM      3  C   UNL     1     -44.329   9.674   9.212  1.00  0.00     0.000 C 
BRANCH   3   4
ATOM      4  C   UNL     1     -44.337   9.396  10.727  1.00  0.00     0.000 C 
BRANCH   4   5
ATOM      5  C   UNL     1     -44.042   7.937  11.125  1.00  0.00     0.000 C 
BRANCH   5   6
ATOM      6  C   UNL     1     -42.568   7.551  10.930  1.00  0.00     0.000 C 
BRANCH   6   7
ATOM      7  C   UNL     1     -42.418   6.055  10.624  1.00  0.00     0.000 C 
BRANCH   7   8
ATOM      8  C   UNL     1     -42.973   5.688   9.237  1.00  0.00     0.000 C 
BRANCH   8   9
ATOM      9  C   UNL     1     -44.072   4.614   9.305  1.00  0.00     0.000 C 
BRANCH   9  10
ATOM     10  C   UNL     1     -45.386   5.064   8.643  1.00  0.00     0.000 C 
BRANCH  10  11
ATOM     11  C   UNL     1     -46.551   5.222   9.644  1.00  0.00     0.000 C 
BRANCH  11  12
ATOM     12  C   UNL     1     -47.844   4.565   9.140  1.00  0.00     0.000 C 
BRANCH  12  13
ATOM     13  C   UNL     1     -47.597   3.798   7.832  1.00  0.00     0.006 C 
BRANCH  13  14
ATOM     14  C   UNL     1     -48.859   3.084   7.329  1.00  0.00     0.053 C 
BRANCH  14  15
ATOM     15  C   UNL     1     -48.784   1.604   7.553  1.00  0.00     0.041 C 
ATOM     16  O   UNL     1     -47.709   1.075   7.943  1.00  0.00    -0.550 OA
ATOM     17  O   UNL     1     -49.891   0.805   7.299  1.00  0.00    -0.550 OA
ENDBRANCH  14  15
ENDBRANCH  13  14
ENDBRANCH  12  13
ENDBRANCH  11  12
ENDBRANCH  10  11
ENDBRANCH   9  10
ENDBRANCH   8   9
ENDBRANCH   7   8
ENDBRANCH   6   7
ENDBRANCH   5   6
ENDBRANCH   4   5
ENDBRANCH   3   4
ENDBRANCH   2   3
ENDBRANCH   1   2
BRANCH   1  18
ATOM     18  C   UNL     1     -41.875   9.360   6.458  1.00  0.00     0.000 C 
BRANCH  18  19
ATOM     19  C   UNL     1     -43.000  10.106   5.708  1.00  0.00     0.000 C 
BRANCH  19  20
ATOM     20  C   UNL     1     -43.178   9.603   4.264  1.00  0.00     0.000 C 
BRANCH  20  21
ATOM     21  C   UNL     1     -43.060   8.072   4.158  1.00  0.00     0.000 C 
BRANCH  21  22
ATOM     22  C   UNL     1     -44.293   7.353   4.725  1.00  0.00     0.000 C 
BRANCH  22  23
ATOM     23  C   UNL     1     -43.904   6.401   5.864  1.00  0.00     0.000 C 
BRANCH  23  24
ATOM     24  C   UNL     1     -43.941   4.923   5.439  1.00  0.00    -0.000 C 
BRANCH  24  25
ATOM     25  C   UNL     1     -42.622   4.451   4.808  1.00  0.00    -0.000 C 
BRANCH  25  26
ATOM     26  C   UNL     1     -42.736   4.383   3.278  1.00  0.00    -0.000 C 
BRANCH  26  27
ATOM     27  C   UNL     1     -43.367   3.069   2.780  1.00  0.00    -0.000 C 
BRANCH  27  28
ATOM     28  C   UNL     1     -43.755   3.055   1.290  1.00  0.00    -0.000 C 
BRANCH  28  29
ATOM     29  C   UNL     1     -43.696   1.648   0.671  1.00  0.00    -0.000 C 
BRANCH  29  30
ATOM     30  C   UNL     1     -44.930   0.800   1.020  1.00  0.00    -0.000 C 
BRANCH  30  31
ATOM     31  C   UNL     1     -45.756   0.416  -0.218  1.00  0.00    -0.003 C 
ATOM     32  C   UNL     1     -47.251   0.466   0.081  1.00  0.00     0.004 C 
ENDBRANCH  30  31
ENDBRANCH  29  30
ENDBRANCH  28  29
ENDBRANCH  27  28
ENDBRANCH  26  27
ENDBRANCH  25  26
ENDBRANCH  24  25
ENDBRANCH  23  24
ENDBRANCH  22  23
ENDBRANCH  21  22
ENDBRANCH  20  21
ENDBRANCH  19  20
ENDBRANCH  18  19
ENDBRANCH   1  18
TORSDOF 28
ENDMDL
MODEL 8
REMARK VINA RESULT:     0.865      3.900      8.140
REMARK INTER + INTRA:           0.586
REMARK INTER:                   3.223
REMARK INTRA:                  -2.636
REMARK UNBOUND:                -1.695
REMARK SMILES CCCCCCCCCCCCCCCCCCCCCCCCCCCCCC(=O)[O-]
REMARK SMILES IDX 16 1 17 2 18 3 19 4 20 5 21 6 22 7 23 8 24 9 25 10 26 11
REMARK SMILES IDX 27 12 28 13 29 14 30 15 31 16 32 17 15 18 14 19 13 20 12 21
REMARK SMILES IDX 11 22 10 23 9 24 8 25 7 26 6 27 5 28 4 29 3 30 2 31 1 32
REMARK H PARENT
REMARK Flexibility Score: inf
ROOT
ATOM      1  C   UNL     1     -43.923   9.185   8.263  1.00  0.00     0.000 C 
ENDROOT
BRANCH   1   2
ATOM      2  C   UNL     1     -44.752   8.977   6.985  1.00  0.00     0.000 C 
BRANCH   2   3
ATOM      3  C   UNL     1     -45.077   7.497   6.720  1.00  0.00     0.000 C 
BRANCH   3   4
ATOM      4  C   UNL     1     -44.090   6.836   5.740  1.00  0.00     0.000 C 
BRANCH   4   5
ATOM      5  C   UNL     1     -44.162   5.298   5.679  1.00  0.00     0.000 C 
BRANCH   5   6
ATOM      6  C   UNL     1     -43.066   4.684   4.794  1.00  0.00     0.000 C 
BRANCH   6   7
ATOM      7  C   UNL     1     -43.576   4.431   3.369  1.00  0.00     0.000 C 
BRANCH   7   8
ATOM      8  C   UNL     1     -42.574   3.618   2.531  1.00  0.00     0.000 C 
BRANCH   8   9
ATOM      9  C   UNL     1     -43.267   2.665   1.542  1.00  0.00     0.000 C 
BRANCH   9  10
ATOM     10  C   UNL     1     -42.442   2.429   0.265  1.00  0.00     0.000 C 
BRANCH  10  11
ATOM     11  C   UNL     1     -42.864   1.162  -0.510  1.00  0.00     0.000 C 
BRANCH  11  12
ATOM     12  C   UNL     1     -43.759   0.240   0.330  1.00  0.00     0.000 C 
BRANCH  12  13
ATOM     13  C   UNL     1     -45.043  -0.123  -0.430  1.00  0.00     0.006 C 
BRANCH  13  14
ATOM     14  C   UNL     1     -46.302   0.080   0.425  1.00  0.00     0.053 C 
BRANCH  14  15
ATOM     15  C   UNL     1     -47.480   0.476  -0.411  1.00  0.00     0.041 C 
ATOM     16  O   UNL     1     -48.423  -0.337  -0.605  1.00  0.00    -0.550 OA
ATOM     17  O   UNL     1     -47.522   1.731  -1.004  1.00  0.00    -0.550 OA
ENDBRANCH  14  15
ENDBRANCH  13  14
ENDBRANCH  12  13
ENDBRANCH  11  12
ENDBRANCH  10  11
ENDBRANCH   9  10
ENDBRANCH   8   9
ENDBRANCH   7   8
ENDBRANCH   6   7
ENDBRANCH   5   6
ENDBRANCH   4   5
ENDBRANCH   3   4
ENDBRANCH   2   3
ENDBRANCH   1   2
BRANCH   1  18
ATOM     18  C   UNL     1     -42.414   8.910   8.118  1.00  0.00     0.000 C 
BRANCH  18  19
ATOM     19  C   UNL     1     -41.534   9.700   9.110  1.00  0.00     0.000 C 
BRANCH  19  20
ATOM     20  C   UNL     1     -41.994   9.529  10.570  1.00  0.00     0.000 C 
BRANCH  20  21
ATOM     21  C   UNL     1     -42.283   8.060  10.925  1.00  0.00     0.000 C 
BRANCH  21  22
ATOM     22  C   UNL     1     -41.031   7.177  10.811  1.00  0.00     0.000 C 
BRANCH  22  23
ATOM     23  C   UNL     1     -41.395   5.755  10.363  1.00  0.00     0.000 C 
BRANCH  23  24
ATOM     24  C   UNL     1     -42.198   5.734   9.051  1.00  0.00    -0.000 C 
BRANCH  24  25
ATOM     25  C   UNL     1     -43.463   4.867   9.140  1.00  0.00    -0.000 C 
BRANCH  25  26
ATOM     26  C   UNL     1     -44.071   4.921  10.549  1.00  0.00    -0.000 C 
BRANCH  26  27
ATOM     27  C   UNL     1     -45.554   5.340  10.547  1.00  0.00    -0.000 C 
BRANCH  27  28
ATOM     28  C   UNL     1     -46.168   5.560   9.152  1.00  0.00    -0.000 C 
BRANCH  28  29
ATOM     29  C   UNL     1     -47.532   4.868   8.985  1.00  0.00    -0.000 C 
BRANCH  29  30
ATOM     30  C   UNL     1     -47.466   3.658   8.038  1.00  0.00    -0.000 C 
BRANCH  30  31
ATOM     31  C   UNL     1     -48.854   3.192   7.573  1.00  0.00    -0.003 C 
ATOM     32  C   UNL     1     -48.881   1.683   7.348  1.00  0.00     0.004 C 
ENDBRANCH  30  31
ENDBRANCH  29  30
ENDBRANCH  28  29
ENDBRANCH  27  28
ENDBRANCH  26  27
ENDBRANCH  25  26
ENDBRANCH  24  25
ENDBRANCH  23  24
ENDBRANCH  22  23
ENDBRANCH  21  22
ENDBRANCH  20  21
ENDBRANCH  19  20
ENDBRANCH  18  19
ENDBRANCH   1  18
TORSDOF 28
ENDMDL
