MODEL 1
REMARK VINA RESULT:    -4.040      0.000      0.000
REMARK INTER + INTRA:          -9.357
REMARK INTER:                  -7.346
REMARK INTRA:                  -2.010
REMARK UNBOUND:                -2.010
REMARK SMILES CCCCCCCCCCCCCCCC(=O)[O-]
REMARK SMILES IDX 9 1 10 2 11 3 12 4 13 5 14 6 15 7 16 8 17 9 18 10 8 11 7 12
REMARK SMILES IDX 6 13 5 14 4 15 3 16 2 17 1 18
REMARK H PARENT
REMARK Flexibility Score: inf
ROOT
ATOM      1  C   UNL     1     128.772 142.831 105.382  1.00  0.00     0.000 C 
ENDROOT
BRANCH   1   2
ATOM      2  C   UNL     1     127.427 143.501 105.714  1.00  0.00     0.000 C 
BRANCH   2   3
ATOM      3  C   UNL     1     127.340 144.953 105.208  1.00  0.00     0.000 C 
BRANCH   3   4
ATOM      4  C   UNL     1     126.963 145.997 106.275  1.00  0.00     0.000 C 
BRANCH   4   5
ATOM      5  C   UNL     1     126.905 145.410 107.693  1.00  0.00     0.000 C 
BRANCH   5   6
ATOM      6  C   UNL     1     127.932 146.087 108.610  1.00  0.00     0.006 C 
BRANCH   6   7
ATOM      7  C   UNL     1     128.416 145.123 109.697  1.00  0.00     0.053 C 
BRANCH   7   8
ATOM      8  C   UNL     1     129.696 145.613 110.299  1.00  0.00     0.041 C 
ATOM      9  O   UNL     1     130.214 144.999 111.270  1.00  0.00    -0.550 OA
ATOM     10  O   UNL     1     130.341 146.717 109.758  1.00  0.00    -0.550 OA
ENDBRANCH   7   8
ENDBRANCH   6   7
ENDBRANCH   5   6
ENDBRANCH   4   5
ENDBRANCH   3   4
ENDBRANCH   2   3
ENDBRANCH   1   2
BRANCH   1  11
ATOM     11  C   UNL     1     129.560 142.436 106.642  1.00  0.00     0.000 C 
BRANCH  11  12
ATOM     12  C   UNL     1     130.478 143.560 107.144  1.00  0.00    -0.000 C 
BRANCH  12  13
ATOM     13  C   UNL     1     130.937 144.454 105.986  1.00  0.00    -0.000 C 
BRANCH  13  14
ATOM     14  C   UNL     1     130.726 145.936 106.316  1.00  0.00    -0.000 C 
BRANCH  14  15
ATOM     15  C   UNL     1     131.898 146.786 105.809  1.00  0.00    -0.000 C 
BRANCH  15  16
ATOM     16  C   UNL     1     133.240 146.210 106.284  1.00  0.00    -0.000 C 
BRANCH  16  17
ATOM     17  C   UNL     1     134.223 145.971 105.127  1.00  0.00    -0.003 C 
ATOM     18  C   UNL     1     135.685 146.097 105.555  1.00  0.00     0.004 C 
ENDBRANCH  16  17
ENDBRANCH  15  16
ENDBRANCH  14  15
ENDBRANCH  13  14
ENDBRANCH  12  13
ENDBRANCH  11  12
ENDBRANCH   1  11
TORSDOF 14
ENDMDL
MODEL 2
REMARK VINA RESULT:    -4.034      1.337      1.938
REMARK INTER + INTRA:          -9.346
REMARK INTER:                  -7.153
REMARK INTRA:                  -2.193
REMARK UNBOUND:                -2.010
REMARK SMILES CCCCCCCCCCCCCCCC(=O)[O-]
REMARK SMILES IDX 9 1 10 2 11 3 12 4 13 5 14 6 15 7 16 8 17 9 18 10 8 11 7 12
REMARK SMILES IDX 6 13 5 14 4 15 3 16 2 17 1 18
REMARK H PARENT
REMARK Flexibility Score: inf
ROOT
ATOM      1  C   UNL     1     129.699 142.239 106.165  1.00  0.00     0.000 C 
ENDROOT
BRANCH   1   2
ATOM      2  C   UNL     1     128.240 141.775 106.314  1.00  0.00     0.000 C 
BRANCH   2   3
ATOM      3  C   UNL     1     127.228 142.783 105.737  1.00  0.00     0.000 C 
BRANCH   3   4
ATOM      4  C   UNL     1     127.842 143.916 104.894  1.00  0.00     0.000 C 
BRANCH   4   5
ATOM      5  C   UNL     1     127.543 145.313 105.458  1.00  0.00     0.000 C 
BRANCH   5   6
ATOM      6  C   UNL     1     126.888 145.217 106.842  1.00  0.00     0.006 C 
BRANCH   6   7
ATOM      7  C   UNL     1     127.826 145.747 107.930  1.00  0.00     0.053 C 
BRANCH   7   8
ATOM      8  C   UNL     1     127.750 144.887 109.152  1.00  0.00     0.041 C 
ATOM      9  O   UNL     1     127.225 143.743 109.089  1.00  0.00    -0.550 OA
ATOM     10  O   UNL     1     128.302 145.327 110.348  1.00  0.00    -0.550 OA
ENDBRANCH   7   8
ENDBRANCH   6   7
ENDBRANCH   5   6
ENDBRANCH   4   5
ENDBRANCH   3   4
ENDBRANCH   2   3
ENDBRANCH   1   2
BRANCH   1  11
ATOM     11  C   UNL     1     130.383 142.473 107.521  1.00  0.00     0.000 C 
BRANCH  11  12
ATOM     12  C   UNL     1     130.940 143.898 107.668  1.00  0.00    -0.000 C 
BRANCH  12  13
ATOM     13  C   UNL     1     131.536 144.393 106.345  1.00  0.00    -0.000 C 
BRANCH  13  14
ATOM     14  C   UNL     1     131.031 145.800 106.004  1.00  0.00    -0.000 C 
BRANCH  14  15
ATOM     15  C   UNL     1     132.198 146.787 105.872  1.00  0.00    -0.000 C 
BRANCH  15  16
ATOM     16  C   UNL     1     133.547 146.067 106.018  1.00  0.00    -0.000 C 
BRANCH  16  17
ATOM     17  C   UNL     1     134.385 146.116 104.731  1.00  0.00    -0.003 C 
ATOM     18  C   UNL     1     134.646 144.731 104.140  1.00  0.00     0.004 C 
ENDBRANCH  16  17
ENDBRANCH  15  16
ENDBRANCH  14  15
ENDBRANCH  13  14
ENDBRANCH  12  13
ENDBRANCH  11  12
ENDBRANCH   1  11
TORSDOF 14
ENDMDL
MODEL 3
REMARK VINA RESULT:    -4.029      2.259      5.563
REMARK INTER + INTRA:          -9.337
REMARK INTER:                  -6.833
REMARK INTRA:                  -2.505
REMARK UNBOUND:                -2.010
REMARK SMILES CCCCCCCCCCCCCCCC(=O)[O-]
REMARK SMILES IDX 9 1 10 2 11 3 12 4 13 5 14 6 15 7 16 8 17 9 18 10 8 11 7 12
REMARK SMILES IDX 6 13 5 14 4 15 3 16 2 17 1 18
REMARK H PARENT
REMARK Flexibility Score: inf
ROOT
ATOM      1  C   UNL     1     127.219 145.870 108.744  1.00  0.00     0.000 C 
ENDROOT
BRANCH   1   2
ATOM      2  C   UNL     1     128.734 145.998 108.978  1.00  0.00     0.000 C 
BRANCH   2   3
ATOM      3  C   UNL     1     129.483 144.664 108.797  1.00  0.00     0.000 C 
BRANCH   3   4
ATOM      4  C   UNL     1     130.810 144.759 108.021  1.00  0.00     0.000 C 
BRANCH   4   5
ATOM      5  C   UNL     1     130.918 146.034 107.173  1.00  0.00     0.000 C 
BRANCH   5   6
ATOM      6  C   UNL     1     131.530 145.729 105.799  1.00  0.00     0.006 C 
BRANCH   6   7
ATOM      7  C   UNL     1     132.885 145.030 105.944  1.00  0.00     0.053 C 
BRANCH   7   8
ATOM      8  C   UNL     1     134.001 146.014 105.787  1.00  0.00     0.041 C 
ATOM      9  O   UNL     1     134.296 146.460 104.647  1.00  0.00    -0.550 OA
ATOM     10  O   UNL     1     134.683 146.476 106.905  1.00  0.00    -0.550 OA
ENDBRANCH   7   8
ENDBRANCH   6   7
ENDBRANCH   5   6
ENDBRANCH   4   5
ENDBRANCH   3   4
ENDBRANCH   2   3
ENDBRANCH   1   2
BRANCH   1  11
ATOM     11  C   UNL     1     126.885 145.081 107.468  1.00  0.00     0.000 C 
BRANCH  11  12
ATOM     12  C   UNL     1     126.903 145.957 106.206  1.00  0.00    -0.000 C 
BRANCH  12  13
ATOM     13  C   UNL     1     127.678 145.273 105.073  1.00  0.00    -0.000 C 
BRANCH  13  14
ATOM     14  C   UNL     1     127.631 143.748 105.215  1.00  0.00    -0.000 C 
BRANCH  14  15
ATOM     15  C   UNL     1     129.044 143.161 105.329  1.00  0.00    -0.000 C 
BRANCH  15  16
ATOM     16  C   UNL     1     129.024 141.820 106.077  1.00  0.00    -0.000 C 
BRANCH  16  17
ATOM     17  C   UNL     1     127.651 141.508 106.694  1.00  0.00    -0.003 C 
ATOM     18  C   UNL     1     127.658 141.577 108.221  1.00  0.00     0.004 C 
ENDBRANCH  16  17
ENDBRANCH  15  16
ENDBRANCH  14  15
ENDBRANCH  13  14
ENDBRANCH  12  13
ENDBRANCH  11  12
ENDBRANCH   1  11
TORSDOF 14
ENDMDL
MODEL 4
REMARK VINA RESULT:    -4.006      1.836      4.839
REMARK INTER + INTRA:          -9.295
REMARK INTER:                  -6.626
REMARK INTRA:                  -2.670
REMARK UNBOUND:                -2.010
REMARK SMILES CCCCCCCCCCCCCCCC(=O)[O-]
REMARK SMILES IDX 9 1 10 2 11 3 12 4 13 5 14 6 15 7 16 8 17 9 18 10 8 11 7 12
REMARK SMILES IDX 6 13 5 14 4 15 3 16 2 17 1 18
REMARK H PARENT
REMARK Flexibility Score: inf
ROOT
ATOM      1  C   UNL     1     127.957 142.754 105.792  1.00  0.00     0.000 C 
ENDROOT
BRANCH   1   2
ATOM      2  C   UNL     1     129.448 142.377 105.845  1.00  0.00     0.000 C 
BRANCH   2   3
ATOM      3  C   UNL     1     130.031 142.433 107.270  1.00  0.00     0.000 C 
BRANCH   3   4
ATOM      4  C   UNL     1     131.058 143.555 107.512  1.00  0.00     0.000 C 
BRANCH   4   5
ATOM      5  C   UNL     1     131.350 144.384 106.253  1.00  0.00     0.000 C 
BRANCH   5   6
ATOM      6  C   UNL     1     131.099 145.876 106.507  1.00  0.00     0.006 C 
BRANCH   6   7
ATOM      7  C   UNL     1     132.184 146.734 105.851  1.00  0.00     0.053 C 
BRANCH   7   8
ATOM      8  C   UNL     1     133.524 146.425 106.440  1.00  0.00     0.041 C 
ATOM      9  O   UNL     1     133.763 146.694 107.647  1.00  0.00    -0.550 OA
ATOM     10  O   UNL     1     134.493 145.794 105.671  1.00  0.00    -0.550 OA
ENDBRANCH   7   8
ENDBRANCH   6   7
ENDBRANCH   5   6
ENDBRANCH   4   5
ENDBRANCH   3   4
ENDBRANCH   2   3
ENDBRANCH   1   2
BRANCH   1  11
ATOM     11  C   UNL     1     127.670 143.880 104.786  1.00  0.00     0.000 C 
BRANCH  11  12
ATOM     12  C   UNL     1     127.771 145.278 105.415  1.00  0.00    -0.000 C 
BRANCH  12  13
ATOM     13  C   UNL     1     126.875 145.389 106.654  1.00  0.00    -0.000 C 
BRANCH  13  14
ATOM     14  C   UNL     1     127.693 145.763 107.895  1.00  0.00    -0.000 C 
BRANCH  14  15
ATOM     15  C   UNL     1     127.620 144.659 108.957  1.00  0.00    -0.000 C 
BRANCH  15  16
ATOM     16  C   UNL     1     128.666 144.885 110.059  1.00  0.00    -0.000 C 
BRANCH  16  17
ATOM     17  C   UNL     1     129.525 146.135 109.810  1.00  0.00    -0.003 C 
ATOM     18  C   UNL     1     130.957 145.981 110.321  1.00  0.00     0.004 C 
ENDBRANCH  16  17
ENDBRANCH  15  16
ENDBRANCH  14  15
ENDBRANCH  13  14
ENDBRANCH  12  13
ENDBRANCH  11  12
ENDBRANCH   1  11
TORSDOF 14
ENDMDL
MODEL 5
REMARK VINA RESULT:    -3.980      1.633      4.924
REMARK INTER + INTRA:          -9.248
REMARK INTER:                  -7.125
REMARK INTRA:                  -2.123
REMARK UNBOUND:                -2.010
REMARK SMILES CCCCCCCCCCCCCCCC(=O)[O-]
REMARK SMILES IDX 9 1 10 2 11 3 12 4 13 5 14 6 15 7 16 8 17 9 18 10 8 11 7 12
REMARK SMILES IDX 6 13 5 14 4 15 3 16 2 17 1 18
REMARK H PARENT
REMARK Flexibility Score: inf
ROOT
ATOM      1  C   UNL     1     128.839 141.520 107.683  1.00  0.00     0.000 C 
ENDROOT
BRANCH   1   2
ATOM      2  C   UNL     1     130.250 142.101 107.488  1.00  0.00     0.000 C 
BRANCH   2   3
ATOM      3  C   UNL     1     130.854 141.760 106.113  1.00  0.00     0.000 C 
BRANCH   3   4
ATOM      4  C   UNL     1     131.268 142.973 105.261  1.00  0.00     0.000 C 
BRANCH   4   5
ATOM      5  C   UNL     1     131.353 144.275 106.071  1.00  0.00     0.000 C 
BRANCH   5   6
ATOM      6  C   UNL     1     132.737 144.921 105.929  1.00  0.00     0.006 C 
BRANCH   6   7
ATOM      7  C   UNL     1     132.688 146.408 106.289  1.00  0.00     0.053 C 
BRANCH   7   8
ATOM      8  C   UNL     1     133.095 146.616 107.713  1.00  0.00     0.041 C 
ATOM      9  O   UNL     1     134.295 146.871 107.998  1.00  0.00    -0.550 OA
ATOM     10  O   UNL     1     132.141 146.578 108.721  1.00  0.00    -0.550 OA
ENDBRANCH   7   8
ENDBRANCH   6   7
ENDBRANCH   5   6
ENDBRANCH   4   5
ENDBRANCH   3   4
ENDBRANCH   2   3
ENDBRANCH   1   2
BRANCH   1  11
ATOM     11  C   UNL     1     128.051 141.433 106.366  1.00  0.00     0.000 C 
BRANCH  11  12
ATOM     12  C   UNL     1     127.209 142.689 106.094  1.00  0.00    -0.000 C 
BRANCH  12  13
ATOM     13  C   UNL     1     127.777 143.486 104.913  1.00  0.00    -0.000 C 
BRANCH  13  14
ATOM     14  C   UNL     1     127.326 144.950 104.967  1.00  0.00    -0.000 C 
BRANCH  14  15
ATOM     15  C   UNL     1     127.969 145.682 106.151  1.00  0.00    -0.000 C 
BRANCH  15  16
ATOM     16  C   UNL     1     126.909 146.091 107.185  1.00  0.00    -0.000 C 
BRANCH  16  17
ATOM     17  C   UNL     1     127.168 145.479 108.570  1.00  0.00    -0.003 C 
ATOM     18  C   UNL     1     128.654 145.259 108.852  1.00  0.00     0.004 C 
ENDBRANCH  16  17
ENDBRANCH  15  16
ENDBRANCH  14  15
ENDBRANCH  13  14
ENDBRANCH  12  13
ENDBRANCH  11  12
ENDBRANCH   1  11
TORSDOF 14
ENDMDL
MODEL 6
REMARK VINA RESULT:    -3.978      2.622      5.591
REMARK INTER + INTRA:          -9.244
REMARK INTER:                  -7.056
REMARK INTRA:                  -2.188
REMARK UNBOUND:                -2.010
REMARK SMILES CCCCCCCCCCCCCCCC(=O)[O-]
REMARK SMILES IDX 9 1 10 2 11 3 12 4 13 5 14 6 15 7 16 8 17 9 18 10 8 11 7 12
REMARK SMILES IDX 6 13 5 14 4 15 3 16 2 17 1 18
REMARK H PARENT
REMARK Flexibility Score: inf
ROOT
ATOM      1  C   UNL     1     129.551 142.448 106.590  1.00  0.00     0.000 C 
ENDROOT
BRANCH   1   2
ATOM      2  C   UNL     1     130.393 143.612 107.141  1.00  0.00     0.000 C 
BRANCH   2   3
ATOM      3  C   UNL     1     131.000 144.491 106.031  1.00  0.00     0.000 C 
BRANCH   3   4
ATOM      4  C   UNL     1     130.829 146.008 106.231  1.00  0.00     0.000 C 
BRANCH   4   5
ATOM      5  C   UNL     1     132.080 146.809 105.843  1.00  0.00     0.000 C 
BRANCH   5   6
ATOM      6  C   UNL     1     133.358 146.052 106.226  1.00  0.00     0.006 C 
BRANCH   6   7
ATOM      7  C   UNL     1     134.323 145.969 105.040  1.00  0.00     0.053 C 
BRANCH   7   8
ATOM      8  C   UNL     1     134.738 144.552 104.801  1.00  0.00     0.041 C 
ATOM      9  O   UNL     1     134.003 143.782 104.128  1.00  0.00    -0.550 OA
ATOM     10  O   UNL     1     135.960 144.095 105.279  1.00  0.00    -0.550 OA
ENDBRANCH   7   8
ENDBRANCH   6   7
ENDBRANCH   5   6
ENDBRANCH   4   5
ENDBRANCH   3   4
ENDBRANCH   2   3
ENDBRANCH   1   2
BRANCH   1  11
ATOM     11  C   UNL     1     128.734 142.847 105.351  1.00  0.00     0.000 C 
BRANCH  11  12
ATOM     12  C   UNL     1     127.417 143.551 105.711  1.00  0.00    -0.000 C 
BRANCH  12  13
ATOM     13  C   UNL     1     127.299 144.899 104.989  1.00  0.00    -0.000 C 
BRANCH  13  14
ATOM     14  C   UNL     1     126.993 146.029 105.979  1.00  0.00    -0.000 C 
BRANCH  14  15
ATOM     15  C   UNL     1     126.875 145.492 107.410  1.00  0.00    -0.000 C 
BRANCH  15  16
ATOM     16  C   UNL     1     127.730 146.321 108.381  1.00  0.00    -0.000 C 
BRANCH  16  17
ATOM     17  C   UNL     1     128.398 145.460 109.464  1.00  0.00    -0.003 C 
ATOM     18  C   UNL     1     129.758 146.003 109.898  1.00  0.00     0.004 C 
ENDBRANCH  16  17
ENDBRANCH  15  16
ENDBRANCH  14  15
ENDBRANCH  13  14
ENDBRANCH  12  13
ENDBRANCH  11  12
ENDBRANCH   1  11
TORSDOF 14
ENDMDL
MODEL 7
REMARK VINA RESULT:    -3.960      2.430      5.774
REMARK INTER + INTRA:          -9.212
REMARK INTER:                  -7.206
REMARK INTRA:                  -2.006
REMARK UNBOUND:                -2.010
REMARK SMILES CCCCCCCCCCCCCCCC(=O)[O-]
REMARK SMILES IDX 9 1 10 2 11 3 12 4 13 5 14 6 15 7 16 8 17 9 18 10 8 11 7 12
REMARK SMILES IDX 6 13 5 14 4 15 3 16 2 17 1 18
REMARK H PARENT
REMARK Flexibility Score: inf
ROOT
ATOM      1  C   UNL     1     129.096 144.629 108.823  1.00  0.00     0.000 C 
ENDROOT
BRANCH   1   2
ATOM      2  C   UNL     1     130.496 145.227 108.601  1.00  0.00     0.000 C 
BRANCH   2   3
ATOM      3  C   UNL     1     131.061 144.926 107.200  1.00  0.00     0.000 C 
BRANCH   3   4
ATOM      4  C   UNL     1     130.800 146.013 106.142  1.00  0.00     0.000 C 
BRANCH   4   5
ATOM      5  C   UNL     1     132.057 146.825 105.794  1.00  0.00     0.000 C 
BRANCH   5   6
ATOM      6  C   UNL     1     133.253 146.377 106.643  1.00  0.00     0.006 C 
BRANCH   6   7
ATOM      7  C   UNL     1     134.401 145.884 105.758  1.00  0.00     0.053 C 
BRANCH   7   8
ATOM      8  C   UNL     1     135.715 146.086 106.444  1.00  0.00     0.041 C 
ATOM      9  O   UNL     1     136.775 145.647 105.924  1.00  0.00    -0.550 OA
ATOM     10  O   UNL     1     135.776 146.802 107.633  1.00  0.00    -0.550 OA
ENDBRANCH   7   8
ENDBRANCH   6   7
ENDBRANCH   5   6
ENDBRANCH   4   5
ENDBRANCH   3   4
ENDBRANCH   2   3
ENDBRANCH   1   2
BRANCH   1  11
ATOM     11  C   UNL     1     127.974 145.652 108.580  1.00  0.00     0.000 C 
BRANCH  11  12
ATOM     12  C   UNL     1     126.968 145.186 107.517  1.00  0.00    -0.000 C 
BRANCH  12  13
ATOM     13  C   UNL     1     127.003 146.103 106.288  1.00  0.00    -0.000 C 
BRANCH  13  14
ATOM     14  C   UNL     1     127.392 145.322 105.028  1.00  0.00    -0.000 C 
BRANCH  14  15
ATOM     15  C   UNL     1     127.313 143.810 105.270  1.00  0.00    -0.000 C 
BRANCH  15  16
ATOM     16  C   UNL     1     128.691 143.152 105.101  1.00  0.00    -0.000 C 
BRANCH  16  17
ATOM     17  C   UNL     1     128.930 142.016 106.107  1.00  0.00    -0.003 C 
ATOM     18  C   UNL     1     127.634 141.347 106.566  1.00  0.00     0.004 C 
ENDBRANCH  16  17
ENDBRANCH  15  16
ENDBRANCH  14  15
ENDBRANCH  13  14
ENDBRANCH  12  13
ENDBRANCH  11  12
ENDBRANCH   1  11
TORSDOF 14
ENDMDL
MODEL 8
REMARK VINA RESULT:    -3.937      3.169      6.365
REMARK INTER + INTRA:          -9.169
REMARK INTER:                  -7.167
REMARK INTRA:                  -2.002
REMARK UNBOUND:                -2.010
REMARK SMILES CCCCCCCCCCCCCCCC(=O)[O-]
REMARK SMILES IDX 9 1 10 2 11 3 12 4 13 5 14 6 15 7 16 8 17 9 18 10 8 11 7 12
REMARK SMILES IDX 6 13 5 14 4 15 3 16 2 17 1 18
REMARK H PARENT
REMARK Flexibility Score: inf
ROOT
ATOM      1  C   UNL     1     131.169 144.595 107.168  1.00  0.00     0.000 C 
ENDROOT
BRANCH   1   2
ATOM      2  C   UNL     1     130.900 145.681 106.111  1.00  0.00     0.000 C 
BRANCH   2   3
ATOM      3  C   UNL     1     132.086 146.648 105.930  1.00  0.00     0.000 C 
BRANCH   3   4
ATOM      4  C   UNL     1     133.479 146.002 106.040  1.00  0.00     0.000 C 
BRANCH   4   5
ATOM      5  C   UNL     1     134.322 146.175 104.768  1.00  0.00     0.000 C 
BRANCH   5   6
ATOM      6  C   UNL     1     134.650 144.815 104.138  1.00  0.00     0.006 C 
BRANCH   6   7
ATOM      7  C   UNL     1     134.197 143.666 105.043  1.00  0.00     0.053 C 
BRANCH   7   8
ATOM      8  C   UNL     1     134.706 142.358 104.525  1.00  0.00     0.041 C 
ATOM      9  O   UNL     1     135.895 142.257 104.122  1.00  0.00    -0.550 OA
ATOM     10  O   UNL     1     133.883 141.240 104.533  1.00  0.00    -0.550 OA
ENDBRANCH   7   8
ENDBRANCH   6   7
ENDBRANCH   5   6
ENDBRANCH   4   5
ENDBRANCH   3   4
ENDBRANCH   2   3
ENDBRANCH   1   2
BRANCH   1  11
ATOM     11  C   UNL     1     130.726 143.199 106.702  1.00  0.00     0.000 C 
BRANCH  11  12
ATOM     12  C   UNL     1     129.932 143.235 105.387  1.00  0.00    -0.000 C 
BRANCH  12  13
ATOM     13  C   UNL     1     128.429 143.094 105.650  1.00  0.00    -0.000 C 
BRANCH  13  14
ATOM     14  C   UNL     1     127.629 144.126 104.845  1.00  0.00    -0.000 C 
BRANCH  14  15
ATOM     15  C   UNL     1     127.199 145.302 105.730  1.00  0.00    -0.000 C 
BRANCH  15  16
ATOM     16  C   UNL     1     127.205 144.905 107.214  1.00  0.00    -0.000 C 
BRANCH  16  17
ATOM     17  C   UNL     1     127.504 146.092 108.142  1.00  0.00    -0.003 C 
ATOM     18  C   UNL     1     128.388 145.709 109.328  1.00  0.00     0.004 C 
ENDBRANCH  16  17
ENDBRANCH  15  16
ENDBRANCH  14  15
ENDBRANCH  13  14
ENDBRANCH  12  13
ENDBRANCH  11  12
ENDBRANCH   1  11
TORSDOF 14
ENDMDL
MODEL 9
REMARK VINA RESULT:    -3.933      3.017      4.404
REMARK INTER + INTRA:          -9.161
REMARK INTER:                  -7.240
REMARK INTRA:                  -1.922
REMARK UNBOUND:                -2.010
REMARK SMILES CCCCCCCCCCCCCCCC(=O)[O-]
REMARK SMILES IDX 9 1 10 2 11 3 12 4 13 5 14 6 15 7 16 8 17 9 18 10 8 11 7 12
REMARK SMILES IDX 6 13 5 14 4 15 3 16 2 17 1 18
REMARK H PARENT
REMARK Flexibility Score: inf
ROOT
ATOM      1  C   UNL     1     127.266 144.862 107.918  1.00  0.00     0.000 C 
ENDROOT
BRANCH   1   2
ATOM      2  C   UNL     1     127.105 145.707 106.642  1.00  0.00     0.000 C 
BRANCH   2   3
ATOM      3  C   UNL     1     127.561 144.967 105.371  1.00  0.00     0.000 C 
BRANCH   3   4
ATOM      4  C   UNL     1     127.308 143.448 105.371  1.00  0.00     0.000 C 
BRANCH   4   5
ATOM      5  C   UNL     1     128.602 142.624 105.441  1.00  0.00     0.000 C 
BRANCH   5   6
ATOM      6  C   UNL     1     128.629 141.749 106.701  1.00  0.00     0.006 C 
BRANCH   6   7
ATOM      7  C   UNL     1     129.117 140.334 106.376  1.00  0.00     0.053 C 
BRANCH   7   8
ATOM      8  C   UNL     1     127.973 139.370 106.386  1.00  0.00     0.041 C 
ATOM      9  O   UNL     1     127.668 138.739 105.339  1.00  0.00    -0.550 OA
ATOM     10  O   UNL     1     127.275 139.132 107.562  1.00  0.00    -0.550 OA
ENDBRANCH   7   8
ENDBRANCH   6   7
ENDBRANCH   5   6
ENDBRANCH   4   5
ENDBRANCH   3   4
ENDBRANCH   2   3
ENDBRANCH   1   2
BRANCH   1  11
ATOM     11  C   UNL     1     128.091 145.578 108.999  1.00  0.00     0.000 C 
BRANCH  11  12
ATOM     12  C   UNL     1     129.498 145.961 108.515  1.00  0.00    -0.000 C 
BRANCH  12  13
ATOM     13  C   UNL     1     130.343 144.712 108.240  1.00  0.00    -0.000 C 
BRANCH  13  14
ATOM     14  C   UNL     1     131.007 144.788 106.860  1.00  0.00    -0.000 C 
BRANCH  14  15
ATOM     15  C   UNL     1     130.854 146.187 106.251  1.00  0.00    -0.000 C 
BRANCH  15  16
ATOM     16  C   UNL     1     132.216 146.751 105.819  1.00  0.00    -0.000 C 
BRANCH  16  17
ATOM     17  C   UNL     1     133.325 145.687 105.828  1.00  0.00    -0.003 C 
ATOM     18  C   UNL     1     134.457 146.004 104.850  1.00  0.00     0.004 C 
ENDBRANCH  16  17
ENDBRANCH  15  16
ENDBRANCH  14  15
ENDBRANCH  13  14
ENDBRANCH  12  13
ENDBRANCH  11  12
ENDBRANCH   1  11
TORSDOF 14
ENDMDL
