MODEL 1
REMARK VINA RESULT:    -4.960      0.000      0.000
REMARK INTER + INTRA:          -5.250
REMARK INTER:                  -5.250
REMARK INTRA:                   0.000
REMARK UNBOUND:                 0.000
REMARK SMILES O=c1ccc2cc(O)c(O)cc2o1
REMARK SMILES IDX 4 1 3 2 2 3 1 4 13 5 12 6 11 7 9 8 7 9 6 10 5 11 8 12 10 14
REMARK H PARENT 8 13 10 15
REMARK Flexibility Score: inf
ROOT
ATOM      1  C   UNL     1      41.411 -32.234  36.875  1.00  0.00     0.019 A 
ATOM      2  C   UNL     1      40.503 -32.733  37.809  1.00  0.00     0.094 A 
ATOM      3  C   UNL     1      40.480 -32.182  39.094  1.00  0.00     0.336 A 
ATOM      4  O   UNL     1      39.669 -32.619  39.951  1.00  0.00    -0.246 OA
ATOM      5  O   UNL     1      41.314 -31.196  39.419  1.00  0.00    -0.423 OA
ATOM      6  C   UNL     1      42.195 -30.691  38.559  1.00  0.00     0.142 A 
ATOM      7  C   UNL     1      43.045 -29.655  38.957  1.00  0.00     0.098 A 
ATOM      8  C   UNL     1      43.976 -29.119  38.054  1.00  0.00     0.161 A 
ATOM      9  C   UNL     1      44.055 -29.622  36.747  1.00  0.00     0.158 A 
ATOM     10  C   UNL     1      43.204 -30.661  36.342  1.00  0.00     0.062 A 
ATOM     11  C   UNL     1      42.274 -31.198  37.243  1.00  0.00     0.022 A 
ENDROOT
BRANCH   9  12
ATOM     12  O   UNL     1      44.982 -29.083  35.856  1.00  0.00    -0.504 OA
ATOM     13  H   UNL     1      45.880 -29.524  35.694  1.00  0.00     0.293 HD
ENDBRANCH   9  12
BRANCH   8  14
ATOM     14  O   UNL     1      44.824 -28.086  38.448  1.00  0.00    -0.504 OA
ATOM     15  H   UNL     1      45.219 -28.051  39.381  1.00  0.00     0.293 HD
ENDBRANCH   8  14
TORSDOF 2
ENDMDL
MODEL 2
REMARK VINA RESULT:    -4.805      1.237      2.290
REMARK INTER + INTRA:          -5.086
REMARK INTER:                  -5.086
REMARK INTRA:                   0.000
REMARK UNBOUND:                 0.000
REMARK SMILES O=c1ccc2cc(O)c(O)cc2o1
REMARK SMILES IDX 4 1 3 2 2 3 1 4 13 5 12 6 11 7 9 8 7 9 6 10 5 11 8 12 10 14
REMARK H PARENT 8 13 10 15
REMARK Flexibility Score: inf
ROOT
ATOM      1  C   UNL     1      41.066 -31.358  39.363  1.00  0.00     0.019 A 
ATOM      2  C   UNL     1      40.190 -32.309  38.841  1.00  0.00     0.094 A 
ATOM      3  C   UNL     1      40.293 -32.658  37.491  1.00  0.00     0.336 A 
ATOM      4  O   UNL     1      39.511 -33.514  37.001  1.00  0.00    -0.246 OA
ATOM      5  O   UNL     1      41.215 -32.090  36.717  1.00  0.00    -0.423 OA
ATOM      6  C   UNL     1      42.070 -31.178  37.175  1.00  0.00     0.142 A 
ATOM      7  C   UNL     1      43.018 -30.616  36.315  1.00  0.00     0.098 A 
ATOM      8  C   UNL     1      43.922 -29.655  36.792  1.00  0.00     0.161 A 
ATOM      9  C   UNL     1      43.877 -29.256  38.135  1.00  0.00     0.158 A 
ATOM     10  C   UNL     1      42.928 -29.817  39.003  1.00  0.00     0.062 A 
ATOM     11  C   UNL     1      42.025 -30.777  38.528  1.00  0.00     0.022 A 
ENDROOT
BRANCH   9  12
ATOM     12  O   UNL     1      44.779 -28.300  38.601  1.00  0.00    -0.504 OA
ATOM     13  H   UNL     1      45.535 -27.957  38.020  1.00  0.00     0.293 HD
ENDBRANCH   9  12
BRANCH   8  14
ATOM     14  O   UNL     1      44.868 -29.092  35.937  1.00  0.00    -0.504 OA
ATOM     15  H   UNL     1      44.596 -28.486  35.171  1.00  0.00     0.293 HD
ENDBRANCH   8  14
TORSDOF 2
ENDMDL
MODEL 3
REMARK VINA RESULT:    -4.774      3.308      4.697
REMARK INTER + INTRA:          -5.053
REMARK INTER:                  -5.053
REMARK INTRA:                   0.000
REMARK UNBOUND:                 0.000
REMARK SMILES O=c1ccc2cc(O)c(O)cc2o1
REMARK SMILES IDX 4 1 3 2 2 3 1 4 13 5 12 6 11 7 9 8 7 9 6 10 5 11 8 12 10 14
REMARK H PARENT 8 13 10 15
REMARK Flexibility Score: inf
ROOT
ATOM      1  C   UNL     1      38.220 -34.986  36.292  1.00  0.00     0.019 A 
ATOM      2  C   UNL     1      38.067 -36.232  36.900  1.00  0.00     0.094 A 
ATOM      3  C   UNL     1      38.613 -36.438  38.171  1.00  0.00     0.336 A 
ATOM      4  O   UNL     1      38.485 -37.555  38.736  1.00  0.00    -0.246 OA
ATOM      5  O   UNL     1      39.269 -35.458  38.789  1.00  0.00    -0.423 OA
ATOM      6  C   UNL     1      39.438 -34.255  38.245  1.00  0.00     0.142 A 
ATOM      7  C   UNL     1      40.136 -33.265  38.942  1.00  0.00     0.098 A 
ATOM      8  C   UNL     1      40.317 -31.995  38.372  1.00  0.00     0.161 A 
ATOM      9  C   UNL     1      39.797 -31.716  37.100  1.00  0.00     0.158 A 
ATOM     10  C   UNL     1      39.095 -32.707  36.396  1.00  0.00     0.062 A 
ATOM     11  C   UNL     1      38.914 -33.975  36.964  1.00  0.00     0.022 A 
ENDROOT
BRANCH   9  12
ATOM     12  O   UNL     1      39.981 -30.452  36.542  1.00  0.00    -0.504 OA
ATOM     13  H   UNL     1      40.289 -29.665  37.101  1.00  0.00     0.293 HD
ENDBRANCH   9  12
BRANCH   8  14
ATOM     14  O   UNL     1      41.012 -31.006  39.064  1.00  0.00    -0.504 OA
ATOM     15  H   UNL     1      41.771 -30.490  38.633  1.00  0.00     0.293 HD
ENDBRANCH   8  14
TORSDOF 2
ENDMDL
MODEL 4
REMARK VINA RESULT:    -4.647      1.089      4.568
REMARK INTER + INTRA:          -4.919
REMARK INTER:                  -4.919
REMARK INTRA:                   0.000
REMARK UNBOUND:                 0.000
REMARK SMILES O=c1ccc2cc(O)c(O)cc2o1
REMARK SMILES IDX 4 1 3 2 2 3 1 4 13 5 12 6 11 7 9 8 7 9 6 10 5 11 8 12 10 14
REMARK H PARENT 8 13 10 15
REMARK Flexibility Score: inf
ROOT
ATOM      1  C   UNL     1      43.200 -30.940  36.380  1.00  0.00     0.019 A 
ATOM      2  C   UNL     1      44.003 -29.884  36.809  1.00  0.00     0.094 A 
ATOM      3  C   UNL     1      43.797 -29.349  38.085  1.00  0.00     0.336 A 
ATOM      4  O   UNL     1      44.511 -28.395  38.490  1.00  0.00    -0.246 OA
ATOM      5  O   UNL     1      42.847 -29.843  38.876  1.00  0.00    -0.423 OA
ATOM      6  C   UNL     1      42.059 -30.850  38.506  1.00  0.00     0.142 A 
ATOM      7  C   UNL     1      41.077 -31.327  39.380  1.00  0.00     0.098 A 
ATOM      8  C   UNL     1      40.244 -32.388  38.995  1.00  0.00     0.161 A 
ATOM      9  C   UNL     1      40.394 -32.974  37.730  1.00  0.00     0.158 A 
ATOM     10  C   UNL     1      41.377 -32.499  36.848  1.00  0.00     0.062 A 
ATOM     11  C   UNL     1      42.210 -31.439  37.232  1.00  0.00     0.022 A 
ENDROOT
BRANCH   9  12
ATOM     12  O   UNL     1      39.562 -34.028  37.355  1.00  0.00    -0.504 OA
ATOM     13  H   UNL     1      38.673 -33.864  36.898  1.00  0.00     0.293 HD
ENDBRANCH   9  12
BRANCH   8  14
ATOM     14  O   UNL     1      39.265 -32.866  39.864  1.00  0.00    -0.504 OA
ATOM     15  H   UNL     1      38.339 -32.456  39.895  1.00  0.00     0.293 HD
ENDBRANCH   8  14
TORSDOF 2
ENDMDL
MODEL 5
REMARK VINA RESULT:    -4.600      3.223      5.232
REMARK INTER + INTRA:          -4.869
REMARK INTER:                  -4.869
REMARK INTRA:                   0.000
REMARK UNBOUND:                 0.000
REMARK SMILES O=c1ccc2cc(O)c(O)cc2o1
REMARK SMILES IDX 4 1 3 2 2 3 1 4 13 5 12 6 11 7 9 8 7 9 6 10 5 11 8 12 10 14
REMARK H PARENT 8 13 10 15
REMARK Flexibility Score: inf
ROOT
ATOM      1  C   UNL     1      38.883 -33.168  35.112  1.00  0.00     0.019 A 
ATOM      2  C   UNL     1      37.992 -34.147  34.673  1.00  0.00     0.094 A 
ATOM      3  C   UNL     1      37.393 -34.991  35.614  1.00  0.00     0.336 A 
ATOM      4  O   UNL     1      36.587 -35.881  35.236  1.00  0.00    -0.246 OA
ATOM      5  O   UNL     1      37.670 -34.859  36.909  1.00  0.00    -0.423 OA
ATOM      6  C   UNL     1      38.513 -33.939  37.371  1.00  0.00     0.142 A 
ATOM      7  C   UNL     1      38.765 -33.847  38.743  1.00  0.00     0.098 A 
ATOM      8  C   UNL     1      39.653 -32.878  39.235  1.00  0.00     0.161 A 
ATOM      9  C   UNL     1      40.291 -31.998  38.349  1.00  0.00     0.158 A 
ATOM     10  C   UNL     1      40.042 -32.085  36.971  1.00  0.00     0.062 A 
ATOM     11  C   UNL     1      39.155 -33.052  36.479  1.00  0.00     0.022 A 
ENDROOT
BRANCH   9  12
ATOM     12  O   UNL     1      41.171 -31.038  38.846  1.00  0.00    -0.504 OA
ATOM     13  H   UNL     1      41.215 -30.105  38.454  1.00  0.00     0.293 HD
ENDBRANCH   9  12
BRANCH   8  14
ATOM     14  O   UNL     1      39.906 -32.785  40.602  1.00  0.00    -0.504 OA
ATOM     15  H   UNL     1      40.766 -32.381  40.956  1.00  0.00     0.293 HD
ENDBRANCH   8  14
TORSDOF 2
ENDMDL
MODEL 6
REMARK VINA RESULT:    -4.593      5.285      7.716
REMARK INTER + INTRA:          -4.862
REMARK INTER:                  -4.862
REMARK INTRA:                   0.000
REMARK UNBOUND:                 0.000
REMARK SMILES O=c1ccc2cc(O)c(O)cc2o1
REMARK SMILES IDX 4 1 3 2 2 3 1 4 13 5 12 6 11 7 9 8 7 9 6 10 5 11 8 12 10 14
REMARK H PARENT 8 13 10 15
REMARK Flexibility Score: inf
ROOT
ATOM      1  C   UNL     1      38.736 -35.018  38.016  1.00  0.00     0.019 A 
ATOM      2  C   UNL     1      38.665 -33.716  38.512  1.00  0.00     0.094 A 
ATOM      3  C   UNL     1      38.899 -33.496  39.873  1.00  0.00     0.336 A 
ATOM      4  O   UNL     1      38.839 -32.328  40.340  1.00  0.00    -0.246 OA
ATOM      5  O   UNL     1      39.183 -34.515  40.681  1.00  0.00    -0.423 OA
ATOM      6  C   UNL     1      39.260 -35.771  40.249  1.00  0.00     0.142 A 
ATOM      7  C   UNL     1      39.564 -36.801  41.145  1.00  0.00     0.098 A 
ATOM      8  C   UNL     1      39.646 -38.127  40.695  1.00  0.00     0.161 A 
ATOM      9  C   UNL     1      39.424 -38.423  39.342  1.00  0.00     0.158 A 
ATOM     10  C   UNL     1      39.120 -37.394  38.438  1.00  0.00     0.062 A 
ATOM     11  C   UNL     1      39.037 -36.069  38.887  1.00  0.00     0.022 A 
ENDROOT
BRANCH   9  12
ATOM     12  O   UNL     1      39.509 -39.744  38.903  1.00  0.00    -0.504 OA
ATOM     13  H   UNL     1      40.401 -40.181  38.706  1.00  0.00     0.293 HD
ENDBRANCH   9  12
BRANCH   8  14
ATOM     14  O   UNL     1      39.948 -39.155  41.585  1.00  0.00    -0.504 OA
ATOM     15  H   UNL     1      39.250 -39.834  41.868  1.00  0.00     0.293 HD
ENDBRANCH   8  14
TORSDOF 2
ENDMDL
MODEL 7
REMARK VINA RESULT:    -4.566      3.148      6.352
REMARK INTER + INTRA:          -4.833
REMARK INTER:                  -4.833
REMARK INTRA:                   0.000
REMARK UNBOUND:                 0.000
REMARK SMILES O=c1ccc2cc(O)c(O)cc2o1
REMARK SMILES IDX 4 1 3 2 2 3 1 4 13 5 12 6 11 7 9 8 7 9 6 10 5 11 8 12 10 14
REMARK H PARENT 8 13 10 15
REMARK Flexibility Score: inf
ROOT
ATOM      1  C   UNL     1      40.200 -33.086  39.161  1.00  0.00     0.019 A 
ATOM      2  C   UNL     1      40.951 -31.930  38.948  1.00  0.00     0.094 A 
ATOM      3  C   UNL     1      41.036 -31.405  37.655  1.00  0.00     0.336 A 
ATOM      4  O   UNL     1      41.710 -30.363  37.442  1.00  0.00    -0.246 OA
ATOM      5  O   UNL     1      40.409 -32.001  36.644  1.00  0.00    -0.423 OA
ATOM      6  C   UNL     1      39.682 -33.105  36.803  1.00  0.00     0.142 A 
ATOM      7  C   UNL     1      39.045 -33.687  35.703  1.00  0.00     0.098 A 
ATOM      8  C   UNL     1      38.277 -34.850  35.866  1.00  0.00     0.161 A 
ATOM      9  C   UNL     1      38.147 -35.433  37.134  1.00  0.00     0.158 A 
ATOM     10  C   UNL     1      38.784 -34.853  38.242  1.00  0.00     0.062 A 
ATOM     11  C   UNL     1      39.551 -33.691  38.081  1.00  0.00     0.022 A 
ENDROOT
BRANCH   9  12
ATOM     12  O   UNL     1      37.382 -36.588  37.287  1.00  0.00    -0.504 OA
ATOM     13  H   UNL     1      37.303 -37.274  36.545  1.00  0.00     0.293 HD
ENDBRANCH   9  12
BRANCH   8  14
ATOM     14  O   UNL     1      37.641 -35.433  34.771  1.00  0.00    -0.504 OA
ATOM     15  H   UNL     1      36.667 -35.711  34.810  1.00  0.00     0.293 HD
ENDBRANCH   8  14
TORSDOF 2
ENDMDL
MODEL 8
REMARK VINA RESULT:    -4.521      3.277      5.449
REMARK INTER + INTRA:          -4.785
REMARK INTER:                  -4.785
REMARK INTRA:                   0.000
REMARK UNBOUND:                 0.000
REMARK SMILES O=c1ccc2cc(O)c(O)cc2o1
REMARK SMILES IDX 4 1 3 2 2 3 1 4 13 5 12 6 11 7 9 8 7 9 6 10 5 11 8 12 10 14
REMARK H PARENT 8 13 10 15
REMARK Flexibility Score: inf
ROOT
ATOM      1  C   UNL     1      38.015 -35.274  36.869  1.00  0.00     0.019 A 
ATOM      2  C   UNL     1      37.884 -35.388  35.486  1.00  0.00     0.094 A 
ATOM      3  C   UNL     1      38.498 -34.437  34.665  1.00  0.00     0.336 A 
ATOM      4  O   UNL     1      38.390 -34.523  33.414  1.00  0.00    -0.246 OA
ATOM      5  O   UNL     1      39.195 -33.437  35.199  1.00  0.00    -0.423 OA
ATOM      6  C   UNL     1      39.345 -33.290  36.513  1.00  0.00     0.142 A 
ATOM      7  C   UNL     1      40.090 -32.220  37.017  1.00  0.00     0.098 A 
ATOM      8  C   UNL     1      40.251 -32.061  38.402  1.00  0.00     0.161 A 
ATOM      9  C   UNL     1      39.664 -32.977  39.286  1.00  0.00     0.158 A 
ATOM     10  C   UNL     1      38.916 -34.054  38.786  1.00  0.00     0.062 A 
ATOM     11  C   UNL     1      38.754 -34.214  37.403  1.00  0.00     0.022 A 
ENDROOT
BRANCH   9  12
ATOM     12  O   UNL     1      39.829 -32.812  40.660  1.00  0.00    -0.504 OA
ATOM     13  H   UNL     1      40.745 -32.675  41.071  1.00  0.00     0.293 HD
ENDBRANCH   9  12
BRANCH   8  14
ATOM     14  O   UNL     1      40.993 -30.994  38.906  1.00  0.00    -0.504 OA
ATOM     15  H   UNL     1      40.774 -30.573  39.802  1.00  0.00     0.293 HD
ENDBRANCH   8  14
TORSDOF 2
ENDMDL
MODEL 9
REMARK VINA RESULT:    -4.515      2.914      6.327
REMARK INTER + INTRA:          -4.779
REMARK INTER:                  -4.779
REMARK INTRA:                   0.000
REMARK UNBOUND:                 0.000
REMARK SMILES O=c1ccc2cc(O)c(O)cc2o1
REMARK SMILES IDX 4 1 3 2 2 3 1 4 13 5 12 6 11 7 9 8 7 9 6 10 5 11 8 12 10 14
REMARK H PARENT 8 13 10 15
REMARK Flexibility Score: inf
ROOT
ATOM      1  C   UNL     1      39.490 -32.408  36.486  1.00  0.00     0.019 A 
ATOM      2  C   UNL     1      40.380 -31.474  37.015  1.00  0.00     0.094 A 
ATOM      3  C   UNL     1      40.912 -31.689  38.290  1.00  0.00     0.336 A 
ATOM      4  O   UNL     1      41.715 -30.855  38.785  1.00  0.00    -0.246 OA
ATOM      5  O   UNL     1      40.572 -32.770  38.988  1.00  0.00    -0.423 OA
ATOM      6  C   UNL     1      39.727 -33.687  38.521  1.00  0.00     0.142 A 
ATOM      7  C   UNL     1      39.408 -34.803  39.299  1.00  0.00     0.098 A 
ATOM      8  C   UNL     1      38.518 -35.773  38.812  1.00  0.00     0.161 A 
ATOM      9  C   UNL     1      37.946 -35.623  37.540  1.00  0.00     0.158 A 
ATOM     10  C   UNL     1      38.263 -34.504  36.755  1.00  0.00     0.062 A 
ATOM     11  C   UNL     1      39.151 -33.536  37.241  1.00  0.00     0.022 A 
ENDROOT
BRANCH   9  12
ATOM     12  O   UNL     1      37.063 -36.591  37.064  1.00  0.00    -0.504 OA
ATOM     13  H   UNL     1      37.047 -37.529  37.447  1.00  0.00     0.293 HD
ENDBRANCH   9  12
BRANCH   8  14
ATOM     14  O   UNL     1      38.198 -36.887  39.585  1.00  0.00    -0.504 OA
ATOM     15  H   UNL     1      37.489 -37.550  39.293  1.00  0.00     0.293 HD
ENDBRANCH   8  14
TORSDOF 2
ENDMDL
