MODEL 1
REMARK VINA RESULT:    24.530      0.000      0.000
REMARK INTER + INTRA:          28.556
REMARK INTER:                  28.832
REMARK INTRA:                  -0.276
REMARK UNBOUND:                -0.276
REMARK SMILES O=c1cc(-c2ccc(O)c(O)c2)oc2cc(O)cc(O)c12
REMARK SMILES IDX 4 1 3 2 2 3 1 4 21 5 19 6 18 7 16 8 15 9 14 10 13 11 5 12
REMARK SMILES IDX 6 13 7 14 8 15 12 16 10 17 9 18 11 20 20 22 17 24
REMARK H PARENT 9 19 11 21 20 23 17 25
REMARK Flexibility Score: inf
ROOT
ATOM      1  C   UNL     1      16.494  52.826  23.997  1.00  0.00     0.138 A 
ATOM      2  C   UNL     1      16.671  51.753  23.112  1.00  0.00     0.100 A 
ATOM      3  C   UNL     1      17.088  50.516  23.602  1.00  0.00     0.197 A 
ATOM      4  O   UNL     1      17.298  49.589  22.776  1.00  0.00    -0.289 OA
ATOM      5  C   UNL     1      17.299  50.344  24.991  1.00  0.00     0.107 A 
ATOM      6  C   UNL     1      17.685  49.117  25.609  1.00  0.00     0.134 A 
ATOM      7  C   UNL     1      17.977  49.096  26.978  1.00  0.00     0.093 A 
ATOM      8  C   UNL     1      17.839  50.240  27.762  1.00  0.00     0.123 A 
ATOM      9  C   UNL     1      17.410  51.433  27.179  1.00  0.00     0.094 A 
ATOM     10  C   UNL     1      17.143  51.494  25.809  1.00  0.00     0.146 A 
ATOM     11  O   UNL     1      16.752  52.652  25.289  1.00  0.00    -0.456 OA
ENDROOT
BRANCH   1  12
ATOM     12  C   UNL     1      16.051  54.164  23.529  1.00  0.00     0.021 A 
ATOM     13  C   UNL     1      15.024  54.832  24.218  1.00  0.00     0.016 A 
ATOM     14  C   UNL     1      14.584  56.088  23.794  1.00  0.00     0.051 A 
ATOM     15  C   UNL     1      15.155  56.692  22.667  1.00  0.00     0.157 A 
ATOM     16  C   UNL     1      16.611  54.772  22.388  1.00  0.00     0.062 A 
ATOM     17  C   UNL     1      16.167  56.032  21.961  1.00  0.00     0.158 A 
BRANCH  15  18
ATOM     18  O   UNL     1      14.718  57.946  22.241  1.00  0.00    -0.504 OA
ATOM     19  H   UNL     1      15.302  58.543  21.666  1.00  0.00     0.293 HD
ENDBRANCH  15  18
BRANCH  17  20
ATOM     20  O   UNL     1      16.725  56.632  20.833  1.00  0.00    -0.504 OA
ATOM     21  H   UNL     1      16.866  57.634  20.781  1.00  0.00     0.293 HD
ENDBRANCH  17  20
ENDBRANCH   1  12
BRANCH   6  22
ATOM     22  O   UNL     1      17.772  47.896  24.933  1.00  0.00    -0.507 OA
ATOM     23  H   UNL     1      18.379  47.712  24.148  1.00  0.00     0.293 HD
ENDBRANCH   6  22
BRANCH   8  24
ATOM     24  O   UNL     1      18.125  50.178  29.125  1.00  0.00    -0.508 OA
ATOM     25  H   UNL     1      18.781  49.502  29.499  1.00  0.00     0.293 HD
ENDBRANCH   8  24
TORSDOF 5
ENDMDL
MODEL 2
REMARK VINA RESULT:    26.575      1.348      7.359
REMARK INTER + INTRA:          30.959
REMARK INTER:                  31.227
REMARK INTRA:                  -0.268
REMARK UNBOUND:                -0.276
REMARK SMILES O=c1cc(-c2ccc(O)c(O)c2)oc2cc(O)cc(O)c12
REMARK SMILES IDX 4 1 3 2 2 3 1 4 21 5 19 6 18 7 16 8 15 9 14 10 13 11 5 12
REMARK SMILES IDX 6 13 7 14 8 15 12 16 10 17 9 18 11 20 20 22 17 24
REMARK H PARENT 9 19 11 21 20 23 17 25
REMARK Flexibility Score: inf
ROOT
ATOM      1  C   UNL     1      16.194  52.877  24.499  1.00  0.00     0.138 A 
ATOM      2  C   UNL     1      15.145  53.561  25.129  1.00  0.00     0.100 A 
ATOM      3  C   UNL     1      14.696  54.772  24.602  1.00  0.00     0.197 A 
ATOM      4  O   UNL     1      13.796  55.394  25.225  1.00  0.00    -0.289 OA
ATOM      5  C   UNL     1      15.281  55.284  23.419  1.00  0.00     0.107 A 
ATOM      6  C   UNL     1      14.877  56.489  22.769  1.00  0.00     0.134 A 
ATOM      7  C   UNL     1      15.606  56.956  21.669  1.00  0.00     0.093 A 
ATOM      8  C   UNL     1      16.684  56.235  21.160  1.00  0.00     0.123 A 
ATOM      9  C   UNL     1      17.055  55.028  21.754  1.00  0.00     0.094 A 
ATOM     10  C   UNL     1      16.368  54.552  22.874  1.00  0.00     0.146 A 
ATOM     11  O   UNL     1      16.761  53.407  23.421  1.00  0.00    -0.456 OA
ENDROOT
BRANCH   1  12
ATOM     12  C   UNL     1      16.709  51.583  25.016  1.00  0.00     0.021 A 
ATOM     13  C   UNL     1      16.699  50.452  24.183  1.00  0.00     0.016 A 
ATOM     14  C   UNL     1      17.171  49.222  24.648  1.00  0.00     0.051 A 
ATOM     15  C   UNL     1      17.652  49.101  25.958  1.00  0.00     0.157 A 
ATOM     16  C   UNL     1      17.182  51.450  26.337  1.00  0.00     0.062 A 
ATOM     17  C   UNL     1      17.654  50.215  26.805  1.00  0.00     0.158 A 
BRANCH  15  18
ATOM     18  O   UNL     1      18.124  47.875  26.426  1.00  0.00    -0.504 OA
ATOM     19  H   UNL     1      18.727  47.289  25.860  1.00  0.00     0.293 HD
ENDBRANCH  15  18
BRANCH  17  20
ATOM     20  O   UNL     1      18.123  50.087  28.111  1.00  0.00    -0.504 OA
ATOM     21  H   UNL     1      18.491  50.881  28.622  1.00  0.00     0.293 HD
ENDBRANCH  17  20
ENDBRANCH   1  12
BRANCH   6  22
ATOM     22  O   UNL     1      13.762  57.243  23.145  1.00  0.00    -0.507 OA
ATOM     23  H   UNL     1      12.992  57.480  22.536  1.00  0.00     0.293 HD
ENDBRANCH   6  22
BRANCH   8  24
ATOM     24  O   UNL     1      17.377  56.724  20.053  1.00  0.00    -0.508 OA
ATOM     25  H   UNL     1      17.766  56.102  19.354  1.00  0.00     0.293 HD
ENDBRANCH   8  24
TORSDOF 5
ENDMDL
