MODEL 1
REMARK VINA RESULT:    -4.915      0.000      0.000
REMARK INTER + INTRA:          -9.752
REMARK INTER:                  -8.363
REMARK INTRA:                  -1.388
REMARK UNBOUND:                -1.388
REMARK SMILES CCCCCCCCCCCCCC(=O)[O-]
REMARK SMILES IDX 8 1 9 2 10 3 11 4 12 5 13 6 14 7 15 8 16 9 7 10 6 11 5 12
REMARK SMILES IDX 4 13 3 14 2 15 1 16
REMARK H PARENT
REMARK Flexibility Score: inf
ROOT
ATOM      1  C   UNL     1      45.380  59.901  49.605  1.00  0.00     0.000 C 
ENDROOT
BRANCH   1   2
ATOM      2  C   UNL     1      45.057  58.400  49.673  1.00  0.00     0.000 C 
BRANCH   2   3
ATOM      3  C   UNL     1      46.006  57.544  48.813  1.00  0.00     0.000 C 
BRANCH   3   4
ATOM      4  C   UNL     1      45.314  56.604  47.804  1.00  0.00     0.000 C 
BRANCH   4   5
ATOM      5  C   UNL     1      43.865  56.979  47.447  1.00  0.00     0.006 C 
BRANCH   5   6
ATOM      6  C   UNL     1      43.770  57.871  46.204  1.00  0.00     0.053 C 
BRANCH   6   7
ATOM      7  C   UNL     1      42.735  57.344  45.260  1.00  0.00     0.041 C 
ATOM      8  O   UNL     1      43.073  56.905  44.130  1.00  0.00    -0.550 OA
ATOM      9  O   UNL     1      41.392  57.384  45.611  1.00  0.00    -0.550 OA
ENDBRANCH   6   7
ENDBRANCH   5   6
ENDBRANCH   4   5
ENDBRANCH   3   4
ENDBRANCH   2   3
ENDBRANCH   1   2
BRANCH   1  10
ATOM     10  C   UNL     1      44.329  60.701  48.815  1.00  0.00     0.000 C 
BRANCH  10  11
ATOM     11  C   UNL     1      43.102  61.112  49.655  1.00  0.00    -0.000 C 
BRANCH  11  12
ATOM     12  C   UNL     1      41.803  61.087  48.831  1.00  0.00    -0.000 C 
BRANCH  12  13
ATOM     13  C   UNL     1      41.497  59.700  48.242  1.00  0.00    -0.000 C 
BRANCH  13  14
ATOM     14  C   UNL     1      41.448  58.599  49.316  1.00  0.00    -0.000 C 
BRANCH  14  15
ATOM     15  C   UNL     1      40.030  58.047  49.528  1.00  0.00    -0.003 C 
ATOM     16  C   UNL     1      39.427  57.456  48.253  1.00  0.00     0.004 C 
ENDBRANCH  14  15
ENDBRANCH  13  14
ENDBRANCH  12  13
ENDBRANCH  11  12
ENDBRANCH  10  11
ENDBRANCH   1  10
TORSDOF 12
ENDMDL
MODEL 2
REMARK VINA RESULT:    -4.901      1.005      4.037
REMARK INTER + INTRA:          -9.727
REMARK INTER:                  -8.179
REMARK INTRA:                  -1.548
REMARK UNBOUND:                -1.388
REMARK SMILES CCCCCCCCCCCCCC(=O)[O-]
REMARK SMILES IDX 8 1 9 2 10 3 11 4 12 5 13 6 14 7 15 8 16 9 7 10 6 11 5 12
REMARK SMILES IDX 4 13 3 14 2 15 1 16
REMARK H PARENT
REMARK Flexibility Score: inf
ROOT
ATOM      1  C   UNL     1      44.349  60.698  49.039  1.00  0.00     0.000 C 
ENDROOT
BRANCH   1   2
ATOM      2  C   UNL     1      43.168  61.391  49.737  1.00  0.00     0.000 C 
BRANCH   2   3
ATOM      3  C   UNL     1      41.812  61.070  49.080  1.00  0.00     0.000 C 
BRANCH   3   4
ATOM      4  C   UNL     1      41.791  59.809  48.193  1.00  0.00     0.000 C 
BRANCH   4   5
ATOM      5  C   UNL     1      41.319  58.523  48.893  1.00  0.00     0.006 C 
BRANCH   5   6
ATOM      6  C   UNL     1      40.013  57.972  48.308  1.00  0.00     0.053 C 
BRANCH   6   7
ATOM      7  C   UNL     1      40.297  57.090  47.134  1.00  0.00     0.041 C 
ATOM      8  O   UNL     1      40.488  57.593  45.995  1.00  0.00    -0.550 OA
ATOM      9  O   UNL     1      40.303  55.710  47.287  1.00  0.00    -0.550 OA
ENDBRANCH   6   7
ENDBRANCH   5   6
ENDBRANCH   4   5
ENDBRANCH   3   4
ENDBRANCH   2   3
ENDBRANCH   1   2
BRANCH   1  10
ATOM     10  C   UNL     1      45.219  59.882  50.010  1.00  0.00     0.000 C 
BRANCH  10  11
ATOM     11  C   UNL     1      45.089  58.355  49.826  1.00  0.00    -0.000 C 
BRANCH  11  12
ATOM     12  C   UNL     1      45.875  57.852  48.602  1.00  0.00    -0.000 C 
BRANCH  12  13
ATOM     13  C   UNL     1      45.247  56.603  47.963  1.00  0.00    -0.000 C 
BRANCH  13  14
ATOM     14  C   UNL     1      43.936  56.914  47.221  1.00  0.00    -0.000 C 
BRANCH  14  15
ATOM     15  C   UNL     1      44.092  58.058  46.207  1.00  0.00    -0.003 C 
ATOM     16  C   UNL     1      43.731  57.640  44.781  1.00  0.00     0.004 C 
ENDBRANCH  14  15
ENDBRANCH  13  14
ENDBRANCH  12  13
ENDBRANCH  11  12
ENDBRANCH  10  11
ENDBRANCH   1  10
TORSDOF 12
ENDMDL
MODEL 3
REMARK VINA RESULT:    -4.896      2.382      5.402
REMARK INTER + INTRA:          -9.720
REMARK INTER:                  -8.303
REMARK INTRA:                  -1.417
REMARK UNBOUND:                -1.388
REMARK SMILES CCCCCCCCCCCCCC(=O)[O-]
REMARK SMILES IDX 8 1 9 2 10 3 11 4 12 5 13 6 14 7 15 8 16 9 7 10 6 11 5 12
REMARK SMILES IDX 4 13 3 14 2 15 1 16
REMARK H PARENT
REMARK Flexibility Score: inf
ROOT
ATOM      1  C   UNL     1      40.498  56.749  47.448  1.00  0.00     0.000 C 
ENDROOT
BRANCH   1   2
ATOM      2  C   UNL     1      39.574  57.616  48.317  1.00  0.00     0.000 C 
BRANCH   2   3
ATOM      3  C   UNL     1      40.272  58.158  49.579  1.00  0.00     0.000 C 
BRANCH   3   4
ATOM      4  C   UNL     1      41.757  58.533  49.401  1.00  0.00     0.000 C 
BRANCH   4   5
ATOM      5  C   UNL     1      42.014  59.869  48.683  1.00  0.00     0.006 C 
BRANCH   5   6
ATOM      6  C   UNL     1      42.792  60.870  49.545  1.00  0.00     0.053 C 
BRANCH   6   7
ATOM      7  C   UNL     1      44.264  60.626  49.428  1.00  0.00     0.041 C 
ATOM      8  O   UNL     1      44.997  61.455  48.828  1.00  0.00    -0.550 OA
ATOM      9  O   UNL     1      44.817  59.460  49.940  1.00  0.00    -0.550 OA
ENDBRANCH   6   7
ENDBRANCH   5   6
ENDBRANCH   4   5
ENDBRANCH   3   4
ENDBRANCH   2   3
ENDBRANCH   1   2
BRANCH   1  10
ATOM     10  C   UNL     1      40.383  57.074  45.948  1.00  0.00     0.000 C 
BRANCH  10  11
ATOM     11  C   UNL     1      41.498  58.006  45.428  1.00  0.00    -0.000 C 
BRANCH  11  12
ATOM     12  C   UNL     1      42.666  57.221  44.807  1.00  0.00    -0.000 C 
BRANCH  12  13
ATOM     13  C   UNL     1      44.036  57.846  45.115  1.00  0.00    -0.000 C 
BRANCH  13  14
ATOM     14  C   UNL     1      44.209  58.184  46.606  1.00  0.00    -0.000 C 
BRANCH  14  15
ATOM     15  C   UNL     1      44.292  56.928  47.488  1.00  0.00    -0.003 C 
ATOM     16  C   UNL     1      45.681  56.717  48.090  1.00  0.00     0.004 C 
ENDBRANCH  14  15
ENDBRANCH  13  14
ENDBRANCH  12  13
ENDBRANCH  11  12
ENDBRANCH  10  11
ENDBRANCH   1  10
TORSDOF 12
ENDMDL
MODEL 4
REMARK VINA RESULT:    -4.885      1.211      4.356
REMARK INTER + INTRA:          -9.701
REMARK INTER:                  -8.317
REMARK INTRA:                  -1.384
REMARK UNBOUND:                -1.388
REMARK SMILES CCCCCCCCCCCCCC(=O)[O-]
REMARK SMILES IDX 8 1 9 2 10 3 11 4 12 5 13 6 14 7 15 8 16 9 7 10 6 11 5 12
REMARK SMILES IDX 4 13 3 14 2 15 1 16
REMARK H PARENT
REMARK Flexibility Score: inf
ROOT
ATOM      1  C   UNL     1      45.287  59.799  49.870  1.00  0.00     0.000 C 
ENDROOT
BRANCH   1   2
ATOM      2  C   UNL     1      44.404  60.746  49.041  1.00  0.00     0.000 C 
BRANCH   2   3
ATOM      3  C   UNL     1      43.064  61.070  49.728  1.00  0.00     0.000 C 
BRANCH   3   4
ATOM      4  C   UNL     1      41.839  61.126  48.792  1.00  0.00     0.000 C 
BRANCH   4   5
ATOM      5  C   UNL     1      41.564  59.838  47.996  1.00  0.00     0.006 C 
BRANCH   5   6
ATOM      6  C   UNL     1      41.265  58.634  48.897  1.00  0.00     0.053 C 
BRANCH   6   7
ATOM      7  C   UNL     1      40.204  57.775  48.284  1.00  0.00     0.041 C 
ATOM      8  O   UNL     1      39.069  57.689  48.823  1.00  0.00    -0.550 OA
ATOM      9  O   UNL     1      40.485  57.030  47.147  1.00  0.00    -0.550 OA
ENDBRANCH   6   7
ENDBRANCH   5   6
ENDBRANCH   4   5
ENDBRANCH   3   4
ENDBRANCH   2   3
ENDBRANCH   1   2
BRANCH   1  10
ATOM     10  C   UNL     1      44.957  58.315  49.632  1.00  0.00     0.000 C 
BRANCH  10  11
ATOM     11  C   UNL     1      45.954  57.600  48.696  1.00  0.00    -0.000 C 
BRANCH  11  12
ATOM     12  C   UNL     1      45.255  56.592  47.768  1.00  0.00    -0.000 C 
BRANCH  12  13
ATOM     13  C   UNL     1      43.901  57.101  47.247  1.00  0.00    -0.000 C 
BRANCH  13  14
ATOM     14  C   UNL     1      44.052  58.215  46.197  1.00  0.00    -0.000 C 
BRANCH  14  15
ATOM     15  C   UNL     1      44.026  57.673  44.759  1.00  0.00    -0.003 C 
ATOM     16  C   UNL     1      42.701  56.999  44.402  1.00  0.00     0.004 C 
ENDBRANCH  14  15
ENDBRANCH  13  14
ENDBRANCH  12  13
ENDBRANCH  11  12
ENDBRANCH  10  11
ENDBRANCH   1  10
TORSDOF 12
ENDMDL
MODEL 5
REMARK VINA RESULT:    -4.755      2.667      4.752
REMARK INTER + INTRA:          -9.479
REMARK INTER:                  -8.023
REMARK INTRA:                  -1.457
REMARK UNBOUND:                -1.388
REMARK SMILES CCCCCCCCCCCCCC(=O)[O-]
REMARK SMILES IDX 8 1 9 2 10 3 11 4 12 5 13 6 14 7 15 8 16 9 7 10 6 11 5 12
REMARK SMILES IDX 4 13 3 14 2 15 1 16
REMARK H PARENT
REMARK Flexibility Score: inf
ROOT
ATOM      1  C   UNL     1      42.410  56.993  44.589  1.00  0.00     0.000 C 
ENDROOT
BRANCH   1   2
ATOM      2  C   UNL     1      43.779  57.661  44.789  1.00  0.00     0.000 C 
BRANCH   2   3
ATOM      3  C   UNL     1      44.016  58.121  46.240  1.00  0.00     0.000 C 
BRANCH   3   4
ATOM      4  C   UNL     1      44.345  56.996  47.243  1.00  0.00     0.000 C 
BRANCH   4   5
ATOM      5  C   UNL     1      45.281  57.400  48.396  1.00  0.00     0.006 C 
BRANCH   5   6
ATOM      6  C   UNL     1      44.540  58.072  49.557  1.00  0.00     0.053 C 
BRANCH   6   7
ATOM      7  C   UNL     1      45.385  59.148  50.163  1.00  0.00     0.041 C 
ATOM      8  O   UNL     1      45.950  58.960  51.273  1.00  0.00    -0.550 OA
ATOM      9  O   UNL     1      45.507  60.375  49.527  1.00  0.00    -0.550 OA
ENDBRANCH   6   7
ENDBRANCH   5   6
ENDBRANCH   4   5
ENDBRANCH   3   4
ENDBRANCH   2   3
ENDBRANCH   1   2
BRANCH   1  10
ATOM     10  C   UNL     1      41.267  57.761  45.276  1.00  0.00     0.000 C 
BRANCH  10  11
ATOM     11  C   UNL     1      40.331  56.862  46.112  1.00  0.00    -0.000 C 
BRANCH  11  12
ATOM     12  C   UNL     1      40.727  56.839  47.598  1.00  0.00    -0.000 C 
BRANCH  12  13
ATOM     13  C   UNL     1      40.313  58.118  48.346  1.00  0.00    -0.000 C 
BRANCH  13  14
ATOM     14  C   UNL     1      41.512  58.851  48.972  1.00  0.00    -0.000 C 
BRANCH  14  15
ATOM     15  C   UNL     1      41.785  60.207  48.304  1.00  0.00    -0.003 C 
ATOM     16  C   UNL     1      42.248  61.275  49.295  1.00  0.00     0.004 C 
ENDBRANCH  14  15
ENDBRANCH  13  14
ENDBRANCH  12  13
ENDBRANCH  11  12
ENDBRANCH  10  11
ENDBRANCH   1  10
TORSDOF 12
ENDMDL
MODEL 6
REMARK VINA RESULT:    -4.668      1.731      3.785
REMARK INTER + INTRA:          -9.332
REMARK INTER:                  -8.087
REMARK INTRA:                  -1.245
REMARK UNBOUND:                -1.388
REMARK SMILES CCCCCCCCCCCCCC(=O)[O-]
REMARK SMILES IDX 8 1 9 2 10 3 11 4 12 5 13 6 14 7 15 8 16 9 7 10 6 11 5 12
REMARK SMILES IDX 4 13 3 14 2 15 1 16
REMARK H PARENT
REMARK Flexibility Score: inf
ROOT
ATOM      1  C   UNL     1      44.472  57.144  47.319  1.00  0.00     0.000 C 
ENDROOT
BRANCH   1   2
ATOM      2  C   UNL     1      44.146  58.266  46.320  1.00  0.00     0.000 C 
BRANCH   2   3
ATOM      3  C   UNL     1      43.769  57.734  44.924  1.00  0.00     0.000 C 
BRANCH   3   4
ATOM      4  C   UNL     1      42.376  57.080  44.822  1.00  0.00     0.000 C 
BRANCH   4   5
ATOM      5  C   UNL     1      41.271  57.759  45.650  1.00  0.00     0.006 C 
BRANCH   5   6
ATOM      6  C   UNL     1      40.500  56.774  46.536  1.00  0.00     0.053 C 
BRANCH   6   7
ATOM      7  C   UNL     1      40.393  57.301  47.933  1.00  0.00     0.041 C 
ATOM      8  O   UNL     1      39.324  57.836  48.328  1.00  0.00    -0.550 OA
ATOM      9  O   UNL     1      41.490  57.245  48.781  1.00  0.00    -0.550 OA
ENDBRANCH   6   7
ENDBRANCH   5   6
ENDBRANCH   4   5
ENDBRANCH   3   4
ENDBRANCH   2   3
ENDBRANCH   1   2
BRANCH   1  10
ATOM     10  C   UNL     1      45.385  57.614  48.464  1.00  0.00     0.000 C 
BRANCH  10  11
ATOM     11  C   UNL     1      44.639  58.376  49.580  1.00  0.00    -0.000 C 
BRANCH  11  12
ATOM     12  C   UNL     1      45.210  59.789  49.796  1.00  0.00    -0.000 C 
BRANCH  12  13
ATOM     13  C   UNL     1      44.423  60.871  49.038  1.00  0.00    -0.000 C 
BRANCH  13  14
ATOM     14  C   UNL     1      43.313  61.504  49.895  1.00  0.00    -0.000 C 
BRANCH  14  15
ATOM     15  C   UNL     1      41.921  61.343  49.264  1.00  0.00    -0.003 C 
ATOM     16  C   UNL     1      41.938  60.486  47.998  1.00  0.00     0.004 C 
ENDBRANCH  14  15
ENDBRANCH  13  14
ENDBRANCH  12  13
ENDBRANCH  11  12
ENDBRANCH  10  11
ENDBRANCH   1  10
TORSDOF 12
ENDMDL
MODEL 7
REMARK VINA RESULT:    -4.632      2.140      4.485
REMARK INTER + INTRA:          -9.270
REMARK INTER:                  -7.893
REMARK INTRA:                  -1.377
REMARK UNBOUND:                -1.388
REMARK SMILES CCCCCCCCCCCCCC(=O)[O-]
REMARK SMILES IDX 8 1 9 2 10 3 11 4 12 5 13 6 14 7 15 8 16 9 7 10 6 11 5 12
REMARK SMILES IDX 4 13 3 14 2 15 1 16
REMARK H PARENT
REMARK Flexibility Score: inf
ROOT
ATOM      1  C   UNL     1      40.562  56.571  47.443  1.00  0.00     0.000 C 
ENDROOT
BRANCH   1   2
ATOM      2  C   UNL     1      40.745  56.825  45.938  1.00  0.00     0.000 C 
BRANCH   2   3
ATOM      3  C   UNL     1      41.711  57.986  45.639  1.00  0.00     0.000 C 
BRANCH   3   4
ATOM      4  C   UNL     1      43.182  57.578  45.415  1.00  0.00     0.000 C 
BRANCH   4   5
ATOM      5  C   UNL     1      44.170  58.074  46.486  1.00  0.00     0.006 C 
BRANCH   5   6
ATOM      6  C   UNL     1      44.249  57.141  47.700  1.00  0.00     0.053 C 
BRANCH   6   7
ATOM      7  C   UNL     1      45.365  57.558  48.606  1.00  0.00     0.041 C 
ATOM      8  O   UNL     1      46.548  57.209  48.356  1.00  0.00    -0.550 OA
ATOM      9  O   UNL     1      45.091  58.289  49.754  1.00  0.00    -0.550 OA
ENDBRANCH   6   7
ENDBRANCH   5   6
ENDBRANCH   4   5
ENDBRANCH   3   4
ENDBRANCH   2   3
ENDBRANCH   1   2
BRANCH   1  10
ATOM     10  C   UNL     1      39.755  57.680  48.140  1.00  0.00     0.000 C 
BRANCH  10  11
ATOM     11  C   UNL     1      40.358  58.133  49.486  1.00  0.00    -0.000 C 
BRANCH  11  12
ATOM     12  C   UNL     1      41.728  58.809  49.307  1.00  0.00    -0.000 C 
BRANCH  12  13
ATOM     13  C   UNL     1      41.676  60.021  48.361  1.00  0.00    -0.000 C 
BRANCH  13  14
ATOM     14  C   UNL     1      41.928  61.352  49.091  1.00  0.00    -0.000 C 
BRANCH  14  15
ATOM     15  C   UNL     1      43.243  61.346  49.885  1.00  0.00    -0.003 C 
ATOM     16  C   UNL     1      44.480  61.338  48.985  1.00  0.00     0.004 C 
ENDBRANCH  14  15
ENDBRANCH  13  14
ENDBRANCH  12  13
ENDBRANCH  11  12
ENDBRANCH  10  11
ENDBRANCH   1  10
TORSDOF 12
ENDMDL
MODEL 8
REMARK VINA RESULT:    -4.603      2.286      5.441
REMARK INTER + INTRA:          -9.220
REMARK INTER:                  -7.901
REMARK INTRA:                  -1.319
REMARK UNBOUND:                -1.388
REMARK SMILES CCCCCCCCCCCCCC(=O)[O-]
REMARK SMILES IDX 8 1 9 2 10 3 11 4 12 5 13 6 14 7 15 8 16 9 7 10 6 11 5 12
REMARK SMILES IDX 4 13 3 14 2 15 1 16
REMARK H PARENT
REMARK Flexibility Score: inf
ROOT
ATOM      1  C   UNL     1      41.396  57.933  45.480  1.00  0.00     0.000 C 
ENDROOT
BRANCH   1   2
ATOM      2  C   UNL     1      40.322  57.093  46.189  1.00  0.00     0.000 C 
BRANCH   2   3
ATOM      3  C   UNL     1      40.626  56.870  47.683  1.00  0.00     0.000 C 
BRANCH   3   4
ATOM      4  C   UNL     1      40.327  58.071  48.603  1.00  0.00     0.000 C 
BRANCH   4   5
ATOM      5  C   UNL     1      41.566  58.785  49.171  1.00  0.00     0.006 C 
BRANCH   5   6
ATOM      6  C   UNL     1      41.899  60.084  48.428  1.00  0.00     0.053 C 
BRANCH   6   7
ATOM      7  C   UNL     1      42.926  60.868  49.182  1.00  0.00     0.041 C 
ATOM      8  O   UNL     1      42.593  61.543  50.191  1.00  0.00    -0.550 OA
ATOM      9  O   UNL     1      44.242  60.894  48.740  1.00  0.00    -0.550 OA
ENDBRANCH   6   7
ENDBRANCH   5   6
ENDBRANCH   4   5
ENDBRANCH   3   4
ENDBRANCH   2   3
ENDBRANCH   1   2
BRANCH   1  10
ATOM     10  C   UNL     1      42.566  57.084  44.954  1.00  0.00     0.000 C 
BRANCH  10  11
ATOM     11  C   UNL     1      43.945  57.756  45.125  1.00  0.00    -0.000 C 
BRANCH  11  12
ATOM     12  C   UNL     1      44.177  58.241  46.567  1.00  0.00    -0.000 C 
BRANCH  12  13
ATOM     13  C   UNL     1      44.225  57.089  47.584  1.00  0.00    -0.000 C 
BRANCH  13  14
ATOM     14  C   UNL     1      45.662  56.630  47.889  1.00  0.00    -0.000 C 
BRANCH  14  15
ATOM     15  C   UNL     1      46.373  57.552  48.891  1.00  0.00    -0.003 C 
ATOM     16  C   UNL     1      45.415  58.177  49.905  1.00  0.00     0.004 C 
ENDBRANCH  14  15
ENDBRANCH  13  14
ENDBRANCH  12  13
ENDBRANCH  11  12
ENDBRANCH  10  11
ENDBRANCH   1  10
TORSDOF 12
ENDMDL
MODEL 9
REMARK VINA RESULT:    -4.579      0.991      3.755
REMARK INTER + INTRA:          -9.180
REMARK INTER:                  -7.570
REMARK INTRA:                  -1.610
REMARK UNBOUND:                -1.388
REMARK SMILES CCCCCCCCCCCCCC(=O)[O-]
REMARK SMILES IDX 8 1 9 2 10 3 11 4 12 5 13 6 14 7 15 8 16 9 7 10 6 11 5 12
REMARK SMILES IDX 4 13 3 14 2 15 1 16
REMARK H PARENT
REMARK Flexibility Score: inf
ROOT
ATOM      1  C   UNL     1      41.833  58.599  49.325  1.00  0.00     0.000 C 
ENDROOT
BRANCH   1   2
ATOM      2  C   UNL     1      40.429  58.000  49.501  1.00  0.00     0.000 C 
BRANCH   2   3
ATOM      3  C   UNL     1      39.730  57.708  48.160  1.00  0.00     0.000 C 
BRANCH   3   4
ATOM      4  C   UNL     1      40.548  56.865  47.160  1.00  0.00     0.000 C 
BRANCH   4   5
ATOM      5  C   UNL     1      40.818  57.538  45.803  1.00  0.00     0.006 C 
BRANCH   5   6
ATOM      6  C   UNL     1      42.171  58.257  45.753  1.00  0.00     0.053 C 
BRANCH   6   7
ATOM      7  C   UNL     1      43.094  57.568  44.798  1.00  0.00     0.041 C 
ATOM      8  O   UNL     1      44.281  57.966  44.666  1.00  0.00    -0.550 OA
ATOM      9  O   UNL     1      42.629  56.517  44.019  1.00  0.00    -0.550 OA
ENDBRANCH   6   7
ENDBRANCH   5   6
ENDBRANCH   4   5
ENDBRANCH   3   4
ENDBRANCH   2   3
ENDBRANCH   1   2
BRANCH   1  10
ATOM     10  C   UNL     1      41.801  60.062  48.849  1.00  0.00     0.000 C 
BRANCH  10  11
ATOM     11  C   UNL     1      42.994  60.903  49.349  1.00  0.00    -0.000 C 
BRANCH  11  12
ATOM     12  C   UNL     1      44.335  60.394  48.793  1.00  0.00    -0.000 C 
BRANCH  12  13
ATOM     13  C   UNL     1      45.208  59.719  49.864  1.00  0.00    -0.000 C 
BRANCH  13  14
ATOM     14  C   UNL     1      45.622  58.290  49.474  1.00  0.00    -0.000 C 
BRANCH  14  15
ATOM     15  C   UNL     1      45.152  57.906  48.062  1.00  0.00    -0.003 C 
ATOM     16  C   UNL     1      44.542  56.506  47.999  1.00  0.00     0.004 C 
ENDBRANCH  14  15
ENDBRANCH  13  14
ENDBRANCH  12  13
ENDBRANCH  11  12
ENDBRANCH  10  11
ENDBRANCH   1  10
TORSDOF 12
ENDMDL
