MODEL 1
REMARK VINA RESULT:    -4.827      0.000      0.000
REMARK INTER + INTRA:         -10.288
REMARK INTER:                  -9.342
REMARK INTRA:                  -0.946
REMARK UNBOUND:                -0.946
REMARK SMILES CCCCCCCCCCCCCCCCCC(=O)[O-]
REMARK SMILES IDX 10 1 11 2 12 3 13 4 14 5 15 6 16 7 17 8 18 9 19 10 20 11
REMARK SMILES IDX 9 12 8 13 7 14 6 15 5 16 4 17 3 18 2 19 1 20
REMARK H PARENT
REMARK Flexibility Score: inf
ROOT
ATOM      1  C   UNL     1      19.505  23.578   3.736  1.00  0.00     0.000 C 
ENDROOT
BRANCH   1   2
ATOM      2  C   UNL     1      20.246  24.448   2.706  1.00  0.00     0.000 C 
BRANCH   2   3
ATOM      3  C   UNL     1      19.362  24.838   1.507  1.00  0.00     0.000 C 
BRANCH   3   4
ATOM      4  C   UNL     1      18.880  26.300   1.503  1.00  0.00     0.000 C 
BRANCH   4   5
ATOM      5  C   UNL     1      18.566  26.822   0.090  1.00  0.00     0.000 C 
BRANCH   5   6
ATOM      6  C   UNL     1      18.890  25.794  -1.006  1.00  0.00     0.000 C 
BRANCH   6   7
ATOM      7  C   UNL     1      17.657  24.977  -1.431  1.00  0.00     0.006 C 
BRANCH   7   8
ATOM      8  C   UNL     1      16.356  25.778  -1.294  1.00  0.00     0.053 C 
BRANCH   8   9
ATOM      9  C   UNL     1      15.233  25.155  -2.064  1.00  0.00     0.041 C 
ATOM     10  O   UNL     1      14.429  24.374  -1.491  1.00  0.00    -0.550 OA
ATOM     11  O   UNL     1      15.055  25.460  -3.408  1.00  0.00    -0.550 OA
ENDBRANCH   8   9
ENDBRANCH   7   8
ENDBRANCH   6   7
ENDBRANCH   5   6
ENDBRANCH   4   5
ENDBRANCH   3   4
ENDBRANCH   2   3
ENDBRANCH   1   2
BRANCH   1  12
ATOM     12  C   UNL     1      18.621  24.402   4.687  1.00  0.00     0.000 C 
BRANCH  12  13
ATOM     13  C   UNL     1      17.778  23.574   5.677  1.00  0.00    -0.000 C 
BRANCH  13  14
ATOM     14  C   UNL     1      16.731  22.666   4.997  1.00  0.00    -0.000 C 
BRANCH  14  15
ATOM     15  C   UNL     1      16.102  21.664   5.983  1.00  0.00    -0.000 C 
BRANCH  15  16
ATOM     16  C   UNL     1      14.560  21.655   5.907  1.00  0.00    -0.000 C 
BRANCH  16  17
ATOM     17  C   UNL     1      13.998  22.217   4.587  1.00  0.00    -0.000 C 
BRANCH  17  18
ATOM     18  C   UNL     1      13.130  23.478   4.738  1.00  0.00    -0.000 C 
BRANCH  18  19
ATOM     19  C   UNL     1      11.918  23.482   3.796  1.00  0.00    -0.003 C 
ATOM     20  C   UNL     1      12.041  22.388   2.739  1.00  0.00     0.004 C 
ENDBRANCH  18  19
ENDBRANCH  17  18
ENDBRANCH  16  17
ENDBRANCH  15  16
ENDBRANCH  14  15
ENDBRANCH  13  14
ENDBRANCH  12  13
ENDBRANCH   1  12
TORSDOF 16
ENDMDL
MODEL 2
REMARK VINA RESULT:    -4.374      0.796      1.471
REMARK INTER + INTRA:          -9.411
REMARK INTER:                  -8.337
REMARK INTRA:                  -1.075
REMARK UNBOUND:                -0.946
REMARK SMILES CCCCCCCCCCCCCCCCCC(=O)[O-]
REMARK SMILES IDX 10 1 11 2 12 3 13 4 14 5 15 6 16 7 17 8 18 9 19 10 20 11
REMARK SMILES IDX 9 12 8 13 7 14 6 15 5 16 4 17 3 18 2 19 1 20
REMARK H PARENT
REMARK Flexibility Score: inf
ROOT
ATOM      1  C   UNL     1      19.124  23.951   4.214  1.00  0.00     0.000 C 
ENDROOT
BRANCH   1   2
ATOM      2  C   UNL     1      19.308  25.443   3.888  1.00  0.00     0.000 C 
BRANCH   2   3
ATOM      3  C   UNL     1      19.202  25.743   2.381  1.00  0.00     0.000 C 
BRANCH   3   4
ATOM      4  C   UNL     1      19.210  24.503   1.470  1.00  0.00     0.000 C 
BRANCH   4   5
ATOM      5  C   UNL     1      19.132  24.860  -0.025  1.00  0.00     0.000 C 
BRANCH   5   6
ATOM      6  C   UNL     1      18.707  26.318  -0.264  1.00  0.00     0.000 C 
BRANCH   6   7
ATOM      7  C   UNL     1      17.314  26.428  -0.909  1.00  0.00     0.006 C 
BRANCH   7   8
ATOM      8  C   UNL     1      16.658  25.056  -1.105  1.00  0.00     0.053 C 
BRANCH   8   9
ATOM      9  C   UNL     1      15.453  25.135  -1.992  1.00  0.00     0.041 C 
ATOM     10  O   UNL     1      15.528  25.705  -3.112  1.00  0.00    -0.550 OA
ATOM     11  O   UNL     1      14.255  24.553  -1.595  1.00  0.00    -0.550 OA
ENDBRANCH   8   9
ENDBRANCH   7   8
ENDBRANCH   6   7
ENDBRANCH   5   6
ENDBRANCH   4   5
ENDBRANCH   3   4
ENDBRANCH   2   3
ENDBRANCH   1   2
BRANCH   1  12
ATOM     12  C   UNL     1      18.115  23.708   5.349  1.00  0.00     0.000 C 
BRANCH  12  13
ATOM     13  C   UNL     1      16.946  22.769   4.995  1.00  0.00    -0.000 C 
BRANCH  13  14
ATOM     14  C   UNL     1      16.229  22.173   6.225  1.00  0.00    -0.000 C 
BRANCH  14  15
ATOM     15  C   UNL     1      14.927  21.443   5.843  1.00  0.00    -0.000 C 
BRANCH  15  16
ATOM     16  C   UNL     1      14.242  22.071   4.610  1.00  0.00    -0.000 C 
BRANCH  16  17
ATOM     17  C   UNL     1      13.300  23.241   4.952  1.00  0.00    -0.000 C 
BRANCH  17  18
ATOM     18  C   UNL     1      12.278  23.589   3.856  1.00  0.00    -0.000 C 
BRANCH  18  19
ATOM     19  C   UNL     1      11.934  22.390   2.961  1.00  0.00    -0.003 C 
ATOM     20  C   UNL     1      10.482  22.454   2.493  1.00  0.00     0.004 C 
ENDBRANCH  18  19
ENDBRANCH  17  18
ENDBRANCH  16  17
ENDBRANCH  15  16
ENDBRANCH  14  15
ENDBRANCH  13  14
ENDBRANCH  12  13
ENDBRANCH   1  12
TORSDOF 16
ENDMDL
MODEL 3
REMARK VINA RESULT:    -4.318      2.282      6.562
REMARK INTER + INTRA:          -9.303
REMARK INTER:                  -8.272
REMARK INTRA:                  -1.031
REMARK UNBOUND:                -0.946
REMARK SMILES CCCCCCCCCCCCCCCCCC(=O)[O-]
REMARK SMILES IDX 10 1 11 2 12 3 13 4 14 5 15 6 16 7 17 8 18 9 19 10 20 11
REMARK SMILES IDX 9 12 8 13 7 14 6 15 5 16 4 17 3 18 2 19 1 20
REMARK H PARENT
REMARK Flexibility Score: inf
ROOT
ATOM      1  C   UNL     1      19.107  25.358   4.276  1.00  0.00     0.000 C 
ENDROOT
BRANCH   1   2
ATOM      2  C   UNL     1      18.847  23.850   4.431  1.00  0.00     0.000 C 
BRANCH   2   3
ATOM      3  C   UNL     1      17.951  23.519   5.639  1.00  0.00     0.000 C 
BRANCH   3   4
ATOM      4  C   UNL     1      16.504  23.127   5.289  1.00  0.00     0.000 C 
BRANCH   4   5
ATOM      5  C   UNL     1      16.155  21.690   5.714  1.00  0.00     0.000 C 
BRANCH   5   6
ATOM      6  C   UNL     1      14.648  21.491   5.944  1.00  0.00     0.000 C 
BRANCH   6   7
ATOM      7  C   UNL     1      13.806  22.639   5.359  1.00  0.00     0.006 C 
BRANCH   7   8
ATOM      8  C   UNL     1      13.272  22.310   3.960  1.00  0.00     0.053 C 
BRANCH   8   9
ATOM      9  C   UNL     1      12.121  23.191   3.580  1.00  0.00     0.041 C 
ATOM     10  O   UNL     1      12.216  24.441   3.698  1.00  0.00    -0.550 OA
ATOM     11  O   UNL     1      10.957  22.634   3.067  1.00  0.00    -0.550 OA
ENDBRANCH   8   9
ENDBRANCH   7   8
ENDBRANCH   6   7
ENDBRANCH   5   6
ENDBRANCH   4   5
ENDBRANCH   3   4
ENDBRANCH   2   3
ENDBRANCH   1   2
BRANCH   1  12
ATOM     12  C   UNL     1      19.261  25.790   2.808  1.00  0.00     0.000 C 
BRANCH  12  13
ATOM     13  C   UNL     1      19.623  24.656   1.828  1.00  0.00    -0.000 C 
BRANCH  13  14
ATOM     14  C   UNL     1      19.236  24.950   0.363  1.00  0.00    -0.000 C 
BRANCH  14  15
ATOM     15  C   UNL     1      18.782  26.408   0.162  1.00  0.00    -0.000 C 
BRANCH  15  16
ATOM     16  C   UNL     1      17.512  26.513  -0.709  1.00  0.00    -0.000 C 
BRANCH  16  17
ATOM     17  C   UNL     1      17.226  25.252  -1.547  1.00  0.00    -0.000 C 
BRANCH  17  18
ATOM     18  C   UNL     1      15.941  24.498  -1.164  1.00  0.00    -0.000 C 
BRANCH  18  19
ATOM     19  C   UNL     1      14.679  25.124  -1.778  1.00  0.00    -0.003 C 
ATOM     20  C   UNL     1      14.863  25.372  -3.273  1.00  0.00     0.004 C 
ENDBRANCH  18  19
ENDBRANCH  17  18
ENDBRANCH  16  17
ENDBRANCH  15  16
ENDBRANCH  14  15
ENDBRANCH  13  14
ENDBRANCH  12  13
ENDBRANCH   1  12
TORSDOF 16
ENDMDL
MODEL 4
REMARK VINA RESULT:    -4.267      2.132      6.469
REMARK INTER + INTRA:          -9.204
REMARK INTER:                  -8.128
REMARK INTRA:                  -1.076
REMARK UNBOUND:                -0.946
REMARK SMILES CCCCCCCCCCCCCCCCCC(=O)[O-]
REMARK SMILES IDX 10 1 11 2 12 3 13 4 14 5 15 6 16 7 17 8 18 9 19 10 20 11
REMARK SMILES IDX 9 12 8 13 7 14 6 15 5 16 4 17 3 18 2 19 1 20
REMARK H PARENT
REMARK Flexibility Score: inf
ROOT
ATOM      1  C   UNL     1      18.912  23.852   4.569  1.00  0.00     0.000 C 
ENDROOT
BRANCH   1   2
ATOM      2  C   UNL     1      17.748  23.471   5.500  1.00  0.00     0.000 C 
BRANCH   2   3
ATOM      3  C   UNL     1      16.812  22.415   4.884  1.00  0.00     0.000 C 
BRANCH   3   4
ATOM      4  C   UNL     1      15.665  21.949   5.800  1.00  0.00     0.000 C 
BRANCH   4   5
ATOM      5  C   UNL     1      14.283  22.071   5.135  1.00  0.00     0.000 C 
BRANCH   5   6
ATOM      6  C   UNL     1      13.657  23.462   5.323  1.00  0.00     0.000 C 
BRANCH   6   7
ATOM      7  C   UNL     1      12.524  23.739   4.318  1.00  0.00     0.006 C 
BRANCH   7   8
ATOM      8  C   UNL     1      12.464  22.682   3.209  1.00  0.00     0.053 C 
BRANCH   8   9
ATOM      9  C   UNL     1      11.078  22.526   2.661  1.00  0.00     0.041 C 
ATOM     10  O   UNL     1      10.083  22.882   3.345  1.00  0.00    -0.550 OA
ATOM     11  O   UNL     1      10.887  22.017   1.382  1.00  0.00    -0.550 OA
ENDBRANCH   8   9
ENDBRANCH   7   8
ENDBRANCH   6   7
ENDBRANCH   5   6
ENDBRANCH   4   5
ENDBRANCH   3   4
ENDBRANCH   2   3
ENDBRANCH   1   2
BRANCH   1  12
ATOM     12  C   UNL     1      18.866  25.325   4.127  1.00  0.00     0.000 C 
BRANCH  12  13
ATOM     13  C   UNL     1      19.580  25.630   2.796  1.00  0.00    -0.000 C 
BRANCH  13  14
ATOM     14  C   UNL     1      19.627  24.433   1.823  1.00  0.00    -0.000 C 
BRANCH  14  15
ATOM     15  C   UNL     1      18.862  24.714   0.517  1.00  0.00    -0.000 C 
BRANCH  15  16
ATOM     16  C   UNL     1      18.549  26.214   0.331  1.00  0.00    -0.000 C 
BRANCH  16  17
ATOM     17  C   UNL     1      17.483  26.499  -0.745  1.00  0.00    -0.000 C 
BRANCH  17  18
ATOM     18  C   UNL     1      17.158  25.309  -1.664  1.00  0.00    -0.000 C 
BRANCH  18  19
ATOM     19  C   UNL     1      15.803  25.456  -2.372  1.00  0.00    -0.003 C 
ATOM     20  C   UNL     1      14.700  24.744  -1.594  1.00  0.00     0.004 C 
ENDBRANCH  18  19
ENDBRANCH  17  18
ENDBRANCH  16  17
ENDBRANCH  15  16
ENDBRANCH  14  15
ENDBRANCH  13  14
ENDBRANCH  12  13
ENDBRANCH   1  12
TORSDOF 16
ENDMDL
MODEL 5
REMARK VINA RESULT:    -3.538     14.931     17.470
REMARK INTER + INTRA:          -7.794
REMARK INTER:                  -6.050
REMARK INTRA:                  -1.744
REMARK UNBOUND:                -0.946
REMARK SMILES CCCCCCCCCCCCCCCCCC(=O)[O-]
REMARK SMILES IDX 10 1 11 2 12 3 13 4 14 5 15 6 16 7 17 8 18 9 19 10 20 11
REMARK SMILES IDX 9 12 8 13 7 14 6 15 5 16 4 17 3 18 2 19 1 20
REMARK H PARENT
REMARK Flexibility Score: inf
ROOT
ATOM      1  C   UNL     1      24.565  33.063  13.098  1.00  0.00     0.000 C 
ENDROOT
BRANCH   1   2
ATOM      2  C   UNL     1      23.998  32.508  14.417  1.00  0.00     0.000 C 
BRANCH   2   3
ATOM      3  C   UNL     1      23.125  33.531  15.168  1.00  0.00     0.000 C 
BRANCH   3   4
ATOM      4  C   UNL     1      21.641  33.544  14.760  1.00  0.00     0.000 C 
BRANCH   4   5
ATOM      5  C   UNL     1      21.215  34.867  14.099  1.00  0.00     0.000 C 
BRANCH   5   6
ATOM      6  C   UNL     1      20.915  34.710  12.600  1.00  0.00     0.000 C 
BRANCH   6   7
ATOM      7  C   UNL     1      19.527  34.099  12.338  1.00  0.00     0.006 C 
BRANCH   7   8
ATOM      8  C   UNL     1      19.177  34.077  10.844  1.00  0.00     0.053 C 
BRANCH   8   9
ATOM      9  C   UNL     1      17.843  33.442  10.593  1.00  0.00     0.041 C 
ATOM     10  O   UNL     1      16.785  34.045  10.913  1.00  0.00    -0.550 OA
ATOM     11  O   UNL     1      17.769  32.199   9.978  1.00  0.00    -0.550 OA
ENDBRANCH   8   9
ENDBRANCH   7   8
ENDBRANCH   6   7
ENDBRANCH   5   6
ENDBRANCH   4   5
ENDBRANCH   3   4
ENDBRANCH   2   3
ENDBRANCH   1   2
BRANCH   1  12
ATOM     12  C   UNL     1      25.992  33.616  13.249  1.00  0.00     0.000 C 
BRANCH  12  13
ATOM     13  C   UNL     1      26.752  33.832  11.926  1.00  0.00    -0.000 C 
BRANCH  13  14
ATOM     14  C   UNL     1      27.081  35.311  11.630  1.00  0.00    -0.000 C 
BRANCH  14  15
ATOM     15  C   UNL     1      25.935  36.256  12.039  1.00  0.00    -0.000 C 
BRANCH  15  16
ATOM     16  C   UNL     1      26.449  37.538  12.728  1.00  0.00    -0.000 C 
BRANCH  16  17
ATOM     17  C   UNL     1      25.721  37.872  14.044  1.00  0.00    -0.000 C 
BRANCH  17  18
ATOM     18  C   UNL     1      25.111  36.661  14.770  1.00  0.00    -0.000 C 
BRANCH  18  19
ATOM     19  C   UNL     1      23.973  37.051  15.725  1.00  0.00    -0.003 C 
ATOM     20  C   UNL     1      23.027  38.053  15.068  1.00  0.00     0.004 C 
ENDBRANCH  18  19
ENDBRANCH  17  18
ENDBRANCH  16  17
ENDBRANCH  15  16
ENDBRANCH  14  15
ENDBRANCH  13  14
ENDBRANCH  12  13
ENDBRANCH   1  12
TORSDOF 16
ENDMDL
MODEL 6
REMARK VINA RESULT:    -3.493     14.510     17.048
REMARK INTER + INTRA:          -7.707
REMARK INTER:                  -5.562
REMARK INTRA:                  -2.145
REMARK UNBOUND:                -0.946
REMARK SMILES CCCCCCCCCCCCCCCCCC(=O)[O-]
REMARK SMILES IDX 10 1 11 2 12 3 13 4 14 5 15 6 16 7 17 8 18 9 19 10 20 11
REMARK SMILES IDX 9 12 8 13 7 14 6 15 5 16 4 17 3 18 2 19 1 20
REMARK H PARENT
REMARK Flexibility Score: inf
ROOT
ATOM      1  C   UNL     1      22.065  32.646  15.136  1.00  0.00     0.000 C 
ENDROOT
BRANCH   1   2
ATOM      2  C   UNL     1      23.524  32.514  14.667  1.00  0.00     0.000 C 
BRANCH   2   3
ATOM      3  C   UNL     1      23.732  32.994  13.218  1.00  0.00     0.000 C 
BRANCH   3   4
ATOM      4  C   UNL     1      22.462  33.003  12.348  1.00  0.00     0.000 C 
BRANCH   4   5
ATOM      5  C   UNL     1      22.042  34.419  11.918  1.00  0.00     0.000 C 
BRANCH   5   6
ATOM      6  C   UNL     1      20.793  34.917  12.663  1.00  0.00     0.000 C 
BRANCH   6   7
ATOM      7  C   UNL     1      19.546  34.070  12.354  1.00  0.00     0.006 C 
BRANCH   7   8
ATOM      8  C   UNL     1      19.128  34.170  10.882  1.00  0.00     0.053 C 
BRANCH   8   9
ATOM      9  C   UNL     1      17.835  33.461  10.619  1.00  0.00     0.041 C 
ATOM     10  O   UNL     1      16.744  33.981  10.972  1.00  0.00    -0.550 OA
ATOM     11  O   UNL     1      17.832  32.239   9.956  1.00  0.00    -0.550 OA
ENDBRANCH   8   9
ENDBRANCH   7   8
ENDBRANCH   6   7
ENDBRANCH   5   6
ENDBRANCH   4   5
ENDBRANCH   3   4
ENDBRANCH   2   3
ENDBRANCH   1   2
BRANCH   1  12
ATOM     12  C   UNL     1      21.805  33.942  15.923  1.00  0.00     0.000 C 
BRANCH  12  13
ATOM     13  C   UNL     1      22.991  34.925  15.970  1.00  0.00    -0.000 C 
BRANCH  13  14
ATOM     14  C   UNL     1      22.782  36.196  15.119  1.00  0.00    -0.000 C 
BRANCH  14  15
ATOM     15  C   UNL     1      23.978  37.162  15.212  1.00  0.00    -0.000 C 
BRANCH  15  16
ATOM     16  C   UNL     1      25.291  36.520  14.714  1.00  0.00    -0.000 C 
BRANCH  16  17
ATOM     17  C   UNL     1      25.702  36.965  13.297  1.00  0.00    -0.000 C 
BRANCH  17  18
ATOM     18  C   UNL     1      25.761  35.834  12.256  1.00  0.00    -0.000 C 
BRANCH  18  19
ATOM     19  C   UNL     1      26.945  34.882  12.477  1.00  0.00    -0.003 C 
ATOM     20  C   UNL     1      26.906  33.720  11.489  1.00  0.00     0.004 C 
ENDBRANCH  18  19
ENDBRANCH  17  18
ENDBRANCH  16  17
ENDBRANCH  15  16
ENDBRANCH  14  15
ENDBRANCH  13  14
ENDBRANCH  12  13
ENDBRANCH   1  12
TORSDOF 16
ENDMDL
MODEL 7
REMARK VINA RESULT:    -3.449     15.070     17.093
REMARK INTER + INTRA:          -7.622
REMARK INTER:                  -5.603
REMARK INTRA:                  -2.019
REMARK UNBOUND:                -0.946
REMARK SMILES CCCCCCCCCCCCCCCCCC(=O)[O-]
REMARK SMILES IDX 10 1 11 2 12 3 13 4 14 5 15 6 16 7 17 8 18 9 19 10 20 11
REMARK SMILES IDX 9 12 8 13 7 14 6 15 5 16 4 17 3 18 2 19 1 20
REMARK H PARENT
REMARK Flexibility Score: inf
ROOT
ATOM      1  C   UNL     1      21.964  34.052  16.064  1.00  0.00     0.000 C 
ENDROOT
BRANCH   1   2
ATOM      2  C   UNL     1      23.127  35.059  16.009  1.00  0.00     0.000 C 
BRANCH   2   3
ATOM      3  C   UNL     1      22.714  36.417  15.412  1.00  0.00     0.000 C 
BRANCH   3   4
ATOM      4  C   UNL     1      23.868  37.242  14.814  1.00  0.00     0.000 C 
BRANCH   4   5
ATOM      5  C   UNL     1      25.162  36.427  14.649  1.00  0.00     0.000 C 
BRANCH   5   6
ATOM      6  C   UNL     1      25.937  36.798  13.375  1.00  0.00     0.000 C 
BRANCH   6   7
ATOM      7  C   UNL     1      25.514  35.953  12.160  1.00  0.00     0.006 C 
BRANCH   7   8
ATOM      8  C   UNL     1      26.670  35.109  11.611  1.00  0.00     0.053 C 
BRANCH   8   9
ATOM      9  C   UNL     1      26.683  33.731  12.199  1.00  0.00     0.041 C 
ATOM     10  O   UNL     1      26.377  32.737  11.490  1.00  0.00    -0.550 OA
ATOM     11  O   UNL     1      27.063  33.541  13.522  1.00  0.00    -0.550 OA
ENDBRANCH   8   9
ENDBRANCH   7   8
ENDBRANCH   6   7
ENDBRANCH   5   6
ENDBRANCH   4   5
ENDBRANCH   3   4
ENDBRANCH   2   3
ENDBRANCH   1   2
BRANCH   1  12
ATOM     12  C   UNL     1      22.205  32.814  15.184  1.00  0.00     0.000 C 
BRANCH  12  13
ATOM     13  C   UNL     1      23.291  32.982  14.103  1.00  0.00    -0.000 C 
BRANCH  13  14
ATOM     14  C   UNL     1      22.746  32.938  12.659  1.00  0.00    -0.000 C 
BRANCH  14  15
ATOM     15  C   UNL     1      22.322  34.330  12.154  1.00  0.00    -0.000 C 
BRANCH  15  16
ATOM     16  C   UNL     1      20.987  34.797  12.773  1.00  0.00    -0.000 C 
BRANCH  16  17
ATOM     17  C   UNL     1      19.773  33.950  12.344  1.00  0.00    -0.000 C 
BRANCH  17  18
ATOM     18  C   UNL     1      19.234  34.259  10.937  1.00  0.00    -0.000 C 
BRANCH  18  19
ATOM     19  C   UNL     1      17.805  33.740  10.720  1.00  0.00    -0.003 C 
ATOM     20  C   UNL     1      17.816  32.365  10.059  1.00  0.00     0.004 C 
ENDBRANCH  18  19
ENDBRANCH  17  18
ENDBRANCH  16  17
ENDBRANCH  15  16
ENDBRANCH  14  15
ENDBRANCH  13  14
ENDBRANCH  12  13
ENDBRANCH   1  12
TORSDOF 16
ENDMDL
MODEL 8
REMARK VINA RESULT:    -3.026     15.995     17.942
REMARK INTER + INTRA:          -6.803
REMARK INTER:                  -5.517
REMARK INTRA:                  -1.286
REMARK UNBOUND:                -0.946
REMARK SMILES CCCCCCCCCCCCCCCCCC(=O)[O-]
REMARK SMILES IDX 10 1 11 2 12 3 13 4 14 5 15 6 16 7 17 8 18 9 19 10 20 11
REMARK SMILES IDX 9 12 8 13 7 14 6 15 5 16 4 17 3 18 2 19 1 20
REMARK H PARENT
REMARK Flexibility Score: inf
ROOT
ATOM      1  C   UNL     1      24.415  36.301  15.104  1.00  0.00     0.000 C 
ENDROOT
BRANCH   1   2
ATOM      2  C   UNL     1      25.371  37.285  15.800  1.00  0.00     0.000 C 
BRANCH   2   3
ATOM      3  C   UNL     1      26.432  37.863  14.845  1.00  0.00     0.000 C 
BRANCH   3   4
ATOM      4  C   UNL     1      25.942  38.122  13.409  1.00  0.00     0.000 C 
BRANCH   4   5
ATOM      5  C   UNL     1      27.062  37.985  12.362  1.00  0.00     0.000 C 
BRANCH   5   6
ATOM      6  C   UNL     1      26.883  36.753  11.461  1.00  0.00     0.000 C 
BRANCH   6   7
ATOM      7  C   UNL     1      26.998  35.431  12.241  1.00  0.00     0.006 C 
BRANCH   7   8
ATOM      8  C   UNL     1      27.123  34.219  11.310  1.00  0.00     0.053 C 
BRANCH   8   9
ATOM      9  C   UNL     1      26.225  33.096  11.731  1.00  0.00     0.041 C 
ATOM     10  O   UNL     1      25.699  33.102  12.875  1.00  0.00    -0.550 OA
ATOM     11  O   UNL     1      25.943  32.060  10.850  1.00  0.00    -0.550 OA
ENDBRANCH   8   9
ENDBRANCH   7   8
ENDBRANCH   6   7
ENDBRANCH   5   6
ENDBRANCH   4   5
ENDBRANCH   3   4
ENDBRANCH   2   3
ENDBRANCH   1   2
BRANCH   1  12
ATOM     12  C   UNL     1      23.767  35.306  16.083  1.00  0.00     0.000 C 
BRANCH  12  13
ATOM     13  C   UNL     1      24.133  33.828  15.849  1.00  0.00    -0.000 C 
BRANCH  13  14
ATOM     14  C   UNL     1      23.021  33.010  15.158  1.00  0.00    -0.000 C 
BRANCH  14  15
ATOM     15  C   UNL     1      21.786  32.829  16.060  1.00  0.00    -0.000 C 
BRANCH  15  16
ATOM     16  C   UNL     1      20.670  33.847  15.740  1.00  0.00    -0.000 C 
BRANCH  16  17
ATOM     17  C   UNL     1      20.963  34.725  14.508  1.00  0.00    -0.000 C 
BRANCH  17  18
ATOM     18  C   UNL     1      20.275  34.268  13.210  1.00  0.00    -0.000 C 
BRANCH  18  19
ATOM     19  C   UNL     1      21.064  34.655  11.951  1.00  0.00    -0.003 C 
ATOM     20  C   UNL     1      22.497  34.135  12.021  1.00  0.00     0.004 C 
ENDBRANCH  18  19
ENDBRANCH  17  18
ENDBRANCH  16  17
ENDBRANCH  15  16
ENDBRANCH  14  15
ENDBRANCH  13  14
ENDBRANCH  12  13
ENDBRANCH   1  12
TORSDOF 16
ENDMDL
MODEL 9
REMARK VINA RESULT:    -2.953     14.956     17.497
REMARK INTER + INTRA:          -6.661
REMARK INTER:                  -4.804
REMARK INTRA:                  -1.857
REMARK UNBOUND:                -0.946
REMARK SMILES CCCCCCCCCCCCCCCCCC(=O)[O-]
REMARK SMILES IDX 10 1 11 2 12 3 13 4 14 5 15 6 16 7 17 8 18 9 19 10 20 11
REMARK SMILES IDX 9 12 8 13 7 14 6 15 5 16 4 17 3 18 2 19 1 20
REMARK H PARENT
REMARK Flexibility Score: inf
ROOT
ATOM      1  C   UNL     1      24.063  35.412  16.104  1.00  0.00     0.000 C 
ENDROOT
BRANCH   1   2
ATOM      2  C   UNL     1      23.179  36.463  15.410  1.00  0.00     0.000 C 
BRANCH   2   3
ATOM      3  C   UNL     1      22.150  35.837  14.450  1.00  0.00     0.000 C 
BRANCH   3   4
ATOM      4  C   UNL     1      22.711  35.420  13.078  1.00  0.00     0.000 C 
BRANCH   4   5
ATOM      5  C   UNL     1      21.816  34.401  12.352  1.00  0.00     0.000 C 
BRANCH   5   6
ATOM      6  C   UNL     1      20.642  33.921  13.219  1.00  0.00     0.000 C 
BRANCH   6   7
ATOM      7  C   UNL     1      19.275  34.231  12.585  1.00  0.00     0.006 C 
BRANCH   7   8
ATOM      8  C   UNL     1      19.258  33.946  11.078  1.00  0.00     0.053 C 
BRANCH   8   9
ATOM      9  C   UNL     1      17.926  33.435  10.621  1.00  0.00     0.041 C 
ATOM     10  O   UNL     1      17.850  32.363   9.966  1.00  0.00    -0.550 OA
ATOM     11  O   UNL     1      16.766  34.127  10.945  1.00  0.00    -0.550 OA
ENDBRANCH   8   9
ENDBRANCH   7   8
ENDBRANCH   6   7
ENDBRANCH   5   6
ENDBRANCH   4   5
ENDBRANCH   3   4
ENDBRANCH   2   3
ENDBRANCH   1   2
BRANCH   1  12
ATOM     12  C   UNL     1      23.534  33.978  15.931  1.00  0.00     0.000 C 
BRANCH  12  13
ATOM     13  C   UNL     1      24.558  32.967  15.381  1.00  0.00    -0.000 C 
BRANCH  13  14
ATOM     14  C   UNL     1      26.024  33.314  15.721  1.00  0.00    -0.000 C 
BRANCH  14  15
ATOM     15  C   UNL     1      26.861  33.602  14.461  1.00  0.00    -0.000 C 
BRANCH  15  16
ATOM     16  C   UNL     1      25.989  33.739  13.194  1.00  0.00    -0.000 C 
BRANCH  16  17
ATOM     17  C   UNL     1      26.720  34.384  12.002  1.00  0.00    -0.000 C 
BRANCH  17  18
ATOM     18  C   UNL     1      27.119  35.855  12.207  1.00  0.00    -0.000 C 
BRANCH  18  19
ATOM     19  C   UNL     1      26.119  36.627  13.080  1.00  0.00    -0.003 C 
ATOM     20  C   UNL     1      26.411  38.125  13.054  1.00  0.00     0.004 C 
ENDBRANCH  18  19
ENDBRANCH  17  18
ENDBRANCH  16  17
ENDBRANCH  15  16
ENDBRANCH  14  15
ENDBRANCH  13  14
ENDBRANCH  12  13
ENDBRANCH   1  12
TORSDOF 16
ENDMDL
