MODEL 1
REMARK VINA RESULT:    -4.595      0.000      0.000
REMARK INTER + INTRA:          -5.906
REMARK INTER:                  -5.669
REMARK INTRA:                  -0.237
REMARK UNBOUND:                -0.237
REMARK SMILES Oc1cc(O)c2cc(O)c(-c3cc(O)c(O)c(O)c3)[o+]c2c1.[Cl-]
REMARK SMILES IDX 10 1 20 2 21 3 22 4 2 5 3 6 4 7 6 8 7 9 8 10 11 11 12 12
REMARK SMILES IDX 13 13 19 14 15 15 17 16 14 17 16 19 18 21 9 23 1 25 5 27
REMARK H PARENT 14 18 16 20 18 22 9 24 1 26 5 28
REMARK Flexibility Score: inf
ROOT
ATOM      1  C   UNL     1      13.027   8.807  17.633  1.00  0.00     0.402 A 
ATOM      2  O   UNL     1      14.116   9.032  16.903  1.00  0.00    -0.202 OA
ATOM      3  C   UNL     1      14.078   9.347  15.613  1.00  0.00     0.368 A 
ATOM      4  C   UNL     1      15.278   9.569  14.932  1.00  0.00     0.162 A 
ATOM      5  C   UNL     1      15.270   9.902  13.577  1.00  0.00     0.128 A 
ATOM      6  C   UNL     1      14.053  10.015  12.896  1.00  0.00     0.093 A 
ATOM      7  C   UNL     1      12.837   9.797  13.555  1.00  0.00     0.136 A 
ATOM      8  C   UNL     1      12.841   9.456  14.932  1.00  0.00     0.125 A 
ATOM      9  C   UNL     1      11.673   9.207  15.672  1.00  0.00     0.078 A 
ATOM     10  C   UNL     1      11.759   8.870  17.025  1.00  0.00     0.223 A 
ENDROOT
BRANCH   1  11
ATOM     11  C   UNL     1      13.198   8.476  19.066  1.00  0.00     0.091 A 
ATOM     12  C   UNL     1      13.715   9.411  19.976  1.00  0.00     0.068 A 
ATOM     13  C   UNL     1      13.891   9.072  21.326  1.00  0.00     0.162 A 
ATOM     14  C   UNL     1      12.891   7.182  19.516  1.00  0.00     0.068 A 
ATOM     15  C   UNL     1      13.560   7.781  21.771  1.00  0.00     0.200 A 
ATOM     16  C   UNL     1      13.064   6.836  20.863  1.00  0.00     0.162 A 
BRANCH  13  17
ATOM     17  O   UNL     1      14.399  10.010  22.223  1.00  0.00    -0.504 OA
ATOM     18  H   UNL     1      13.825  10.408  22.957  1.00  0.00     0.293 HD
ENDBRANCH  13  17
BRANCH  15  19
ATOM     19  O   UNL     1      13.722   7.420  23.108  1.00  0.00    -0.502 OA
ATOM     20  H   UNL     1      12.944   7.116  23.683  1.00  0.00     0.293 HD
ENDBRANCH  15  19
BRANCH  16  21
ATOM     21  O   UNL     1      12.745   5.555  21.307  1.00  0.00    -0.504 OA
ATOM     22  H   UNL     1      11.832   5.147  21.140  1.00  0.00     0.293 HD
ENDBRANCH  16  21
ENDBRANCH   1  11
BRANCH  10  23
ATOM     23  O   UNL     1      10.602   8.574  17.747  1.00  0.00    -0.500 OA
ATOM     24  H   UNL     1       9.682   8.830  17.407  1.00  0.00     0.294 HD
ENDBRANCH  10  23
BRANCH   5  25
ATOM     25  O   UNL     1      16.476  10.121  12.916  1.00  0.00    -0.507 OA
ATOM     26  H   UNL     1      17.359   9.819  13.310  1.00  0.00     0.293 HD
ENDBRANCH   5  25
BRANCH   7  27
ATOM     27  O   UNL     1      11.664   9.933  12.805  1.00  0.00    -0.507 OA
ATOM     28  H   UNL     1      11.629   9.929  11.796  1.00  0.00     0.293 HD
ENDBRANCH   7  27
TORSDOF 7
ENDMDL
MODEL 2
REMARK VINA RESULT:    -4.444     11.177     12.691
REMARK INTER + INTRA:          -5.720
REMARK INTER:                  -5.350
REMARK INTRA:                  -0.370
REMARK UNBOUND:                -0.237
REMARK SMILES Oc1cc(O)c2cc(O)c(-c3cc(O)c(O)c(O)c3)[o+]c2c1.[Cl-]
REMARK SMILES IDX 10 1 20 2 21 3 22 4 2 5 3 6 4 7 6 8 7 9 8 10 11 11 12 12
REMARK SMILES IDX 13 13 19 14 15 15 17 16 14 17 16 19 18 21 9 23 1 25 5 27
REMARK H PARENT 14 18 16 20 18 22 9 24 1 26 5 28
REMARK Flexibility Score: inf
ROOT
ATOM      1  C   UNL     1      10.344  -1.301  14.101  1.00  0.00     0.402 A 
ATOM      2  O   UNL     1      10.073  -2.436  13.462  1.00  0.00    -0.202 OA
ATOM      3  C   UNL     1      10.996  -3.345  13.166  1.00  0.00     0.368 A 
ATOM      4  C   UNL     1      10.613  -4.510  12.495  1.00  0.00     0.162 A 
ATOM      5  C   UNL     1      11.559  -5.483  12.174  1.00  0.00     0.128 A 
ATOM      6  C   UNL     1      12.900  -5.293  12.525  1.00  0.00     0.093 A 
ATOM      7  C   UNL     1      13.310  -4.136  13.198  1.00  0.00     0.136 A 
ATOM      8  C   UNL     1      12.351  -3.142  13.525  1.00  0.00     0.125 A 
ATOM      9  C   UNL     1      12.672  -1.945  14.186  1.00  0.00     0.078 A 
ATOM     10  C   UNL     1      11.672  -1.011  14.469  1.00  0.00     0.223 A 
ENDROOT
BRANCH   1  11
ATOM     11  C   UNL     1       9.227  -0.371  14.383  1.00  0.00     0.091 A 
ATOM     12  C   UNL     1       8.404  -0.536  15.509  1.00  0.00     0.068 A 
ATOM     13  C   UNL     1       7.337   0.342  15.748  1.00  0.00     0.162 A 
ATOM     14  C   UNL     1       8.947   0.665  13.478  1.00  0.00     0.068 A 
ATOM     15  C   UNL     1       7.079   1.390  14.848  1.00  0.00     0.200 A 
ATOM     16  C   UNL     1       7.882   1.546  13.711  1.00  0.00     0.162 A 
BRANCH  13  17
ATOM     17  O   UNL     1       6.531   0.174  16.872  1.00  0.00    -0.504 OA
ATOM     18  H   UNL     1       6.910   0.230  17.811  1.00  0.00     0.293 HD
ENDBRANCH  13  17
BRANCH  15  19
ATOM     19  O   UNL     1       6.025   2.278  15.064  1.00  0.00    -0.502 OA
ATOM     20  H   UNL     1       5.464   2.645  14.303  1.00  0.00     0.293 HD
ENDBRANCH  15  19
BRANCH  16  21
ATOM     21  O   UNL     1       7.616   2.581  12.816  1.00  0.00    -0.504 OA
ATOM     22  H   UNL     1       6.835   3.213  12.953  1.00  0.00     0.293 HD
ENDBRANCH  16  21
ENDBRANCH   1  11
BRANCH  10  23
ATOM     23  O   UNL     1      11.998   0.200  15.081  1.00  0.00    -0.500 OA
ATOM     24  H   UNL     1      11.392   1.011  15.013  1.00  0.00     0.294 HD
ENDBRANCH  10  23
BRANCH   5  25
ATOM     25  O   UNL     1      11.157  -6.637  11.505  1.00  0.00    -0.507 OA
ATOM     26  H   UNL     1      11.424  -6.812  10.543  1.00  0.00     0.293 HD
ENDBRANCH   5  25
BRANCH   7  27
ATOM     27  O   UNL     1      14.667  -4.023  13.518  1.00  0.00    -0.507 OA
ATOM     28  H   UNL     1      15.203  -4.738  13.987  1.00  0.00     0.293 HD
ENDBRANCH   7  27
TORSDOF 7
ENDMDL
MODEL 3
REMARK VINA RESULT:    -4.430     11.143     12.609
REMARK INTER + INTRA:          -5.703
REMARK INTER:                  -5.340
REMARK INTRA:                  -0.363
REMARK UNBOUND:                -0.237
REMARK SMILES Oc1cc(O)c2cc(O)c(-c3cc(O)c(O)c(O)c3)[o+]c2c1.[Cl-]
REMARK SMILES IDX 10 1 20 2 21 3 22 4 2 5 3 6 4 7 6 8 7 9 8 10 11 11 12 12
REMARK SMILES IDX 13 13 19 14 15 15 17 16 14 17 16 19 18 21 9 23 1 25 5 27
REMARK H PARENT 14 18 16 20 18 22 9 24 1 26 5 28
REMARK Flexibility Score: inf
ROOT
ATOM      1  C   UNL     1      10.294  -1.268  14.080  1.00  0.00     0.402 A 
ATOM      2  O   UNL     1      10.049  -2.416  13.455  1.00  0.00    -0.202 OA
ATOM      3  C   UNL     1      10.990  -3.313  13.180  1.00  0.00     0.368 A 
ATOM      4  C   UNL     1      10.633  -4.494  12.522  1.00  0.00     0.162 A 
ATOM      5  C   UNL     1      11.599  -5.455  12.223  1.00  0.00     0.128 A 
ATOM      6  C   UNL     1      12.933  -5.237  12.583  1.00  0.00     0.093 A 
ATOM      7  C   UNL     1      13.317  -4.063  13.243  1.00  0.00     0.136 A 
ATOM      8  C   UNL     1      12.338  -3.081  13.547  1.00  0.00     0.125 A 
ATOM      9  C   UNL     1      12.632  -1.870  14.194  1.00  0.00     0.078 A 
ATOM     10  C   UNL     1      11.613  -0.950  14.456  1.00  0.00     0.223 A 
ENDROOT
BRANCH   1  11
ATOM     11  C   UNL     1       9.159  -0.354  14.340  1.00  0.00     0.091 A 
ATOM     12  C   UNL     1       8.875   0.722  13.483  1.00  0.00     0.068 A 
ATOM     13  C   UNL     1       7.808   1.590  13.758  1.00  0.00     0.162 A 
ATOM     14  C   UNL     1       8.382  -0.530  15.496  1.00  0.00     0.068 A 
ATOM     15  C   UNL     1       7.022   1.391  14.906  1.00  0.00     0.200 A 
ATOM     16  C   UNL     1       7.315   0.333  15.775  1.00  0.00     0.162 A 
BRANCH  13  17
ATOM     17  O   UNL     1       7.530   2.651  12.898  1.00  0.00    -0.504 OA
ATOM     18  H   UNL     1       7.551   3.613  13.216  1.00  0.00     0.293 HD
ENDBRANCH  13  17
BRANCH  15  19
ATOM     19  O   UNL     1       5.954   2.239  15.199  1.00  0.00    -0.502 OA
ATOM     20  H   UNL     1       5.492   2.791  14.485  1.00  0.00     0.293 HD
ENDBRANCH  15  19
BRANCH  16  21
ATOM     21  O   UNL     1       6.538   0.145  16.917  1.00  0.00    -0.504 OA
ATOM     22  H   UNL     1       6.479   0.852  17.641  1.00  0.00     0.293 HD
ENDBRANCH  16  21
ENDBRANCH   1  11
BRANCH  10  23
ATOM     23  O   UNL     1      11.913   0.275  15.053  1.00  0.00    -0.500 OA
ATOM     24  H   UNL     1      11.631   1.155  14.633  1.00  0.00     0.294 HD
ENDBRANCH  10  23
BRANCH   5  25
ATOM     25  O   UNL     1      11.223  -6.625  11.567  1.00  0.00    -0.507 OA
ATOM     26  H   UNL     1      11.551  -6.837  10.632  1.00  0.00     0.293 HD
ENDBRANCH   5  25
BRANCH   7  27
ATOM     27  O   UNL     1      14.668  -3.921  13.573  1.00  0.00    -0.507 OA
ATOM     28  H   UNL     1      15.184  -4.566  14.154  1.00  0.00     0.293 HD
ENDBRANCH   7  27
TORSDOF 7
ENDMDL
MODEL 4
REMARK VINA RESULT:    -4.354      8.948      9.997
REMARK INTER + INTRA:          -5.609
REMARK INTER:                  -5.368
REMARK INTRA:                  -0.240
REMARK UNBOUND:                -0.237
REMARK SMILES Oc1cc(O)c2cc(O)c(-c3cc(O)c(O)c(O)c3)[o+]c2c1.[Cl-]
REMARK SMILES IDX 10 1 20 2 21 3 22 4 2 5 3 6 4 7 6 8 7 9 8 10 11 11 12 12
REMARK SMILES IDX 13 13 19 14 15 15 17 16 14 17 16 19 18 21 9 23 1 25 5 27
REMARK H PARENT 14 18 16 20 18 22 9 24 1 26 5 28
REMARK Flexibility Score: inf
ROOT
ATOM      1  C   UNL     1      10.951   0.108  14.150  1.00  0.00     0.402 A 
ATOM      2  O   UNL     1      11.301   1.308  13.695  1.00  0.00    -0.202 OA
ATOM      3  C   UNL     1      10.436   2.170  13.168  1.00  0.00     0.368 A 
ATOM      4  C   UNL     1      10.899   3.410  12.720  1.00  0.00     0.162 A 
ATOM      5  C   UNL     1      10.015   4.335  12.166  1.00  0.00     0.128 A 
ATOM      6  C   UNL     1       8.656   4.021  12.057  1.00  0.00     0.093 A 
ATOM      7  C   UNL     1       8.166   2.785  12.498  1.00  0.00     0.136 A 
ATOM      8  C   UNL     1       9.063   1.840  13.061  1.00  0.00     0.125 A 
ATOM      9  C   UNL     1       8.665   0.573  13.518  1.00  0.00     0.078 A 
ATOM     10  C   UNL     1       9.609  -0.306  14.056  1.00  0.00     0.223 A 
ENDROOT
BRANCH   1  11
ATOM     11  C   UNL     1      12.005  -0.758  14.725  1.00  0.00     0.091 A 
ATOM     12  C   UNL     1      12.670  -0.411  15.912  1.00  0.00     0.068 A 
ATOM     13  C   UNL     1      13.681  -1.234  16.430  1.00  0.00     0.162 A 
ATOM     14  C   UNL     1      12.389  -1.923  14.041  1.00  0.00     0.068 A 
ATOM     15  C   UNL     1      14.043  -2.410  15.750  1.00  0.00     0.200 A 
ATOM     16  C   UNL     1      13.398  -2.749  14.553  1.00  0.00     0.162 A 
BRANCH  13  17
ATOM     17  O   UNL     1      14.331  -0.884  17.612  1.00  0.00    -0.504 OA
ATOM     18  H   UNL     1      13.865  -0.939  18.510  1.00  0.00     0.293 HD
ENDBRANCH  13  17
BRANCH  15  19
ATOM     19  O   UNL     1      15.043  -3.246  16.245  1.00  0.00    -0.502 OA
ATOM     20  H   UNL     1      15.659  -2.962  16.999  1.00  0.00     0.293 HD
ENDBRANCH  15  19
BRANCH  16  21
ATOM     21  O   UNL     1      13.766  -3.912  13.879  1.00  0.00    -0.504 OA
ATOM     22  H   UNL     1      13.992  -3.903  12.890  1.00  0.00     0.293 HD
ENDBRANCH  16  21
ENDBRANCH   1  11
BRANCH  10  23
ATOM     23  O   UNL     1       9.223  -1.584  14.463  1.00  0.00    -0.500 OA
ATOM     24  H   UNL     1       9.642  -2.418  14.067  1.00  0.00     0.294 HD
ENDBRANCH  10  23
BRANCH   5  25
ATOM     25  O   UNL     1      10.496   5.566  11.726  1.00  0.00    -0.507 OA
ATOM     26  H   UNL     1      10.937   6.221  12.361  1.00  0.00     0.293 HD
ENDBRANCH   5  25
BRANCH   7  27
ATOM     27  O   UNL     1       6.795   2.548  12.358  1.00  0.00    -0.507 OA
ATOM     28  H   UNL     1       6.142   2.509  13.128  1.00  0.00     0.293 HD
ENDBRANCH   7  27
TORSDOF 7
ENDMDL
MODEL 5
REMARK VINA RESULT:    -4.116      9.376     11.075
REMARK INTER + INTRA:          -5.315
REMARK INTER:                  -4.947
REMARK INTRA:                  -0.368
REMARK UNBOUND:                -0.237
REMARK SMILES Oc1cc(O)c2cc(O)c(-c3cc(O)c(O)c(O)c3)[o+]c2c1.[Cl-]
REMARK SMILES IDX 10 1 20 2 21 3 22 4 2 5 3 6 4 7 6 8 7 9 8 10 11 11 12 12
REMARK SMILES IDX 13 13 19 14 15 15 17 16 14 17 16 19 18 21 9 23 1 25 5 27
REMARK H PARENT 14 18 16 20 18 22 9 24 1 26 5 28
REMARK Flexibility Score: inf
ROOT
ATOM      1  C   UNL     1      10.552   0.082  14.577  1.00  0.00     0.402 A 
ATOM      2  O   UNL     1       9.440  -0.135  15.276  1.00  0.00    -0.202 OA
ATOM      3  C   UNL     1       8.302   0.514  15.057  1.00  0.00     0.368 A 
ATOM      4  C   UNL     1       7.186   0.214  15.843  1.00  0.00     0.162 A 
ATOM      5  C   UNL     1       5.977   0.877  15.635  1.00  0.00     0.128 A 
ATOM      6  C   UNL     1       5.880   1.850  14.634  1.00  0.00     0.093 A 
ATOM      7  C   UNL     1       6.983   2.170  13.833  1.00  0.00     0.136 A 
ATOM      8  C   UNL     1       8.215   1.499  14.043  1.00  0.00     0.125 A 
ATOM      9  C   UNL     1       9.377   1.763  13.298  1.00  0.00     0.078 A 
ATOM     10  C   UNL     1      10.556   1.063  13.567  1.00  0.00     0.223 A 
ENDROOT
BRANCH   1  11
ATOM     11  C   UNL     1      11.755  -0.714  14.908  1.00  0.00     0.091 A 
ATOM     12  C   UNL     1      12.132  -1.826  14.137  1.00  0.00     0.068 A 
ATOM     13  C   UNL     1      13.263  -2.581  14.479  1.00  0.00     0.162 A 
ATOM     14  C   UNL     1      12.506  -0.387  16.048  1.00  0.00     0.068 A 
ATOM     15  C   UNL     1      14.021  -2.232  15.609  1.00  0.00     0.200 A 
ATOM     16  C   UNL     1      13.637  -1.137  16.395  1.00  0.00     0.162 A 
BRANCH  13  17
ATOM     17  O   UNL     1      13.632  -3.679  13.703  1.00  0.00    -0.504 OA
ATOM     18  H   UNL     1      13.053  -4.509  13.648  1.00  0.00     0.293 HD
ENDBRANCH  13  17
BRANCH  15  19
ATOM     19  O   UNL     1      15.152  -2.965  15.969  1.00  0.00    -0.502 OA
ATOM     20  H   UNL     1      15.101  -3.766  16.588  1.00  0.00     0.293 HD
ENDBRANCH  15  19
BRANCH  16  21
ATOM     21  O   UNL     1      14.388  -0.800  17.519  1.00  0.00    -0.504 OA
ATOM     22  H   UNL     1      13.949  -0.460  18.368  1.00  0.00     0.293 HD
ENDBRANCH  16  21
ENDBRANCH   1  11
BRANCH  10  23
ATOM     23  O   UNL     1      11.723   1.361  12.862  1.00  0.00    -0.500 OA
ATOM     24  H   UNL     1      12.327   2.129  13.133  1.00  0.00     0.294 HD
ENDBRANCH  10  23
BRANCH   5  25
ATOM     25  O   UNL     1       4.876   0.563  16.428  1.00  0.00    -0.507 OA
ATOM     26  H   UNL     1       4.058   0.104  16.043  1.00  0.00     0.293 HD
ENDBRANCH   5  25
BRANCH   7  27
ATOM     27  O   UNL     1       6.804   3.151  12.853  1.00  0.00    -0.507 OA
ATOM     28  H   UNL     1       7.546   3.526  12.279  1.00  0.00     0.293 HD
ENDBRANCH   7  27
TORSDOF 7
ENDMDL
MODEL 6
REMARK VINA RESULT:    -4.098      3.273      8.603
REMARK INTER + INTRA:          -5.293
REMARK INTER:                  -5.035
REMARK INTRA:                  -0.258
REMARK UNBOUND:                -0.237
REMARK SMILES Oc1cc(O)c2cc(O)c(-c3cc(O)c(O)c(O)c3)[o+]c2c1.[Cl-]
REMARK SMILES IDX 10 1 20 2 21 3 22 4 2 5 3 6 4 7 6 8 7 9 8 10 11 11 12 12
REMARK SMILES IDX 13 13 19 14 15 15 17 16 14 17 16 19 18 21 9 23 1 25 5 27
REMARK H PARENT 14 18 16 20 18 22 9 24 1 26 5 28
REMARK Flexibility Score: inf
ROOT
ATOM      1  C   UNL     1      12.215   8.197  21.710  1.00  0.00     0.402 A 
ATOM      2  O   UNL     1      10.987   8.516  22.112  1.00  0.00    -0.202 OA
ATOM      3  C   UNL     1      10.623   8.545  23.389  1.00  0.00     0.368 A 
ATOM      4  C   UNL     1       9.309   8.895  23.713  1.00  0.00     0.162 A 
ATOM      5  C   UNL     1       8.897   8.936  25.046  1.00  0.00     0.128 A 
ATOM      6  C   UNL     1       9.805   8.625  26.065  1.00  0.00     0.093 A 
ATOM      7  C   UNL     1      11.126   8.271  25.766  1.00  0.00     0.136 A 
ATOM      8  C   UNL     1      11.548   8.225  24.412  1.00  0.00     0.125 A 
ATOM      9  C   UNL     1      12.848   7.868  24.019  1.00  0.00     0.078 A 
ATOM     10  C   UNL     1      13.188   7.842  22.664  1.00  0.00     0.223 A 
ENDROOT
BRANCH   1  11
ATOM     11  C   UNL     1      12.503   8.211  20.258  1.00  0.00     0.091 A 
ATOM     12  C   UNL     1      11.936   7.264  19.389  1.00  0.00     0.068 A 
ATOM     13  C   UNL     1      12.238   7.281  18.020  1.00  0.00     0.162 A 
ATOM     14  C   UNL     1      13.406   9.155  19.743  1.00  0.00     0.068 A 
ATOM     15  C   UNL     1      13.126   8.244  17.511  1.00  0.00     0.200 A 
ATOM     16  C   UNL     1      13.712   9.177  18.376  1.00  0.00     0.162 A 
BRANCH  13  17
ATOM     17  O   UNL     1      11.664   6.341  17.166  1.00  0.00    -0.504 OA
ATOM     18  H   UNL     1      11.565   5.369  17.435  1.00  0.00     0.293 HD
ENDBRANCH  13  17
BRANCH  15  19
ATOM     19  O   UNL     1      13.440   8.283  16.153  1.00  0.00    -0.502 OA
ATOM     20  H   UNL     1      13.503   9.155  15.639  1.00  0.00     0.293 HD
ENDBRANCH  15  19
BRANCH  16  21
ATOM     21  O   UNL     1      14.598  10.125  17.868  1.00  0.00    -0.504 OA
ATOM     22  H   UNL     1      15.441  10.386  18.368  1.00  0.00     0.293 HD
ENDBRANCH  16  21
ENDBRANCH   1  11
BRANCH  10  23
ATOM     23  O   UNL     1      14.464   7.439  22.269  1.00  0.00    -0.500 OA
ATOM     24  H   UNL     1      14.638   6.512  21.895  1.00  0.00     0.294 HD
ENDBRANCH  10  23
BRANCH   5  25
ATOM     25  O   UNL     1       7.584   9.289  25.348  1.00  0.00    -0.507 OA
ATOM     26  H   UNL     1       6.811   8.661  25.164  1.00  0.00     0.293 HD
ENDBRANCH   5  25
BRANCH   7  27
ATOM     27  O   UNL     1      11.972   7.977  26.841  1.00  0.00    -0.507 OA
ATOM     28  H   UNL     1      12.400   8.672  27.436  1.00  0.00     0.293 HD
ENDBRANCH   7  27
TORSDOF 7
ENDMDL
MODEL 7
REMARK VINA RESULT:    -4.018      4.716      8.115
REMARK INTER + INTRA:          -5.195
REMARK INTER:                  -4.852
REMARK INTRA:                  -0.343
REMARK UNBOUND:                -0.237
REMARK SMILES Oc1cc(O)c2cc(O)c(-c3cc(O)c(O)c(O)c3)[o+]c2c1.[Cl-]
REMARK SMILES IDX 10 1 20 2 21 3 22 4 2 5 3 6 4 7 6 8 7 9 8 10 11 11 12 12
REMARK SMILES IDX 13 13 19 14 15 15 17 16 14 17 16 19 18 21 9 23 1 25 5 27
REMARK H PARENT 14 18 16 20 18 22 9 24 1 26 5 28
REMARK Flexibility Score: inf
ROOT
ATOM      1  C   UNL     1      12.468   8.296  25.239  1.00  0.00     0.402 A 
ATOM      2  O   UNL     1      12.214   7.617  24.123  1.00  0.00    -0.202 OA
ATOM      3  C   UNL     1      12.816   7.864  22.965  1.00  0.00     0.368 A 
ATOM      4  C   UNL     1      12.483   7.094  21.847  1.00  0.00     0.162 A 
ATOM      5  C   UNL     1      13.101   7.328  20.619  1.00  0.00     0.128 A 
ATOM      6  C   UNL     1      14.060   8.342  20.504  1.00  0.00     0.093 A 
ATOM      7  C   UNL     1      14.411   9.128  21.608  1.00  0.00     0.136 A 
ATOM      8  C   UNL     1      13.783   8.893  22.859  1.00  0.00     0.125 A 
ATOM      9  C   UNL     1      14.062   9.639  24.016  1.00  0.00     0.078 A 
ATOM     10  C   UNL     1      13.399   9.352  25.212  1.00  0.00     0.223 A 
ENDROOT
BRANCH   1  11
ATOM     11  C   UNL     1      11.740   7.918  26.471  1.00  0.00     0.091 A 
ATOM     12  C   UNL     1      12.366   7.196  27.500  1.00  0.00     0.068 A 
ATOM     13  C   UNL     1      11.653   6.829  28.651  1.00  0.00     0.162 A 
ATOM     14  C   UNL     1      10.378   8.239  26.592  1.00  0.00     0.068 A 
ATOM     15  C   UNL     1      10.296   7.174  28.772  1.00  0.00     0.200 A 
ATOM     16  C   UNL     1       9.660   7.875  27.739  1.00  0.00     0.162 A 
BRANCH  13  17
ATOM     17  O   UNL     1      12.286   6.118  29.669  1.00  0.00    -0.504 OA
ATOM     18  H   UNL     1      12.064   5.147  29.855  1.00  0.00     0.293 HD
ENDBRANCH  13  17
BRANCH  15  19
ATOM     19  O   UNL     1       9.566   6.823  29.907  1.00  0.00    -0.502 OA
ATOM     20  H   UNL     1       9.856   6.072  30.524  1.00  0.00     0.293 HD
ENDBRANCH  15  19
BRANCH  16  21
ATOM     21  O   UNL     1       8.312   8.207  27.861  1.00  0.00    -0.504 OA
ATOM     22  H   UNL     1       7.757   7.893  28.649  1.00  0.00     0.293 HD
ENDBRANCH  16  21
ENDBRANCH   1  11
BRANCH  10  23
ATOM     23  O   UNL     1      13.638  10.125  26.349  1.00  0.00    -0.500 OA
ATOM     24  H   UNL     1      12.896  10.642  26.807  1.00  0.00     0.294 HD
ENDBRANCH  10  23
BRANCH   5  25
ATOM     25  O   UNL     1      12.757   6.549  19.517  1.00  0.00    -0.507 OA
ATOM     26  H   UNL     1      13.459   6.194  18.878  1.00  0.00     0.293 HD
ENDBRANCH   5  25
BRANCH   7  27
ATOM     27  O   UNL     1      15.380  10.117  21.413  1.00  0.00    -0.507 OA
ATOM     28  H   UNL     1      15.383  10.767  20.640  1.00  0.00     0.293 HD
ENDBRANCH   7  27
TORSDOF 7
ENDMDL
MODEL 8
REMARK VINA RESULT:    -3.965      9.696     10.918
REMARK INTER + INTRA:          -5.129
REMARK INTER:                  -4.760
REMARK INTRA:                  -0.368
REMARK UNBOUND:                -0.237
REMARK SMILES Oc1cc(O)c2cc(O)c(-c3cc(O)c(O)c(O)c3)[o+]c2c1.[Cl-]
REMARK SMILES IDX 10 1 20 2 21 3 22 4 2 5 3 6 4 7 6 8 7 9 8 10 11 11 12 12
REMARK SMILES IDX 13 13 19 14 15 15 17 16 14 17 16 19 18 21 9 23 1 25 5 27
REMARK H PARENT 14 18 16 20 18 22 9 24 1 26 5 28
REMARK Flexibility Score: inf
ROOT
ATOM      1  C   UNL     1       8.546   0.546  14.544  1.00  0.00     0.402 A 
ATOM      2  O   UNL     1       8.375   1.451  13.583  1.00  0.00    -0.202 OA
ATOM      3  C   UNL     1       7.313   2.246  13.511  1.00  0.00     0.368 A 
ATOM      4  C   UNL     1       7.225   3.169  12.464  1.00  0.00     0.162 A 
ATOM      5  C   UNL     1       6.123   4.019  12.364  1.00  0.00     0.128 A 
ATOM      6  C   UNL     1       5.100   3.948  13.316  1.00  0.00     0.093 A 
ATOM      7  C   UNL     1       5.164   3.032  14.373  1.00  0.00     0.136 A 
ATOM      8  C   UNL     1       6.282   2.164  14.478  1.00  0.00     0.125 A 
ATOM      9  C   UNL     1       6.425   1.207  15.496  1.00  0.00     0.078 A 
ATOM     10  C   UNL     1       7.554   0.384  15.529  1.00  0.00     0.223 A 
ENDROOT
BRANCH   1  11
ATOM     11  C   UNL     1       9.778  -0.275  14.523  1.00  0.00     0.091 A 
ATOM     12  C   UNL     1      10.871   0.025  15.353  1.00  0.00     0.068 A 
ATOM     13  C   UNL     1      12.038  -0.751  15.303  1.00  0.00     0.162 A 
ATOM     14  C   UNL     1       9.881  -1.341  13.615  1.00  0.00     0.068 A 
ATOM     15  C   UNL     1      12.123  -1.830  14.407  1.00  0.00     0.200 A 
ATOM     16  C   UNL     1      11.044  -2.120  13.561  1.00  0.00     0.162 A 
BRANCH  13  17
ATOM     17  O   UNL     1      13.114  -0.450  16.136  1.00  0.00    -0.504 OA
ATOM     18  H   UNL     1      12.979  -0.193  17.107  1.00  0.00     0.293 HD
ENDBRANCH  13  17
BRANCH  15  19
ATOM     19  O   UNL     1      13.271  -2.619  14.341  1.00  0.00    -0.502 OA
ATOM     20  H   UNL     1      13.620  -2.991  13.464  1.00  0.00     0.293 HD
ENDBRANCH  15  19
BRANCH  16  21
ATOM     21  O   UNL     1      11.137  -3.186  12.668  1.00  0.00    -0.504 OA
ATOM     22  H   UNL     1      10.313  -3.683  12.348  1.00  0.00     0.293 HD
ENDBRANCH  16  21
ENDBRANCH   1  11
BRANCH  10  23
ATOM     23  O   UNL     1       7.673  -0.601  16.510  1.00  0.00    -0.500 OA
ATOM     24  H   UNL     1       7.581  -1.587  16.289  1.00  0.00     0.294 HD
ENDBRANCH  10  23
BRANCH   5  25
ATOM     25  O   UNL     1       6.054   4.932  11.315  1.00  0.00    -0.507 OA
ATOM     26  H   UNL     1       5.306   5.613  11.252  1.00  0.00     0.293 HD
ENDBRANCH   5  25
BRANCH   7  27
ATOM     27  O   UNL     1       4.104   3.026  15.285  1.00  0.00    -0.507 OA
ATOM     28  H   UNL     1       3.278   2.452  15.195  1.00  0.00     0.293 HD
ENDBRANCH   7  27
TORSDOF 7
ENDMDL
MODEL 9
REMARK VINA RESULT:    -3.948      3.117      8.215
REMARK INTER + INTRA:          -5.108
REMARK INTER:                  -4.738
REMARK INTRA:                  -0.370
REMARK UNBOUND:                -0.237
REMARK SMILES Oc1cc(O)c2cc(O)c(-c3cc(O)c(O)c(O)c3)[o+]c2c1.[Cl-]
REMARK SMILES IDX 10 1 20 2 21 3 22 4 2 5 3 6 4 7 6 8 7 9 8 10 11 11 12 12
REMARK SMILES IDX 13 13 19 14 15 15 17 16 14 17 16 19 18 21 9 23 1 25 5 27
REMARK H PARENT 14 18 16 20 18 22 9 24 1 26 5 28
REMARK Flexibility Score: inf
ROOT
ATOM      1  C   UNL     1      12.613   8.879  21.158  1.00  0.00     0.402 A 
ATOM      2  O   UNL     1      11.744   8.494  22.089  1.00  0.00    -0.202 OA
ATOM      3  C   UNL     1      11.939   8.681  23.390  1.00  0.00     0.368 A 
ATOM      4  C   UNL     1      10.966   8.245  24.293  1.00  0.00     0.162 A 
ATOM      5  C   UNL     1      11.141   8.430  25.665  1.00  0.00     0.128 A 
ATOM      6  C   UNL     1      12.299   9.056  26.140  1.00  0.00     0.093 A 
ATOM      7  C   UNL     1      13.289   9.502  25.256  1.00  0.00     0.136 A 
ATOM      8  C   UNL     1      13.115   9.314  23.861  1.00  0.00     0.125 A 
ATOM      9  C   UNL     1      14.059   9.717  22.902  1.00  0.00     0.078 A 
ATOM     10  C   UNL     1      13.819   9.492  21.544  1.00  0.00     0.223 A 
ENDROOT
BRANCH   1  11
ATOM     11  C   UNL     1      12.277   8.624  19.738  1.00  0.00     0.091 A 
ATOM     12  C   UNL     1      11.465   9.508  19.008  1.00  0.00     0.068 A 
ATOM     13  C   UNL     1      11.140   9.238  17.671  1.00  0.00     0.162 A 
ATOM     14  C   UNL     1      12.732   7.447  19.123  1.00  0.00     0.068 A 
ATOM     15  C   UNL     1      11.619   8.068  17.057  1.00  0.00     0.200 A 
ATOM     16  C   UNL     1      12.411   7.172  17.787  1.00  0.00     0.162 A 
BRANCH  13  17
ATOM     17  O   UNL     1      10.340  10.125  16.953  1.00  0.00    -0.504 OA
ATOM     18  H   UNL     1       9.355  10.240  17.163  1.00  0.00     0.293 HD
ENDBRANCH  13  17
BRANCH  15  19
ATOM     19  O   UNL     1      11.313   7.779  15.727  1.00  0.00    -0.502 OA
ATOM     20  H   UNL     1      10.389   7.473  15.441  1.00  0.00     0.293 HD
ENDBRANCH  15  19
BRANCH  16  21
ATOM     21  O   UNL     1      12.876   6.009  17.176  1.00  0.00    -0.504 OA
ATOM     22  H   UNL     1      12.308   5.171  17.128  1.00  0.00     0.293 HD
ENDBRANCH  16  21
ENDBRANCH   1  11
BRANCH  10  23
ATOM     23  O   UNL     1      14.779   9.846  20.595  1.00  0.00    -0.500 OA
ATOM     24  H   UNL     1      14.846  10.791  20.232  1.00  0.00     0.294 HD
ENDBRANCH  10  23
BRANCH   5  25
ATOM     25  O   UNL     1      10.159   7.988  26.549  1.00  0.00    -0.507 OA
ATOM     26  H   UNL     1       9.907   8.524  27.371  1.00  0.00     0.293 HD
ENDBRANCH   5  25
BRANCH   7  27
ATOM     27  O   UNL     1      14.414  10.122  25.809  1.00  0.00    -0.507 OA
ATOM     28  H   UNL     1      14.657  10.093  26.789  1.00  0.00     0.293 HD
ENDBRANCH   7  27
TORSDOF 7
ENDMDL
