MODEL 1
REMARK VINA RESULT:    -3.416      0.000      0.000
REMARK INTER + INTRA:          -8.017
REMARK INTER:                  -6.212
REMARK INTRA:                  -1.805
REMARK UNBOUND:                -1.805
REMARK SMILES CCCCCCCCCCCCCCCC(=O)[O-]
REMARK SMILES IDX 9 1 10 2 11 3 12 4 13 5 14 6 15 7 16 8 17 9 18 10 8 11 7 12
REMARK SMILES IDX 6 13 5 14 4 15 3 16 2 17 1 18
REMARK H PARENT
REMARK Flexibility Score: inf
ROOT
ATOM      1  C   UNL     1      62.327  32.389  58.633  1.00  0.00     0.000 C 
ENDROOT
BRANCH   1   2
ATOM      2  C   UNL     1      61.192  31.667  59.390  1.00  0.00     0.000 C 
BRANCH   2   3
ATOM      3  C   UNL     1      61.013  32.148  60.840  1.00  0.00     0.000 C 
BRANCH   3   4
ATOM      4  C   UNL     1      61.170  31.016  61.868  1.00  0.00     0.000 C 
BRANCH   4   5
ATOM      5  C   UNL     1      61.722  29.724  61.244  1.00  0.00     0.000 C 
BRANCH   5   6
ATOM      6  C   UNL     1      63.205  29.494  61.571  1.00  0.00     0.006 C 
BRANCH   6   7
ATOM      7  C   UNL     1      63.718  28.210  60.911  1.00  0.00     0.053 C 
BRANCH   7   8
ATOM      8  C   UNL     1      65.198  28.281  60.706  1.00  0.00     0.041 C 
ATOM      9  O   UNL     1      65.843  27.250  60.379  1.00  0.00    -0.550 OA
ATOM     10  O   UNL     1      65.860  29.497  60.827  1.00  0.00    -0.550 OA
ENDBRANCH   7   8
ENDBRANCH   6   7
ENDBRANCH   5   6
ENDBRANCH   4   5
ENDBRANCH   3   4
ENDBRANCH   2   3
ENDBRANCH   1   2
BRANCH   1  11
ATOM     11  C   UNL     1      63.706  32.123  59.261  1.00  0.00     0.000 C 
BRANCH  11  12
ATOM     12  C   UNL     1      64.459  33.424  59.612  1.00  0.00    -0.000 C 
BRANCH  12  13
ATOM     13  C   UNL     1      64.208  33.919  61.050  1.00  0.00    -0.000 C 
BRANCH  13  14
ATOM     14  C   UNL     1      64.497  35.414  61.283  1.00  0.00    -0.000 C 
BRANCH  14  15
ATOM     15  C   UNL     1      63.264  36.335  61.209  1.00  0.00    -0.000 C 
BRANCH  15  16
ATOM     16  C   UNL     1      61.939  35.623  60.877  1.00  0.00    -0.000 C 
BRANCH  16  17
ATOM     17  C   UNL     1      61.393  35.950  59.471  1.00  0.00    -0.003 C 
ATOM     18  C   UNL     1      60.114  36.785  59.517  1.00  0.00     0.004 C 
ENDBRANCH  16  17
ENDBRANCH  15  16
ENDBRANCH  14  15
ENDBRANCH  13  14
ENDBRANCH  12  13
ENDBRANCH  11  12
ENDBRANCH   1  11
TORSDOF 14
ENDMDL
MODEL 2
REMARK VINA RESULT:    -3.353     10.637     12.723
REMARK INTER + INTRA:          -7.903
REMARK INTER:                  -5.507
REMARK INTRA:                  -2.396
REMARK UNBOUND:                -1.805
REMARK SMILES CCCCCCCCCCCCCCCC(=O)[O-]
REMARK SMILES IDX 9 1 10 2 11 3 12 4 13 5 14 6 15 7 16 8 17 9 18 10 8 11 7 12
REMARK SMILES IDX 6 13 5 14 4 15 3 16 2 17 1 18
REMARK H PARENT
REMARK Flexibility Score: inf
ROOT
ATOM      1  C   UNL     1      58.044  27.628  53.197  1.00  0.00     0.000 C 
ENDROOT
BRANCH   1   2
ATOM      2  C   UNL     1      57.621  29.084  52.906  1.00  0.00     0.000 C 
BRANCH   2   3
ATOM      3  C   UNL     1      57.804  29.499  51.436  1.00  0.00     0.000 C 
BRANCH   3   4
ATOM      4  C   UNL     1      59.231  29.254  50.920  1.00  0.00     0.000 C 
BRANCH   4   5
ATOM      5  C   UNL     1      59.261  28.832  49.442  1.00  0.00     0.000 C 
BRANCH   5   6
ATOM      6  C   UNL     1      60.195  27.640  49.184  1.00  0.00     0.006 C 
BRANCH   6   7
ATOM      7  C   UNL     1      60.742  27.080  50.501  1.00  0.00     0.053 C 
BRANCH   7   8
ATOM      8  C   UNL     1      61.281  25.698  50.300  1.00  0.00     0.041 C 
ATOM      9  O   UNL     1      60.585  24.825  49.718  1.00  0.00    -0.550 OA
ATOM     10  O   UNL     1      62.571  25.388  50.711  1.00  0.00    -0.550 OA
ENDBRANCH   7   8
ENDBRANCH   6   7
ENDBRANCH   5   6
ENDBRANCH   4   5
ENDBRANCH   3   4
ENDBRANCH   2   3
ENDBRANCH   1   2
BRANCH   1  11
ATOM     11  C   UNL     1      56.957  26.616  52.793  1.00  0.00     0.000 C 
BRANCH  11  12
ATOM     12  C   UNL     1      57.510  25.471  51.917  1.00  0.00    -0.000 C 
BRANCH  12  13
ATOM     13  C   UNL     1      57.326  25.701  50.405  1.00  0.00    -0.000 C 
BRANCH  13  14
ATOM     14  C   UNL     1      56.261  26.750  50.031  1.00  0.00    -0.000 C 
BRANCH  14  15
ATOM     15  C   UNL     1      54.886  26.171  49.645  1.00  0.00    -0.000 C 
BRANCH  15  16
ATOM     16  C   UNL     1      53.682  27.066  49.997  1.00  0.00    -0.000 C 
BRANCH  16  17
ATOM     17  C   UNL     1      53.996  28.143  51.056  1.00  0.00    -0.003 C 
ATOM     18  C   UNL     1      53.973  29.559  50.479  1.00  0.00     0.004 C 
ENDBRANCH  16  17
ENDBRANCH  15  16
ENDBRANCH  14  15
ENDBRANCH  13  14
ENDBRANCH  12  13
ENDBRANCH  11  12
ENDBRANCH   1  11
TORSDOF 14
ENDMDL
MODEL 3
REMARK VINA RESULT:    -3.344      1.037      2.165
REMARK INTER + INTRA:          -7.886
REMARK INTER:                  -5.671
REMARK INTRA:                  -2.215
REMARK UNBOUND:                -1.805
REMARK SMILES CCCCCCCCCCCCCCCC(=O)[O-]
REMARK SMILES IDX 9 1 10 2 11 3 12 4 13 5 14 6 15 7 16 8 17 9 18 10 8 11 7 12
REMARK SMILES IDX 6 13 5 14 4 15 3 16 2 17 1 18
REMARK H PARENT
REMARK Flexibility Score: inf
ROOT
ATOM      1  C   UNL     1      60.629  31.633  59.107  1.00  0.00     0.000 C 
ENDROOT
BRANCH   1   2
ATOM      2  C   UNL     1      61.119  31.891  60.548  1.00  0.00     0.000 C 
BRANCH   2   3
ATOM      3  C   UNL     1      60.838  30.727  61.514  1.00  0.00     0.000 C 
BRANCH   3   4
ATOM      4  C   UNL     1      62.109  29.951  61.897  1.00  0.00     0.000 C 
BRANCH   4   5
ATOM      5  C   UNL     1      63.396  30.692  61.498  1.00  0.00     0.000 C 
BRANCH   5   6
ATOM      6  C   UNL     1      64.529  29.735  61.094  1.00  0.00     0.006 C 
BRANCH   6   7
ATOM      7  C   UNL     1      63.976  28.352  60.739  1.00  0.00     0.053 C 
BRANCH   7   8
ATOM      8  C   UNL     1      65.092  27.402  60.438  1.00  0.00     0.041 C 
ATOM      9  O   UNL     1      66.270  27.829  60.309  1.00  0.00    -0.550 OA
ATOM     10  O   UNL     1      64.840  26.039  60.349  1.00  0.00    -0.550 OA
ENDBRANCH   7   8
ENDBRANCH   6   7
ENDBRANCH   5   6
ENDBRANCH   4   5
ENDBRANCH   3   4
ENDBRANCH   2   3
ENDBRANCH   1   2
BRANCH   1  11
ATOM     11  C   UNL     1      61.790  31.322  58.146  1.00  0.00     0.000 C 
BRANCH  11  12
ATOM     12  C   UNL     1      62.692  32.549  57.891  1.00  0.00    -0.000 C 
BRANCH  12  13
ATOM     13  C   UNL     1      64.195  32.264  58.067  1.00  0.00    -0.000 C 
BRANCH  13  14
ATOM     14  C   UNL     1      64.879  33.050  59.202  1.00  0.00    -0.000 C 
BRANCH  14  15
ATOM     15  C   UNL     1      64.238  34.413  59.527  1.00  0.00    -0.000 C 
BRANCH  15  16
ATOM     16  C   UNL     1      63.667  34.541  60.951  1.00  0.00    -0.000 C 
BRANCH  16  17
ATOM     17  C   UNL     1      62.677  35.713  61.122  1.00  0.00    -0.003 C 
ATOM     18  C   UNL     1      61.346  35.466  60.410  1.00  0.00     0.004 C 
ENDBRANCH  16  17
ENDBRANCH  15  16
ENDBRANCH  14  15
ENDBRANCH  13  14
ENDBRANCH  12  13
ENDBRANCH  11  12
ENDBRANCH   1  11
TORSDOF 14
ENDMDL
MODEL 4
REMARK VINA RESULT:    -3.341      1.140      2.657
REMARK INTER + INTRA:          -7.881
REMARK INTER:                  -5.611
REMARK INTRA:                  -2.270
REMARK UNBOUND:                -1.805
REMARK SMILES CCCCCCCCCCCCCCCC(=O)[O-]
REMARK SMILES IDX 9 1 10 2 11 3 12 4 13 5 14 6 15 7 16 8 17 9 18 10 8 11 7 12
REMARK SMILES IDX 6 13 5 14 4 15 3 16 2 17 1 18
REMARK H PARENT
REMARK Flexibility Score: inf
ROOT
ATOM      1  C   UNL     1      60.945  33.517  58.116  1.00  0.00     0.000 C 
ENDROOT
BRANCH   1   2
ATOM      2  C   UNL     1      60.274  32.396  58.938  1.00  0.00     0.000 C 
BRANCH   2   3
ATOM      3  C   UNL     1      61.275  31.476  59.659  1.00  0.00     0.000 C 
BRANCH   3   4
ATOM      4  C   UNL     1      61.109  31.496  61.187  1.00  0.00     0.000 C 
BRANCH   4   5
ATOM      5  C   UNL     1      61.823  30.321  61.874  1.00  0.00     0.000 C 
BRANCH   5   6
ATOM      6  C   UNL     1      62.348  29.279  60.874  1.00  0.00     0.006 C 
BRANCH   6   7
ATOM      7  C   UNL     1      63.820  28.955  61.145  1.00  0.00     0.053 C 
BRANCH   7   8
ATOM      8  C   UNL     1      64.686  29.490  60.049  1.00  0.00     0.041 C 
ATOM      9  O   UNL     1      64.235  29.593  58.878  1.00  0.00    -0.550 OA
ATOM     10  O   UNL     1      65.976  29.923  60.331  1.00  0.00    -0.550 OA
ENDBRANCH   7   8
ENDBRANCH   6   7
ENDBRANCH   5   6
ENDBRANCH   4   5
ENDBRANCH   3   4
ENDBRANCH   2   3
ENDBRANCH   1   2
BRANCH   1  11
ATOM     11  C   UNL     1      60.290  34.888  58.362  1.00  0.00     0.000 C 
BRANCH  11  12
ATOM     12  C   UNL     1      61.215  35.857  59.130  1.00  0.00    -0.000 C 
BRANCH  12  13
ATOM     13  C   UNL     1      61.546  35.396  60.562  1.00  0.00    -0.000 C 
BRANCH  13  14
ATOM     14  C   UNL     1      62.771  36.080  61.199  1.00  0.00    -0.000 C 
BRANCH  14  15
ATOM     15  C   UNL     1      64.082  35.275  61.119  1.00  0.00    -0.000 C 
BRANCH  15  16
ATOM     16  C   UNL     1      63.903  33.754  60.951  1.00  0.00    -0.000 C 
BRANCH  16  17
ATOM     17  C   UNL     1      64.544  33.190  59.665  1.00  0.00    -0.003 C 
ATOM     18  C   UNL     1      64.549  34.201  58.519  1.00  0.00     0.004 C 
ENDBRANCH  16  17
ENDBRANCH  15  16
ENDBRANCH  14  15
ENDBRANCH  13  14
ENDBRANCH  12  13
ENDBRANCH  11  12
ENDBRANCH   1  11
TORSDOF 14
ENDMDL
MODEL 5
REMARK VINA RESULT:    -3.277     11.450     13.137
REMARK INTER + INTRA:          -7.765
REMARK INTER:                  -5.816
REMARK INTRA:                  -1.949
REMARK UNBOUND:                -1.805
REMARK SMILES CCCCCCCCCCCCCCCC(=O)[O-]
REMARK SMILES IDX 9 1 10 2 11 3 12 4 13 5 14 6 15 7 16 8 17 9 18 10 8 11 7 12
REMARK SMILES IDX 6 13 5 14 4 15 3 16 2 17 1 18
REMARK H PARENT
REMARK Flexibility Score: inf
ROOT
ATOM      1  C   UNL     1      56.923  26.393  50.090  1.00  0.00     0.000 C 
ENDROOT
BRANCH   1   2
ATOM      2  C   UNL     1      57.524  27.534  50.939  1.00  0.00     0.000 C 
BRANCH   2   3
ATOM      3  C   UNL     1      57.693  28.855  50.168  1.00  0.00     0.000 C 
BRANCH   3   4
ATOM      4  C   UNL     1      58.921  28.852  49.244  1.00  0.00     0.000 C 
BRANCH   4   5
ATOM      5  C   UNL     1      60.219  28.495  49.987  1.00  0.00     0.000 C 
BRANCH   5   6
ATOM      6  C   UNL     1      60.817  27.157  49.525  1.00  0.00     0.006 C 
BRANCH   6   7
ATOM      7  C   UNL     1      61.191  26.282  50.725  1.00  0.00     0.053 C 
BRANCH   7   8
ATOM      8  C   UNL     1      60.381  25.025  50.729  1.00  0.00     0.041 C 
ATOM      9  O   UNL     1      60.489  24.197  49.786  1.00  0.00    -0.550 OA
ATOM     10  O   UNL     1      59.541  24.742  51.800  1.00  0.00    -0.550 OA
ENDBRANCH   7   8
ENDBRANCH   6   7
ENDBRANCH   5   6
ENDBRANCH   4   5
ENDBRANCH   3   4
ENDBRANCH   2   3
ENDBRANCH   1   2
BRANCH   1  11
ATOM     11  C   UNL     1      55.594  25.876  50.669  1.00  0.00     0.000 C 
BRANCH  11  12
ATOM     12  C   UNL     1      54.535  25.614  49.577  1.00  0.00    -0.000 C 
BRANCH  12  13
ATOM     13  C   UNL     1      53.543  26.776  49.381  1.00  0.00    -0.000 C 
BRANCH  13  14
ATOM     14  C   UNL     1      53.400  27.720  50.590  1.00  0.00    -0.000 C 
BRANCH  14  15
ATOM     15  C   UNL     1      53.898  29.160  50.356  1.00  0.00    -0.000 C 
BRANCH  15  16
ATOM     16  C   UNL     1      54.403  29.887  51.615  1.00  0.00    -0.000 C 
BRANCH  16  17
ATOM     17  C   UNL     1      54.729  28.942  52.791  1.00  0.00    -0.003 C 
ATOM     18  C   UNL     1      53.868  29.217  54.023  1.00  0.00     0.004 C 
ENDBRANCH  16  17
ENDBRANCH  15  16
ENDBRANCH  14  15
ENDBRANCH  13  14
ENDBRANCH  12  13
ENDBRANCH  11  12
ENDBRANCH   1  11
TORSDOF 14
ENDMDL
MODEL 6
REMARK VINA RESULT:    -3.236      2.316      3.668
REMARK INTER + INTRA:          -7.690
REMARK INTER:                  -5.437
REMARK INTRA:                  -2.253
REMARK UNBOUND:                -1.805
REMARK SMILES CCCCCCCCCCCCCCCC(=O)[O-]
REMARK SMILES IDX 9 1 10 2 11 3 12 4 13 5 14 6 15 7 16 8 17 9 18 10 8 11 7 12
REMARK SMILES IDX 6 13 5 14 4 15 3 16 2 17 1 18
REMARK H PARENT
REMARK Flexibility Score: inf
ROOT
ATOM      1  C   UNL     1      62.319  33.499  59.197  1.00  0.00     0.000 C 
ENDROOT
BRANCH   1   2
ATOM      2  C   UNL     1      62.685  33.017  60.617  1.00  0.00     0.000 C 
BRANCH   2   3
ATOM      3  C   UNL     1      64.161  32.614  60.772  1.00  0.00     0.000 C 
BRANCH   3   4
ATOM      4  C   UNL     1      64.361  31.091  60.817  1.00  0.00     0.000 C 
BRANCH   4   5
ATOM      5  C   UNL     1      63.301  30.381  61.675  1.00  0.00     0.000 C 
BRANCH   5   6
ATOM      6  C   UNL     1      62.661  29.183  60.955  1.00  0.00     0.006 C 
BRANCH   6   7
ATOM      7  C   UNL     1      61.180  29.446  60.668  1.00  0.00     0.053 C 
BRANCH   7   8
ATOM      8  C   UNL     1      61.004  30.010  59.293  1.00  0.00     0.041 C 
ATOM      9  O   UNL     1      61.804  29.696  58.373  1.00  0.00    -0.550 OA
ATOM     10  O   UNL     1      59.928  30.842  59.015  1.00  0.00    -0.550 OA
ENDBRANCH   7   8
ENDBRANCH   6   7
ENDBRANCH   5   6
ENDBRANCH   4   5
ENDBRANCH   3   4
ENDBRANCH   2   3
ENDBRANCH   1   2
BRANCH   1  11
ATOM     11  C   UNL     1      61.990  35.002  59.160  1.00  0.00     0.000 C 
BRANCH  11  12
ATOM     12  C   UNL     1      61.188  35.463  60.396  1.00  0.00    -0.000 C 
BRANCH  12  13
ATOM     13  C   UNL     1      61.733  36.748  61.047  1.00  0.00    -0.000 C 
BRANCH  13  14
ATOM     14  C   UNL     1      63.212  37.055  60.742  1.00  0.00    -0.000 C 
BRANCH  14  15
ATOM     15  C   UNL     1      64.225  36.400  61.700  1.00  0.00    -0.000 C 
BRANCH  15  16
ATOM     16  C   UNL     1      65.557  35.979  61.052  1.00  0.00    -0.000 C 
BRANCH  16  17
ATOM     17  C   UNL     1      65.703  36.430  59.583  1.00  0.00    -0.003 C 
ATOM     18  C   UNL     1      65.648  35.260  58.601  1.00  0.00     0.004 C 
ENDBRANCH  16  17
ENDBRANCH  15  16
ENDBRANCH  14  15
ENDBRANCH  13  14
ENDBRANCH  12  13
ENDBRANCH  11  12
ENDBRANCH   1  11
TORSDOF 14
ENDMDL
MODEL 7
REMARK VINA RESULT:    -3.235      3.142      7.025
REMARK INTER + INTRA:          -7.688
REMARK INTER:                  -5.903
REMARK INTRA:                  -1.785
REMARK UNBOUND:                -1.805
REMARK SMILES CCCCCCCCCCCCCCCC(=O)[O-]
REMARK SMILES IDX 9 1 10 2 11 3 12 4 13 5 14 6 15 7 16 8 17 9 18 10 8 11 7 12
REMARK SMILES IDX 6 13 5 14 4 15 3 16 2 17 1 18
REMARK H PARENT
REMARK Flexibility Score: inf
ROOT
ATOM      1  C   UNL     1      61.856  32.623  60.794  1.00  0.00     0.000 C 
ENDROOT
BRANCH   1   2
ATOM      2  C   UNL     1      63.385  32.448  60.677  1.00  0.00     0.000 C 
BRANCH   2   3
ATOM      3  C   UNL     1      64.122  33.727  60.242  1.00  0.00     0.000 C 
BRANCH   3   4
ATOM      4  C   UNL     1      64.564  34.595  61.431  1.00  0.00     0.000 C 
BRANCH   4   5
ATOM      5  C   UNL     1      63.811  35.933  61.497  1.00  0.00     0.000 C 
BRANCH   5   6
ATOM      6  C   UNL     1      62.958  36.196  60.246  1.00  0.00     0.006 C 
BRANCH   6   7
ATOM      7  C   UNL     1      61.475  36.314  60.611  1.00  0.00     0.053 C 
BRANCH   7   8
ATOM      8  C   UNL     1      60.618  36.039  59.416  1.00  0.00     0.041 C 
ATOM      9  O   UNL     1      60.987  35.203  58.550  1.00  0.00    -0.550 OA
ATOM     10  O   UNL     1      59.387  36.669  59.283  1.00  0.00    -0.550 OA
ENDBRANCH   7   8
ENDBRANCH   6   7
ENDBRANCH   5   6
ENDBRANCH   4   5
ENDBRANCH   3   4
ENDBRANCH   2   3
ENDBRANCH   1   2
BRANCH   1  11
ATOM     11  C   UNL     1      61.165  31.353  61.322  1.00  0.00     0.000 C 
BRANCH  11  12
ATOM     12  C   UNL     1      62.172  30.296  61.822  1.00  0.00    -0.000 C 
BRANCH  12  13
ATOM     13  C   UNL     1      61.848  28.862  61.363  1.00  0.00    -0.000 C 
BRANCH  13  14
ATOM     14  C   UNL     1      61.968  28.622  59.845  1.00  0.00    -0.000 C 
BRANCH  14  15
ATOM     15  C   UNL     1      63.362  28.900  59.250  1.00  0.00    -0.000 C 
BRANCH  15  16
ATOM     16  C   UNL     1      64.402  27.788  59.481  1.00  0.00    -0.000 C 
BRANCH  16  17
ATOM     17  C   UNL     1      65.399  28.096  60.618  1.00  0.00    -0.003 C 
ATOM     18  C   UNL     1      65.770  29.577  60.690  1.00  0.00     0.004 C 
ENDBRANCH  16  17
ENDBRANCH  15  16
ENDBRANCH  14  15
ENDBRANCH  13  14
ENDBRANCH  12  13
ENDBRANCH  11  12
ENDBRANCH   1  11
TORSDOF 14
ENDMDL
MODEL 8
REMARK VINA RESULT:    -3.217      1.701      3.073
REMARK INTER + INTRA:          -7.656
REMARK INTER:                  -5.306
REMARK INTRA:                  -2.350
REMARK UNBOUND:                -1.805
REMARK SMILES CCCCCCCCCCCCCCCC(=O)[O-]
REMARK SMILES IDX 9 1 10 2 11 3 12 4 13 5 14 6 15 7 16 8 17 9 18 10 8 11 7 12
REMARK SMILES IDX 6 13 5 14 4 15 3 16 2 17 1 18
REMARK H PARENT
REMARK Flexibility Score: inf
ROOT
ATOM      1  C   UNL     1      61.546  34.643  60.633  1.00  0.00     0.000 C 
ENDROOT
BRANCH   1   2
ATOM      2  C   UNL     1      61.321  33.842  59.333  1.00  0.00     0.000 C 
BRANCH   2   3
ATOM      3  C   UNL     1      61.092  32.339  59.565  1.00  0.00     0.000 C 
BRANCH   3   4
ATOM      4  C   UNL     1      61.485  31.888  60.981  1.00  0.00     0.000 C 
BRANCH   4   5
ATOM      5  C   UNL     1      62.792  31.080  61.003  1.00  0.00     0.000 C 
BRANCH   5   6
ATOM      6  C   UNL     1      64.042  31.974  61.002  1.00  0.00     0.006 C 
BRANCH   6   7
ATOM      7  C   UNL     1      64.879  31.743  59.741  1.00  0.00     0.053 C 
BRANCH   7   8
ATOM      8  C   UNL     1      65.368  30.330  59.687  1.00  0.00     0.041 C 
ATOM      9  O   UNL     1      66.045  29.857  60.638  1.00  0.00    -0.550 OA
ATOM     10  O   UNL     1      65.034  29.519  58.610  1.00  0.00    -0.550 OA
ENDBRANCH   7   8
ENDBRANCH   6   7
ENDBRANCH   5   6
ENDBRANCH   4   5
ENDBRANCH   3   4
ENDBRANCH   2   3
ENDBRANCH   1   2
BRANCH   1  11
ATOM     11  C   UNL     1      61.686  36.153  60.369  1.00  0.00     0.000 C 
BRANCH  11  12
ATOM     12  C   UNL     1      62.944  36.756  61.030  1.00  0.00    -0.000 C 
BRANCH  12  13
ATOM     13  C   UNL     1      63.921  35.701  61.584  1.00  0.00    -0.000 C 
BRANCH  13  14
ATOM     14  C   UNL     1      65.393  35.898  61.174  1.00  0.00    -0.000 C 
BRANCH  14  15
ATOM     15  C   UNL     1      65.607  36.369  59.722  1.00  0.00    -0.000 C 
BRANCH  15  16
ATOM     16  C   UNL     1      65.534  35.257  58.659  1.00  0.00    -0.000 C 
BRANCH  16  17
ATOM     17  C   UNL     1      64.263  35.315  57.785  1.00  0.00    -0.003 C 
ATOM     18  C   UNL     1      64.126  34.100  56.867  1.00  0.00     0.004 C 
ENDBRANCH  16  17
ENDBRANCH  15  16
ENDBRANCH  14  15
ENDBRANCH  13  14
ENDBRANCH  12  13
ENDBRANCH  11  12
ENDBRANCH   1  11
TORSDOF 14
ENDMDL
MODEL 9
REMARK VINA RESULT:    -3.204      2.026      3.282
REMARK INTER + INTRA:          -7.632
REMARK INTER:                  -4.942
REMARK INTRA:                  -2.690
REMARK UNBOUND:                -1.805
REMARK SMILES CCCCCCCCCCCCCCCC(=O)[O-]
REMARK SMILES IDX 9 1 10 2 11 3 12 4 13 5 14 6 15 7 16 8 17 9 18 10 8 11 7 12
REMARK SMILES IDX 6 13 5 14 4 15 3 16 2 17 1 18
REMARK H PARENT
REMARK Flexibility Score: inf
ROOT
ATOM      1  C   UNL     1      63.035  32.743  57.643  1.00  0.00     0.000 C 
ENDROOT
BRANCH   1   2
ATOM      2  C   UNL     1      64.048  31.886  58.432  1.00  0.00     0.000 C 
BRANCH   2   3
ATOM      3  C   UNL     1      64.722  32.639  59.593  1.00  0.00     0.000 C 
BRANCH   3   4
ATOM      4  C   UNL     1      64.110  32.297  60.960  1.00  0.00     0.000 C 
BRANCH   4   5
ATOM      5  C   UNL     1      63.505  30.884  61.000  1.00  0.00     0.000 C 
BRANCH   5   6
ATOM      6  C   UNL     1      62.071  30.868  61.552  1.00  0.00     0.006 C 
BRANCH   6   7
ATOM      7  C   UNL     1      61.182  29.923  60.737  1.00  0.00     0.053 C 
BRANCH   7   8
ATOM      8  C   UNL     1      61.784  28.554  60.683  1.00  0.00     0.041 C 
ATOM      9  O   UNL     1      62.086  28.038  59.574  1.00  0.00    -0.550 OA
ATOM     10  O   UNL     1      62.058  27.867  61.859  1.00  0.00    -0.550 OA
ENDBRANCH   7   8
ENDBRANCH   6   7
ENDBRANCH   5   6
ENDBRANCH   4   5
ENDBRANCH   3   4
ENDBRANCH   2   3
ENDBRANCH   1   2
BRANCH   1  11
ATOM     11  C   UNL     1      61.597  32.211  57.777  1.00  0.00     0.000 C 
BRANCH  11  12
ATOM     12  C   UNL     1      60.733  33.073  58.722  1.00  0.00    -0.000 C 
BRANCH  12  13
ATOM     13  C   UNL     1      61.366  34.431  59.079  1.00  0.00    -0.000 C 
BRANCH  13  14
ATOM     14  C   UNL     1      61.435  34.741  60.586  1.00  0.00    -0.000 C 
BRANCH  14  15
ATOM     15  C   UNL     1      62.514  35.765  60.991  1.00  0.00    -0.000 C 
BRANCH  15  16
ATOM     16  C   UNL     1      63.512  36.134  59.878  1.00  0.00    -0.000 C 
BRANCH  16  17
ATOM     17  C   UNL     1      64.962  36.308  60.375  1.00  0.00    -0.003 C 
ATOM     18  C   UNL     1      65.162  35.789  61.799  1.00  0.00     0.004 C 
ENDBRANCH  16  17
ENDBRANCH  15  16
ENDBRANCH  14  15
ENDBRANCH  13  14
ENDBRANCH  12  13
ENDBRANCH  11  12
ENDBRANCH   1  11
TORSDOF 14
ENDMDL
