MODEL 1
REMARK VINA RESULT:    -1.267      0.000      0.000
REMARK INTER + INTRA:          -4.694
REMARK INTER:                  -2.305
REMARK INTRA:                  -2.389
REMARK UNBOUND:                -2.389
REMARK SMILES CCCCCCCCCCCCCCCC(=O)[O-]
REMARK SMILES IDX 9 1 10 2 11 3 12 4 13 5 14 6 15 7 16 8 17 9 18 10 8 11 7 12
REMARK SMILES IDX 6 13 5 14 4 15 3 16 2 17 1 18
REMARK H PARENT
REMARK Flexibility Score: inf
ROOT
ATOM      1  C   UNL     1     132.721  55.983 -10.122  1.00  0.00     0.000 C 
ENDROOT
BRANCH   1   2
ATOM      2  C   UNL     1     132.088  57.113  -9.280  1.00  0.00     0.000 C 
BRANCH   2   3
ATOM      3  C   UNL     1     130.837  56.672  -8.498  1.00  0.00     0.000 C 
BRANCH   3   4
ATOM      4  C   UNL     1     129.502  56.919  -9.226  1.00  0.00     0.000 C 
BRANCH   4   5
ATOM      5  C   UNL     1     128.317  56.068  -8.725  1.00  0.00     0.000 C 
BRANCH   5   6
ATOM      6  C   UNL     1     128.704  54.790  -7.953  1.00  0.00     0.006 C 
BRANCH   6   7
ATOM      7  C   UNL     1     127.953  54.594  -6.627  1.00  0.00     0.053 C 
BRANCH   7   8
ATOM      8  C   UNL     1     128.761  55.053  -5.453  1.00  0.00     0.041 C 
ATOM      9  O   UNL     1     129.199  54.217  -4.619  1.00  0.00    -0.550 OA
ATOM     10  O   UNL     1     129.058  56.401  -5.295  1.00  0.00    -0.550 OA
ENDBRANCH   7   8
ENDBRANCH   6   7
ENDBRANCH   5   6
ENDBRANCH   4   5
ENDBRANCH   3   4
ENDBRANCH   2   3
ENDBRANCH   1   2
BRANCH   1  11
ATOM     11  C   UNL     1     132.598  54.608  -9.445  1.00  0.00     0.000 C 
BRANCH  11  12
ATOM     12  C   UNL     1     132.088  53.510 -10.397  1.00  0.00    -0.000 C 
BRANCH  12  13
ATOM     13  C   UNL     1     130.652  53.707 -10.918  1.00  0.00    -0.000 C 
BRANCH  13  14
ATOM     14  C   UNL     1     130.504  53.362 -12.409  1.00  0.00    -0.000 C 
BRANCH  14  15
ATOM     15  C   UNL     1     130.246  54.599 -13.290  1.00  0.00    -0.000 C 
BRANCH  15  16
ATOM     16  C   UNL     1     129.525  55.765 -12.588  1.00  0.00    -0.000 C 
BRANCH  16  17
ATOM     17  C   UNL     1     130.188  57.125 -12.848  1.00  0.00    -0.003 C 
ATOM     18  C   UNL     1     131.596  56.952 -13.409  1.00  0.00     0.004 C 
ENDBRANCH  16  17
ENDBRANCH  15  16
ENDBRANCH  14  15
ENDBRANCH  13  14
ENDBRANCH  12  13
ENDBRANCH  11  12
ENDBRANCH   1  11
TORSDOF 14
ENDMDL
MODEL 2
REMARK VINA RESULT:    -1.247      9.048     11.157
REMARK INTER + INTRA:          -4.656
REMARK INTER:                  -2.297
REMARK INTRA:                  -2.359
REMARK UNBOUND:                -2.389
REMARK SMILES CCCCCCCCCCCCCCCC(=O)[O-]
REMARK SMILES IDX 9 1 10 2 11 3 12 4 13 5 14 6 15 7 16 8 17 9 18 10 8 11 7 12
REMARK SMILES IDX 6 13 5 14 4 15 3 16 2 17 1 18
REMARK H PARENT
REMARK Flexibility Score: inf
ROOT
ATOM      1  C   UNL     1     139.497  53.369 -11.574  1.00  0.00     0.000 C 
ENDROOT
BRANCH   1   2
ATOM      2  C   UNL     1     140.905  52.971 -11.079  1.00  0.00     0.000 C 
BRANCH   2   3
ATOM      3  C   UNL     1     141.254  53.540  -9.691  1.00  0.00     0.000 C 
BRANCH   3   4
ATOM      4  C   UNL     1     140.255  53.180  -8.577  1.00  0.00     0.000 C 
BRANCH   4   5
ATOM      5  C   UNL     1     140.243  54.144  -7.372  1.00  0.00     0.000 C 
BRANCH   5   6
ATOM      6  C   UNL     1     141.624  54.447  -6.758  1.00  0.00     0.006 C 
BRANCH   6   7
ATOM      7  C   UNL     1     141.911  55.941  -6.540  1.00  0.00     0.053 C 
BRANCH   7   8
ATOM      8  C   UNL     1     142.257  56.242  -5.114  1.00  0.00     0.041 C 
ATOM      9  O   UNL     1     141.630  55.678  -4.178  1.00  0.00    -0.550 OA
ATOM     10  O   UNL     1     143.292  57.119  -4.818  1.00  0.00    -0.550 OA
ENDBRANCH   7   8
ENDBRANCH   6   7
ENDBRANCH   5   6
ENDBRANCH   4   5
ENDBRANCH   3   4
ENDBRANCH   2   3
ENDBRANCH   1   2
BRANCH   1  11
ATOM     11  C   UNL     1     139.544  54.238 -12.841  1.00  0.00     0.000 C 
BRANCH  11  12
ATOM     12  C   UNL     1     140.978  54.590 -13.279  1.00  0.00    -0.000 C 
BRANCH  12  13
ATOM     13  C   UNL     1     141.302  56.095 -13.324  1.00  0.00    -0.000 C 
BRANCH  13  14
ATOM     14  C   UNL     1     140.529  56.906 -12.271  1.00  0.00    -0.000 C 
BRANCH  14  15
ATOM     15  C   UNL     1     141.186  56.863 -10.879  1.00  0.00    -0.000 C 
BRANCH  15  16
ATOM     16  C   UNL     1     140.235  57.125  -9.696  1.00  0.00    -0.000 C 
BRANCH  16  17
ATOM     17  C   UNL     1     138.755  57.125 -10.104  1.00  0.00    -0.003 C 
ATOM     18  C   UNL     1     137.969  56.077  -9.323  1.00  0.00     0.004 C 
ENDBRANCH  16  17
ENDBRANCH  15  16
ENDBRANCH  14  15
ENDBRANCH  13  14
ENDBRANCH  12  13
ENDBRANCH  11  12
ENDBRANCH   1  11
TORSDOF 14
ENDMDL
MODEL 3
REMARK VINA RESULT:    -1.239     10.318     12.501
REMARK INTER + INTRA:          -4.641
REMARK INTER:                  -1.851
REMARK INTRA:                  -2.790
REMARK UNBOUND:                -2.389
REMARK SMILES CCCCCCCCCCCCCCCC(=O)[O-]
REMARK SMILES IDX 9 1 10 2 11 3 12 4 13 5 14 6 15 7 16 8 17 9 18 10 8 11 7 12
REMARK SMILES IDX 6 13 5 14 4 15 3 16 2 17 1 18
REMARK H PARENT
REMARK Flexibility Score: inf
ROOT
ATOM      1  C   UNL     1     140.787  56.983 -10.423  1.00  0.00     0.000 C 
ENDROOT
BRANCH   1   2
ATOM      2  C   UNL     1     140.985  55.913  -9.327  1.00  0.00     0.000 C 
BRANCH   2   3
ATOM      3  C   UNL     1     142.221  55.022  -9.551  1.00  0.00     0.000 C 
BRANCH   3   4
ATOM      4  C   UNL     1     143.422  55.736 -10.198  1.00  0.00     0.000 C 
BRANCH   4   5
ATOM      5  C   UNL     1     144.453  54.805 -10.869  1.00  0.00     0.000 C 
BRANCH   5   6
ATOM      6  C   UNL     1     143.960  53.371 -11.148  1.00  0.00     0.006 C 
BRANCH   6   7
ATOM      7  C   UNL     1     144.523  52.306 -10.193  1.00  0.00     0.053 C 
BRANCH   7   8
ATOM      8  C   UNL     1     143.458  51.376  -9.701  1.00  0.00     0.041 C 
ATOM      9  O   UNL     1     143.124  51.381  -8.486  1.00  0.00    -0.550 OA
ATOM     10  O   UNL     1     142.809  50.527 -10.588  1.00  0.00    -0.550 OA
ENDBRANCH   7   8
ENDBRANCH   6   7
ENDBRANCH   5   6
ENDBRANCH   4   5
ENDBRANCH   3   4
ENDBRANCH   2   3
ENDBRANCH   1   2
BRANCH   1  11
ATOM     11  C   UNL     1     139.468  56.800 -11.190  1.00  0.00     0.000 C 
BRANCH  11  12
ATOM     12  C   UNL     1     139.675  56.494 -12.685  1.00  0.00    -0.000 C 
BRANCH  12  13
ATOM     13  C   UNL     1     141.144  56.393 -13.138  1.00  0.00    -0.000 C 
BRANCH  13  14
ATOM     14  C   UNL     1     141.591  54.946 -13.404  1.00  0.00    -0.000 C 
BRANCH  14  15
ATOM     15  C   UNL     1     140.436  53.932 -13.300  1.00  0.00    -0.000 C 
BRANCH  15  16
ATOM     16  C   UNL     1     140.562  52.910 -12.154  1.00  0.00    -0.000 C 
BRANCH  16  17
ATOM     17  C   UNL     1     139.427  53.018 -11.126  1.00  0.00    -0.003 C 
ATOM     18  C   UNL     1     139.764  52.248  -9.852  1.00  0.00     0.004 C 
ENDBRANCH  16  17
ENDBRANCH  15  16
ENDBRANCH  14  15
ENDBRANCH  13  14
ENDBRANCH  12  13
ENDBRANCH  11  12
ENDBRANCH   1  11
TORSDOF 14
ENDMDL
MODEL 4
REMARK VINA RESULT:    -1.223     20.379     22.405
REMARK INTER + INTRA:          -4.612
REMARK INTER:                  -1.808
REMARK INTRA:                  -2.804
REMARK UNBOUND:                -2.389
REMARK SMILES CCCCCCCCCCCCCCCC(=O)[O-]
REMARK SMILES IDX 9 1 10 2 11 3 12 4 13 5 14 6 15 7 16 8 17 9 18 10 8 11 7 12
REMARK SMILES IDX 6 13 5 14 4 15 3 16 2 17 1 18
REMARK H PARENT
REMARK Flexibility Score: inf
ROOT
ATOM      1  C   UNL     1     144.612  38.692  -8.260  1.00  0.00     0.000 C 
ENDROOT
BRANCH   1   2
ATOM      2  C   UNL     1     143.853  40.035  -8.317  1.00  0.00     0.000 C 
BRANCH   2   3
ATOM      3  C   UNL     1     144.289  41.037  -7.231  1.00  0.00     0.000 C 
BRANCH   3   4
ATOM      4  C   UNL     1     145.084  42.248  -7.753  1.00  0.00     0.000 C 
BRANCH   4   5
ATOM      5  C   UNL     1     146.522  42.370  -7.209  1.00  0.00     0.000 C 
BRANCH   5   6
ATOM      6  C   UNL     1     146.652  42.316  -5.673  1.00  0.00     0.006 C 
BRANCH   6   7
ATOM      7  C   UNL     1     147.644  41.263  -5.154  1.00  0.00     0.053 C 
BRANCH   7   8
ATOM      8  C   UNL     1     147.079  40.477  -4.011  1.00  0.00     0.041 C 
ATOM      9  O   UNL     1     147.832  40.076  -3.085  1.00  0.00    -0.550 OA
ATOM     10  O   UNL     1     145.716  40.216  -3.950  1.00  0.00    -0.550 OA
ENDBRANCH   7   8
ENDBRANCH   6   7
ENDBRANCH   5   6
ENDBRANCH   4   5
ENDBRANCH   3   4
ENDBRANCH   2   3
ENDBRANCH   1   2
BRANCH   1  11
ATOM     11  C   UNL     1     145.412  38.525  -6.958  1.00  0.00     0.000 C 
BRANCH  11  12
ATOM     12  C   UNL     1     146.870  38.090  -7.197  1.00  0.00    -0.000 C 
BRANCH  12  13
ATOM     13  C   UNL     1     147.694  39.021  -8.106  1.00  0.00    -0.000 C 
BRANCH  13  14
ATOM     14  C   UNL     1     148.115  38.351  -9.424  1.00  0.00    -0.000 C 
BRANCH  14  15
ATOM     15  C   UNL     1     147.848  39.233 -10.659  1.00  0.00    -0.000 C 
BRANCH  15  16
ATOM     16  C   UNL     1     147.284  40.634 -10.355  1.00  0.00    -0.000 C 
BRANCH  16  17
ATOM     17  C   UNL     1     146.064  40.990 -11.216  1.00  0.00    -0.003 C 
ATOM     18  C   UNL     1     145.392  39.734 -11.763  1.00  0.00     0.004 C 
ENDBRANCH  16  17
ENDBRANCH  15  16
ENDBRANCH  14  15
ENDBRANCH  13  14
ENDBRANCH  12  13
ENDBRANCH  11  12
ENDBRANCH   1  11
TORSDOF 14
ENDMDL
MODEL 5
REMARK VINA RESULT:    -1.204     20.281     22.777
REMARK INTER + INTRA:          -4.579
REMARK INTER:                  -2.011
REMARK INTRA:                  -2.568
REMARK UNBOUND:                -2.389
REMARK SMILES CCCCCCCCCCCCCCCC(=O)[O-]
REMARK SMILES IDX 9 1 10 2 11 3 12 4 13 5 14 6 15 7 16 8 17 9 18 10 8 11 7 12
REMARK SMILES IDX 6 13 5 14 4 15 3 16 2 17 1 18
REMARK H PARENT
REMARK Flexibility Score: inf
ROOT
ATOM      1  C   UNL     1     147.739  40.103  -8.383  1.00  0.00     0.000 C 
ENDROOT
BRANCH   1   2
ATOM      2  C   UNL     1     147.449  40.599  -9.816  1.00  0.00     0.000 C 
BRANCH   2   3
ATOM      3  C   UNL     1     147.779  39.562 -10.906  1.00  0.00     0.000 C 
BRANCH   3   4
ATOM      4  C   UNL     1     146.656  39.328 -11.933  1.00  0.00     0.000 C 
BRANCH   4   5
ATOM      5  C   UNL     1     145.327  38.815 -11.343  1.00  0.00     0.000 C 
BRANCH   5   6
ATOM      6  C   UNL     1     145.026  37.324 -11.595  1.00  0.00     0.006 C 
BRANCH   6   7
ATOM      7  C   UNL     1     143.603  36.887 -11.212  1.00  0.00     0.053 C 
BRANCH   7   8
ATOM      8  C   UNL     1     142.638  37.073 -12.342  1.00  0.00     0.041 C 
ATOM      9  O   UNL     1     143.014  36.900 -13.532  1.00  0.00    -0.550 OA
ATOM     10  O   UNL     1     141.315  37.406 -12.082  1.00  0.00    -0.550 OA
ENDBRANCH   7   8
ENDBRANCH   6   7
ENDBRANCH   5   6
ENDBRANCH   4   5
ENDBRANCH   3   4
ENDBRANCH   2   3
ENDBRANCH   1   2
BRANCH   1  11
ATOM     11  C   UNL     1     147.790  38.569  -8.292  1.00  0.00     0.000 C 
BRANCH  11  12
ATOM     12  C   UNL     1     146.764  37.988  -7.302  1.00  0.00    -0.000 C 
BRANCH  12  13
ATOM     13  C   UNL     1     145.522  37.342  -7.945  1.00  0.00    -0.000 C 
BRANCH  13  14
ATOM     14  C   UNL     1     144.236  38.150  -7.709  1.00  0.00    -0.000 C 
BRANCH  14  15
ATOM     15  C   UNL     1     144.442  39.342  -6.755  1.00  0.00    -0.000 C 
BRANCH  15  16
ATOM     16  C   UNL     1     144.178  40.729  -7.372  1.00  0.00    -0.000 C 
BRANCH  16  17
ATOM     17  C   UNL     1     143.565  40.654  -8.776  1.00  0.00    -0.003 C 
ATOM     18  C   UNL     1     143.992  41.847  -9.627  1.00  0.00     0.004 C 
ENDBRANCH  16  17
ENDBRANCH  15  16
ENDBRANCH  14  15
ENDBRANCH  13  14
ENDBRANCH  12  13
ENDBRANCH  11  12
ENDBRANCH   1  11
TORSDOF 14
ENDMDL
MODEL 6
REMARK VINA RESULT:    -1.189     21.229     23.454
REMARK INTER + INTRA:          -4.551
REMARK INTER:                  -1.962
REMARK INTRA:                  -2.589
REMARK UNBOUND:                -2.389
REMARK SMILES CCCCCCCCCCCCCCCC(=O)[O-]
REMARK SMILES IDX 9 1 10 2 11 3 12 4 13 5 14 6 15 7 16 8 17 9 18 10 8 11 7 12
REMARK SMILES IDX 6 13 5 14 4 15 3 16 2 17 1 18
REMARK H PARENT
REMARK Flexibility Score: inf
ROOT
ATOM      1  C   UNL     1     144.622  41.063  -6.601  1.00  0.00     0.000 C 
ENDROOT
BRANCH   1   2
ATOM      2  C   UNL     1     143.588  39.998  -6.178  1.00  0.00     0.000 C 
BRANCH   2   3
ATOM      3  C   UNL     1     144.100  39.040  -5.086  1.00  0.00     0.000 C 
BRANCH   3   4
ATOM      4  C   UNL     1     144.318  37.589  -5.552  1.00  0.00     0.000 C 
BRANCH   4   5
ATOM      5  C   UNL     1     145.542  36.881  -4.935  1.00  0.00     0.000 C 
BRANCH   5   6
ATOM      6  C   UNL     1     146.552  37.808  -4.229  1.00  0.00     0.006 C 
BRANCH   6   7
ATOM      7  C   UNL     1     147.508  37.091  -3.263  1.00  0.00     0.053 C 
BRANCH   7   8
ATOM      8  C   UNL     1     147.154  37.350  -1.831  1.00  0.00     0.041 C 
ATOM      9  O   UNL     1     148.048  37.676  -1.006  1.00  0.00    -0.550 OA
ATOM     10  O   UNL     1     145.832  37.264  -1.412  1.00  0.00    -0.550 OA
ENDBRANCH   7   8
ENDBRANCH   6   7
ENDBRANCH   5   6
ENDBRANCH   4   5
ENDBRANCH   3   4
ENDBRANCH   2   3
ENDBRANCH   1   2
BRANCH   1  11
ATOM     11  C   UNL     1     145.767  41.205  -5.585  1.00  0.00     0.000 C 
BRANCH  11  12
ATOM     12  C   UNL     1     147.145  40.849  -6.174  1.00  0.00    -0.000 C 
BRANCH  12  13
ATOM     13  C   UNL     1     147.328  41.182  -7.666  1.00  0.00    -0.000 C 
BRANCH  13  14
ATOM     14  C   UNL     1     147.729  39.960  -8.508  1.00  0.00    -0.000 C 
BRANCH  14  15
ATOM     15  C   UNL     1     147.384  38.622  -7.827  1.00  0.00    -0.000 C 
BRANCH  15  16
ATOM     16  C   UNL     1     146.292  37.792  -8.527  1.00  0.00    -0.000 C 
BRANCH  16  17
ATOM     17  C   UNL     1     145.458  38.613  -9.520  1.00  0.00    -0.003 C 
ATOM     18  C   UNL     1     143.979  38.248  -9.430  1.00  0.00     0.004 C 
ENDBRANCH  16  17
ENDBRANCH  15  16
ENDBRANCH  14  15
ENDBRANCH  13  14
ENDBRANCH  12  13
ENDBRANCH  11  12
ENDBRANCH   1  11
TORSDOF 14
ENDMDL
MODEL 7
REMARK VINA RESULT:    -1.175      9.141     11.043
REMARK INTER + INTRA:          -4.526
REMARK INTER:                  -2.273
REMARK INTRA:                  -2.253
REMARK UNBOUND:                -2.389
REMARK SMILES CCCCCCCCCCCCCCCC(=O)[O-]
REMARK SMILES IDX 9 1 10 2 11 3 12 4 13 5 14 6 15 7 16 8 17 9 18 10 8 11 7 12
REMARK SMILES IDX 6 13 5 14 4 15 3 16 2 17 1 18
REMARK H PARENT
REMARK Flexibility Score: inf
ROOT
ATOM      1  C   UNL     1     143.058  53.626 -11.292  1.00  0.00     0.000 C 
ENDROOT
BRANCH   1   2
ATOM      2  C   UNL     1     142.116  54.438 -10.377  1.00  0.00     0.000 C 
BRANCH   2   3
ATOM      3  C   UNL     1     141.259  53.564  -9.443  1.00  0.00     0.000 C 
BRANCH   3   4
ATOM      4  C   UNL     1     139.745  53.612  -9.724  1.00  0.00     0.000 C 
BRANCH   4   5
ATOM      5  C   UNL     1     138.940  54.562  -8.813  1.00  0.00     0.000 C 
BRANCH   5   6
ATOM      6  C   UNL     1     138.610  55.938  -9.426  1.00  0.00     0.006 C 
BRANCH   6   7
ATOM      7  C   UNL     1     138.807  57.125  -8.470  1.00  0.00     0.053 C 
BRANCH   7   8
ATOM      8  C   UNL     1     140.068  56.999  -7.673  1.00  0.00     0.041 C 
ATOM      9  O   UNL     1     140.016  56.776  -6.435  1.00  0.00    -0.550 OA
ATOM     10  O   UNL     1     141.303  57.094  -8.302  1.00  0.00    -0.550 OA
ENDBRANCH   7   8
ENDBRANCH   6   7
ENDBRANCH   5   6
ENDBRANCH   4   5
ENDBRANCH   3   4
ENDBRANCH   2   3
ENDBRANCH   1   2
BRANCH   1  11
ATOM     11  C   UNL     1     143.551  54.441 -12.499  1.00  0.00     0.000 C 
BRANCH  11  12
ATOM     12  C   UNL     1     143.795  55.924 -12.167  1.00  0.00    -0.000 C 
BRANCH  12  13
ATOM     13  C   UNL     1     143.183  56.929 -13.161  1.00  0.00    -0.000 C 
BRANCH  13  14
ATOM     14  C   UNL     1     141.844  56.454 -13.747  1.00  0.00    -0.000 C 
BRANCH  14  15
ATOM     15  C   UNL     1     140.636  56.831 -12.868  1.00  0.00    -0.000 C 
BRANCH  15  16
ATOM     16  C   UNL     1     139.546  55.750 -12.753  1.00  0.00    -0.000 C 
BRANCH  16  17
ATOM     17  C   UNL     1     139.985  54.391 -13.315  1.00  0.00    -0.003 C 
ATOM     18  C   UNL     1     138.820  53.406 -13.347  1.00  0.00     0.004 C 
ENDBRANCH  16  17
ENDBRANCH  15  16
ENDBRANCH  14  15
ENDBRANCH  13  14
ENDBRANCH  12  13
ENDBRANCH  11  12
ENDBRANCH   1  11
TORSDOF 14
ENDMDL
