MODEL 1
REMARK VINA RESULT:    20.979      0.000      0.000
REMARK INTER + INTRA:          39.883
REMARK INTER:                  40.602
REMARK INTRA:                  -0.719
REMARK UNBOUND:                -0.719
REMARK SMILES CCCCCCCCCCCCCCCCCC(=O)[O-]
REMARK SMILES IDX 10 1 11 2 12 3 13 4 14 5 15 6 16 7 17 8 18 9 19 10 20 11
REMARK SMILES IDX 9 12 8 13 7 14 6 15 5 16 4 17 3 18 2 19 1 20
REMARK H PARENT
REMARK Flexibility Score: inf
ROOT
ATOM      1  C   UNL     1     -38.242  24.892 -20.831  1.00  0.00     0.000 C 
ENDROOT
BRANCH   1   2
ATOM      2  C   UNL     1     -37.333  26.046 -21.279  1.00  0.00     0.000 C 
BRANCH   2   3
ATOM      3  C   UNL     1     -38.102  27.045 -22.152  1.00  0.00     0.000 C 
BRANCH   3   4
ATOM      4  C   UNL     1     -37.629  28.482 -21.892  1.00  0.00     0.000 C 
BRANCH   4   5
ATOM      5  C   UNL     1     -38.711  29.362 -21.239  1.00  0.00     0.000 C 
BRANCH   5   6
ATOM      6  C   UNL     1     -40.133  29.173 -21.799  1.00  0.00     0.000 C 
BRANCH   6   7
ATOM      7  C   UNL     1     -41.113  30.260 -21.328  1.00  0.00     0.006 C 
BRANCH   7   8
ATOM      8  C   UNL     1     -42.185  30.570 -22.382  1.00  0.00     0.053 C 
BRANCH   8   9
ATOM      9  C   UNL     1     -43.258  31.466 -21.842  1.00  0.00     0.041 C 
ATOM     10  O   UNL     1     -43.468  31.524 -20.602  1.00  0.00    -0.550 OA
ATOM     11  O   UNL     1     -44.043  32.215 -22.709  1.00  0.00    -0.550 OA
ENDBRANCH   8   9
ENDBRANCH   7   8
ENDBRANCH   6   7
ENDBRANCH   5   6
ENDBRANCH   4   5
ENDBRANCH   3   4
ENDBRANCH   2   3
ENDBRANCH   1   2
BRANCH   1  12
ATOM     12  C   UNL     1     -37.452  23.636 -20.429  1.00  0.00     0.000 C 
BRANCH  12  13
ATOM     13  C   UNL     1     -37.897  23.064 -19.075  1.00  0.00    -0.000 C 
BRANCH  13  14
ATOM     14  C   UNL     1     -38.478  21.654 -19.239  1.00  0.00    -0.000 C 
BRANCH  14  15
ATOM     15  C   UNL     1     -39.800  21.511 -18.476  1.00  0.00    -0.000 C 
BRANCH  15  16
ATOM     16  C   UNL     1     -40.391  22.884 -18.133  1.00  0.00    -0.000 C 
BRANCH  16  17
ATOM     17  C   UNL     1     -41.854  22.755 -17.683  1.00  0.00    -0.000 C 
BRANCH  17  18
ATOM     18  C   UNL     1     -42.238  23.789 -16.613  1.00  0.00    -0.000 C 
BRANCH  18  19
ATOM     19  C   UNL     1     -42.913  23.151 -15.390  1.00  0.00    -0.003 C 
ATOM     20  C   UNL     1     -42.551  23.899 -14.111  1.00  0.00     0.004 C 
ENDBRANCH  18  19
ENDBRANCH  17  18
ENDBRANCH  16  17
ENDBRANCH  15  16
ENDBRANCH  14  15
ENDBRANCH  13  14
ENDBRANCH  12  13
ENDBRANCH   1  12
TORSDOF 16
ENDMDL
MODEL 2
REMARK VINA RESULT:    21.748      1.303      3.081
REMARK INTER + INTRA:          41.371
REMARK INTER:                  42.215
REMARK INTRA:                  -0.845
REMARK UNBOUND:                -0.719
REMARK SMILES CCCCCCCCCCCCCCCCCC(=O)[O-]
REMARK SMILES IDX 10 1 11 2 12 3 13 4 14 5 15 6 16 7 17 8 18 9 19 10 20 11
REMARK SMILES IDX 9 12 8 13 7 14 6 15 5 16 4 17 3 18 2 19 1 20
REMARK H PARENT
REMARK Flexibility Score: inf
ROOT
ATOM      1  C   UNL     1     -37.505  28.162 -21.297  1.00  0.00     0.000 C 
ENDROOT
BRANCH   1   2
ATOM      2  C   UNL     1     -38.093  29.546 -21.613  1.00  0.00     0.000 C 
BRANCH   2   3
ATOM      3  C   UNL     1     -38.851  30.110 -20.404  1.00  0.00     0.000 C 
BRANCH   3   4
ATOM      4  C   UNL     1     -40.367  29.937 -20.575  1.00  0.00     0.000 C 
BRANCH   4   5
ATOM      5  C   UNL     1     -40.736  28.969 -21.714  1.00  0.00     0.000 C 
BRANCH   5   6
ATOM      6  C   UNL     1     -41.225  29.643 -23.010  1.00  0.00     0.000 C 
BRANCH   6   7
ATOM      7  C   UNL     1     -41.930  30.987 -22.758  1.00  0.00     0.006 C 
BRANCH   7   8
ATOM      8  C   UNL     1     -43.458  30.843 -22.726  1.00  0.00     0.053 C 
BRANCH   8   9
ATOM      9  C   UNL     1     -44.092  31.814 -21.777  1.00  0.00     0.041 C 
ATOM     10  O   UNL     1     -43.811  31.773 -20.550  1.00  0.00    -0.550 OA
ATOM     11  O   UNL     1     -45.011  32.745 -22.242  1.00  0.00    -0.550 OA
ENDBRANCH   8   9
ENDBRANCH   7   8
ENDBRANCH   6   7
ENDBRANCH   5   6
ENDBRANCH   4   5
ENDBRANCH   3   4
ENDBRANCH   2   3
ENDBRANCH   1   2
BRANCH   1  12
ATOM     12  C   UNL     1     -37.754  27.142 -22.419  1.00  0.00     0.000 C 
BRANCH  12  13
ATOM     13  C   UNL     1     -38.494  25.889 -21.927  1.00  0.00    -0.000 C 
BRANCH  13  14
ATOM     14  C   UNL     1     -37.596  25.042 -21.017  1.00  0.00    -0.000 C 
BRANCH  14  15
ATOM     15  C   UNL     1     -38.422  24.029 -20.216  1.00  0.00    -0.000 C 
BRANCH  15  16
ATOM     16  C   UNL     1     -37.661  22.709 -20.043  1.00  0.00    -0.000 C 
BRANCH  16  17
ATOM     17  C   UNL     1     -38.264  21.873 -18.904  1.00  0.00    -0.000 C 
BRANCH  17  18
ATOM     18  C   UNL     1     -39.293  22.658 -18.075  1.00  0.00    -0.000 C 
BRANCH  18  19
ATOM     19  C   UNL     1     -40.740  22.256 -18.395  1.00  0.00    -0.003 C 
ATOM     20  C   UNL     1     -41.733  23.145 -17.653  1.00  0.00     0.004 C 
ENDBRANCH  18  19
ENDBRANCH  17  18
ENDBRANCH  16  17
ENDBRANCH  15  16
ENDBRANCH  14  15
ENDBRANCH  13  14
ENDBRANCH  12  13
ENDBRANCH   1  12
TORSDOF 16
ENDMDL
MODEL 3
REMARK VINA RESULT:    21.961      5.695      8.171
REMARK INTER + INTRA:          41.783
REMARK INTER:                  42.496
REMARK INTRA:                  -0.713
REMARK UNBOUND:                -0.719
REMARK SMILES CCCCCCCCCCCCCCCCCC(=O)[O-]
REMARK SMILES IDX 10 1 11 2 12 3 13 4 14 5 15 6 16 7 17 8 18 9 19 10 20 11
REMARK SMILES IDX 9 12 8 13 7 14 6 15 5 16 4 17 3 18 2 19 1 20
REMARK H PARENT
REMARK Flexibility Score: inf
ROOT
ATOM      1  C   UNL     1     -35.099  31.530 -18.187  1.00  0.00     0.000 C 
ENDROOT
BRANCH   1   2
ATOM      2  C   UNL     1     -36.198  31.666 -19.252  1.00  0.00     0.000 C 
BRANCH   2   3
ATOM      3  C   UNL     1     -36.838  30.306 -19.559  1.00  0.00     0.000 C 
BRANCH   3   4
ATOM      4  C   UNL     1     -38.257  30.480 -20.118  1.00  0.00     0.000 C 
BRANCH   4   5
ATOM      5  C   UNL     1     -38.529  29.597 -21.351  1.00  0.00     0.000 C 
BRANCH   5   6
ATOM      6  C   UNL     1     -39.989  29.138 -21.516  1.00  0.00     0.000 C 
BRANCH   6   7
ATOM      7  C   UNL     1     -41.006  30.247 -21.200  1.00  0.00     0.006 C 
BRANCH   7   8
ATOM      8  C   UNL     1     -42.019  30.446 -22.336  1.00  0.00     0.053 C 
BRANCH   8   9
ATOM      9  C   UNL     1     -43.154  31.333 -21.924  1.00  0.00     0.041 C 
ATOM     10  O   UNL     1     -43.909  31.839 -22.795  1.00  0.00    -0.550 OA
ATOM     11  O   UNL     1     -43.362  31.622 -20.582  1.00  0.00    -0.550 OA
ENDBRANCH   8   9
ENDBRANCH   7   8
ENDBRANCH   6   7
ENDBRANCH   5   6
ENDBRANCH   4   5
ENDBRANCH   3   4
ENDBRANCH   2   3
ENDBRANCH   1   2
BRANCH   1  12
ATOM     12  C   UNL     1     -33.686  31.682 -18.771  1.00  0.00     0.000 C 
BRANCH  12  13
ATOM     13  C   UNL     1     -32.610  31.019 -17.899  1.00  0.00    -0.000 C 
BRANCH  13  14
ATOM     14  C   UNL     1     -31.773  30.027 -18.717  1.00  0.00    -0.000 C 
BRANCH  14  15
ATOM     15  C   UNL     1     -30.951  29.112 -17.801  1.00  0.00    -0.000 C 
BRANCH  15  16
ATOM     16  C   UNL     1     -31.498  29.131 -16.368  1.00  0.00    -0.000 C 
BRANCH  16  17
ATOM     17  C   UNL     1     -30.989  27.920 -15.571  1.00  0.00    -0.000 C 
BRANCH  17  18
ATOM     18  C   UNL     1     -30.252  26.899 -16.452  1.00  0.00    -0.000 C 
BRANCH  18  19
ATOM     19  C   UNL     1     -29.703  25.712 -15.648  1.00  0.00    -0.003 C 
ATOM     20  C   UNL     1     -29.716  26.010 -14.152  1.00  0.00     0.004 C 
ENDBRANCH  18  19
ENDBRANCH  17  18
ENDBRANCH  16  17
ENDBRANCH  15  16
ENDBRANCH  14  15
ENDBRANCH  13  14
ENDBRANCH  12  13
ENDBRANCH   1  12
TORSDOF 16
ENDMDL
MODEL 4
REMARK VINA RESULT:    22.007      7.788     10.719
REMARK INTER + INTRA:          41.873
REMARK INTER:                  42.503
REMARK INTRA:                  -0.630
REMARK UNBOUND:                -0.719
REMARK SMILES CCCCCCCCCCCCCCCCCC(=O)[O-]
REMARK SMILES IDX 10 1 11 2 12 3 13 4 14 5 15 6 16 7 17 8 18 9 19 10 20 11
REMARK SMILES IDX 9 12 8 13 7 14 6 15 5 16 4 17 3 18 2 19 1 20
REMARK H PARENT
REMARK Flexibility Score: inf
ROOT
ATOM      1  C   UNL     1     -34.898  31.074 -18.122  1.00  0.00     0.000 C 
ENDROOT
BRANCH   1   2
ATOM      2  C   UNL     1     -33.610  31.462 -18.864  1.00  0.00     0.000 C 
BRANCH   2   3
ATOM      3  C   UNL     1     -32.371  31.160 -18.012  1.00  0.00     0.000 C 
BRANCH   3   4
ATOM      4  C   UNL     1     -31.679  29.873 -18.483  1.00  0.00     0.000 C 
BRANCH   4   5
ATOM      5  C   UNL     1     -30.853  29.194 -17.375  1.00  0.00     0.000 C 
BRANCH   5   6
ATOM      6  C   UNL     1     -31.612  28.936 -16.060  1.00  0.00     0.000 C 
BRANCH   6   7
ATOM      7  C   UNL     1     -31.036  27.759 -15.256  1.00  0.00     0.006 C 
BRANCH   7   8
ATOM      8  C   UNL     1     -29.942  27.010 -16.028  1.00  0.00     0.053 C 
BRANCH   8   9
ATOM      9  C   UNL     1     -29.530  25.748 -15.331  1.00  0.00     0.041 C 
ATOM     10  O   UNL     1     -28.897  24.858 -15.958  1.00  0.00    -0.550 OA
ATOM     11  O   UNL     1     -29.868  25.545 -14.000  1.00  0.00    -0.550 OA
ENDBRANCH   8   9
ENDBRANCH   7   8
ENDBRANCH   6   7
ENDBRANCH   5   6
ENDBRANCH   4   5
ENDBRANCH   3   4
ENDBRANCH   2   3
ENDBRANCH   1   2
BRANCH   1  12
ATOM     12  C   UNL     1     -36.158  31.272 -18.979  1.00  0.00     0.000 C 
BRANCH  12  13
ATOM     13  C   UNL     1     -36.796  29.943 -19.409  1.00  0.00    -0.000 C 
BRANCH  13  14
ATOM     14  C   UNL     1     -37.583  30.108 -20.715  1.00  0.00    -0.000 C 
BRANCH  14  15
ATOM     15  C   UNL     1     -39.093  30.031 -20.462  1.00  0.00    -0.000 C 
BRANCH  15  16
ATOM     16  C   UNL     1     -39.815  29.349 -21.631  1.00  0.00    -0.000 C 
BRANCH  16  17
ATOM     17  C   UNL     1     -41.331  29.582 -21.551  1.00  0.00    -0.000 C 
BRANCH  17  18
ATOM     18  C   UNL     1     -41.821  30.641 -22.552  1.00  0.00    -0.000 C 
BRANCH  18  19
ATOM     19  C   UNL     1     -43.335  30.880 -22.465  1.00  0.00    -0.003 C 
ATOM     20  C   UNL     1     -43.693  31.681 -21.217  1.00  0.00     0.004 C 
ENDBRANCH  18  19
ENDBRANCH  17  18
ENDBRANCH  16  17
ENDBRANCH  15  16
ENDBRANCH  14  15
ENDBRANCH  13  14
ENDBRANCH  12  13
ENDBRANCH   1  12
TORSDOF 16
ENDMDL
MODEL 5
REMARK VINA RESULT:    22.049      3.562      8.099
REMARK INTER + INTRA:          41.954
REMARK INTER:                  42.598
REMARK INTRA:                  -0.644
REMARK UNBOUND:                -0.719
REMARK SMILES CCCCCCCCCCCCCCCCCC(=O)[O-]
REMARK SMILES IDX 10 1 11 2 12 3 13 4 14 5 15 6 16 7 17 8 18 9 19 10 20 11
REMARK SMILES IDX 9 12 8 13 7 14 6 15 5 16 4 17 3 18 2 19 1 20
REMARK H PARENT
REMARK Flexibility Score: inf
ROOT
ATOM      1  C   UNL     1     -37.477  25.058 -20.582  1.00  0.00     0.000 C 
ENDROOT
BRANCH   1   2
ATOM      2  C   UNL     1     -38.054  23.638 -20.477  1.00  0.00     0.000 C 
BRANCH   2   3
ATOM      3  C   UNL     1     -37.948  23.106 -19.042  1.00  0.00     0.000 C 
BRANCH   3   4
ATOM      4  C   UNL     1     -38.456  21.660 -18.951  1.00  0.00     0.000 C 
BRANCH   4   5
ATOM      5  C   UNL     1     -39.957  21.571 -18.619  1.00  0.00     0.000 C 
BRANCH   5   6
ATOM      6  C   UNL     1     -40.647  22.920 -18.346  1.00  0.00     0.000 C 
BRANCH   6   7
ATOM      7  C   UNL     1     -41.912  22.784 -17.482  1.00  0.00     0.006 C 
BRANCH   7   8
ATOM      8  C   UNL     1     -41.957  23.822 -16.353  1.00  0.00     0.053 C 
BRANCH   8   9
ATOM      9  C   UNL     1     -42.761  23.342 -15.183  1.00  0.00     0.041 C 
ATOM     10  O   UNL     1     -43.512  22.338 -15.302  1.00  0.00    -0.550 OA
ATOM     11  O   UNL     1     -42.702  24.018 -13.971  1.00  0.00    -0.550 OA
ENDBRANCH   8   9
ENDBRANCH   7   8
ENDBRANCH   6   7
ENDBRANCH   5   6
ENDBRANCH   4   5
ENDBRANCH   3   4
ENDBRANCH   2   3
ENDBRANCH   1   2
BRANCH   1  12
ATOM     12  C   UNL     1     -38.137  25.885 -21.696  1.00  0.00     0.000 C 
BRANCH  12  13
ATOM     13  C   UNL     1     -37.410  27.211 -21.959  1.00  0.00    -0.000 C 
BRANCH  13  14
ATOM     14  C   UNL     1     -38.408  28.368 -22.095  1.00  0.00    -0.000 C 
BRANCH  14  15
ATOM     15  C   UNL     1     -38.404  29.249 -20.840  1.00  0.00    -0.000 C 
BRANCH  15  16
ATOM     16  C   UNL     1     -39.590  30.222 -20.845  1.00  0.00    -0.000 C 
BRANCH  16  17
ATOM     17  C   UNL     1     -40.829  29.573 -21.479  1.00  0.00    -0.000 C 
BRANCH  17  18
ATOM     18  C   UNL     1     -41.726  30.591 -22.201  1.00  0.00    -0.000 C 
BRANCH  18  19
ATOM     19  C   UNL     1     -42.976  30.958 -21.389  1.00  0.00    -0.003 C 
ATOM     20  C   UNL     1     -44.006  31.672 -22.259  1.00  0.00     0.004 C 
ENDBRANCH  18  19
ENDBRANCH  17  18
ENDBRANCH  16  17
ENDBRANCH  15  16
ENDBRANCH  14  15
ENDBRANCH  13  14
ENDBRANCH  12  13
ENDBRANCH   1  12
TORSDOF 16
ENDMDL
MODEL 6
REMARK VINA RESULT:    22.219      1.005      1.354
REMARK INTER + INTRA:          42.284
REMARK INTER:                  42.998
REMARK INTRA:                  -0.714
REMARK UNBOUND:                -0.719
REMARK SMILES CCCCCCCCCCCCCCCCCC(=O)[O-]
REMARK SMILES IDX 10 1 11 2 12 3 13 4 14 5 15 6 16 7 17 8 18 9 19 10 20 11
REMARK SMILES IDX 9 12 8 13 7 14 6 15 5 16 4 17 3 18 2 19 1 20
REMARK H PARENT
REMARK Flexibility Score: inf
ROOT
ATOM      1  C   UNL     1     -38.266  24.139 -20.356  1.00  0.00     0.000 C 
ENDROOT
BRANCH   1   2
ATOM      2  C   UNL     1     -37.278  25.204 -20.853  1.00  0.00     0.000 C 
BRANCH   2   3
ATOM      3  C   UNL     1     -37.978  26.226 -21.758  1.00  0.00     0.000 C 
BRANCH   3   4
ATOM      4  C   UNL     1     -37.391  27.631 -21.560  1.00  0.00     0.000 C 
BRANCH   4   5
ATOM      5  C   UNL     1     -38.267  28.739 -22.173  1.00  0.00     0.000 C 
BRANCH   5   6
ATOM      6  C   UNL     1     -39.215  29.444 -21.185  1.00  0.00     0.000 C 
BRANCH   6   7
ATOM      7  C   UNL     1     -40.698  29.289 -21.564  1.00  0.00     0.006 C 
BRANCH   7   8
ATOM      8  C   UNL     1     -41.516  30.543 -21.226  1.00  0.00     0.053 C 
BRANCH   8   9
ATOM      9  C   UNL     1     -42.416  30.945 -22.355  1.00  0.00     0.041 C 
ATOM     10  O   UNL     1     -43.610  31.269 -22.126  1.00  0.00    -0.550 OA
ATOM     11  O   UNL     1     -41.944  30.934 -23.661  1.00  0.00    -0.550 OA
ENDBRANCH   8   9
ENDBRANCH   7   8
ENDBRANCH   6   7
ENDBRANCH   5   6
ENDBRANCH   4   5
ENDBRANCH   3   4
ENDBRANCH   2   3
ENDBRANCH   1   2
BRANCH   1  12
ATOM     12  C   UNL     1     -37.579  22.811 -20.004  1.00  0.00     0.000 C 
BRANCH  12  13
ATOM     13  C   UNL     1     -38.350  22.007 -18.947  1.00  0.00    -0.000 C 
BRANCH  13  14
ATOM     14  C   UNL     1     -39.384  22.887 -18.232  1.00  0.00    -0.000 C 
BRANCH  14  15
ATOM     15  C   UNL     1     -40.791  22.293 -18.353  1.00  0.00    -0.000 C 
BRANCH  15  16
ATOM     16  C   UNL     1     -41.856  23.297 -17.892  1.00  0.00    -0.000 C 
BRANCH  16  17
ATOM     17  C   UNL     1     -42.269  23.029 -16.438  1.00  0.00    -0.000 C 
BRANCH  17  18
ATOM     18  C   UNL     1     -41.945  24.206 -15.504  1.00  0.00    -0.000 C 
BRANCH  18  19
ATOM     19  C   UNL     1     -42.811  24.209 -14.236  1.00  0.00    -0.003 C 
ATOM     20  C   UNL     1     -41.956  24.011 -12.987  1.00  0.00     0.004 C 
ENDBRANCH  18  19
ENDBRANCH  17  18
ENDBRANCH  16  17
ENDBRANCH  15  16
ENDBRANCH  14  15
ENDBRANCH  13  14
ENDBRANCH  12  13
ENDBRANCH   1  12
TORSDOF 16
ENDMDL
MODEL 7
REMARK VINA RESULT:    22.602      3.143      8.009
REMARK INTER + INTRA:          43.025
REMARK INTER:                  43.344
REMARK INTRA:                  -0.319
REMARK UNBOUND:                -0.719
REMARK SMILES CCCCCCCCCCCCCCCCCC(=O)[O-]
REMARK SMILES IDX 10 1 11 2 12 3 13 4 14 5 15 6 16 7 17 8 18 9 19 10 20 11
REMARK SMILES IDX 9 12 8 13 7 14 6 15 5 16 4 17 3 18 2 19 1 20
REMARK H PARENT
REMARK Flexibility Score: inf
ROOT
ATOM      1  C   UNL     1     -38.304  26.415 -22.015  1.00  0.00     0.000 C 
ENDROOT
BRANCH   1   2
ATOM      2  C   UNL     1     -37.471  25.569 -21.040  1.00  0.00     0.000 C 
BRANCH   2   3
ATOM      3  C   UNL     1     -38.064  24.162 -20.888  1.00  0.00     0.000 C 
BRANCH   3   4
ATOM      4  C   UNL     1     -37.840  23.620 -19.469  1.00  0.00     0.000 C 
BRANCH   4   5
ATOM      5  C   UNL     1     -38.152  22.118 -19.344  1.00  0.00     0.000 C 
BRANCH   5   6
ATOM      6  C   UNL     1     -39.533  21.785 -18.750  1.00  0.00     0.000 C 
BRANCH   6   7
ATOM      7  C   UNL     1     -40.156  22.964 -17.983  1.00  0.00     0.006 C 
BRANCH   7   8
ATOM      8  C   UNL     1     -41.671  22.802 -17.801  1.00  0.00     0.053 C 
BRANCH   8   9
ATOM      9  C   UNL     1     -42.143  23.378 -16.500  1.00  0.00     0.041 C 
ATOM     10  O   UNL     1     -41.648  24.451 -16.068  1.00  0.00    -0.550 OA
ATOM     11  O   UNL     1     -43.110  22.716 -15.754  1.00  0.00    -0.550 OA
ENDBRANCH   8   9
ENDBRANCH   7   8
ENDBRANCH   6   7
ENDBRANCH   5   6
ENDBRANCH   4   5
ENDBRANCH   3   4
ENDBRANCH   2   3
ENDBRANCH   1   2
BRANCH   1  12
ATOM     12  C   UNL     1     -37.619  27.740 -22.384  1.00  0.00     0.000 C 
BRANCH  12  13
ATOM     13  C   UNL     1     -37.555  28.723 -21.206  1.00  0.00    -0.000 C 
BRANCH  13  14
ATOM     14  C   UNL     1     -38.816  29.595 -21.148  1.00  0.00    -0.000 C 
BRANCH  14  15
ATOM     15  C   UNL     1     -40.028  28.848 -21.718  1.00  0.00    -0.000 C 
BRANCH  15  16
ATOM     16  C   UNL     1     -41.321  29.642 -21.492  1.00  0.00    -0.000 C 
BRANCH  16  17
ATOM     17  C   UNL     1     -41.607  30.573 -22.680  1.00  0.00    -0.000 C 
BRANCH  17  18
ATOM     18  C   UNL     1     -43.069  31.045 -22.723  1.00  0.00    -0.000 C 
BRANCH  18  19
ATOM     19  C   UNL     1     -43.503  31.744 -21.427  1.00  0.00    -0.003 C 
ATOM     20  C   UNL     1     -44.955  32.203 -21.511  1.00  0.00     0.004 C 
ENDBRANCH  18  19
ENDBRANCH  17  18
ENDBRANCH  16  17
ENDBRANCH  15  16
ENDBRANCH  14  15
ENDBRANCH  13  14
ENDBRANCH  12  13
ENDBRANCH   1  12
TORSDOF 16
ENDMDL
MODEL 8
REMARK VINA RESULT:    22.880      8.161     11.653
REMARK INTER + INTRA:          43.563
REMARK INTER:                  44.171
REMARK INTRA:                  -0.608
REMARK UNBOUND:                -0.719
REMARK SMILES CCCCCCCCCCCCCCCCCC(=O)[O-]
REMARK SMILES IDX 10 1 11 2 12 3 13 4 14 5 15 6 16 7 17 8 18 9 19 10 20 11
REMARK SMILES IDX 9 12 8 13 7 14 6 15 5 16 4 17 3 18 2 19 1 20
REMARK H PARENT
REMARK Flexibility Score: inf
ROOT
ATOM      1  C   UNL     1     -35.213  31.236 -18.556  1.00  0.00     0.000 C 
ENDROOT
BRANCH   1   2
ATOM      2  C   UNL     1     -33.991  30.480 -18.012  1.00  0.00     0.000 C 
BRANCH   2   3
ATOM      3  C   UNL     1     -32.687  31.098 -18.532  1.00  0.00     0.000 C 
BRANCH   3   4
ATOM      4  C   UNL     1     -31.608  30.023 -18.726  1.00  0.00     0.000 C 
BRANCH   4   5
ATOM      5  C   UNL     1     -30.983  29.553 -17.399  1.00  0.00     0.000 C 
BRANCH   5   6
ATOM      6  C   UNL     1     -31.644  28.313 -16.769  1.00  0.00     0.000 C 
BRANCH   6   7
ATOM      7  C   UNL     1     -30.995  27.898 -15.438  1.00  0.00     0.006 C 
BRANCH   7   8
ATOM      8  C   UNL     1     -29.618  27.252 -15.641  1.00  0.00     0.053 C 
BRANCH   8   9
ATOM      9  C   UNL     1     -29.582  25.842 -15.134  1.00  0.00     0.041 C 
ATOM     10  O   UNL     1     -29.957  25.582 -13.961  1.00  0.00    -0.550 OA
ATOM     11  O   UNL     1     -29.108  24.820 -15.948  1.00  0.00    -0.550 OA
ENDBRANCH   8   9
ENDBRANCH   7   8
ENDBRANCH   6   7
ENDBRANCH   5   6
ENDBRANCH   4   5
ENDBRANCH   3   4
ENDBRANCH   2   3
ENDBRANCH   1   2
BRANCH   1  12
ATOM     12  C   UNL     1     -36.303  30.294 -19.092  1.00  0.00     0.000 C 
BRANCH  12  13
ATOM     13  C   UNL     1     -37.110  30.915 -20.242  1.00  0.00    -0.000 C 
BRANCH  13  14
ATOM     14  C   UNL     1     -38.104  29.903 -20.826  1.00  0.00    -0.000 C 
BRANCH  14  15
ATOM     15  C   UNL     1     -37.654  29.426 -22.211  1.00  0.00    -0.000 C 
BRANCH  15  16
ATOM     16  C   UNL     1     -37.279  30.612 -23.108  1.00  0.00    -0.000 C 
BRANCH  16  17
ATOM     17  C   UNL     1     -36.512  30.139 -24.352  1.00  0.00    -0.000 C 
BRANCH  17  18
ATOM     18  C   UNL     1     -36.288  31.264 -25.374  1.00  0.00    -0.000 C 
BRANCH  18  19
ATOM     19  C   UNL     1     -37.477  32.233 -25.455  1.00  0.00    -0.003 C 
ATOM     20  C   UNL     1     -37.072  33.543 -26.125  1.00  0.00     0.004 C 
ENDBRANCH  18  19
ENDBRANCH  17  18
ENDBRANCH  16  17
ENDBRANCH  15  16
ENDBRANCH  14  15
ENDBRANCH  13  14
ENDBRANCH  12  13
ENDBRANCH   1  12
TORSDOF 16
ENDMDL
