MODEL 1
REMARK VINA RESULT:    -4.179      0.000      0.000
REMARK INTER + INTRA:          -9.981
REMARK INTER:                  -7.844
REMARK INTRA:                  -2.137
REMARK UNBOUND:                -2.137
REMARK SMILES CCCCCCCCC=CCCCCCCCC(=O)[O-]
REMARK SMILES IDX 10 1 9 2 11 3 12 4 13 5 14 6 15 7 16 8 17 9 18 10 19 11
REMARK SMILES IDX 20 12 8 13 7 14 6 15 5 16 4 17 3 18 2 19 1 20
REMARK H PARENT
REMARK Flexibility Score: inf
ROOT
ATOM      1  C   UNL     1     -12.072  -8.377  18.940  1.00  0.00    -0.031 C 
ATOM      2  C   UNL     1     -11.567  -8.537  17.708  1.00  0.00    -0.031 C 
ENDROOT
BRANCH   1   3
ATOM      3  C   UNL     1     -11.191  -8.512  20.152  1.00  0.00     0.027 C 
BRANCH   3   4
ATOM      4  C   UNL     1      -9.799  -7.918  19.894  1.00  0.00     0.004 C 
BRANCH   4   5
ATOM      5  C   UNL     1      -9.724  -6.421  20.235  1.00  0.00     0.000 C 
BRANCH   5   6
ATOM      6  C   UNL     1      -9.673  -5.532  18.980  1.00  0.00     0.000 C 
BRANCH   6   7
ATOM      7  C   UNL     1     -10.985  -4.763  18.741  1.00  0.00     0.000 C 
BRANCH   7   8
ATOM      8  C   UNL     1     -11.974  -4.777  19.925  1.00  0.00     0.006 C 
BRANCH   8   9
ATOM      9  C   UNL     1     -12.039  -3.462  20.717  1.00  0.00     0.053 C 
BRANCH   9  10
ATOM     10  C   UNL     1     -11.516  -3.622  22.112  1.00  0.00     0.041 C 
ATOM     11  O   UNL     1     -10.277  -3.587  22.331  1.00  0.00    -0.550 OA
ATOM     12  O   UNL     1     -12.400  -3.777  23.172  1.00  0.00    -0.550 OA
ENDBRANCH   9  10
ENDBRANCH   8   9
ENDBRANCH   7   8
ENDBRANCH   6   7
ENDBRANCH   5   6
ENDBRANCH   4   5
ENDBRANCH   3   4
ENDBRANCH   1   3
BRANCH   2  13
ATOM     13  C   UNL     1     -12.427  -8.392  16.484  1.00  0.00     0.027 C 
BRANCH  13  14
ATOM     14  C   UNL     1     -11.830  -7.372  15.502  1.00  0.00     0.004 C 
BRANCH  14  15
ATOM     15  C   UNL     1     -10.286  -7.380  15.524  1.00  0.00     0.000 C 
BRANCH  15  16
ATOM     16  C   UNL     1      -9.659  -8.363  14.521  1.00  0.00     0.000 C 
BRANCH  16  17
ATOM     17  C   UNL     1      -8.940  -7.653  13.361  1.00  0.00    -0.000 C 
BRANCH  17  18
ATOM     18  C   UNL     1      -9.554  -6.283  13.023  1.00  0.00    -0.000 C 
BRANCH  18  19
ATOM     19  C   UNL     1     -10.623  -6.302  11.916  1.00  0.00    -0.003 C 
ATOM     20  C   UNL     1     -11.872  -5.498  12.273  1.00  0.00     0.004 C 
ENDBRANCH  18  19
ENDBRANCH  17  18
ENDBRANCH  16  17
ENDBRANCH  15  16
ENDBRANCH  14  15
ENDBRANCH  13  14
ENDBRANCH   2  13
TORSDOF 15
ENDMDL
MODEL 2
REMARK VINA RESULT:    -4.147      4.690      9.388
REMARK INTER + INTRA:          -9.920
REMARK INTER:                  -7.549
REMARK INTRA:                  -2.371
REMARK UNBOUND:                -2.137
REMARK SMILES CCCCCCCCC=CCCCCCCCC(=O)[O-]
REMARK SMILES IDX 10 1 9 2 11 3 12 4 13 5 14 6 15 7 16 8 17 9 18 10 19 11
REMARK SMILES IDX 20 12 8 13 7 14 6 15 5 16 4 17 3 18 2 19 1 20
REMARK H PARENT
REMARK Flexibility Score: inf
ROOT
ATOM      1  C   UNL     1     -12.410  -5.905  24.504  1.00  0.00    -0.031 C 
ATOM      2  C   UNL     1     -11.518  -6.864  24.214  1.00  0.00    -0.031 C 
ENDROOT
BRANCH   1   3
ATOM      3  C   UNL     1     -12.132  -4.469  24.152  1.00  0.00     0.027 C 
BRANCH   3   4
ATOM      4  C   UNL     1     -10.655  -4.263  23.792  1.00  0.00     0.004 C 
BRANCH   4   5
ATOM      5  C   UNL     1     -10.466  -3.689  22.378  1.00  0.00     0.000 C 
BRANCH   5   6
ATOM      6  C   UNL     1     -11.794  -3.565  21.610  1.00  0.00     0.000 C 
BRANCH   6   7
ATOM      7  C   UNL     1     -11.845  -4.458  20.357  1.00  0.00     0.000 C 
BRANCH   7   8
ATOM      8  C   UNL     1     -11.393  -5.916  20.578  1.00  0.00     0.006 C 
BRANCH   8   9
ATOM      9  C   UNL     1     -10.988  -6.660  19.296  1.00  0.00     0.053 C 
BRANCH   9  10
ATOM     10  C   UNL     1     -11.509  -8.065  19.275  1.00  0.00     0.041 C 
ATOM     11  O   UNL     1     -11.736  -8.672  20.354  1.00  0.00    -0.550 OA
ATOM     12  O   UNL     1     -11.774  -8.689  18.064  1.00  0.00    -0.550 OA
ENDBRANCH   9  10
ENDBRANCH   8   9
ENDBRANCH   7   8
ENDBRANCH   6   7
ENDBRANCH   5   6
ENDBRANCH   4   5
ENDBRANCH   3   4
ENDBRANCH   1   3
BRANCH   2  13
ATOM     13  C   UNL     1     -11.783  -8.307  24.543  1.00  0.00     0.027 C 
BRANCH  13  14
ATOM     14  C   UNL     1     -12.917  -8.443  25.572  1.00  0.00     0.004 C 
BRANCH  14  15
ATOM     15  C   UNL     1     -12.400  -8.918  26.946  1.00  0.00     0.000 C 
BRANCH  15  16
ATOM     16  C   UNL     1     -13.123  -8.267  28.137  1.00  0.00     0.000 C 
BRANCH  16  17
ATOM     17  C   UNL     1     -12.940  -6.741  28.185  1.00  0.00    -0.000 C 
BRANCH  17  18
ATOM     18  C   UNL     1     -11.461  -6.315  28.224  1.00  0.00    -0.000 C 
BRANCH  18  19
ATOM     19  C   UNL     1     -11.187  -4.869  27.773  1.00  0.00    -0.003 C 
ATOM     20  C   UNL     1      -9.745  -4.643  27.325  1.00  0.00     0.004 C 
ENDBRANCH  18  19
ENDBRANCH  17  18
ENDBRANCH  16  17
ENDBRANCH  15  16
ENDBRANCH  14  15
ENDBRANCH  13  14
ENDBRANCH   2  13
TORSDOF 15
ENDMDL
MODEL 3
REMARK VINA RESULT:    -4.145      2.698      7.077
REMARK INTER + INTRA:          -9.917
REMARK INTER:                  -7.596
REMARK INTRA:                  -2.321
REMARK UNBOUND:                -2.137
REMARK SMILES CCCCCCCCC=CCCCCCCCC(=O)[O-]
REMARK SMILES IDX 10 1 9 2 11 3 12 4 13 5 14 6 15 7 16 8 17 9 18 10 19 11
REMARK SMILES IDX 20 12 8 13 7 14 6 15 5 16 4 17 3 18 2 19 1 20
REMARK H PARENT
REMARK Flexibility Score: inf
ROOT
ATOM      1  C   UNL     1     -10.590  -7.273  20.061  1.00  0.00    -0.031 C 
ATOM      2  C   UNL     1     -10.912  -5.978  19.930  1.00  0.00    -0.031 C 
ENDROOT
BRANCH   1   3
ATOM      3  C   UNL     1     -11.606  -8.348  19.785  1.00  0.00     0.027 C 
BRANCH   3   4
ATOM      4  C   UNL     1     -11.873  -8.484  18.279  1.00  0.00     0.004 C 
BRANCH   4   5
ATOM      5  C   UNL     1     -10.603  -8.820  17.482  1.00  0.00     0.000 C 
BRANCH   5   6
ATOM      6  C   UNL     1     -10.738  -8.481  15.987  1.00  0.00     0.000 C 
BRANCH   6   7
ATOM      7  C   UNL     1     -12.083  -7.813  15.646  1.00  0.00     0.000 C 
BRANCH   7   8
ATOM      8  C   UNL     1     -11.976  -6.367  15.119  1.00  0.00     0.006 C 
BRANCH   8   9
ATOM      9  C   UNL     1     -11.199  -5.409  16.034  1.00  0.00     0.053 C 
BRANCH   9  10
ATOM     10  C   UNL     1     -11.956  -4.144  16.294  1.00  0.00     0.041 C 
ATOM     11  O   UNL     1     -12.727  -3.675  15.416  1.00  0.00    -0.550 OA
ATOM     12  O   UNL     1     -11.835  -3.500  17.519  1.00  0.00    -0.550 OA
ENDBRANCH   9  10
ENDBRANCH   8   9
ENDBRANCH   7   8
ENDBRANCH   6   7
ENDBRANCH   5   6
ENDBRANCH   4   5
ENDBRANCH   3   4
ENDBRANCH   1   3
BRANCH   2  13
ATOM     13  C   UNL     1      -9.907  -4.890  20.187  1.00  0.00     0.027 C 
BRANCH  13  14
ATOM     14  C   UNL     1     -10.547  -3.705  20.926  1.00  0.00     0.004 C 
BRANCH  14  15
ATOM     15  C   UNL     1     -11.947  -4.053  21.477  1.00  0.00     0.000 C 
BRANCH  15  16
ATOM     16  C   UNL     1     -12.078  -3.860  22.997  1.00  0.00     0.000 C 
BRANCH  16  17
ATOM     17  C   UNL     1     -11.952  -5.178  23.779  1.00  0.00    -0.000 C 
BRANCH  17  18
ATOM     18  C   UNL     1     -10.495  -5.531  24.130  1.00  0.00    -0.000 C 
BRANCH  18  19
ATOM     19  C   UNL     1     -10.106  -7.002  23.896  1.00  0.00    -0.003 C 
ATOM     20  C   UNL     1     -11.308  -7.904  23.626  1.00  0.00     0.004 C 
ENDBRANCH  18  19
ENDBRANCH  17  18
ENDBRANCH  16  17
ENDBRANCH  15  16
ENDBRANCH  14  15
ENDBRANCH  13  14
ENDBRANCH   2  13
TORSDOF 15
ENDMDL
MODEL 4
REMARK VINA RESULT:    -4.131     16.335     18.270
REMARK INTER + INTRA:          -9.890
REMARK INTER:                  -8.243
REMARK INTRA:                  -1.647
REMARK UNBOUND:                -2.137
REMARK SMILES CCCCCCCCC=CCCCCCCCC(=O)[O-]
REMARK SMILES IDX 10 1 9 2 11 3 12 4 13 5 14 6 15 7 16 8 17 9 18 10 19 11
REMARK SMILES IDX 20 12 8 13 7 14 6 15 5 16 4 17 3 18 2 19 1 20
REMARK H PARENT
REMARK Flexibility Score: inf
ROOT
ATOM      1  C   UNL     1       5.519  -7.095  16.682  1.00  0.00    -0.031 C 
ATOM      2  C   UNL     1       6.679  -6.702  17.229  1.00  0.00    -0.031 C 
ENDROOT
BRANCH   1   3
ATOM      3  C   UNL     1       5.099  -6.587  15.329  1.00  0.00     0.027 C 
BRANCH   3   4
ATOM      4  C   UNL     1       6.275  -6.596  14.344  1.00  0.00     0.004 C 
BRANCH   4   5
ATOM      5  C   UNL     1       6.182  -5.468  13.304  1.00  0.00     0.000 C 
BRANCH   5   6
ATOM      6  C   UNL     1       5.481  -4.214  13.855  1.00  0.00     0.000 C 
BRANCH   6   7
ATOM      7  C   UNL     1       6.444  -3.029  14.051  1.00  0.00     0.000 C 
BRANCH   7   8
ATOM      8  C   UNL     1       6.369  -2.351  15.435  1.00  0.00     0.006 C 
BRANCH   8   9
ATOM      9  C   UNL     1       6.312  -3.327  16.621  1.00  0.00     0.053 C 
BRANCH   9  10
ATOM     10  C   UNL     1       5.019  -3.223  17.370  1.00  0.00     0.041 C 
ATOM     11  O   UNL     1       4.063  -2.555  16.895  1.00  0.00    -0.550 OA
ATOM     12  O   UNL     1       4.859  -3.893  18.576  1.00  0.00    -0.550 OA
ENDBRANCH   9  10
ENDBRANCH   8   9
ENDBRANCH   7   8
ENDBRANCH   6   7
ENDBRANCH   5   6
ENDBRANCH   4   5
ENDBRANCH   3   4
ENDBRANCH   1   3
BRANCH   2  13
ATOM     13  C   UNL     1       7.124  -7.209  18.572  1.00  0.00     0.027 C 
BRANCH  13  14
ATOM     14  C   UNL     1       5.948  -7.816  19.354  1.00  0.00     0.004 C 
BRANCH  14  15
ATOM     15  C   UNL     1       6.211  -7.834  20.875  1.00  0.00     0.000 C 
BRANCH  15  16
ATOM     16  C   UNL     1       7.052  -6.645  21.371  1.00  0.00     0.000 C 
BRANCH  16  17
ATOM     17  C   UNL     1       6.233  -5.639  22.198  1.00  0.00    -0.000 C 
BRANCH  17  18
ATOM     18  C   UNL     1       7.114  -4.652  22.985  1.00  0.00    -0.000 C 
BRANCH  18  19
ATOM     19  C   UNL     1       6.936  -4.695  24.513  1.00  0.00    -0.003 C 
ATOM     20  C   UNL     1       5.795  -5.608  24.959  1.00  0.00     0.004 C 
ENDBRANCH  18  19
ENDBRANCH  17  18
ENDBRANCH  16  17
ENDBRANCH  15  16
ENDBRANCH  14  15
ENDBRANCH  13  14
ENDBRANCH   2  13
TORSDOF 15
ENDMDL
MODEL 5
REMARK VINA RESULT:    -4.130      2.451      4.014
REMARK INTER + INTRA:          -9.889
REMARK INTER:                  -8.423
REMARK INTRA:                  -1.466
REMARK UNBOUND:                -2.137
REMARK SMILES CCCCCCCCC=CCCCCCCCC(=O)[O-]
REMARK SMILES IDX 10 1 9 2 11 3 12 4 13 5 14 6 15 7 16 8 17 9 18 10 19 11
REMARK SMILES IDX 20 12 8 13 7 14 6 15 5 16 4 17 3 18 2 19 1 20
REMARK H PARENT
REMARK Flexibility Score: inf
ROOT
ATOM      1  C   UNL     1     -10.579  -7.932  23.084  1.00  0.00    -0.031 C 
ATOM      2  C   UNL     1     -11.229  -8.331  21.981  1.00  0.00    -0.031 C 
ENDROOT
BRANCH   1   3
ATOM      3  C   UNL     1     -11.121  -8.249  24.450  1.00  0.00     0.027 C 
BRANCH   3   4
ATOM      4  C   UNL     1     -12.128  -7.185  24.907  1.00  0.00     0.004 C 
BRANCH   4   5
ATOM      5  C   UNL     1     -11.478  -6.086  25.764  1.00  0.00     0.000 C 
BRANCH   5   6
ATOM      6  C   UNL     1     -11.472  -4.717  25.062  1.00  0.00     0.000 C 
BRANCH   6   7
ATOM      7  C   UNL     1     -12.424  -4.662  23.853  1.00  0.00     0.000 C 
BRANCH   7   8
ATOM      8  C   UNL     1     -11.971  -3.729  22.710  1.00  0.00     0.006 C 
BRANCH   8   9
ATOM      9  C   UNL     1     -11.242  -4.438  21.559  1.00  0.00     0.053 C 
BRANCH   9  10
ATOM     10  C   UNL     1     -11.851  -4.118  20.229  1.00  0.00     0.041 C 
ATOM     11  O   UNL     1     -11.642  -4.869  19.239  1.00  0.00    -0.550 OA
ATOM     12  O   UNL     1     -12.676  -3.010  20.091  1.00  0.00    -0.550 OA
ENDBRANCH   9  10
ENDBRANCH   8   9
ENDBRANCH   7   8
ENDBRANCH   6   7
ENDBRANCH   5   6
ENDBRANCH   4   5
ENDBRANCH   3   4
ENDBRANCH   1   3
BRANCH   2  13
ATOM     13  C   UNL     1     -10.696  -8.037  20.606  1.00  0.00     0.027 C 
BRANCH  13  14
ATOM     14  C   UNL     1     -11.731  -8.380  19.524  1.00  0.00     0.004 C 
BRANCH  14  15
ATOM     15  C   UNL     1     -11.138  -8.280  18.102  1.00  0.00     0.000 C 
BRANCH  15  16
ATOM     16  C   UNL     1     -12.193  -8.367  16.986  1.00  0.00     0.000 C 
BRANCH  16  17
ATOM     17  C   UNL     1     -11.634  -7.982  15.606  1.00  0.00    -0.000 C 
BRANCH  17  18
ATOM     18  C   UNL     1     -11.492  -6.460  15.420  1.00  0.00    -0.000 C 
BRANCH  18  19
ATOM     19  C   UNL     1     -12.667  -5.778  14.698  1.00  0.00    -0.003 C 
ATOM     20  C   UNL     1     -12.313  -5.302  13.291  1.00  0.00     0.004 C 
ENDBRANCH  18  19
ENDBRANCH  17  18
ENDBRANCH  16  17
ENDBRANCH  15  16
ENDBRANCH  14  15
ENDBRANCH  13  14
ENDBRANCH   2  13
TORSDOF 15
ENDMDL
MODEL 6
REMARK VINA RESULT:    -4.083     15.586     17.468
REMARK INTER + INTRA:          -9.800
REMARK INTER:                  -7.150
REMARK INTRA:                  -2.650
REMARK UNBOUND:                -2.137
REMARK SMILES CCCCCCCCC=CCCCCCCCC(=O)[O-]
REMARK SMILES IDX 10 1 9 2 11 3 12 4 13 5 14 6 15 7 16 8 17 9 18 10 19 11
REMARK SMILES IDX 20 12 8 13 7 14 6 15 5 16 4 17 3 18 2 19 1 20
REMARK H PARENT
REMARK Flexibility Score: inf
ROOT
ATOM      1  C   UNL     1       5.322  -6.246  13.786  1.00  0.00    -0.031 C 
ATOM      2  C   UNL     1       6.391  -5.568  13.344  1.00  0.00    -0.031 C 
ENDROOT
BRANCH   1   3
ATOM      3  C   UNL     1       5.490  -7.547  14.524  1.00  0.00     0.027 C 
BRANCH   3   4
ATOM      4  C   UNL     1       6.758  -7.533  15.388  1.00  0.00     0.004 C 
BRANCH   4   5
ATOM      5  C   UNL     1       6.679  -8.514  16.569  1.00  0.00     0.000 C 
BRANCH   5   6
ATOM      6  C   UNL     1       6.814  -7.811  17.931  1.00  0.00     0.000 C 
BRANCH   6   7
ATOM      7  C   UNL     1       5.653  -8.135  18.888  1.00  0.00     0.000 C 
BRANCH   7   8
ATOM      8  C   UNL     1       5.964  -7.926  20.384  1.00  0.00     0.006 C 
BRANCH   8   9
ATOM      9  C   UNL     1       6.920  -6.760  20.680  1.00  0.00     0.053 C 
BRANCH   9  10
ATOM     10  C   UNL     1       6.193  -5.558  21.200  1.00  0.00     0.041 C 
ATOM     11  O   UNL     1       6.835  -4.593  21.691  1.00  0.00    -0.550 OA
ATOM     12  O   UNL     1       4.809  -5.491  21.110  1.00  0.00    -0.550 OA
ENDBRANCH   9  10
ENDBRANCH   8   9
ENDBRANCH   7   8
ENDBRANCH   6   7
ENDBRANCH   5   6
ENDBRANCH   4   5
ENDBRANCH   3   4
ENDBRANCH   1   3
BRANCH   2  13
ATOM     13  C   UNL     1       6.244  -4.260  12.618  1.00  0.00     0.027 C 
BRANCH  13  14
ATOM     14  C   UNL     1       5.535  -3.215  13.493  1.00  0.00     0.004 C 
BRANCH  14  15
ATOM     15  C   UNL     1       6.527  -2.429  14.377  1.00  0.00     0.000 C 
BRANCH  15  16
ATOM     16  C   UNL     1       6.157  -2.428  15.870  1.00  0.00     0.000 C 
BRANCH  16  17
ATOM     17  C   UNL     1       6.705  -3.653  16.622  1.00  0.00    -0.000 C 
BRANCH  17  18
ATOM     18  C   UNL     1       5.660  -4.308  17.544  1.00  0.00    -0.000 C 
BRANCH  18  19
ATOM     19  C   UNL     1       4.357  -4.740  16.848  1.00  0.00    -0.003 C 
ATOM     20  C   UNL     1       3.423  -5.531  17.762  1.00  0.00     0.004 C 
ENDBRANCH  18  19
ENDBRANCH  17  18
ENDBRANCH  16  17
ENDBRANCH  15  16
ENDBRANCH  14  15
ENDBRANCH  13  14
ENDBRANCH   2  13
TORSDOF 15
ENDMDL
MODEL 7
REMARK VINA RESULT:    -4.056      3.171      7.550
REMARK INTER + INTRA:          -9.750
REMARK INTER:                  -7.371
REMARK INTRA:                  -2.379
REMARK UNBOUND:                -2.137
REMARK SMILES CCCCCCCCC=CCCCCCCCC(=O)[O-]
REMARK SMILES IDX 10 1 9 2 11 3 12 4 13 5 14 6 15 7 16 8 17 9 18 10 19 11
REMARK SMILES IDX 20 12 8 13 7 14 6 15 5 16 4 17 3 18 2 19 1 20
REMARK H PARENT
REMARK Flexibility Score: inf
ROOT
ATOM      1  C   UNL     1     -11.412  -4.938  20.984  1.00  0.00    -0.031 C 
ATOM      2  C   UNL     1     -10.997  -3.925  21.759  1.00  0.00    -0.031 C 
ENDROOT
BRANCH   1   3
ATOM      3  C   UNL     1     -11.372  -4.822  19.484  1.00  0.00     0.027 C 
BRANCH   3   4
ATOM      4  C   UNL     1     -10.937  -6.145  18.838  1.00  0.00     0.004 C 
BRANCH   4   5
ATOM      5  C   UNL     1     -11.659  -7.362  19.441  1.00  0.00     0.000 C 
BRANCH   5   6
ATOM      6  C   UNL     1     -11.610  -8.592  18.518  1.00  0.00     0.000 C 
BRANCH   6   7
ATOM      7  C   UNL     1     -10.439  -8.545  17.521  1.00  0.00     0.000 C 
BRANCH   7   8
ATOM      8  C   UNL     1     -10.847  -8.607  16.034  1.00  0.00     0.006 C 
BRANCH   8   9
ATOM      9  C   UNL     1     -12.159  -7.880  15.701  1.00  0.00     0.053 C 
BRANCH   9  10
ATOM     10  C   UNL     1     -11.916  -6.500  15.171  1.00  0.00     0.041 C 
ATOM     11  O   UNL     1     -10.769  -5.985  15.247  1.00  0.00    -0.550 OA
ATOM     12  O   UNL     1     -12.948  -5.798  14.563  1.00  0.00    -0.550 OA
ENDBRANCH   9  10
ENDBRANCH   8   9
ENDBRANCH   7   8
ENDBRANCH   6   7
ENDBRANCH   5   6
ENDBRANCH   4   5
ENDBRANCH   3   4
ENDBRANCH   1   3
BRANCH   2  13
ATOM     13  C   UNL     1     -11.015  -4.027  23.258  1.00  0.00     0.027 C 
BRANCH  13  14
ATOM     14  C   UNL     1     -12.421  -4.369  23.775  1.00  0.00     0.004 C 
BRANCH  14  15
ATOM     15  C   UNL     1     -12.438  -5.682  24.587  1.00  0.00     0.000 C 
BRANCH  15  16
ATOM     16  C   UNL     1     -11.164  -6.526  24.422  1.00  0.00     0.000 C 
BRANCH  16  17
ATOM     17  C   UNL     1     -11.446  -7.929  23.858  1.00  0.00    -0.000 C 
BRANCH  17  18
ATOM     18  C   UNL     1     -10.557  -8.281  22.652  1.00  0.00    -0.000 C 
BRANCH  18  19
ATOM     19  C   UNL     1      -9.323  -7.379  22.467  1.00  0.00    -0.003 C 
ATOM     20  C   UNL     1      -8.467  -7.772  21.264  1.00  0.00     0.004 C 
ENDBRANCH  18  19
ENDBRANCH  17  18
ENDBRANCH  16  17
ENDBRANCH  15  16
ENDBRANCH  14  15
ENDBRANCH  13  14
ENDBRANCH   2  13
TORSDOF 15
ENDMDL
MODEL 8
REMARK VINA RESULT:    -4.031     16.280     17.897
REMARK INTER + INTRA:          -9.702
REMARK INTER:                  -7.528
REMARK INTRA:                  -2.174
REMARK UNBOUND:                -2.137
REMARK SMILES CCCCCCCCC=CCCCCCCCC(=O)[O-]
REMARK SMILES IDX 10 1 9 2 11 3 12 4 13 5 14 6 15 7 16 8 17 9 18 10 19 11
REMARK SMILES IDX 20 12 8 13 7 14 6 15 5 16 4 17 3 18 2 19 1 20
REMARK H PARENT
REMARK Flexibility Score: inf
ROOT
ATOM      1  C   UNL     1       6.520  -6.033  13.345  1.00  0.00    -0.031 C 
ATOM      2  C   UNL     1       5.447  -6.351  14.084  1.00  0.00    -0.031 C 
ENDROOT
BRANCH   1   3
ATOM      3  C   UNL     1       6.606  -4.701  12.652  1.00  0.00     0.027 C 
BRANCH   3   4
ATOM      4  C   UNL     1       5.231  -4.023  12.583  1.00  0.00     0.004 C 
BRANCH   4   5
ATOM      5  C   UNL     1       5.159  -2.746  13.436  1.00  0.00     0.000 C 
BRANCH   5   6
ATOM      6  C   UNL     1       6.501  -2.412  14.112  1.00  0.00     0.000 C 
BRANCH   6   7
ATOM      7  C   UNL     1       6.399  -2.360  15.647  1.00  0.00     0.000 C 
BRANCH   7   8
ATOM      8  C   UNL     1       6.348  -3.735  16.343  1.00  0.00     0.006 C 
BRANCH   8   9
ATOM      9  C   UNL     1       5.008  -4.056  17.024  1.00  0.00     0.053 C 
BRANCH   9  10
ATOM     10  C   UNL     1       5.110  -3.998  18.517  1.00  0.00     0.041 C 
ATOM     11  O   UNL     1       6.124  -3.488  19.063  1.00  0.00    -0.550 OA
ATOM     12  O   UNL     1       4.071  -4.476  19.304  1.00  0.00    -0.550 OA
ENDBRANCH   9  10
ENDBRANCH   8   9
ENDBRANCH   7   8
ENDBRANCH   6   7
ENDBRANCH   5   6
ENDBRANCH   4   5
ENDBRANCH   3   4
ENDBRANCH   1   3
BRANCH   2  13
ATOM     13  C   UNL     1       5.349  -7.671  14.796  1.00  0.00     0.027 C 
BRANCH  13  14
ATOM     14  C   UNL     1       6.732  -8.159  15.255  1.00  0.00     0.004 C 
BRANCH  14  15
ATOM     15  C   UNL     1       6.734  -8.587  16.738  1.00  0.00     0.000 C 
BRANCH  15  16
ATOM     16  C   UNL     1       6.995  -7.428  17.715  1.00  0.00     0.000 C 
BRANCH  16  17
ATOM     17  C   UNL     1       6.024  -7.422  18.907  1.00  0.00    -0.000 C 
BRANCH  17  18
ATOM     18  C   UNL     1       6.739  -7.564  20.264  1.00  0.00    -0.000 C 
BRANCH  18  19
ATOM     19  C   UNL     1       6.786  -6.282  21.113  1.00  0.00    -0.003 C 
ATOM     20  C   UNL     1       5.989  -6.393  22.412  1.00  0.00     0.004 C 
ENDBRANCH  18  19
ENDBRANCH  17  18
ENDBRANCH  16  17
ENDBRANCH  15  16
ENDBRANCH  14  15
ENDBRANCH  13  14
ENDBRANCH   2  13
TORSDOF 15
ENDMDL
MODEL 9
REMARK VINA RESULT:    -3.207     16.399     18.190
REMARK INTER + INTRA:          -8.157
REMARK INTER:                  -6.383
REMARK INTRA:                  -1.774
REMARK UNBOUND:                -2.137
REMARK SMILES CCCCCCCCC=CCCCCCCCC(=O)[O-]
REMARK SMILES IDX 10 1 9 2 11 3 12 4 13 5 14 6 15 7 16 8 17 9 18 10 19 11
REMARK SMILES IDX 20 12 8 13 7 14 6 15 5 16 4 17 3 18 2 19 1 20
REMARK H PARENT
REMARK Flexibility Score: inf
ROOT
ATOM      1  C   UNL     1       5.402  -6.959  14.684  1.00  0.00    -0.031 C 
ATOM      2  C   UNL     1       6.615  -7.273  15.160  1.00  0.00    -0.031 C 
ENDROOT
BRANCH   1   3
ATOM      3  C   UNL     1       5.248  -5.935  13.592  1.00  0.00     0.027 C 
BRANCH   3   4
ATOM      4  C   UNL     1       6.565  -5.737  12.829  1.00  0.00     0.004 C 
BRANCH   4   5
ATOM      5  C   UNL     1       6.803  -4.271  12.432  1.00  0.00     0.000 C 
BRANCH   5   6
ATOM      6  C   UNL     1       5.930  -3.292  13.238  1.00  0.00     0.000 C 
BRANCH   6   7
ATOM      7  C   UNL     1       6.759  -2.341  14.120  1.00  0.00     0.000 C 
BRANCH   7   8
ATOM      8  C   UNL     1       6.228  -2.157  15.557  1.00  0.00     0.006 C 
BRANCH   8   9
ATOM      9  C   UNL     1       6.370  -3.397  16.454  1.00  0.00     0.053 C 
BRANCH   9  10
ATOM     10  C   UNL     1       5.038  -3.944  16.868  1.00  0.00     0.041 C 
ATOM     11  O   UNL     1       4.947  -4.693  17.875  1.00  0.00    -0.550 OA
ATOM     12  O   UNL     1       3.895  -3.598  16.159  1.00  0.00    -0.550 OA
ENDBRANCH   9  10
ENDBRANCH   8   9
ENDBRANCH   7   8
ENDBRANCH   6   7
ENDBRANCH   5   6
ENDBRANCH   4   5
ENDBRANCH   3   4
ENDBRANCH   1   3
BRANCH   2  13
ATOM     13  C   UNL     1       6.791  -8.304  16.240  1.00  0.00     0.027 C 
BRANCH  13  14
ATOM     14  C   UNL     1       6.807  -7.654  17.632  1.00  0.00     0.004 C 
BRANCH  14  15
ATOM     15  C   UNL     1       5.564  -8.035  18.465  1.00  0.00     0.000 C 
BRANCH  15  16
ATOM     16  C   UNL     1       5.809  -8.018  19.983  1.00  0.00     0.000 C 
BRANCH  16  17
ATOM     17  C   UNL     1       7.125  -7.320  20.367  1.00  0.00    -0.000 C 
BRANCH  17  18
ATOM     18  C   UNL     1       7.029  -6.547  21.695  1.00  0.00    -0.000 C 
BRANCH  18  19
ATOM     19  C   UNL     1       6.510  -5.103  21.572  1.00  0.00    -0.003 C 
ATOM     20  C   UNL     1       7.100  -4.162  22.620  1.00  0.00     0.004 C 
ENDBRANCH  18  19
ENDBRANCH  17  18
ENDBRANCH  16  17
ENDBRANCH  15  16
ENDBRANCH  14  15
ENDBRANCH  13  14
ENDBRANCH   2  13
TORSDOF 15
ENDMDL
