MODEL 1
REMARK VINA RESULT:    26.733      0.000      0.000
REMARK INTER + INTRA:          31.157
REMARK INTER:                  31.421
REMARK INTRA:                  -0.264
REMARK UNBOUND:                -0.264
REMARK SMILES O=c1cc(-c2ccc(O)c(O)c2)oc2cc(O)cc(O)c12
REMARK SMILES IDX 4 1 3 2 2 3 1 4 21 5 19 6 18 7 16 8 15 9 14 10 13 11 5 12
REMARK SMILES IDX 6 13 7 14 8 15 12 16 10 17 9 18 11 20 20 22 17 24
REMARK H PARENT 9 19 11 21 20 23 17 25
REMARK Flexibility Score: inf
ROOT
ATOM      1  C   UNL     1       9.267   2.148   9.013  1.00  0.00     0.138 A 
ATOM      2  C   UNL     1       9.302   3.471   8.553  1.00  0.00     0.100 A 
ATOM      3  C   UNL     1      10.329   3.879   7.701  1.00  0.00     0.197 A 
ATOM      4  O   UNL     1      10.298   5.055   7.255  1.00  0.00    -0.289 OA
ATOM      5  C   UNL     1      11.343   2.964   7.333  1.00  0.00     0.107 A 
ATOM      6  C   UNL     1      12.460   3.278   6.502  1.00  0.00     0.134 A 
ATOM      7  C   UNL     1      13.337   2.260   6.110  1.00  0.00     0.093 A 
ATOM      8  C   UNL     1      13.172   0.950   6.568  1.00  0.00     0.123 A 
ATOM      9  C   UNL     1      12.116   0.643   7.423  1.00  0.00     0.094 A 
ATOM     10  C   UNL     1      11.204   1.630   7.804  1.00  0.00     0.146 A 
ATOM     11  O   UNL     1      10.201   1.293   8.608  1.00  0.00    -0.456 OA
ENDROOT
BRANCH   1  12
ATOM     12  C   UNL     1       8.199   1.661   9.922  1.00  0.00     0.021 A 
ATOM     13  C   UNL     1       8.478   1.263  11.244  1.00  0.00     0.016 A 
ATOM     14  C   UNL     1       7.455   0.799  12.076  1.00  0.00     0.051 A 
ATOM     15  C   UNL     1       6.142   0.717  11.604  1.00  0.00     0.157 A 
ATOM     16  C   UNL     1       6.878   1.562   9.451  1.00  0.00     0.062 A 
ATOM     17  C   UNL     1       5.851   1.098  10.285  1.00  0.00     0.158 A 
BRANCH  15  18
ATOM     18  O   UNL     1       5.143   0.251  12.459  1.00  0.00    -0.504 OA
ATOM     19  H   UNL     1       4.174   0.521  12.350  1.00  0.00     0.293 HD
ENDBRANCH  15  18
BRANCH  17  20
ATOM     20  O   UNL     1       4.544   1.015   9.807  1.00  0.00    -0.504 OA
ATOM     21  H   UNL     1       4.336   1.071   8.817  1.00  0.00     0.293 HD
ENDBRANCH  17  20
ENDBRANCH   1  12
BRANCH   6  22
ATOM     22  O   UNL     1      12.764   4.569   6.059  1.00  0.00    -0.507 OA
ATOM     23  H   UNL     1      12.152   5.366   6.141  1.00  0.00     0.293 HD
ENDBRANCH   6  22
BRANCH   8  24
ATOM     24  O   UNL     1      14.060  -0.053   6.185  1.00  0.00    -0.508 OA
ATOM     25  H   UNL     1      14.689  -0.486   6.851  1.00  0.00     0.293 HD
ENDBRANCH   8  24
TORSDOF 5
ENDMDL
MODEL 2
REMARK VINA RESULT:    27.543      1.091      2.630
REMARK INTER + INTRA:          32.110
REMARK INTER:                  32.380
REMARK INTRA:                  -0.270
REMARK UNBOUND:                -0.264
REMARK SMILES O=c1cc(-c2ccc(O)c(O)c2)oc2cc(O)cc(O)c12
REMARK SMILES IDX 4 1 3 2 2 3 1 4 21 5 19 6 18 7 16 8 15 9 14 10 13 11 5 12
REMARK SMILES IDX 6 13 7 14 8 15 12 16 10 17 9 18 11 20 20 22 17 24
REMARK H PARENT 9 19 11 21 20 23 17 25
REMARK Flexibility Score: inf
ROOT
ATOM      1  C   UNL     1       9.307   1.443   9.076  1.00  0.00     0.138 A 
ATOM      2  C   UNL     1      10.117   0.379   8.656  1.00  0.00     0.100 A 
ATOM      3  C   UNL     1      11.178   0.621   7.784  1.00  0.00     0.197 A 
ATOM      4  O   UNL     1      11.925  -0.342   7.474  1.00  0.00    -0.289 OA
ATOM      5  C   UNL     1      11.409   1.933   7.305  1.00  0.00     0.107 A 
ATOM      6  C   UNL     1      12.436   2.292   6.381  1.00  0.00     0.134 A 
ATOM      7  C   UNL     1      12.643   3.641   6.069  1.00  0.00     0.093 A 
ATOM      8  C   UNL     1      11.821   4.638   6.600  1.00  0.00     0.123 A 
ATOM      9  C   UNL     1      10.781   4.293   7.462  1.00  0.00     0.094 A 
ATOM     10  C   UNL     1      10.572   2.959   7.819  1.00  0.00     0.146 A 
ATOM     11  O   UNL     1       9.579   2.674   8.654  1.00  0.00    -0.456 OA
ENDROOT
BRANCH   1  12
ATOM     12  C   UNL     1       8.163   1.241  10.002  1.00  0.00     0.021 A 
ATOM     13  C   UNL     1       8.359   0.951  11.366  1.00  0.00     0.016 A 
ATOM     14  C   UNL     1       7.265   0.757  12.213  1.00  0.00     0.051 A 
ATOM     15  C   UNL     1       5.961   0.840  11.717  1.00  0.00     0.157 A 
ATOM     16  C   UNL     1       6.849   1.310   9.506  1.00  0.00     0.062 A 
ATOM     17  C   UNL     1       5.751   1.117  10.356  1.00  0.00     0.158 A 
BRANCH  15  18
ATOM     18  O   UNL     1       4.890   0.642  12.588  1.00  0.00    -0.504 OA
ATOM     19  H   UNL     1       4.884   1.022  13.527  1.00  0.00     0.293 HD
ENDBRANCH  15  18
BRANCH  17  20
ATOM     20  O   UNL     1       4.453   1.197   9.854  1.00  0.00    -0.504 OA
ATOM     21  H   UNL     1       3.849   0.384   9.810  1.00  0.00     0.293 HD
ENDBRANCH  17  20
ENDBRANCH   1  12
BRANCH   6  22
ATOM     22  O   UNL     1      13.257   1.368   5.728  1.00  0.00    -0.507 OA
ATOM     23  H   UNL     1      14.109   1.597   5.240  1.00  0.00     0.293 HD
ENDBRANCH   6  22
BRANCH   8  24
ATOM     24  O   UNL     1      12.025   5.976   6.271  1.00  0.00    -0.508 OA
ATOM     25  H   UNL     1      11.393   6.472   5.654  1.00  0.00     0.293 HD
ENDBRANCH   8  24
TORSDOF 5
ENDMDL
MODEL 3
REMARK VINA RESULT:    27.960      1.410      7.304
REMARK INTER + INTRA:          32.600
REMARK INTER:                  32.868
REMARK INTRA:                  -0.268
REMARK UNBOUND:                -0.264
REMARK SMILES O=c1cc(-c2ccc(O)c(O)c2)oc2cc(O)cc(O)c12
REMARK SMILES IDX 4 1 3 2 2 3 1 4 21 5 19 6 18 7 16 8 15 9 14 10 13 11 5 12
REMARK SMILES IDX 6 13 7 14 8 15 12 16 10 17 9 18 11 20 20 22 17 24
REMARK H PARENT 9 19 11 21 20 23 17 25
REMARK Flexibility Score: inf
ROOT
ATOM      1  C   UNL     1       8.961   1.577   9.205  1.00  0.00     0.138 A 
ATOM      2  C   UNL     1       9.091   1.192  10.546  1.00  0.00     0.100 A 
ATOM      3  C   UNL     1       7.948   0.955  11.311  1.00  0.00     0.197 A 
ATOM      4  O   UNL     1       8.097   0.551  12.493  1.00  0.00    -0.289 OA
ATOM      5  C   UNL     1       6.668   1.136  10.736  1.00  0.00     0.107 A 
ATOM      6  C   UNL     1       5.433   0.963  11.430  1.00  0.00     0.134 A 
ATOM      7  C   UNL     1       4.226   1.055  10.726  1.00  0.00     0.093 A 
ATOM      8  C   UNL     1       4.208   1.375   9.366  1.00  0.00     0.123 A 
ATOM      9  C   UNL     1       5.406   1.598   8.691  1.00  0.00     0.094 A 
ATOM     10  C   UNL     1       6.627   1.479   9.358  1.00  0.00     0.146 A 
ATOM     11  O   UNL     1       7.747   1.686   8.674  1.00  0.00    -0.456 OA
ENDROOT
BRANCH   1  12
ATOM     12  C   UNL     1      10.143   1.843   8.347  1.00  0.00     0.021 A 
ATOM     13  C   UNL     1      10.929   0.797   7.826  1.00  0.00     0.016 A 
ATOM     14  C   UNL     1      12.042   1.076   7.028  1.00  0.00     0.051 A 
ATOM     15  C   UNL     1      12.395   2.398   6.743  1.00  0.00     0.157 A 
ATOM     16  C   UNL     1      10.512   3.171   8.066  1.00  0.00     0.062 A 
ATOM     17  C   UNL     1      11.627   3.451   7.265  1.00  0.00     0.158 A 
BRANCH  15  18
ATOM     18  O   UNL     1      13.510   2.643   5.943  1.00  0.00    -0.504 OA
ATOM     19  H   UNL     1      14.292   2.001   5.898  1.00  0.00     0.293 HD
ENDBRANCH  15  18
BRANCH  17  20
ATOM     20  O   UNL     1      11.976   4.772   6.987  1.00  0.00    -0.504 OA
ATOM     21  H   UNL     1      11.938   5.145   6.045  1.00  0.00     0.293 HD
ENDBRANCH  17  20
ENDBRANCH   1  12
BRANCH   6  22
ATOM     22  O   UNL     1       5.337   0.726  12.805  1.00  0.00    -0.507 OA
ATOM     23  H   UNL     1       4.471   0.657  13.319  1.00  0.00     0.293 HD
ENDBRANCH   6  22
BRANCH   8  24
ATOM     24  O   UNL     1       3.001   1.480   8.678  1.00  0.00    -0.508 OA
ATOM     25  H   UNL     1       2.755   2.318   8.165  1.00  0.00     0.293 HD
ENDBRANCH   8  24
TORSDOF 5
ENDMDL
MODEL 4
REMARK VINA RESULT:    29.082      4.509      7.965
REMARK INTER + INTRA:          33.918
REMARK INTER:                  34.182
REMARK INTRA:                  -0.264
REMARK UNBOUND:                -0.264
REMARK SMILES O=c1cc(-c2ccc(O)c(O)c2)oc2cc(O)cc(O)c12
REMARK SMILES IDX 4 1 3 2 2 3 1 4 21 5 19 6 18 7 16 8 15 9 14 10 13 11 5 12
REMARK SMILES IDX 6 13 7 14 8 15 12 16 10 17 9 18 11 20 20 22 17 24
REMARK H PARENT 9 19 11 21 20 23 17 25
REMARK Flexibility Score: inf
ROOT
ATOM      1  C   UNL     1      14.788   3.008   9.034  1.00  0.00     0.138 A 
ATOM      2  C   UNL     1      14.718   1.693   8.555  1.00  0.00     0.100 A 
ATOM      3  C   UNL     1      13.689   1.327   7.687  1.00  0.00     0.197 A 
ATOM      4  O   UNL     1      13.688   0.157   7.226  1.00  0.00    -0.289 OA
ATOM      5  C   UNL     1      12.706   2.278   7.322  1.00  0.00     0.107 A 
ATOM      6  C   UNL     1      11.589   2.009   6.476  1.00  0.00     0.134 A 
ATOM      7  C   UNL     1      10.746   3.058   6.090  1.00  0.00     0.093 A 
ATOM      8  C   UNL     1      10.946   4.355   6.568  1.00  0.00     0.123 A 
ATOM      9  C   UNL     1      12.002   4.619   7.437  1.00  0.00     0.094 A 
ATOM     10  C   UNL     1      12.881   3.600   7.813  1.00  0.00     0.146 A 
ATOM     11  O   UNL     1      13.884   3.896   8.632  1.00  0.00    -0.456 OA
ENDROOT
BRANCH   1  12
ATOM     12  C   UNL     1      15.861   3.450   9.960  1.00  0.00     0.021 A 
ATOM     13  C   UNL     1      15.587   3.799  11.296  1.00  0.00     0.016 A 
ATOM     14  C   UNL     1      16.614   4.221  12.144  1.00  0.00     0.051 A 
ATOM     15  C   UNL     1      17.928   4.311  11.675  1.00  0.00     0.157 A 
ATOM     16  C   UNL     1      17.183   3.556   9.491  1.00  0.00     0.062 A 
ATOM     17  C   UNL     1      18.214   3.978  10.341  1.00  0.00     0.158 A 
BRANCH  15  18
ATOM     18  O   UNL     1      18.931   4.735  12.545  1.00  0.00    -0.504 OA
ATOM     19  H   UNL     1      19.223   4.179  13.341  1.00  0.00     0.293 HD
ENDBRANCH  15  18
BRANCH  17  20
ATOM     20  O   UNL     1      19.521   4.069   9.865  1.00  0.00    -0.504 OA
ATOM     21  H   UNL     1      20.319   4.003  10.487  1.00  0.00     0.293 HD
ENDBRANCH  17  20
ENDBRANCH   1  12
BRANCH   6  22
ATOM     22  O   UNL     1      11.250   0.734   6.013  1.00  0.00    -0.507 OA
ATOM     23  H   UNL     1      10.766   0.033   6.554  1.00  0.00     0.293 HD
ENDBRANCH   6  22
BRANCH   8  24
ATOM     24  O   UNL     1      10.093   5.390   6.190  1.00  0.00    -0.508 OA
ATOM     25  H   UNL     1       9.925   5.610   5.216  1.00  0.00     0.293 HD
ENDBRANCH   8  24
TORSDOF 5
ENDMDL
