MODEL 1
REMARK VINA RESULT:    -3.448      0.000      0.000
REMARK INTER + INTRA:          -4.443
REMARK INTER:                  -4.154
REMARK INTRA:                  -0.289
REMARK UNBOUND:                -0.289
REMARK SMILES O=c1c(O)c(-c2ccc(O)c(O)c2)oc2cc(O)cc(O)c12
REMARK SMILES IDX 5 1 3 2 2 3 1 4 22 5 20 6 19 7 17 8 16 9 15 10 14 11 6 12
REMARK SMILES IDX 7 13 8 14 9 15 13 16 11 17 10 18 12 20 4 22 21 24 18 26
REMARK H PARENT 10 19 12 21 4 23 21 25 18 27
REMARK Flexibility Score: inf
ROOT
ATOM      1  C   UNL     1       7.317 176.215  45.843  1.00  0.00     0.180 A 
ATOM      2  C   UNL     1       6.808 174.940  46.139  1.00  0.00     0.208 A 
ATOM      3  C   UNL     1       5.597 174.537  45.554  1.00  0.00     0.238 A 
ATOM      4  O   UNL     1       5.173 173.374  45.782  1.00  0.00    -0.285 OA
ATOM      5  C   UNL     1       4.903 175.421  44.693  1.00  0.00     0.111 A 
ATOM      6  C   UNL     1       3.648 175.132  44.077  1.00  0.00     0.134 A 
ATOM      7  C   UNL     1       3.117 176.028  43.140  1.00  0.00     0.093 A 
ATOM      8  C   UNL     1       3.764 177.231  42.846  1.00  0.00     0.123 A 
ATOM      9  C   UNL     1       4.959 177.547  43.487  1.00  0.00     0.094 A 
ATOM     10  C   UNL     1       5.532 176.658  44.399  1.00  0.00     0.146 A 
ATOM     11  O   UNL     1       6.678 176.995  44.980  1.00  0.00    -0.452 OA
ENDROOT
BRANCH   1  12
ATOM     12  C   UNL     1       8.575 176.719  46.440  1.00  0.00     0.025 A 
ATOM     13  C   UNL     1       8.519 177.573  47.553  1.00  0.00     0.016 A 
ATOM     14  C   UNL     1       9.693 178.044  48.144  1.00  0.00     0.051 A 
ATOM     15  C   UNL     1      10.942 177.654  47.642  1.00  0.00     0.157 A 
ATOM     16  C   UNL     1       9.831 176.315  45.951  1.00  0.00     0.062 A 
ATOM     17  C   UNL     1      11.011 176.785  46.546  1.00  0.00     0.158 A 
BRANCH  15  18
ATOM     18  O   UNL     1      12.117 178.123  48.228  1.00  0.00    -0.504 OA
ATOM     19  H   UNL     1      12.836 177.489  48.553  1.00  0.00     0.293 HD
ENDBRANCH  15  18
BRANCH  17  20
ATOM     20  O   UNL     1      12.255 176.389  46.057  1.00  0.00    -0.504 OA
ATOM     21  H   UNL     1      12.365 175.542  45.513  1.00  0.00     0.293 HD
ENDBRANCH  17  20
ENDBRANCH   1  12
BRANCH   2  22
ATOM     22  O   UNL     1       7.520 174.075  46.976  1.00  0.00    -0.502 OA
ATOM     23  H   UNL     1       8.473 174.259  47.265  1.00  0.00     0.293 HD
ENDBRANCH   2  22
BRANCH   6  24
ATOM     24  O   UNL     1       2.876 174.004  44.368  1.00  0.00    -0.507 OA
ATOM     25  H   UNL     1       2.600 173.307  43.692  1.00  0.00     0.293 HD
ENDBRANCH   6  24
BRANCH   8  26
ATOM     26  O   UNL     1       3.221 178.123  41.924  1.00  0.00    -0.508 OA
ATOM     27  H   UNL     1       3.795 178.814  41.454  1.00  0.00     0.293 HD
ENDBRANCH   8  26
TORSDOF 6
ENDMDL
MODEL 2
REMARK VINA RESULT:    -3.009      1.277      2.905
REMARK INTER + INTRA:          -3.913
REMARK INTER:                  -3.584
REMARK INTRA:                  -0.329
REMARK UNBOUND:                -0.289
REMARK SMILES O=c1c(O)c(-c2ccc(O)c(O)c2)oc2cc(O)cc(O)c12
REMARK SMILES IDX 5 1 3 2 2 3 1 4 22 5 20 6 19 7 17 8 16 9 15 10 14 11 6 12
REMARK SMILES IDX 7 13 8 14 9 15 13 16 11 17 10 18 12 20 4 22 21 24 18 26
REMARK H PARENT 10 19 12 21 4 23 21 25 18 27
REMARK Flexibility Score: inf
ROOT
ATOM      1  C   UNL     1       7.280 176.398  45.833  1.00  0.00     0.180 A 
ATOM      2  C   UNL     1       6.764 177.045  44.698  1.00  0.00     0.208 A 
ATOM      3  C   UNL     1       5.538 176.614  44.167  1.00  0.00     0.238 A 
ATOM      4  O   UNL     1       5.055 177.232  43.183  1.00  0.00    -0.285 OA
ATOM      5  C   UNL     1       4.851 175.533  44.769  1.00  0.00     0.111 A 
ATOM      6  C   UNL     1       3.621 174.988  44.292  1.00  0.00     0.134 A 
ATOM      7  C   UNL     1       2.965 174.003  45.042  1.00  0.00     0.093 A 
ATOM      8  C   UNL     1       3.527 173.500  46.218  1.00  0.00     0.123 A 
ATOM      9  C   UNL     1       4.755 173.984  46.659  1.00  0.00     0.094 A 
ATOM     10  C   UNL     1       5.417 174.991  45.953  1.00  0.00     0.146 A 
ATOM     11  O   UNL     1       6.581 175.431  46.414  1.00  0.00    -0.452 OA
ENDROOT
BRANCH   1  12
ATOM     12  C   UNL     1       8.579 176.779  46.435  1.00  0.00     0.025 A 
ATOM     13  C   UNL     1       8.612 177.743  47.456  1.00  0.00     0.016 A 
ATOM     14  C   UNL     1       9.823 178.102  48.051  1.00  0.00     0.051 A 
ATOM     15  C   UNL     1      11.017 177.490  47.647  1.00  0.00     0.157 A 
ATOM     16  C   UNL     1       9.777 176.153  46.046  1.00  0.00     0.062 A 
ATOM     17  C   UNL     1      10.994 176.511  46.646  1.00  0.00     0.158 A 
BRANCH  15  18
ATOM     18  O   UNL     1      12.229 177.847  48.238  1.00  0.00    -0.504 OA
ATOM     19  H   UNL     1      13.046 178.064  47.680  1.00  0.00     0.293 HD
ENDBRANCH  15  18
BRANCH  17  20
ATOM     20  O   UNL     1      12.182 175.896  46.255  1.00  0.00    -0.504 OA
ATOM     21  H   UNL     1      12.197 174.941  45.916  1.00  0.00     0.293 HD
ENDBRANCH  17  20
ENDBRANCH   1  12
BRANCH   2  22
ATOM     22  O   UNL     1       7.448 178.125  44.131  1.00  0.00    -0.502 OA
ATOM     23  H   UNL     1       7.168 178.548  43.254  1.00  0.00     0.293 HD
ENDBRANCH   2  22
BRANCH   6  24
ATOM     24  O   UNL     1       3.021 175.355  43.084  1.00  0.00    -0.507 OA
ATOM     25  H   UNL     1       3.317 176.128  42.507  1.00  0.00     0.293 HD
ENDBRANCH   6  24
BRANCH   8  26
ATOM     26  O   UNL     1       2.875 172.509  46.949  1.00  0.00    -0.508 OA
ATOM     27  H   UNL     1       3.317 171.619  47.147  1.00  0.00     0.293 HD
ENDBRANCH   8  26
TORSDOF 6
ENDMDL
MODEL 3
REMARK VINA RESULT:    -1.836     21.189     23.328
REMARK INTER + INTRA:          -2.501
REMARK INTER:                  -2.179
REMARK INTRA:                  -0.322
REMARK UNBOUND:                -0.289
REMARK SMILES O=c1c(O)c(-c2ccc(O)c(O)c2)oc2cc(O)cc(O)c12
REMARK SMILES IDX 5 1 3 2 2 3 1 4 22 5 20 6 19 7 17 8 16 9 15 10 14 11 6 12
REMARK SMILES IDX 7 13 8 14 9 15 13 16 11 17 10 18 12 20 4 22 21 24 18 26
REMARK H PARENT 10 19 12 21 4 23 21 25 18 27
REMARK Flexibility Score: inf
ROOT
ATOM      1  C   UNL     1      18.021 159.539  35.634  1.00  0.00     0.180 A 
ATOM      2  C   UNL     1      18.910 158.710  34.932  1.00  0.00     0.208 A 
ATOM      3  C   UNL     1      20.255 158.661  35.331  1.00  0.00     0.238 A 
ATOM      4  O   UNL     1      21.036 157.876  34.732  1.00  0.00    -0.285 OA
ATOM      5  C   UNL     1      20.696 159.455  36.418  1.00  0.00     0.111 A 
ATOM      6  C   UNL     1      22.045 159.514  36.882  1.00  0.00     0.134 A 
ATOM      7  C   UNL     1      22.343 160.233  38.047  1.00  0.00     0.093 A 
ATOM      8  C   UNL     1      21.352 160.947  38.726  1.00  0.00     0.123 A 
ATOM      9  C   UNL     1      20.045 160.942  38.246  1.00  0.00     0.094 A 
ATOM     10  C   UNL     1      19.709 160.206  37.108  1.00  0.00     0.146 A 
ATOM     11  O   UNL     1      18.449 160.221  36.690  1.00  0.00    -0.452 OA
ENDROOT
BRANCH   1  12
ATOM     12  C   UNL     1      16.593 159.662  35.258  1.00  0.00     0.025 A 
ATOM     13  C   UNL     1      16.205 160.637  34.325  1.00  0.00     0.016 A 
ATOM     14  C   UNL     1      14.868 160.756  33.940  1.00  0.00     0.051 A 
ATOM     15  C   UNL     1      13.902 159.891  34.470  1.00  0.00     0.157 A 
ATOM     16  C   UNL     1      15.623 158.782  35.772  1.00  0.00     0.062 A 
ATOM     17  C   UNL     1      14.280 158.900  35.384  1.00  0.00     0.158 A 
BRANCH  15  18
ATOM     18  O   UNL     1      12.565 160.007  34.089  1.00  0.00    -0.504 OA
ATOM     19  H   UNL     1      12.280 160.628  33.341  1.00  0.00     0.293 HD
ENDBRANCH  15  18
BRANCH  17  20
ATOM     20  O   UNL     1      13.318 158.033  35.899  1.00  0.00    -0.504 OA
ATOM     21  H   UNL     1      12.926 157.284  35.341  1.00  0.00     0.293 HD
ENDBRANCH  17  20
ENDBRANCH   1  12
BRANCH   2  22
ATOM     22  O   UNL     1      18.450 157.918  33.876  1.00  0.00    -0.502 OA
ATOM     23  H   UNL     1      17.477 157.654  33.778  1.00  0.00     0.293 HD
ENDBRANCH   2  22
BRANCH   6  24
ATOM     24  O   UNL     1      23.124 158.914  36.227  1.00  0.00    -0.507 OA
ATOM     25  H   UNL     1      23.946 158.552  36.687  1.00  0.00     0.293 HD
ENDBRANCH   6  24
BRANCH   8  26
ATOM     26  O   UNL     1      21.660 161.672  39.875  1.00  0.00    -0.508 OA
ATOM     27  H   UNL     1      20.939 161.970  40.523  1.00  0.00     0.293 HD
ENDBRANCH   8  26
TORSDOF 6
ENDMDL
