MODEL 1
REMARK VINA RESULT:    -4.283      0.000      0.000
REMARK INTER + INTRA:          -9.027
REMARK INTER:                  -8.038
REMARK INTRA:                  -0.989
REMARK UNBOUND:                -0.989
REMARK SMILES CCCCCCCCC=CCCCCCCCC(=O)[O-]
REMARK SMILES IDX 10 1 9 2 11 3 12 4 13 5 14 6 15 7 16 8 17 9 18 10 19 11
REMARK SMILES IDX 20 12 8 13 7 14 6 15 5 16 4 17 3 18 2 19 1 20
REMARK H PARENT
REMARK Flexibility Score: inf
ROOT
ATOM      1  C   UNL     1       4.450   1.910 -24.709  1.00  0.00    -0.031 C 
ATOM      2  C   UNL     1       4.134   3.164 -24.358  1.00  0.00    -0.031 C 
ENDROOT
BRANCH   1   3
ATOM      3  C   UNL     1       5.166   1.606 -25.999  1.00  0.00     0.027 C 
BRANCH   3   4
ATOM      4  C   UNL     1       5.910   0.260 -25.960  1.00  0.00     0.004 C 
BRANCH   4   5
ATOM      5  C   UNL     1       7.039   0.123 -27.004  1.00  0.00     0.000 C 
BRANCH   5   6
ATOM      6  C   UNL     1       7.871  -1.168 -26.895  1.00  0.00     0.000 C 
BRANCH   6   7
ATOM      7  C   UNL     1       7.409  -2.150 -25.802  1.00  0.00     0.000 C 
BRANCH   7   8
ATOM      8  C   UNL     1       8.569  -2.889 -25.100  1.00  0.00     0.006 C 
BRANCH   8   9
ATOM      9  C   UNL     1       8.110  -4.179 -24.408  1.00  0.00     0.053 C 
BRANCH   9  10
ATOM     10  C   UNL     1       7.249  -3.861 -23.228  1.00  0.00     0.041 C 
ATOM     11  O   UNL     1       7.722  -3.221 -22.252  1.00  0.00    -0.550 OA
ATOM     12  O   UNL     1       5.934  -4.311 -23.184  1.00  0.00    -0.550 OA
ENDBRANCH   9  10
ENDBRANCH   8   9
ENDBRANCH   7   8
ENDBRANCH   6   7
ENDBRANCH   5   6
ENDBRANCH   4   5
ENDBRANCH   3   4
ENDBRANCH   1   3
BRANCH   2  13
ATOM     13  C   UNL     1       3.425   3.442 -23.061  1.00  0.00     0.027 C 
BRANCH  13  14
ATOM     14  C   UNL     1       4.052   2.654 -21.905  1.00  0.00     0.004 C 
BRANCH  14  15
ATOM     15  C   UNL     1       3.000   1.804 -21.183  1.00  0.00     0.000 C 
BRANCH  15  16
ATOM     16  C   UNL     1       3.525   1.310 -19.830  1.00  0.00     0.000 C 
BRANCH  16  17
ATOM     17  C   UNL     1       5.028   1.589 -19.688  1.00  0.00    -0.000 C 
BRANCH  17  18
ATOM     18  C   UNL     1       5.408   2.141 -18.302  1.00  0.00    -0.000 C 
BRANCH  18  19
ATOM     19  C   UNL     1       6.852   1.844 -17.861  1.00  0.00    -0.003 C 
ATOM     20  C   UNL     1       7.655   1.085 -18.916  1.00  0.00     0.004 C 
ENDBRANCH  18  19
ENDBRANCH  17  18
ENDBRANCH  16  17
ENDBRANCH  15  16
ENDBRANCH  14  15
ENDBRANCH  13  14
ENDBRANCH   2  13
TORSDOF 15
ENDMDL
MODEL 2
REMARK VINA RESULT:    -4.013      1.458      3.372
REMARK INTER + INTRA:          -8.522
REMARK INTER:                  -7.688
REMARK INTRA:                  -0.834
REMARK UNBOUND:                -0.989
REMARK SMILES CCCCCCCCC=CCCCCCCCC(=O)[O-]
REMARK SMILES IDX 10 1 9 2 11 3 12 4 13 5 14 6 15 7 16 8 17 9 18 10 19 11
REMARK SMILES IDX 20 12 8 13 7 14 6 15 5 16 4 17 3 18 2 19 1 20
REMARK H PARENT
REMARK Flexibility Score: inf
ROOT
ATOM      1  C   UNL     1       6.660   0.022 -26.193  1.00  0.00    -0.031 C 
ATOM      2  C   UNL     1       5.439   0.573 -26.140  1.00  0.00    -0.031 C 
ENDROOT
BRANCH   1   3
ATOM      3  C   UNL     1       6.907  -1.286 -26.898  1.00  0.00     0.027 C 
BRANCH   3   4
ATOM      4  C   UNL     1       8.224  -1.953 -26.465  1.00  0.00     0.004 C 
BRANCH   4   5
ATOM      5  C   UNL     1       8.100  -2.871 -25.230  1.00  0.00     0.000 C 
BRANCH   5   6
ATOM      6  C   UNL     1       8.656  -4.294 -25.420  1.00  0.00     0.000 C 
BRANCH   6   7
ATOM      7  C   UNL     1       9.930  -4.608 -24.613  1.00  0.00     0.000 C 
BRANCH   7   8
ATOM      8  C   UNL     1       9.965  -3.936 -23.223  1.00  0.00     0.006 C 
BRANCH   8   9
ATOM      9  C   UNL     1       9.727  -4.934 -22.082  1.00  0.00     0.053 C 
BRANCH   9  10
ATOM     10  C   UNL     1       8.386  -4.707 -21.460  1.00  0.00     0.041 C 
ATOM     11  O   UNL     1       7.357  -4.628 -22.182  1.00  0.00    -0.550 OA
ATOM     12  O   UNL     1       8.277  -4.537 -20.085  1.00  0.00    -0.550 OA
ENDBRANCH   9  10
ENDBRANCH   8   9
ENDBRANCH   7   8
ENDBRANCH   6   7
ENDBRANCH   5   6
ENDBRANCH   4   5
ENDBRANCH   3   4
ENDBRANCH   1   3
BRANCH   2  13
ATOM     13  C   UNL     1       5.220   1.884 -25.436  1.00  0.00     0.027 C 
BRANCH  13  14
ATOM     14  C   UNL     1       3.940   2.570 -25.926  1.00  0.00     0.004 C 
BRANCH  14  15
ATOM     15  C   UNL     1       3.275   3.365 -24.796  1.00  0.00     0.000 C 
BRANCH  15  16
ATOM     16  C   UNL     1       4.069   3.238 -23.491  1.00  0.00     0.000 C 
BRANCH  16  17
ATOM     17  C   UNL     1       3.128   3.163 -22.280  1.00  0.00    -0.000 C 
BRANCH  17  18
ATOM     18  C   UNL     1       3.879   3.176 -20.936  1.00  0.00    -0.000 C 
BRANCH  18  19
ATOM     19  C   UNL     1       3.871   1.837 -20.179  1.00  0.00    -0.003 C 
ATOM     20  C   UNL     1       5.011   1.714 -19.169  1.00  0.00     0.004 C 
ENDBRANCH  18  19
ENDBRANCH  17  18
ENDBRANCH  16  17
ENDBRANCH  15  16
ENDBRANCH  14  15
ENDBRANCH  13  14
ENDBRANCH   2  13
TORSDOF 15
ENDMDL
MODEL 3
REMARK VINA RESULT:    -3.930      2.531      6.781
REMARK INTER + INTRA:          -8.365
REMARK INTER:                  -6.887
REMARK INTRA:                  -1.478
REMARK UNBOUND:                -0.989
REMARK SMILES CCCCCCCCC=CCCCCCCCC(=O)[O-]
REMARK SMILES IDX 10 1 9 2 11 3 12 4 13 5 14 6 15 7 16 8 17 9 18 10 19 11
REMARK SMILES IDX 20 12 8 13 7 14 6 15 5 16 4 17 3 18 2 19 1 20
REMARK H PARENT
REMARK Flexibility Score: inf
ROOT
ATOM      1  C   UNL     1       6.337  -0.085 -26.049  1.00  0.00    -0.031 C 
ATOM      2  C   UNL     1       7.345  -0.750 -26.631  1.00  0.00    -0.031 C 
ENDROOT
BRANCH   1   3
ATOM      3  C   UNL     1       5.917   1.283 -26.519  1.00  0.00     0.027 C 
BRANCH   3   4
ATOM      4  C   UNL     1       4.763   1.866 -25.685  1.00  0.00     0.004 C 
BRANCH   4   5
ATOM      5  C   UNL     1       3.794   0.813 -25.108  1.00  0.00     0.000 C 
BRANCH   5   6
ATOM      6  C   UNL     1       3.216   1.152 -23.722  1.00  0.00     0.000 C 
BRANCH   6   7
ATOM      7  C   UNL     1       3.400   2.616 -23.281  1.00  0.00     0.000 C 
BRANCH   7   8
ATOM      8  C   UNL     1       4.350   2.787 -22.075  1.00  0.00     0.006 C 
BRANCH   8   9
ATOM      9  C   UNL     1       3.602   2.793 -20.736  1.00  0.00     0.053 C 
BRANCH   9  10
ATOM     10  C   UNL     1       4.058   1.657 -19.877  1.00  0.00     0.041 C 
ATOM     11  O   UNL     1       3.237   0.782 -19.494  1.00  0.00    -0.550 OA
ATOM     12  O   UNL     1       5.383   1.586 -19.463  1.00  0.00    -0.550 OA
ENDBRANCH   9  10
ENDBRANCH   8   9
ENDBRANCH   7   8
ENDBRANCH   6   7
ENDBRANCH   5   6
ENDBRANCH   4   5
ENDBRANCH   3   4
ENDBRANCH   1   3
BRANCH   2  13
ATOM     13  C   UNL     1       7.741  -2.118 -26.147  1.00  0.00     0.027 C 
BRANCH  13  14
ATOM     14  C   UNL     1       7.040  -2.466 -24.829  1.00  0.00     0.004 C 
BRANCH  14  15
ATOM     15  C   UNL     1       6.577  -3.927 -24.820  1.00  0.00     0.000 C 
BRANCH  15  16
ATOM     16  C   UNL     1       7.099  -4.663 -23.580  1.00  0.00     0.000 C 
BRANCH  16  17
ATOM     17  C   UNL     1       7.895  -3.714 -22.673  1.00  0.00    -0.000 C 
BRANCH  17  18
ATOM     18  C   UNL     1       9.363  -4.143 -22.499  1.00  0.00    -0.000 C 
BRANCH  18  19
ATOM     19  C   UNL     1      10.054  -4.623 -23.788  1.00  0.00    -0.003 C 
ATOM     20  C   UNL     1      10.692  -3.486 -24.583  1.00  0.00     0.004 C 
ENDBRANCH  18  19
ENDBRANCH  17  18
ENDBRANCH  16  17
ENDBRANCH  15  16
ENDBRANCH  14  15
ENDBRANCH  13  14
ENDBRANCH   2  13
TORSDOF 15
ENDMDL
MODEL 4
REMARK VINA RESULT:    -3.793      2.445      6.619
REMARK INTER + INTRA:          -8.108
REMARK INTER:                  -7.082
REMARK INTRA:                  -1.026
REMARK UNBOUND:                -0.989
REMARK SMILES CCCCCCCCC=CCCCCCCCC(=O)[O-]
REMARK SMILES IDX 10 1 9 2 11 3 12 4 13 5 14 6 15 7 16 8 17 9 18 10 19 11
REMARK SMILES IDX 20 12 8 13 7 14 6 15 5 16 4 17 3 18 2 19 1 20
REMARK H PARENT
REMARK Flexibility Score: inf
ROOT
ATOM      1  C   UNL     1       5.716   1.402 -25.702  1.00  0.00    -0.031 C 
ATOM      2  C   UNL     1       4.974   0.302 -25.893  1.00  0.00    -0.031 C 
ENDROOT
BRANCH   1   3
ATOM      3  C   UNL     1       5.214   2.564 -24.887  1.00  0.00     0.027 C 
BRANCH   3   4
ATOM      4  C   UNL     1       3.763   2.373 -24.414  1.00  0.00     0.004 C 
BRANCH   4   5
ATOM      5  C   UNL     1       3.144   3.611 -23.731  1.00  0.00     0.000 C 
BRANCH   5   6
ATOM      6  C   UNL     1       3.479   3.765 -22.237  1.00  0.00     0.000 C 
BRANCH   6   7
ATOM      7  C   UNL     1       3.562   2.444 -21.449  1.00  0.00     0.000 C 
BRANCH   7   8
ATOM      8  C   UNL     1       4.081   2.614 -20.004  1.00  0.00     0.006 C 
BRANCH   8   9
ATOM      9  C   UNL     1       4.764   1.348 -19.473  1.00  0.00     0.053 C 
BRANCH   9  10
ATOM     10  C   UNL     1       6.006   1.701 -18.719  1.00  0.00     0.041 C 
ATOM     11  O   UNL     1       7.132   1.328 -19.141  1.00  0.00    -0.550 OA
ATOM     12  O   UNL     1       5.917   2.407 -17.524  1.00  0.00    -0.550 OA
ENDBRANCH   9  10
ENDBRANCH   8   9
ENDBRANCH   7   8
ENDBRANCH   6   7
ENDBRANCH   5   6
ENDBRANCH   4   5
ENDBRANCH   3   4
ENDBRANCH   1   3
BRANCH   2  13
ATOM     13  C   UNL     1       5.500  -0.848 -26.706  1.00  0.00     0.027 C 
BRANCH  13  14
ATOM     14  C   UNL     1       6.366  -1.781 -25.852  1.00  0.00     0.004 C 
BRANCH  14  15
ATOM     15  C   UNL     1       5.571  -2.338 -24.665  1.00  0.00     0.000 C 
BRANCH  15  16
ATOM     16  C   UNL     1       6.312  -3.507 -24.005  1.00  0.00     0.000 C 
BRANCH  16  17
ATOM     17  C   UNL     1       7.813  -3.206 -23.881  1.00  0.00    -0.000 C 
BRANCH  17  18
ATOM     18  C   UNL     1       8.657  -4.467 -23.620  1.00  0.00    -0.000 C 
BRANCH  18  19
ATOM     19  C   UNL     1       9.371  -4.496 -22.258  1.00  0.00    -0.003 C 
ATOM     20  C   UNL     1       8.606  -3.751 -21.165  1.00  0.00     0.004 C 
ENDBRANCH  18  19
ENDBRANCH  17  18
ENDBRANCH  16  17
ENDBRANCH  15  16
ENDBRANCH  14  15
ENDBRANCH  13  14
ENDBRANCH   2  13
TORSDOF 15
ENDMDL
MODEL 5
REMARK VINA RESULT:    -3.781      2.574      6.694
REMARK INTER + INTRA:          -8.084
REMARK INTER:                  -6.219
REMARK INTRA:                  -1.865
REMARK UNBOUND:                -0.989
REMARK SMILES CCCCCCCCC=CCCCCCCCC(=O)[O-]
REMARK SMILES IDX 10 1 9 2 11 3 12 4 13 5 14 6 15 7 16 8 17 9 18 10 19 11
REMARK SMILES IDX 20 12 8 13 7 14 6 15 5 16 4 17 3 18 2 19 1 20
REMARK H PARENT
REMARK Flexibility Score: inf
ROOT
ATOM      1  C   UNL     1       4.351   1.934 -24.844  1.00  0.00    -0.031 C 
ATOM      2  C   UNL     1       4.923   1.796 -26.048  1.00  0.00    -0.031 C 
ENDROOT
BRANCH   1   3
ATOM      3  C   UNL     1       2.959   2.488 -24.689  1.00  0.00     0.027 C 
BRANCH   3   4
ATOM      4  C   UNL     1       2.888   3.632 -23.662  1.00  0.00     0.004 C 
BRANCH   4   5
ATOM      5  C   UNL     1       4.072   3.679 -22.673  1.00  0.00     0.000 C 
BRANCH   5   6
ATOM      6  C   UNL     1       3.713   3.348 -21.213  1.00  0.00     0.000 C 
BRANCH   6   7
ATOM      7  C   UNL     1       3.515   1.850 -20.916  1.00  0.00     0.000 C 
BRANCH   7   8
ATOM      8  C   UNL     1       4.606   1.247 -20.005  1.00  0.00     0.006 C 
BRANCH   8   9
ATOM      9  C   UNL     1       4.905   2.129 -18.785  1.00  0.00     0.053 C 
BRANCH   9  10
ATOM     10  C   UNL     1       6.279   1.851 -18.264  1.00  0.00     0.041 C 
ATOM     11  O   UNL     1       6.585   2.166 -17.083  1.00  0.00    -0.550 OA
ATOM     12  O   UNL     1       7.237   1.284 -19.095  1.00  0.00    -0.550 OA
ENDBRANCH   9  10
ENDBRANCH   8   9
ENDBRANCH   7   8
ENDBRANCH   6   7
ENDBRANCH   5   6
ENDBRANCH   4   5
ENDBRANCH   3   4
ENDBRANCH   1   3
BRANCH   2  13
ATOM     13  C   UNL     1       6.312   1.233 -26.177  1.00  0.00     0.027 C 
BRANCH  13  14
ATOM     14  C   UNL     1       6.464   0.422 -27.469  1.00  0.00     0.004 C 
BRANCH  14  15
ATOM     15  C   UNL     1       6.313  -1.079 -27.197  1.00  0.00     0.000 C 
BRANCH  15  16
ATOM     16  C   UNL     1       7.184  -1.516 -26.013  1.00  0.00     0.000 C 
BRANCH  16  17
ATOM     17  C   UNL     1       6.342  -2.229 -24.945  1.00  0.00    -0.000 C 
BRANCH  17  18
ATOM     18  C   UNL     1       4.869  -1.784 -24.948  1.00  0.00    -0.000 C 
BRANCH  18  19
ATOM     19  C   UNL     1       4.110  -2.052 -23.636  1.00  0.00    -0.003 C 
ATOM     20  C   UNL     1       2.934  -1.101 -23.421  1.00  0.00     0.004 C 
ENDBRANCH  18  19
ENDBRANCH  17  18
ENDBRANCH  16  17
ENDBRANCH  15  16
ENDBRANCH  14  15
ENDBRANCH  13  14
ENDBRANCH   2  13
TORSDOF 15
ENDMDL
MODEL 6
REMARK VINA RESULT:    -3.429      3.777      6.467
REMARK INTER + INTRA:          -7.425
REMARK INTER:                  -5.753
REMARK INTRA:                  -1.673
REMARK UNBOUND:                -0.989
REMARK SMILES CCCCCCCCC=CCCCCCCCC(=O)[O-]
REMARK SMILES IDX 10 1 9 2 11 3 12 4 13 5 14 6 15 7 16 8 17 9 18 10 19 11
REMARK SMILES IDX 20 12 8 13 7 14 6 15 5 16 4 17 3 18 2 19 1 20
REMARK H PARENT
REMARK Flexibility Score: inf
ROOT
ATOM      1  C   UNL     1       7.069  -3.322 -24.414  1.00  0.00    -0.031 C 
ATOM      2  C   UNL     1       7.598  -2.430 -25.262  1.00  0.00    -0.031 C 
ENDROOT
BRANCH   1   3
ATOM      3  C   UNL     1       7.310  -3.242 -22.929  1.00  0.00     0.027 C 
BRANCH   3   4
ATOM      4  C   UNL     1       8.080  -4.460 -22.388  1.00  0.00     0.004 C 
BRANCH   4   5
ATOM      5  C   UNL     1       9.613  -4.285 -22.357  1.00  0.00     0.000 C 
BRANCH   5   6
ATOM      6  C   UNL     1      10.370  -4.974 -23.507  1.00  0.00     0.000 C 
BRANCH   6   7
ATOM      7  C   UNL     1      10.759  -4.048 -24.675  1.00  0.00     0.000 C 
BRANCH   7   8
ATOM      8  C   UNL     1      10.430  -4.631 -26.067  1.00  0.00     0.006 C 
BRANCH   8   9
ATOM      9  C   UNL     1      11.118  -3.863 -27.203  1.00  0.00     0.053 C 
BRANCH   9  10
ATOM     10  C   UNL     1      12.600  -3.853 -27.004  1.00  0.00     0.041 C 
ATOM     11  O   UNL     1      13.247  -4.934 -26.995  1.00  0.00    -0.550 OA
ATOM     12  O   UNL     1      13.264  -2.652 -26.784  1.00  0.00    -0.550 OA
ENDBRANCH   9  10
ENDBRANCH   8   9
ENDBRANCH   7   8
ENDBRANCH   6   7
ENDBRANCH   5   6
ENDBRANCH   4   5
ENDBRANCH   3   4
ENDBRANCH   1   3
BRANCH   2  13
ATOM     13  C   UNL     1       7.336  -2.528 -26.740  1.00  0.00     0.027 C 
BRANCH  13  14
ATOM     14  C   UNL     1       6.565  -1.305 -27.249  1.00  0.00     0.004 C 
BRANCH  14  15
ATOM     15  C   UNL     1       6.631  -0.153 -26.239  1.00  0.00     0.000 C 
BRANCH  15  16
ATOM     16  C   UNL     1       6.315   1.188 -26.912  1.00  0.00     0.000 C 
BRANCH  16  17
ATOM     17  C   UNL     1       5.195   1.927 -26.166  1.00  0.00    -0.000 C 
BRANCH  17  18
ATOM     18  C   UNL     1       4.427   1.020 -25.187  1.00  0.00    -0.000 C 
BRANCH  18  19
ATOM     19  C   UNL     1       3.715   1.761 -24.042  1.00  0.00    -0.003 C 
ATOM     20  C   UNL     1       4.407   3.067 -23.653  1.00  0.00     0.004 C 
ENDBRANCH  18  19
ENDBRANCH  17  18
ENDBRANCH  16  17
ENDBRANCH  15  16
ENDBRANCH  14  15
ENDBRANCH  13  14
ENDBRANCH   2  13
TORSDOF 15
ENDMDL
MODEL 7
REMARK VINA RESULT:    -3.404      1.818      4.597
REMARK INTER + INTRA:          -7.377
REMARK INTER:                  -6.246
REMARK INTRA:                  -1.131
REMARK UNBOUND:                -0.989
REMARK SMILES CCCCCCCCC=CCCCCCCCC(=O)[O-]
REMARK SMILES IDX 10 1 9 2 11 3 12 4 13 5 14 6 15 7 16 8 17 9 18 10 19 11
REMARK SMILES IDX 20 12 8 13 7 14 6 15 5 16 4 17 3 18 2 19 1 20
REMARK H PARENT
REMARK Flexibility Score: inf
ROOT
ATOM      1  C   UNL     1       8.112  -1.315 -27.531  1.00  0.00    -0.031 C 
ATOM      2  C   UNL     1       7.264  -0.459 -26.945  1.00  0.00    -0.031 C 
ENDROOT
BRANCH   1   3
ATOM      3  C   UNL     1       8.328  -2.706 -26.995  1.00  0.00     0.027 C 
BRANCH   3   4
ATOM      4  C   UNL     1       9.334  -3.514 -27.832  1.00  0.00     0.004 C 
BRANCH   4   5
ATOM      5  C   UNL     1      10.511  -4.102 -27.026  1.00  0.00     0.000 C 
BRANCH   5   6
ATOM      6  C   UNL     1      10.609  -3.616 -25.568  1.00  0.00     0.000 C 
BRANCH   6   7
ATOM      7  C   UNL     1      10.916  -4.716 -24.535  1.00  0.00     0.000 C 
BRANCH   7   8
ATOM      8  C   UNL     1       9.859  -4.826 -23.413  1.00  0.00     0.006 C 
BRANCH   8   9
ATOM      9  C   UNL     1       8.467  -4.374 -23.872  1.00  0.00     0.053 C 
BRANCH   9  10
ATOM     10  C   UNL     1       7.706  -3.784 -22.727  1.00  0.00     0.041 C 
ATOM     11  O   UNL     1       6.634  -3.156 -22.935  1.00  0.00    -0.550 OA
ATOM     12  O   UNL     1       8.202  -3.891 -21.433  1.00  0.00    -0.550 OA
ENDBRANCH   9  10
ENDBRANCH   8   9
ENDBRANCH   7   8
ENDBRANCH   6   7
ENDBRANCH   5   6
ENDBRANCH   4   5
ENDBRANCH   3   4
ENDBRANCH   1   3
BRANCH   2  13
ATOM     13  C   UNL     1       7.061   0.922 -27.504  1.00  0.00     0.027 C 
BRANCH  13  14
ATOM     14  C   UNL     1       5.985   1.685 -26.723  1.00  0.00     0.004 C 
BRANCH  14  15
ATOM     15  C   UNL     1       5.318   0.781 -25.679  1.00  0.00     0.000 C 
BRANCH  15  16
ATOM     16  C   UNL     1       4.272   1.556 -24.868  1.00  0.00     0.000 C 
BRANCH  16  17
ATOM     17  C   UNL     1       4.857   2.871 -24.332  1.00  0.00    -0.000 C 
BRANCH  17  18
ATOM     18  C   UNL     1       4.103   3.403 -23.099  1.00  0.00    -0.000 C 
BRANCH  18  19
ATOM     19  C   UNL     1       3.637   2.321 -22.110  1.00  0.00    -0.003 C 
ATOM     20  C   UNL     1       3.943   2.668 -20.654  1.00  0.00     0.004 C 
ENDBRANCH  18  19
ENDBRANCH  17  18
ENDBRANCH  16  17
ENDBRANCH  15  16
ENDBRANCH  14  15
ENDBRANCH  13  14
ENDBRANCH   2  13
TORSDOF 15
ENDMDL
MODEL 8
REMARK VINA RESULT:    -3.385      2.081      4.696
REMARK INTER + INTRA:          -7.342
REMARK INTER:                  -5.666
REMARK INTRA:                  -1.676
REMARK UNBOUND:                -0.989
REMARK SMILES CCCCCCCCC=CCCCCCCCC(=O)[O-]
REMARK SMILES IDX 10 1 9 2 11 3 12 4 13 5 14 6 15 7 16 8 17 9 18 10 19 11
REMARK SMILES IDX 20 12 8 13 7 14 6 15 5 16 4 17 3 18 2 19 1 20
REMARK H PARENT
REMARK Flexibility Score: inf
ROOT
ATOM      1  C   UNL     1       7.911  -1.327 -26.661  1.00  0.00    -0.031 C 
ATOM      2  C   UNL     1       6.843  -0.525 -26.541  1.00  0.00    -0.031 C 
ENDROOT
BRANCH   1   3
ATOM      3  C   UNL     1       7.887  -2.753 -26.178  1.00  0.00     0.027 C 
BRANCH   3   4
ATOM      4  C   UNL     1       9.015  -3.059 -25.178  1.00  0.00     0.004 C 
BRANCH   4   5
ATOM      5  C   UNL     1       8.541  -3.695 -23.854  1.00  0.00     0.000 C 
BRANCH   5   6
ATOM      6  C   UNL     1       7.088  -3.372 -23.461  1.00  0.00     0.000 C 
BRANCH   6   7
ATOM      7  C   UNL     1       6.079  -4.510 -23.708  1.00  0.00     0.000 C 
BRANCH   7   8
ATOM      8  C   UNL     1       4.615  -4.029 -23.817  1.00  0.00     0.006 C 
BRANCH   8   9
ATOM      9  C   UNL     1       4.505  -2.605 -24.376  1.00  0.00     0.053 C 
BRANCH   9  10
ATOM     10  C   UNL     1       3.936  -2.628 -25.759  1.00  0.00     0.041 C 
ATOM     11  O   UNL     1       4.389  -3.430 -26.617  1.00  0.00    -0.550 OA
ATOM     12  O   UNL     1       2.934  -1.732 -26.114  1.00  0.00    -0.550 OA
ENDBRANCH   9  10
ENDBRANCH   8   9
ENDBRANCH   7   8
ENDBRANCH   6   7
ENDBRANCH   5   6
ENDBRANCH   4   5
ENDBRANCH   3   4
ENDBRANCH   1   3
BRANCH   2  13
ATOM     13  C   UNL     1       6.891   0.894 -27.037  1.00  0.00     0.027 C 
BRANCH  13  14
ATOM     14  C   UNL     1       5.769   1.736 -26.417  1.00  0.00     0.004 C 
BRANCH  14  15
ATOM     15  C   UNL     1       5.027   0.950 -25.330  1.00  0.00     0.000 C 
BRANCH  15  16
ATOM     16  C   UNL     1       3.757   1.687 -24.888  1.00  0.00     0.000 C 
BRANCH  16  17
ATOM     17  C   UNL     1       4.047   2.620 -23.703  1.00  0.00    -0.000 C 
BRANCH  17  18
ATOM     18  C   UNL     1       3.432   2.122 -22.383  1.00  0.00    -0.000 C 
BRANCH  18  19
ATOM     19  C   UNL     1       4.020   2.762 -21.114  1.00  0.00    -0.003 C 
ATOM     20  C   UNL     1       4.152   1.777 -19.953  1.00  0.00     0.004 C 
ENDBRANCH  18  19
ENDBRANCH  17  18
ENDBRANCH  16  17
ENDBRANCH  15  16
ENDBRANCH  14  15
ENDBRANCH  13  14
ENDBRANCH   2  13
TORSDOF 15
ENDMDL
MODEL 9
REMARK VINA RESULT:    -3.331     18.020     21.544
REMARK INTER + INTRA:          -7.240
REMARK INTER:                  -6.338
REMARK INTRA:                  -0.902
REMARK UNBOUND:                -0.989
REMARK SMILES CCCCCCCCC=CCCCCCCCC(=O)[O-]
REMARK SMILES IDX 10 1 9 2 11 3 12 4 13 5 14 6 15 7 16 8 17 9 18 10 19 11
REMARK SMILES IDX 20 12 8 13 7 14 6 15 5 16 4 17 3 18 2 19 1 20
REMARK H PARENT
REMARK Flexibility Score: inf
ROOT
ATOM      1  C   UNL     1      16.717  12.849 -10.515  1.00  0.00    -0.031 C 
ATOM      2  C   UNL     1      18.018  12.970 -10.214  1.00  0.00    -0.031 C 
ENDROOT
BRANCH   1   3
ATOM      3  C   UNL     1      15.878  14.042 -10.891  1.00  0.00     0.027 C 
BRANCH   3   4
ATOM      4  C   UNL     1      14.369  13.747 -10.833  1.00  0.00     0.004 C 
BRANCH   4   5
ATOM      5  C   UNL     1      13.676  14.212  -9.535  1.00  0.00     0.000 C 
BRANCH   5   6
ATOM      6  C   UNL     1      13.844  13.266  -8.332  1.00  0.00     0.000 C 
BRANCH   6   7
ATOM      7  C   UNL     1      13.841  11.765  -8.680  1.00  0.00     0.000 C 
BRANCH   7   8
ATOM      8  C   UNL     1      12.688  10.977  -8.020  1.00  0.00     0.006 C 
BRANCH   8   9
ATOM      9  C   UNL     1      11.810  10.250  -9.047  1.00  0.00     0.053 C 
BRANCH   9  10
ATOM     10  C   UNL     1      12.058   8.776  -8.996  1.00  0.00     0.041 C 
ATOM     11  O   UNL     1      11.137   7.990  -8.649  1.00  0.00    -0.550 OA
ATOM     12  O   UNL     1      13.320   8.272  -9.289  1.00  0.00    -0.550 OA
ENDBRANCH   9  10
ENDBRANCH   8   9
ENDBRANCH   7   8
ENDBRANCH   6   7
ENDBRANCH   5   6
ENDBRANCH   4   5
ENDBRANCH   3   4
ENDBRANCH   1   3
BRANCH   2  13
ATOM     13  C   UNL     1      18.835  11.762  -9.848  1.00  0.00     0.027 C 
BRANCH  13  14
ATOM     14  C   UNL     1      19.814  11.394 -10.968  1.00  0.00     0.004 C 
BRANCH  14  15
ATOM     15  C   UNL     1      21.077  12.261 -10.903  1.00  0.00     0.000 C 
BRANCH  15  16
ATOM     16  C   UNL     1      20.978  13.451 -11.866  1.00  0.00     0.000 C 
BRANCH  16  17
ATOM     17  C   UNL     1      22.301  13.661 -12.616  1.00  0.00    -0.000 C 
BRANCH  17  18
ATOM     18  C   UNL     1      22.557  12.591 -13.693  1.00  0.00    -0.000 C 
BRANCH  18  19
ATOM     19  C   UNL     1      22.471  13.099 -15.143  1.00  0.00    -0.003 C 
ATOM     20  C   UNL     1      21.349  12.439 -15.942  1.00  0.00     0.004 C 
ENDBRANCH  18  19
ENDBRANCH  17  18
ENDBRANCH  16  17
ENDBRANCH  15  16
ENDBRANCH  14  15
ENDBRANCH  13  14
ENDBRANCH   2  13
TORSDOF 15
ENDMDL
