MODEL 1
REMARK VINA RESULT:    -3.840      0.000      0.000
REMARK INTER + INTRA:          -6.678
REMARK INTER:                  -6.084
REMARK INTRA:                  -0.593
REMARK UNBOUND:                -0.593
REMARK SMILES CCCCCCCCCCCC(=O)[O-]
REMARK SMILES IDX 7 1 8 2 9 3 10 4 11 5 12 6 13 7 14 8 6 9 5 10 4 11 3 12 2 13
REMARK SMILES IDX 1 14
REMARK H PARENT
REMARK Flexibility Score: inf
ROOT
ATOM      1  C   UNL     1      32.874  -0.008  42.701  1.00  0.00     0.000 C 
ENDROOT
BRANCH   1   2
ATOM      2  C   UNL     1      34.148  -0.297  41.897  1.00  0.00     0.000 C 
BRANCH   2   3
ATOM      3  C   UNL     1      35.401  -0.090  42.759  1.00  0.00     0.000 C 
BRANCH   3   4
ATOM      4  C   UNL     1      36.195  -1.389  42.991  1.00  0.00     0.006 C 
BRANCH   4   5
ATOM      5  C   UNL     1      35.442  -2.665  42.574  1.00  0.00     0.053 C 
BRANCH   5   6
ATOM      6  C   UNL     1      35.644  -3.797  43.535  1.00  0.00     0.041 C 
ATOM      7  O   UNL     1      34.653  -4.397  44.028  1.00  0.00    -0.550 OA
ATOM      8  O   UNL     1      36.930  -4.169  43.910  1.00  0.00    -0.550 OA
ENDBRANCH   5   6
ENDBRANCH   4   5
ENDBRANCH   3   4
ENDBRANCH   2   3
ENDBRANCH   1   2
BRANCH   1   9
ATOM      9  C   UNL     1      31.623  -0.444  41.928  1.00  0.00     0.000 C 
BRANCH   9  10
ATOM     10  C   UNL     1      30.605  -1.114  42.862  1.00  0.00    -0.000 C 
BRANCH  10  11
ATOM     11  C   UNL     1      31.216  -1.542  44.209  1.00  0.00    -0.000 C 
BRANCH  11  12
ATOM     12  C   UNL     1      30.228  -2.195  45.193  1.00  0.00    -0.000 C 
BRANCH  12  13
ATOM     13  C   UNL     1      29.516  -1.172  46.092  1.00  0.00    -0.003 C 
ATOM     14  C   UNL     1      28.030  -1.091  45.759  1.00  0.00     0.004 C 
ENDBRANCH  12  13
ENDBRANCH  11  12
ENDBRANCH  10  11
ENDBRANCH   9  10
ENDBRANCH   1   9
TORSDOF 10
ENDMDL
MODEL 2
REMARK VINA RESULT:    -3.811      2.622      5.996
REMARK INTER + INTRA:          -6.632
REMARK INTER:                  -5.935
REMARK INTRA:                  -0.698
REMARK UNBOUND:                -0.593
REMARK SMILES CCCCCCCCCCCC(=O)[O-]
REMARK SMILES IDX 7 1 8 2 9 3 10 4 11 5 12 6 13 7 14 8 6 9 5 10 4 11 3 12 2 13
REMARK SMILES IDX 1 14
REMARK H PARENT
REMARK Flexibility Score: inf
ROOT
ATOM      1  C   UNL     1      33.020  -0.347  43.029  1.00  0.00     0.000 C 
ENDROOT
BRANCH   1   2
ATOM      2  C   UNL     1      31.701  -0.467  42.254  1.00  0.00     0.000 C 
BRANCH   2   3
ATOM      3  C   UNL     1      30.631  -1.176  43.096  1.00  0.00     0.000 C 
BRANCH   3   4
ATOM      4  C   UNL     1      31.159  -1.660  44.459  1.00  0.00     0.006 C 
BRANCH   4   5
ATOM      5  C   UNL     1      30.164  -1.469  45.619  1.00  0.00     0.053 C 
BRANCH   5   6
ATOM      6  C   UNL     1      29.132  -2.553  45.681  1.00  0.00     0.041 C 
ATOM      7  O   UNL     1      29.423  -3.728  45.335  1.00  0.00    -0.550 OA
ATOM      8  O   UNL     1      27.838  -2.257  46.093  1.00  0.00    -0.550 OA
ENDBRANCH   5   6
ENDBRANCH   4   5
ENDBRANCH   3   4
ENDBRANCH   2   3
ENDBRANCH   1   2
BRANCH   1   9
ATOM      9  C   UNL     1      34.209  -0.778  42.162  1.00  0.00     0.000 C 
BRANCH   9  10
ATOM     10  C   UNL     1      35.507  -0.111  42.639  1.00  0.00    -0.000 C 
BRANCH  10  11
ATOM     11  C   UNL     1      36.434  -1.076  43.402  1.00  0.00    -0.000 C 
BRANCH  11  12
ATOM     12  C   UNL     1      36.801  -2.363  42.641  1.00  0.00    -0.000 C 
BRANCH  12  13
ATOM     13  C   UNL     1      36.653  -3.628  43.500  1.00  0.00    -0.003 C 
ATOM     14  C   UNL     1      35.185  -4.010  43.664  1.00  0.00     0.004 C 
ENDBRANCH  12  13
ENDBRANCH  11  12
ENDBRANCH  10  11
ENDBRANCH   9  10
ENDBRANCH   1   9
TORSDOF 10
ENDMDL
MODEL 3
REMARK VINA RESULT:    -3.724      2.737      6.198
REMARK INTER + INTRA:          -6.494
REMARK INTER:                  -5.883
REMARK INTRA:                  -0.612
REMARK UNBOUND:                -0.593
REMARK SMILES CCCCCCCCCCCC(=O)[O-]
REMARK SMILES IDX 7 1 8 2 9 3 10 4 11 5 12 6 13 7 14 8 6 9 5 10 4 11 3 12 2 13
REMARK SMILES IDX 1 14
REMARK H PARENT
REMARK Flexibility Score: inf
ROOT
ATOM      1  C   UNL     1      31.809  -0.397  42.244  1.00  0.00     0.000 C 
ENDROOT
BRANCH   1   2
ATOM      2  C   UNL     1      30.812  -1.170  43.116  1.00  0.00     0.000 C 
BRANCH   2   3
ATOM      3  C   UNL     1      31.453  -1.587  44.447  1.00  0.00     0.000 C 
BRANCH   3   4
ATOM      4  C   UNL     1      30.494  -1.455  45.646  1.00  0.00     0.006 C 
BRANCH   4   5
ATOM      5  C   UNL     1      29.019  -1.729  45.299  1.00  0.00     0.053 C 
BRANCH   5   6
ATOM      6  C   UNL     1      28.540  -3.052  45.815  1.00  0.00     0.041 C 
ATOM      7  O   UNL     1      27.674  -3.102  46.727  1.00  0.00    -0.550 OA
ATOM      8  O   UNL     1      29.075  -4.230  45.309  1.00  0.00    -0.550 OA
ENDBRANCH   5   6
ENDBRANCH   4   5
ENDBRANCH   3   4
ENDBRANCH   2   3
ENDBRANCH   1   2
BRANCH   1   9
ATOM      9  C   UNL     1      33.199  -0.367  42.891  1.00  0.00     0.000 C 
BRANCH   9  10
ATOM     10  C   UNL     1      34.263  -0.924  41.934  1.00  0.00    -0.000 C 
BRANCH  10  11
ATOM     11  C   UNL     1      35.420  -1.628  42.666  1.00  0.00    -0.000 C 
BRANCH  11  12
ATOM     12  C   UNL     1      35.325  -3.164  42.709  1.00  0.00    -0.000 C 
BRANCH  12  13
ATOM     13  C   UNL     1      36.236  -3.790  43.775  1.00  0.00    -0.003 C 
ATOM     14  C   UNL     1      37.639  -4.030  43.226  1.00  0.00     0.004 C 
ENDBRANCH  12  13
ENDBRANCH  11  12
ENDBRANCH  10  11
ENDBRANCH   9  10
ENDBRANCH   1   9
TORSDOF 10
ENDMDL
MODEL 4
REMARK VINA RESULT:    -3.631     13.590     16.200
REMARK INTER + INTRA:          -6.347
REMARK INTER:                  -5.005
REMARK INTRA:                  -1.343
REMARK UNBOUND:                -0.593
REMARK SMILES CCCCCCCCCCCC(=O)[O-]
REMARK SMILES IDX 7 1 8 2 9 3 10 4 11 5 12 6 13 7 14 8 6 9 5 10 4 11 3 12 2 13
REMARK SMILES IDX 1 14
REMARK H PARENT
REMARK Flexibility Score: inf
ROOT
ATOM      1  C   UNL     1      21.931 -11.629  45.642  1.00  0.00     0.000 C 
ENDROOT
BRANCH   1   2
ATOM      2  C   UNL     1      21.870 -10.573  44.531  1.00  0.00     0.000 C 
BRANCH   2   3
ATOM      3  C   UNL     1      20.419 -10.286  44.123  1.00  0.00     0.000 C 
BRANCH   3   4
ATOM      4  C   UNL     1      20.296  -9.695  42.706  1.00  0.00     0.006 C 
BRANCH   4   5
ATOM      5  C   UNL     1      19.794  -8.239  42.677  1.00  0.00     0.053 C 
BRANCH   5   6
ATOM      6  C   UNL     1      20.883  -7.246  42.951  1.00  0.00     0.041 C 
ATOM      7  O   UNL     1      20.623  -6.166  43.543  1.00  0.00    -0.550 OA
ATOM      8  O   UNL     1      22.180  -7.501  42.521  1.00  0.00    -0.550 OA
ENDBRANCH   5   6
ENDBRANCH   4   5
ENDBRANCH   3   4
ENDBRANCH   2   3
ENDBRANCH   1   2
BRANCH   1   9
ATOM      9  C   UNL     1      20.593 -11.723  46.386  1.00  0.00     0.000 C 
BRANCH   9  10
ATOM     10  C   UNL     1      20.179 -13.188  46.591  1.00  0.00    -0.000 C 
BRANCH  10  11
ATOM     11  C   UNL     1      19.317 -13.735  45.439  1.00  0.00    -0.000 C 
BRANCH  11  12
ATOM     12  C   UNL     1      20.077 -14.579  44.400  1.00  0.00    -0.000 C 
BRANCH  12  13
ATOM     13  C   UNL     1      20.106 -13.930  43.008  1.00  0.00    -0.003 C 
ATOM     14  C   UNL     1      21.539 -13.700  42.540  1.00  0.00     0.004 C 
ENDBRANCH  12  13
ENDBRANCH  11  12
ENDBRANCH  10  11
ENDBRANCH   9  10
ENDBRANCH   1   9
TORSDOF 10
ENDMDL
MODEL 5
REMARK VINA RESULT:    -3.585      1.626      2.429
REMARK INTER + INTRA:          -6.273
REMARK INTER:                  -5.798
REMARK INTRA:                  -0.476
REMARK UNBOUND:                -0.593
REMARK SMILES CCCCCCCCCCCC(=O)[O-]
REMARK SMILES IDX 7 1 8 2 9 3 10 4 11 5 12 6 13 7 14 8 6 9 5 10 4 11 3 12 2 13
REMARK SMILES IDX 1 14
REMARK H PARENT
REMARK Flexibility Score: inf
ROOT
ATOM      1  C   UNL     1      30.788  -0.936  42.863  1.00  0.00     0.000 C 
ENDROOT
BRANCH   1   2
ATOM      2  C   UNL     1      32.232  -0.790  43.359  1.00  0.00     0.000 C 
BRANCH   2   3
ATOM      3  C   UNL     1      33.043   0.122  42.429  1.00  0.00     0.000 C 
BRANCH   3   4
ATOM      4  C   UNL     1      34.560  -0.135  42.504  1.00  0.00     0.006 C 
BRANCH   4   5
ATOM      5  C   UNL     1      34.991  -1.501  41.939  1.00  0.00     0.053 C 
BRANCH   5   6
ATOM      6  C   UNL     1      35.932  -2.232  42.847  1.00  0.00     0.041 C 
ATOM      7  O   UNL     1      35.779  -3.464  43.063  1.00  0.00    -0.550 OA
ATOM      8  O   UNL     1      36.960  -1.546  43.482  1.00  0.00    -0.550 OA
ENDBRANCH   5   6
ENDBRANCH   4   5
ENDBRANCH   3   4
ENDBRANCH   2   3
ENDBRANCH   1   2
BRANCH   1   9
ATOM      9  C   UNL     1      29.926  -1.683  43.888  1.00  0.00     0.000 C 
BRANCH   9  10
ATOM     10  C   UNL     1      30.582  -1.665  45.276  1.00  0.00    -0.000 C 
BRANCH  10  11
ATOM     11  C   UNL     1      29.679  -2.254  46.376  1.00  0.00    -0.000 C 
BRANCH  11  12
ATOM     12  C   UNL     1      28.410  -2.961  45.866  1.00  0.00    -0.000 C 
BRANCH  12  13
ATOM     13  C   UNL     1      27.153  -2.584  46.664  1.00  0.00    -0.003 C 
ATOM     14  C   UNL     1      26.822  -3.651  47.702  1.00  0.00     0.004 C 
ENDBRANCH  12  13
ENDBRANCH  11  12
ENDBRANCH  10  11
ENDBRANCH   9  10
ENDBRANCH   1   9
TORSDOF 10
ENDMDL
MODEL 6
REMARK VINA RESULT:    -3.550      1.077      1.713
REMARK INTER + INTRA:          -6.218
REMARK INTER:                  -5.537
REMARK INTRA:                  -0.680
REMARK UNBOUND:                -0.593
REMARK SMILES CCCCCCCCCCCC(=O)[O-]
REMARK SMILES IDX 7 1 8 2 9 3 10 4 11 5 12 6 13 7 14 8 6 9 5 10 4 11 3 12 2 13
REMARK SMILES IDX 1 14
REMARK H PARENT
REMARK Flexibility Score: inf
ROOT
ATOM      1  C   UNL     1      31.711  -0.968  43.151  1.00  0.00     0.000 C 
ENDROOT
BRANCH   1   2
ATOM      2  C   UNL     1      33.034  -0.209  42.987  1.00  0.00     0.000 C 
BRANCH   2   3
ATOM      3  C   UNL     1      33.980  -0.954  42.035  1.00  0.00     0.000 C 
BRANCH   3   4
ATOM      4  C   UNL     1      35.337  -1.296  42.678  1.00  0.00     0.006 C 
BRANCH   4   5
ATOM      5  C   UNL     1      35.868  -2.694  42.311  1.00  0.00     0.053 C 
BRANCH   5   6
ATOM      6  C   UNL     1      35.867  -3.638  43.475  1.00  0.00     0.041 C 
ATOM      7  O   UNL     1      36.944  -3.933  44.056  1.00  0.00    -0.550 OA
ATOM      8  O   UNL     1      34.677  -4.218  43.897  1.00  0.00    -0.550 OA
ENDBRANCH   5   6
ENDBRANCH   4   5
ENDBRANCH   3   4
ENDBRANCH   2   3
ENDBRANCH   1   2
BRANCH   1   9
ATOM      9  C   UNL     1      30.782  -0.722  41.956  1.00  0.00     0.000 C 
BRANCH   9  10
ATOM     10  C   UNL     1      29.334  -1.100  42.297  1.00  0.00    -0.000 C 
BRANCH  10  11
ATOM     11  C   UNL     1      29.093  -1.250  43.811  1.00  0.00    -0.000 C 
BRANCH  11  12
ATOM     12  C   UNL     1      28.537  -2.617  44.249  1.00  0.00    -0.000 C 
BRANCH  12  13
ATOM     13  C   UNL     1      29.273  -3.200  45.465  1.00  0.00    -0.003 C 
ATOM     14  C   UNL     1      30.013  -2.109  46.232  1.00  0.00     0.004 C 
ENDBRANCH  12  13
ENDBRANCH  11  12
ENDBRANCH  10  11
ENDBRANCH   9  10
ENDBRANCH   1   9
TORSDOF 10
ENDMDL
MODEL 7
REMARK VINA RESULT:    -3.540     13.202     15.927
REMARK INTER + INTRA:          -6.203
REMARK INTER:                  -5.493
REMARK INTRA:                  -0.711
REMARK UNBOUND:                -0.593
REMARK SMILES CCCCCCCCCCCC(=O)[O-]
REMARK SMILES IDX 7 1 8 2 9 3 10 4 11 5 12 6 13 7 14 8 6 9 5 10 4 11 3 12 2 13
REMARK SMILES IDX 1 14
REMARK H PARENT
REMARK Flexibility Score: inf
ROOT
ATOM      1  C   UNL     1      21.834 -11.699  45.559  1.00  0.00     0.000 C 
ENDROOT
BRANCH   1   2
ATOM      2  C   UNL     1      20.968 -10.620  44.898  1.00  0.00     0.000 C 
BRANCH   2   3
ATOM      3  C   UNL     1      21.835  -9.607  44.138  1.00  0.00     0.000 C 
BRANCH   3   4
ATOM      4  C   UNL     1      21.107  -8.968  42.940  1.00  0.00     0.006 C 
BRANCH   4   5
ATOM      5  C   UNL     1      20.619  -7.531  43.200  1.00  0.00     0.053 C 
BRANCH   5   6
ATOM      6  C   UNL     1      21.445  -6.502  42.491  1.00  0.00     0.041 C 
ATOM      7  O   UNL     1      22.573  -6.805  42.022  1.00  0.00    -0.550 OA
ATOM      8  O   UNL     1      20.980  -5.197  42.376  1.00  0.00    -0.550 OA
ENDBRANCH   5   6
ENDBRANCH   4   5
ENDBRANCH   3   4
ENDBRANCH   2   3
ENDBRANCH   1   2
BRANCH   1   9
ATOM      9  C   UNL     1      22.622 -12.493  44.510  1.00  0.00     0.000 C 
BRANCH   9  10
ATOM     10  C   UNL     1      21.700 -12.982  43.384  1.00  0.00    -0.000 C 
BRANCH  10  11
ATOM     11  C   UNL     1      21.125 -14.386  43.645  1.00  0.00    -0.000 C 
BRANCH  11  12
ATOM     12  C   UNL     1      19.589 -14.458  43.716  1.00  0.00    -0.000 C 
BRANCH  12  13
ATOM     13  C   UNL     1      19.084 -15.271  44.917  1.00  0.00    -0.003 C 
ATOM     14  C   UNL     1      20.223 -15.594  45.880  1.00  0.00     0.004 C 
ENDBRANCH  12  13
ENDBRANCH  11  12
ENDBRANCH  10  11
ENDBRANCH   9  10
ENDBRANCH   1   9
TORSDOF 10
ENDMDL
MODEL 8
REMARK VINA RESULT:    -3.506     14.811     17.366
REMARK INTER + INTRA:          -6.148
REMARK INTER:                  -5.093
REMARK INTRA:                  -1.055
REMARK UNBOUND:                -0.593
REMARK SMILES CCCCCCCCCCCC(=O)[O-]
REMARK SMILES IDX 7 1 8 2 9 3 10 4 11 5 12 6 13 7 14 8 6 9 5 10 4 11 3 12 2 13
REMARK SMILES IDX 1 14
REMARK H PARENT
REMARK Flexibility Score: inf
ROOT
ATOM      1  C   UNL     1      21.508 -14.324  44.062  1.00  0.00     0.000 C 
ENDROOT
BRANCH   1   2
ATOM      2  C   UNL     1      20.066 -14.607  44.504  1.00  0.00     0.000 C 
BRANCH   2   3
ATOM      3  C   UNL     1      20.022 -15.087  45.961  1.00  0.00     0.000 C 
BRANCH   3   4
ATOM      4  C   UNL     1      18.896 -14.427  46.779  1.00  0.00     0.006 C 
BRANCH   4   5
ATOM      5  C   UNL     1      18.913 -12.887  46.738  1.00  0.00     0.053 C 
BRANCH   5   6
ATOM      6  C   UNL     1      19.122 -12.274  48.089  1.00  0.00     0.041 C 
ATOM      7  O   UNL     1      18.878 -12.936  49.132  1.00  0.00    -0.550 OA
ATOM      8  O   UNL     1      19.558 -10.959  48.195  1.00  0.00    -0.550 OA
ENDBRANCH   5   6
ENDBRANCH   4   5
ENDBRANCH   3   4
ENDBRANCH   2   3
ENDBRANCH   1   2
BRANCH   1   9
ATOM      9  C   UNL     1      21.644 -12.902  43.503  1.00  0.00     0.000 C 
BRANCH   9  10
ATOM     10  C   UNL     1      22.638 -12.077  44.333  1.00  0.00    -0.000 C 
BRANCH  10  11
ATOM     11  C   UNL     1      21.953 -11.227  45.419  1.00  0.00    -0.000 C 
BRANCH  11  12
ATOM     12  C   UNL     1      20.796 -10.343  44.921  1.00  0.00    -0.000 C 
BRANCH  12  13
ATOM     13  C   UNL     1      21.255  -9.256  43.938  1.00  0.00    -0.003 C 
ATOM     14  C   UNL     1      20.082  -8.726  43.119  1.00  0.00     0.004 C 
ENDBRANCH  12  13
ENDBRANCH  11  12
ENDBRANCH  10  11
ENDBRANCH   9  10
ENDBRANCH   1   9
TORSDOF 10
ENDMDL
MODEL 9
REMARK VINA RESULT:    -3.425      2.122      3.604
REMARK INTER + INTRA:          -6.020
REMARK INTER:                  -5.588
REMARK INTRA:                  -0.432
REMARK UNBOUND:                -0.593
REMARK SMILES CCCCCCCCCCCC(=O)[O-]
REMARK SMILES IDX 7 1 8 2 9 3 10 4 11 5 12 6 13 7 14 8 6 9 5 10 4 11 3 12 2 13
REMARK SMILES IDX 1 14
REMARK H PARENT
REMARK Flexibility Score: inf
ROOT
ATOM      1  C   UNL     1      30.973  -2.263  45.138  1.00  0.00     0.000 C 
ENDROOT
BRANCH   1   2
ATOM      2  C   UNL     1      31.023  -1.485  43.818  1.00  0.00     0.000 C 
BRANCH   2   3
ATOM      3  C   UNL     1      32.173  -0.468  43.823  1.00  0.00     0.000 C 
BRANCH   3   4
ATOM      4  C   UNL     1      32.875  -0.344  42.457  1.00  0.00     0.006 C 
BRANCH   4   5
ATOM      5  C   UNL     1      34.330   0.154  42.545  1.00  0.00     0.053 C 
BRANCH   5   6
ATOM      6  C   UNL     1      35.316  -0.964  42.697  1.00  0.00     0.041 C 
ATOM      7  O   UNL     1      35.078  -2.094  42.195  1.00  0.00    -0.550 OA
ATOM      8  O   UNL     1      36.485  -0.765  43.422  1.00  0.00    -0.550 OA
ENDBRANCH   5   6
ENDBRANCH   4   5
ENDBRANCH   3   4
ENDBRANCH   2   3
ENDBRANCH   1   2
BRANCH   1   9
ATOM      9  C   UNL     1      30.110  -1.535  46.175  1.00  0.00     0.000 C 
BRANCH   9  10
ATOM     10  C   UNL     1      28.726  -1.199  45.601  1.00  0.00    -0.000 C 
BRANCH  10  11
ATOM     11  C   UNL     1      27.624  -2.158  46.088  1.00  0.00    -0.000 C 
BRANCH  11  12
ATOM     12  C   UNL     1      28.085  -3.605  46.339  1.00  0.00    -0.000 C 
BRANCH  12  13
ATOM     13  C   UNL     1      27.164  -4.367  47.304  1.00  0.00    -0.003 C 
ATOM     14  C   UNL     1      26.801  -3.506  48.510  1.00  0.00     0.004 C 
ENDBRANCH  12  13
ENDBRANCH  11  12
ENDBRANCH  10  11
ENDBRANCH   9  10
ENDBRANCH   1   9
TORSDOF 10
ENDMDL
