MODEL 1
REMARK VINA RESULT:    -5.504      0.000      0.000
REMARK INTER + INTRA:         -11.387
REMARK INTER:                 -10.653
REMARK INTRA:                  -0.734
REMARK UNBOUND:                -0.734
REMARK SMILES CCCCCCCCCCCCCCCCCC(=O)[O-]
REMARK SMILES IDX 10 1 11 2 12 3 13 4 14 5 15 6 16 7 17 8 18 9 19 10 20 11
REMARK SMILES IDX 9 12 8 13 7 14 6 15 5 16 4 17 3 18 2 19 1 20
REMARK H PARENT
REMARK Flexibility Score: inf
ROOT
ATOM      1  C   UNL     1      21.932 -13.646  20.670  1.00  0.00     0.000 C 
ENDROOT
BRANCH   1   2
ATOM      2  C   UNL     1      22.229 -12.382  21.496  1.00  0.00     0.000 C 
BRANCH   2   3
ATOM      3  C   UNL     1      20.993 -11.856  22.247  1.00  0.00     0.000 C 
BRANCH   3   4
ATOM      4  C   UNL     1      21.285 -10.798  23.329  1.00  0.00     0.000 C 
BRANCH   4   5
ATOM      5  C   UNL     1      21.778  -9.436  22.800  1.00  0.00     0.000 C 
BRANCH   5   6
ATOM      6  C   UNL     1      21.708  -8.279  23.814  1.00  0.00     0.000 C 
BRANCH   6   7
ATOM      7  C   UNL     1      20.805  -8.597  25.019  1.00  0.00     0.006 C 
BRANCH   7   8
ATOM      8  C   UNL     1      20.251  -7.326  25.677  1.00  0.00     0.053 C 
BRANCH   8   9
ATOM      9  C   UNL     1      21.279  -6.643  26.525  1.00  0.00     0.041 C 
ATOM     10  O   UNL     1      21.462  -7.008  27.716  1.00  0.00    -0.550 OA
ATOM     11  O   UNL     1      22.059  -5.625  25.990  1.00  0.00    -0.550 OA
ENDBRANCH   8   9
ENDBRANCH   7   8
ENDBRANCH   6   7
ENDBRANCH   5   6
ENDBRANCH   4   5
ENDBRANCH   3   4
ENDBRANCH   2   3
ENDBRANCH   1   2
BRANCH   1  12
ATOM     12  C   UNL     1      22.964 -14.763  20.904  1.00  0.00     0.000 C 
BRANCH  12  13
ATOM     13  C   UNL     1      22.978 -15.804  19.770  1.00  0.00    -0.000 C 
BRANCH  13  14
ATOM     14  C   UNL     1      22.541 -15.210  18.421  1.00  0.00    -0.000 C 
BRANCH  14  15
ATOM     15  C   UNL     1      22.910 -16.114  17.232  1.00  0.00    -0.000 C 
BRANCH  15  16
ATOM     16  C   UNL     1      23.223 -17.555  17.663  1.00  0.00    -0.000 C 
BRANCH  16  17
ATOM     17  C   UNL     1      23.269 -18.534  16.475  1.00  0.00    -0.000 C 
BRANCH  17  18
ATOM     18  C   UNL     1      21.978 -19.371  16.360  1.00  0.00    -0.000 C 
BRANCH  18  19
ATOM     19  C   UNL     1      21.603 -20.105  17.658  1.00  0.00    -0.003 C 
ATOM     20  C   UNL     1      20.184 -20.669  17.638  1.00  0.00     0.004 C 
ENDBRANCH  18  19
ENDBRANCH  17  18
ENDBRANCH  16  17
ENDBRANCH  15  16
ENDBRANCH  14  15
ENDBRANCH  13  14
ENDBRANCH  12  13
ENDBRANCH   1  12
TORSDOF 16
ENDMDL
MODEL 2
REMARK VINA RESULT:    -5.472      1.126      2.011
REMARK INTER + INTRA:         -11.326
REMARK INTER:                 -10.614
REMARK INTRA:                  -0.712
REMARK UNBOUND:                -0.734
REMARK SMILES CCCCCCCCCCCCCCCCCC(=O)[O-]
REMARK SMILES IDX 10 1 11 2 12 3 13 4 14 5 15 6 16 7 17 8 18 9 19 10 20 11
REMARK SMILES IDX 9 12 8 13 7 14 6 15 5 16 4 17 3 18 2 19 1 20
REMARK H PARENT
REMARK Flexibility Score: inf
ROOT
ATOM      1  C   UNL     1      22.247 -14.493  20.063  1.00  0.00     0.000 C 
ENDROOT
BRANCH   1   2
ATOM      2  C   UNL     1      23.183 -14.074  21.210  1.00  0.00     0.000 C 
BRANCH   2   3
ATOM      3  C   UNL     1      23.037 -12.588  21.586  1.00  0.00     0.000 C 
BRANCH   3   4
ATOM      4  C   UNL     1      21.586 -12.092  21.744  1.00  0.00     0.000 C 
BRANCH   4   5
ATOM      5  C   UNL     1      21.372 -11.020  22.831  1.00  0.00     0.000 C 
BRANCH   5   6
ATOM      6  C   UNL     1      22.215  -9.743  22.660  1.00  0.00     0.000 C 
BRANCH   6   7
ATOM      7  C   UNL     1      21.691  -8.566  23.503  1.00  0.00     0.006 C 
BRANCH   7   8
ATOM      8  C   UNL     1      20.817  -9.036  24.672  1.00  0.00     0.053 C 
BRANCH   8   9
ATOM      9  C   UNL     1      20.477  -7.913  25.602  1.00  0.00     0.041 C 
ATOM     10  O   UNL     1      19.385  -7.297  25.478  1.00  0.00    -0.550 OA
ATOM     11  O   UNL     1      21.348  -7.566  26.627  1.00  0.00    -0.550 OA
ENDBRANCH   8   9
ENDBRANCH   7   8
ENDBRANCH   6   7
ENDBRANCH   5   6
ENDBRANCH   4   5
ENDBRANCH   3   4
ENDBRANCH   2   3
ENDBRANCH   1   2
BRANCH   1  12
ATOM     12  C   UNL     1      22.925 -15.446  19.063  1.00  0.00     0.000 C 
BRANCH  12  13
ATOM     13  C   UNL     1      23.183 -16.843  19.656  1.00  0.00    -0.000 C 
BRANCH  13  14
ATOM     14  C   UNL     1      23.606 -17.865  18.588  1.00  0.00    -0.000 C 
BRANCH  14  15
ATOM     15  C   UNL     1      22.945 -17.599  17.224  1.00  0.00    -0.000 C 
BRANCH  15  16
ATOM     16  C   UNL     1      22.589 -18.895  16.479  1.00  0.00    -0.000 C 
BRANCH  16  17
ATOM     17  C   UNL     1      21.468 -19.690  17.173  1.00  0.00    -0.000 C 
BRANCH  17  18
ATOM     18  C   UNL     1      21.705 -21.213  17.102  1.00  0.00    -0.000 C 
BRANCH  18  19
ATOM     19  C   UNL     1      20.424 -22.025  16.844  1.00  0.00    -0.003 C 
ATOM     20  C   UNL     1      19.148 -21.242  17.151  1.00  0.00     0.004 C 
ENDBRANCH  18  19
ENDBRANCH  17  18
ENDBRANCH  16  17
ENDBRANCH  15  16
ENDBRANCH  14  15
ENDBRANCH  13  14
ENDBRANCH  12  13
ENDBRANCH   1  12
TORSDOF 16
ENDMDL
MODEL 3
REMARK VINA RESULT:    -5.458      5.584     11.849
REMARK INTER + INTRA:         -11.297
REMARK INTER:                 -10.605
REMARK INTRA:                  -0.692
REMARK UNBOUND:                -0.734
REMARK SMILES CCCCCCCCCCCCCCCCCC(=O)[O-]
REMARK SMILES IDX 10 1 11 2 12 3 13 4 14 5 15 6 16 7 17 8 18 9 19 10 20 11
REMARK SMILES IDX 9 12 8 13 7 14 6 15 5 16 4 17 3 18 2 19 1 20
REMARK H PARENT
REMARK Flexibility Score: inf
ROOT
ATOM      1  C   UNL     1      23.318 -12.525  21.624  1.00  0.00     0.000 C 
ENDROOT
BRANCH   1   2
ATOM      2  C   UNL     1      23.330 -14.019  21.258  1.00  0.00     0.000 C 
BRANCH   2   3
ATOM      3  C   UNL     1      22.276 -14.381  20.196  1.00  0.00     0.000 C 
BRANCH   3   4
ATOM      4  C   UNL     1      22.742 -15.393  19.130  1.00  0.00     0.000 C 
BRANCH   4   5
ATOM      5  C   UNL     1      23.108 -16.791  19.666  1.00  0.00     0.000 C 
BRANCH   5   6
ATOM      6  C   UNL     1      23.630 -17.779  18.606  1.00  0.00     0.000 C 
BRANCH   6   7
ATOM      7  C   UNL     1      22.938 -17.611  17.242  1.00  0.00     0.006 C 
BRANCH   7   8
ATOM      8  C   UNL     1      23.071 -18.864  16.368  1.00  0.00     0.053 C 
BRANCH   8   9
ATOM      9  C   UNL     1      22.049 -19.902  16.719  1.00  0.00     0.041 C 
ATOM     10  O   UNL     1      20.974 -19.978  16.067  1.00  0.00    -0.550 OA
ATOM     11  O   UNL     1      22.297 -20.806  17.744  1.00  0.00    -0.550 OA
ENDBRANCH   8   9
ENDBRANCH   7   8
ENDBRANCH   6   7
ENDBRANCH   5   6
ENDBRANCH   4   5
ENDBRANCH   3   4
ENDBRANCH   2   3
ENDBRANCH   1   2
BRANCH   1  12
ATOM     12  C   UNL     1      21.897 -11.938  21.679  1.00  0.00     0.000 C 
BRANCH  12  13
ATOM     13  C   UNL     1      21.792 -10.724  22.618  1.00  0.00    -0.000 C 
BRANCH  13  14
ATOM     14  C   UNL     1      20.765 -10.939  23.743  1.00  0.00    -0.000 C 
BRANCH  14  15
ATOM     15  C   UNL     1      20.598  -9.695  24.633  1.00  0.00    -0.000 C 
BRANCH  15  16
ATOM     16  C   UNL     1      21.509  -8.535  24.201  1.00  0.00    -0.000 C 
BRANCH  16  17
ATOM     17  C   UNL     1      21.374  -7.303  25.114  1.00  0.00    -0.000 C 
BRANCH  17  18
ATOM     18  C   UNL     1      19.932  -6.754  25.142  1.00  0.00    -0.000 C 
BRANCH  18  19
ATOM     19  C   UNL     1      19.586  -5.869  23.933  1.00  0.00    -0.003 C 
ATOM     20  C   UNL     1      18.486  -4.852  24.230  1.00  0.00     0.004 C 
ENDBRANCH  18  19
ENDBRANCH  17  18
ENDBRANCH  16  17
ENDBRANCH  15  16
ENDBRANCH  14  15
ENDBRANCH  13  14
ENDBRANCH  12  13
ENDBRANCH   1  12
TORSDOF 16
ENDMDL
MODEL 4
REMARK VINA RESULT:    -5.449      5.848     11.850
REMARK INTER + INTRA:         -11.280
REMARK INTER:                 -10.547
REMARK INTRA:                  -0.733
REMARK UNBOUND:                -0.734
REMARK SMILES CCCCCCCCCCCCCCCCCC(=O)[O-]
REMARK SMILES IDX 10 1 11 2 12 3 13 4 14 5 15 6 16 7 17 8 18 9 19 10 20 11
REMARK SMILES IDX 9 12 8 13 7 14 6 15 5 16 4 17 3 18 2 19 1 20
REMARK H PARENT
REMARK Flexibility Score: inf
ROOT
ATOM      1  C   UNL     1      22.262 -14.504  20.075  1.00  0.00     0.000 C 
ENDROOT
BRANCH   1   2
ATOM      2  C   UNL     1      22.973 -15.473  19.115  1.00  0.00     0.000 C 
BRANCH   2   3
ATOM      3  C   UNL     1      23.024 -16.915  19.652  1.00  0.00     0.000 C 
BRANCH   3   4
ATOM      4  C   UNL     1      23.697 -17.939  18.716  1.00  0.00     0.000 C 
BRANCH   4   5
ATOM      5  C   UNL     1      23.356 -17.785  17.220  1.00  0.00     0.000 C 
BRANCH   5   6
ATOM      6  C   UNL     1      22.276 -18.749  16.695  1.00  0.00     0.000 C 
BRANCH   6   7
ATOM      7  C   UNL     1      21.814 -19.761  17.758  1.00  0.00     0.006 C 
BRANCH   7   8
ATOM      8  C   UNL     1      21.580 -21.156  17.164  1.00  0.00     0.053 C 
BRANCH   8   9
ATOM      9  C   UNL     1      20.121 -21.462  17.014  1.00  0.00     0.041 C 
ATOM     10  O   UNL     1      19.274 -20.876  17.737  1.00  0.00    -0.550 OA
ATOM     11  O   UNL     1      19.695 -22.370  16.052  1.00  0.00    -0.550 OA
ENDBRANCH   8   9
ENDBRANCH   7   8
ENDBRANCH   6   7
ENDBRANCH   5   6
ENDBRANCH   4   5
ENDBRANCH   3   4
ENDBRANCH   2   3
ENDBRANCH   1   2
BRANCH   1  12
ATOM     12  C   UNL     1      23.159 -14.062  21.244  1.00  0.00     0.000 C 
BRANCH  12  13
ATOM     13  C   UNL     1      23.063 -12.553  21.528  1.00  0.00    -0.000 C 
BRANCH  13  14
ATOM     14  C   UNL     1      21.609 -12.070  21.656  1.00  0.00    -0.000 C 
BRANCH  14  15
ATOM     15  C   UNL     1      21.410 -11.106  22.838  1.00  0.00    -0.000 C 
BRANCH  15  16
ATOM     16  C   UNL     1      22.195  -9.796  22.668  1.00  0.00    -0.000 C 
BRANCH  16  17
ATOM     17  C   UNL     1      21.538  -8.610  23.398  1.00  0.00    -0.000 C 
BRANCH  17  18
ATOM     18  C   UNL     1      20.792  -9.054  24.674  1.00  0.00    -0.000 C 
BRANCH  18  19
ATOM     19  C   UNL     1      20.190  -7.886  25.473  1.00  0.00    -0.003 C 
ATOM     20  C   UNL     1      21.090  -7.415  26.614  1.00  0.00     0.004 C 
ENDBRANCH  18  19
ENDBRANCH  17  18
ENDBRANCH  16  17
ENDBRANCH  15  16
ENDBRANCH  14  15
ENDBRANCH  13  14
ENDBRANCH  12  13
ENDBRANCH   1  12
TORSDOF 16
ENDMDL
MODEL 5
REMARK VINA RESULT:    -5.412      1.746      2.513
REMARK INTER + INTRA:         -11.208
REMARK INTER:                 -10.488
REMARK INTRA:                  -0.720
REMARK UNBOUND:                -0.734
REMARK SMILES CCCCCCCCCCCCCCCCCC(=O)[O-]
REMARK SMILES IDX 10 1 11 2 12 3 13 4 14 5 15 6 16 7 17 8 18 9 19 10 20 11
REMARK SMILES IDX 9 12 8 13 7 14 6 15 5 16 4 17 3 18 2 19 1 20
REMARK H PARENT
REMARK Flexibility Score: inf
ROOT
ATOM      1  C   UNL     1      21.675 -12.239  21.625  1.00  0.00     0.000 C 
ENDROOT
BRANCH   1   2
ATOM      2  C   UNL     1      21.466 -10.998  22.509  1.00  0.00     0.000 C 
BRANCH   2   3
ATOM      3  C   UNL     1      20.406 -11.217  23.604  1.00  0.00     0.000 C 
BRANCH   3   4
ATOM      4  C   UNL     1      20.539 -10.299  24.836  1.00  0.00     0.000 C 
BRANCH   4   5
ATOM      5  C   UNL     1      20.995  -8.857  24.536  1.00  0.00     0.000 C 
BRANCH   5   6
ATOM      6  C   UNL     1      21.090  -7.935  25.766  1.00  0.00     0.000 C 
BRANCH   6   7
ATOM      7  C   UNL     1      20.662  -6.489  25.461  1.00  0.00     0.006 C 
BRANCH   7   8
ATOM      8  C   UNL     1      20.222  -6.311  24.002  1.00  0.00     0.053 C 
BRANCH   8   9
ATOM      9  C   UNL     1      19.575  -4.980  23.771  1.00  0.00     0.041 C 
ATOM     10  O   UNL     1      19.898  -3.989  24.478  1.00  0.00    -0.550 OA
ATOM     11  O   UNL     1      18.640  -4.826  22.755  1.00  0.00    -0.550 OA
ENDBRANCH   8   9
ENDBRANCH   7   8
ENDBRANCH   6   7
ENDBRANCH   5   6
ENDBRANCH   4   5
ENDBRANCH   3   4
ENDBRANCH   2   3
ENDBRANCH   1   2
BRANCH   1  12
ATOM     12  C   UNL     1      23.140 -12.708  21.596  1.00  0.00     0.000 C 
BRANCH  12  13
ATOM     13  C   UNL     1      23.284 -14.179  21.171  1.00  0.00    -0.000 C 
BRANCH  13  14
ATOM     14  C   UNL     1      22.302 -14.567  20.053  1.00  0.00    -0.000 C 
BRANCH  14  15
ATOM     15  C   UNL     1      22.929 -15.524  19.024  1.00  0.00    -0.000 C 
BRANCH  15  16
ATOM     16  C   UNL     1      23.072 -16.956  19.562  1.00  0.00    -0.000 C 
BRANCH  16  17
ATOM     17  C   UNL     1      23.578 -17.944  18.495  1.00  0.00    -0.000 C 
BRANCH  17  18
ATOM     18  C   UNL     1      23.002 -17.636  17.097  1.00  0.00    -0.000 C 
BRANCH  18  19
ATOM     19  C   UNL     1      22.373 -18.859  16.407  1.00  0.00    -0.003 C 
ATOM     20  C   UNL     1      22.597 -20.160  17.175  1.00  0.00     0.004 C 
ENDBRANCH  18  19
ENDBRANCH  17  18
ENDBRANCH  16  17
ENDBRANCH  15  16
ENDBRANCH  14  15
ENDBRANCH  13  14
ENDBRANCH  12  13
ENDBRANCH   1  12
TORSDOF 16
ENDMDL
MODEL 6
REMARK VINA RESULT:    -5.302      5.398     11.738
REMARK INTER + INTRA:         -10.997
REMARK INTER:                 -10.203
REMARK INTRA:                  -0.794
REMARK UNBOUND:                -0.734
REMARK SMILES CCCCCCCCCCCCCCCCCC(=O)[O-]
REMARK SMILES IDX 10 1 11 2 12 3 13 4 14 5 15 6 16 7 17 8 18 9 19 10 20 11
REMARK SMILES IDX 9 12 8 13 7 14 6 15 5 16 4 17 3 18 2 19 1 20
REMARK H PARENT
REMARK Flexibility Score: inf
ROOT
ATOM      1  C   UNL     1      20.428 -11.883  22.639  1.00  0.00     0.000 C 
ENDROOT
BRANCH   1   2
ATOM      2  C   UNL     1      21.550 -12.039  21.598  1.00  0.00     0.000 C 
BRANCH   2   3
ATOM      3  C   UNL     1      21.483 -13.380  20.845  1.00  0.00     0.000 C 
BRANCH   3   4
ATOM      4  C   UNL     1      22.810 -14.162  20.782  1.00  0.00     0.000 C 
BRANCH   4   5
ATOM      5  C   UNL     1      22.827 -15.350  19.800  1.00  0.00     0.000 C 
BRANCH   5   6
ATOM      6  C   UNL     1      23.243 -16.699  20.416  1.00  0.00     0.000 C 
BRANCH   6   7
ATOM      7  C   UNL     1      23.564 -17.765  19.355  1.00  0.00     0.006 C 
BRANCH   7   8
ATOM      8  C   UNL     1      22.970 -17.415  17.985  1.00  0.00     0.053 C 
BRANCH   8   9
ATOM      9  C   UNL     1      22.435 -18.625  17.281  1.00  0.00     0.041 C 
ATOM     10  O   UNL     1      21.796 -19.500  17.924  1.00  0.00    -0.550 OA
ATOM     11  O   UNL     1      22.613 -18.770  15.911  1.00  0.00    -0.550 OA
ENDBRANCH   8   9
ENDBRANCH   7   8
ENDBRANCH   6   7
ENDBRANCH   5   6
ENDBRANCH   4   5
ENDBRANCH   3   4
ENDBRANCH   2   3
ENDBRANCH   1   2
BRANCH   1  12
ATOM     12  C   UNL     1      20.704 -10.752  23.644  1.00  0.00     0.000 C 
BRANCH  12  13
ATOM     13  C   UNL     1      21.700  -9.710  23.106  1.00  0.00    -0.000 C 
BRANCH  13  14
ATOM     14  C   UNL     1      21.723  -8.426  23.953  1.00  0.00    -0.000 C 
BRANCH  14  15
ATOM     15  C   UNL     1      20.776  -8.503  25.163  1.00  0.00    -0.000 C 
BRANCH  15  16
ATOM     16  C   UNL     1      20.352  -7.115  25.668  1.00  0.00    -0.000 C 
BRANCH  16  17
ATOM     17  C   UNL     1      20.849  -5.975  24.760  1.00  0.00    -0.000 C 
BRANCH  17  18
ATOM     18  C   UNL     1      19.753  -4.921  24.495  1.00  0.00    -0.000 C 
BRANCH  18  19
ATOM     19  C   UNL     1      18.930  -5.195  23.225  1.00  0.00    -0.003 C 
ATOM     20  C   UNL     1      18.528  -3.920  22.487  1.00  0.00     0.004 C 
ENDBRANCH  18  19
ENDBRANCH  17  18
ENDBRANCH  16  17
ENDBRANCH  15  16
ENDBRANCH  14  15
ENDBRANCH  13  14
ENDBRANCH  12  13
ENDBRANCH   1  12
TORSDOF 16
ENDMDL
MODEL 7
REMARK VINA RESULT:    -5.221      5.222     12.224
REMARK INTER + INTRA:         -10.840
REMARK INTER:                  -9.802
REMARK INTRA:                  -1.037
REMARK UNBOUND:                -0.734
REMARK SMILES CCCCCCCCCCCCCCCCCC(=O)[O-]
REMARK SMILES IDX 10 1 11 2 12 3 13 4 14 5 15 6 16 7 17 8 18 9 19 10 20 11
REMARK SMILES IDX 9 12 8 13 7 14 6 15 5 16 4 17 3 18 2 19 1 20
REMARK H PARENT
REMARK Flexibility Score: inf
ROOT
ATOM      1  C   UNL     1      19.942  -6.021  23.661  1.00  0.00     0.000 C 
ENDROOT
BRANCH   1   2
ATOM      2  C   UNL     1      19.633  -6.728  24.993  1.00  0.00     0.000 C 
BRANCH   2   3
ATOM      3  C   UNL     1      20.698  -7.773  25.374  1.00  0.00     0.000 C 
BRANCH   3   4
ATOM      4  C   UNL     1      21.845  -7.940  24.357  1.00  0.00     0.000 C 
BRANCH   4   5
ATOM      5  C   UNL     1      21.809  -9.242  23.534  1.00  0.00     0.000 C 
BRANCH   5   6
ATOM      6  C   UNL     1      20.793 -10.293  24.021  1.00  0.00     0.000 C 
BRANCH   6   7
ATOM      7  C   UNL     1      20.659 -11.485  23.056  1.00  0.00     0.006 C 
BRANCH   7   8
ATOM      8  C   UNL     1      21.765 -11.496  21.994  1.00  0.00     0.053 C 
BRANCH   8   9
ATOM      9  C   UNL     1      21.814 -12.795  21.251  1.00  0.00     0.041 C 
ATOM     10  O   UNL     1      22.803 -13.564  21.384  1.00  0.00    -0.550 OA
ATOM     11  O   UNL     1      20.753 -13.175  20.438  1.00  0.00    -0.550 OA
ENDBRANCH   8   9
ENDBRANCH   7   8
ENDBRANCH   6   7
ENDBRANCH   5   6
ENDBRANCH   4   5
ENDBRANCH   3   4
ENDBRANCH   2   3
ENDBRANCH   1   2
BRANCH   1  12
ATOM     12  C   UNL     1      18.933  -4.909  23.333  1.00  0.00     0.000 C 
BRANCH  12  13
ATOM     13  C   UNL     1      17.897  -4.697  24.451  1.00  0.00    -0.000 C 
BRANCH  13  14
ATOM     14  C   UNL     1      17.082  -3.407  24.261  1.00  0.00    -0.000 C 
BRANCH  14  15
ATOM     15  C   UNL     1      15.692  -3.487  24.917  1.00  0.00    -0.000 C 
BRANCH  15  16
ATOM     16  C   UNL     1      15.468  -4.810  25.665  1.00  0.00    -0.000 C 
BRANCH  16  17
ATOM     17  C   UNL     1      14.264  -5.602  25.124  1.00  0.00    -0.000 C 
BRANCH  17  18
ATOM     18  C   UNL     1      13.186  -5.833  26.204  1.00  0.00    -0.000 C 
BRANCH  18  19
ATOM     19  C   UNL     1      13.587  -5.311  27.594  1.00  0.00    -0.003 C 
ATOM     20  C   UNL     1      12.387  -4.915  28.453  1.00  0.00     0.004 C 
ENDBRANCH  18  19
ENDBRANCH  17  18
ENDBRANCH  16  17
ENDBRANCH  15  16
ENDBRANCH  14  15
ENDBRANCH  13  14
ENDBRANCH  12  13
ENDBRANCH   1  12
TORSDOF 16
ENDMDL
MODEL 8
REMARK VINA RESULT:    -5.197      6.955     12.346
REMARK INTER + INTRA:         -10.793
REMARK INTER:                  -9.695
REMARK INTRA:                  -1.098
REMARK UNBOUND:                -0.734
REMARK SMILES CCCCCCCCCCCCCCCCCC(=O)[O-]
REMARK SMILES IDX 10 1 11 2 12 3 13 4 14 5 15 6 16 7 17 8 18 9 19 10 20 11
REMARK SMILES IDX 9 12 8 13 7 14 6 15 5 16 4 17 3 18 2 19 1 20
REMARK H PARENT
REMARK Flexibility Score: inf
ROOT
ATOM      1  C   UNL     1      21.886 -19.366  16.669  1.00  0.00     0.000 C 
ENDROOT
BRANCH   1   2
ATOM      2  C   UNL     1      22.231 -20.786  17.150  1.00  0.00     0.000 C 
BRANCH   2   3
ATOM      3  C   UNL     1      20.986 -21.605  17.535  1.00  0.00     0.000 C 
BRANCH   3   4
ATOM      4  C   UNL     1      19.714 -20.775  17.801  1.00  0.00     0.000 C 
BRANCH   4   5
ATOM      5  C   UNL     1      18.388 -21.460  17.412  1.00  0.00     0.000 C 
BRANCH   5   6
ATOM      6  C   UNL     1      18.506 -22.525  16.306  1.00  0.00     0.000 C 
BRANCH   6   7
ATOM      7  C   UNL     1      17.918 -22.056  14.963  1.00  0.00     0.006 C 
BRANCH   7   8
ATOM      8  C   UNL     1      18.938 -21.273  14.127  1.00  0.00     0.053 C 
BRANCH   8   9
ATOM      9  C   UNL     1      18.357 -20.808  12.827  1.00  0.00     0.041 C 
ATOM     10  O   UNL     1      17.196 -21.162  12.491  1.00  0.00    -0.550 OA
ATOM     11  O   UNL     1      19.083 -19.958  12.003  1.00  0.00    -0.550 OA
ENDBRANCH   8   9
ENDBRANCH   7   8
ENDBRANCH   6   7
ENDBRANCH   5   6
ENDBRANCH   4   5
ENDBRANCH   3   4
ENDBRANCH   2   3
ENDBRANCH   1   2
BRANCH   1  12
ATOM     12  C   UNL     1      23.135 -18.503  16.423  1.00  0.00     0.000 C 
BRANCH  12  13
ATOM     13  C   UNL     1      23.245 -17.326  17.408  1.00  0.00    -0.000 C 
BRANCH  13  14
ATOM     14  C   UNL     1      23.689 -17.773  18.811  1.00  0.00    -0.000 C 
BRANCH  14  15
ATOM     15  C   UNL     1      23.103 -16.887  19.924  1.00  0.00    -0.000 C 
BRANCH  15  16
ATOM     16  C   UNL     1      22.790 -15.463  19.440  1.00  0.00    -0.000 C 
BRANCH  16  17
ATOM     17  C   UNL     1      22.651 -14.458  20.598  1.00  0.00    -0.000 C 
BRANCH  17  18
ATOM     18  C   UNL     1      21.459 -13.499  20.397  1.00  0.00    -0.000 C 
BRANCH  18  19
ATOM     19  C   UNL     1      21.207 -12.571  21.597  1.00  0.00    -0.003 C 
ATOM     20  C   UNL     1      22.303 -11.523  21.784  1.00  0.00     0.004 C 
ENDBRANCH  18  19
ENDBRANCH  17  18
ENDBRANCH  16  17
ENDBRANCH  15  16
ENDBRANCH  14  15
ENDBRANCH  13  14
ENDBRANCH  12  13
ENDBRANCH   1  12
TORSDOF 16
ENDMDL
MODEL 9
REMARK VINA RESULT:    -5.185      5.011      8.802
REMARK INTER + INTRA:         -10.770
REMARK INTER:                  -9.911
REMARK INTRA:                  -0.858
REMARK UNBOUND:                -0.734
REMARK SMILES CCCCCCCCCCCCCCCCCC(=O)[O-]
REMARK SMILES IDX 10 1 11 2 12 3 13 4 14 5 15 6 16 7 17 8 18 9 19 10 20 11
REMARK SMILES IDX 9 12 8 13 7 14 6 15 5 16 4 17 3 18 2 19 1 20
REMARK H PARENT
REMARK Flexibility Score: inf
ROOT
ATOM      1  C   UNL     1      20.386 -20.473  17.210  1.00  0.00     0.000 C 
ENDROOT
BRANCH   1   2
ATOM      2  C   UNL     1      21.767 -19.923  17.607  1.00  0.00     0.000 C 
BRANCH   2   3
ATOM      3  C   UNL     1      22.304 -18.882  16.608  1.00  0.00     0.000 C 
BRANCH   3   4
ATOM      4  C   UNL     1      22.975 -17.649  17.246  1.00  0.00     0.000 C 
BRANCH   4   5
ATOM      5  C   UNL     1      23.596 -17.884  18.637  1.00  0.00     0.000 C 
BRANCH   5   6
ATOM      6  C   UNL     1      23.066 -16.963  19.751  1.00  0.00     0.000 C 
BRANCH   6   7
ATOM      7  C   UNL     1      22.747 -15.544  19.249  1.00  0.00     0.006 C 
BRANCH   7   8
ATOM      8  C   UNL     1      22.710 -14.521  20.392  1.00  0.00     0.053 C 
BRANCH   8   9
ATOM      9  C   UNL     1      21.476 -13.674  20.344  1.00  0.00     0.041 C 
ATOM     10  O   UNL     1      21.179 -12.932  21.318  1.00  0.00    -0.550 OA
ATOM     11  O   UNL     1      20.671 -13.677  19.212  1.00  0.00    -0.550 OA
ENDBRANCH   8   9
ENDBRANCH   7   8
ENDBRANCH   6   7
ENDBRANCH   5   6
ENDBRANCH   4   5
ENDBRANCH   3   4
ENDBRANCH   2   3
ENDBRANCH   1   2
BRANCH   1  12
ATOM     12  C   UNL     1      20.315 -20.887  15.731  1.00  0.00     0.000 C 
BRANCH  12  13
ATOM     13  C   UNL     1      19.078 -21.745  15.413  1.00  0.00    -0.000 C 
BRANCH  13  14
ATOM     14  C   UNL     1      19.014 -22.159  13.933  1.00  0.00    -0.000 C 
BRANCH  14  15
ATOM     15  C   UNL     1      18.639 -20.987  13.010  1.00  0.00    -0.000 C 
BRANCH  15  16
ATOM     16  C   UNL     1      18.974 -21.268  11.536  1.00  0.00    -0.000 C 
BRANCH  16  17
ATOM     17  C   UNL     1      17.718 -21.402  10.657  1.00  0.00    -0.000 C 
BRANCH  17  18
ATOM     18  C   UNL     1      16.497 -21.901  11.458  1.00  0.00    -0.000 C 
BRANCH  18  19
ATOM     19  C   UNL     1      15.333 -20.896  11.496  1.00  0.00    -0.003 C 
ATOM     20  C   UNL     1      14.811 -20.638  12.909  1.00  0.00     0.004 C 
ENDBRANCH  18  19
ENDBRANCH  17  18
ENDBRANCH  16  17
ENDBRANCH  15  16
ENDBRANCH  14  15
ENDBRANCH  13  14
ENDBRANCH  12  13
ENDBRANCH   1  12
TORSDOF 16
ENDMDL
