MODEL 1
REMARK VINA RESULT:    -5.403      0.000      0.000
REMARK INTER + INTRA:          -5.819
REMARK INTER:                  -5.877
REMARK INTRA:                   0.059
REMARK UNBOUND:                 0.059
REMARK SMILES COc1cc2ccc(=O)oc2cc1O
REMARK SMILES IDX 3 1 13 2 12 3 11 4 5 5 4 6 6 7 7 8 8 9 9 10 10 11 2 12 1 13
REMARK SMILES IDX 14 14
REMARK H PARENT 14 15
REMARK Flexibility Score: inf
ROOT
ATOM      1  C   UNL     1      19.511  -0.592 -17.647  1.00  0.00     0.161 A 
ATOM      2  C   UNL     1      20.377   0.485 -17.377  1.00  0.00     0.161 A 
ATOM      3  C   UNL     1      21.149   1.044 -18.403  1.00  0.00     0.098 A 
ATOM      4  C   UNL     1      21.069   0.540 -19.703  1.00  0.00     0.142 A 
ATOM      5  C   UNL     1      20.204  -0.539 -19.983  1.00  0.00     0.022 A 
ATOM      6  C   UNL     1      19.430  -1.101 -18.959  1.00  0.00     0.062 A 
ATOM      7  C   UNL     1      20.146  -1.022 -21.295  1.00  0.00     0.019 A 
ATOM      8  C   UNL     1      20.937  -0.430 -22.278  1.00  0.00     0.094 A 
ATOM      9  C   UNL     1      21.771   0.637 -21.926  1.00  0.00     0.336 A 
ATOM     10  O   UNL     1      22.492   1.185 -22.800  1.00  0.00    -0.246 OA
ATOM     11  O   UNL     1      21.807   1.077 -20.671  1.00  0.00    -0.423 OA
ENDROOT
BRANCH   1  12
ATOM     12  O   UNL     1      18.751  -1.128 -16.595  1.00  0.00    -0.493 OA
ATOM     13  C   UNL     1      17.621  -0.490 -16.006  1.00  0.00     0.278 C 
ENDBRANCH   1  12
BRANCH   2  14
ATOM     14  O   UNL     1      20.485   1.017 -16.091  1.00  0.00    -0.504 OA
ATOM     15  H   UNL     1      20.376   2.007 -15.906  1.00  0.00     0.293 HD
ENDBRANCH   2  14
TORSDOF 2
ENDMDL
MODEL 2
REMARK VINA RESULT:    -5.373      1.281      5.391
REMARK INTER + INTRA:          -5.786
REMARK INTER:                  -5.721
REMARK INTRA:                  -0.065
REMARK UNBOUND:                 0.059
REMARK SMILES COc1cc2ccc(=O)oc2cc1O
REMARK SMILES IDX 3 1 13 2 12 3 11 4 5 5 4 6 6 7 7 8 8 9 9 10 10 11 2 12 1 13
REMARK SMILES IDX 14 14
REMARK H PARENT 14 15
REMARK Flexibility Score: inf
ROOT
ATOM      1  C   UNL     1      21.689   0.727 -21.319  1.00  0.00     0.161 A 
ATOM      2  C   UNL     1      20.958  -0.412 -21.708  1.00  0.00     0.161 A 
ATOM      3  C   UNL     1      20.144  -1.078 -20.785  1.00  0.00     0.098 A 
ATOM      4  C   UNL     1      20.047  -0.619 -19.469  1.00  0.00     0.142 A 
ATOM      5  C   UNL     1      20.775   0.521 -19.070  1.00  0.00     0.022 A 
ATOM      6  C   UNL     1      21.591   1.190 -19.991  1.00  0.00     0.062 A 
ATOM      7  C   UNL     1      20.657   0.955 -17.745  1.00  0.00     0.019 A 
ATOM      8  C   UNL     1      19.831   0.256 -16.865  1.00  0.00     0.094 A 
ATOM      9  C   UNL     1      19.141  -0.867 -17.333  1.00  0.00     0.336 A 
ATOM     10  O   UNL     1      18.391  -1.512 -16.554  1.00  0.00    -0.246 OA
ATOM     11  O   UNL     1      19.270  -1.259 -18.597  1.00  0.00    -0.423 OA
ENDROOT
BRANCH   1  12
ATOM     12  O   UNL     1      22.496   1.370 -22.271  1.00  0.00    -0.493 OA
ATOM     13  C   UNL     1      22.109   2.524 -23.012  1.00  0.00     0.278 C 
ENDBRANCH   1  12
BRANCH   2  14
ATOM     14  O   UNL     1      21.029  -0.901 -23.014  1.00  0.00    -0.504 OA
ATOM     15  H   UNL     1      21.870  -1.325 -23.387  1.00  0.00     0.293 HD
ENDBRANCH   2  14
TORSDOF 2
ENDMDL
MODEL 3
REMARK VINA RESULT:    -5.226      1.742      5.081
REMARK INTER + INTRA:          -5.626
REMARK INTER:                  -5.581
REMARK INTRA:                  -0.045
REMARK UNBOUND:                 0.059
REMARK SMILES COc1cc2ccc(=O)oc2cc1O
REMARK SMILES IDX 3 1 13 2 12 3 11 4 5 5 4 6 6 7 7 8 8 9 9 10 10 11 2 12 1 13
REMARK SMILES IDX 14 14
REMARK H PARENT 14 15
REMARK Flexibility Score: inf
ROOT
ATOM      1  C   UNL     1      20.562   0.196 -20.074  1.00  0.00     0.161 A 
ATOM      2  C   UNL     1      19.519  -0.225 -19.227  1.00  0.00     0.161 A 
ATOM      3  C   UNL     1      19.582   0.025 -17.851  1.00  0.00     0.098 A 
ATOM      4  C   UNL     1      20.679   0.694 -17.304  1.00  0.00     0.142 A 
ATOM      5  C   UNL     1      21.729   1.119 -18.144  1.00  0.00     0.022 A 
ATOM      6  C   UNL     1      21.670   0.871 -19.522  1.00  0.00     0.062 A 
ATOM      7  C   UNL     1      22.815   1.786 -17.565  1.00  0.00     0.019 A 
ATOM      8  C   UNL     1      22.828   2.009 -16.189  1.00  0.00     0.094 A 
ATOM      9  C   UNL     1      21.751   1.557 -15.419  1.00  0.00     0.336 A 
ATOM     10  O   UNL     1      21.744   1.749 -14.175  1.00  0.00    -0.246 OA
ATOM     11  O   UNL     1      20.731   0.926 -15.994  1.00  0.00    -0.423 OA
ENDROOT
BRANCH   1  12
ATOM     12  O   UNL     1      20.466  -0.070 -21.449  1.00  0.00    -0.493 OA
ATOM     13  C   UNL     1      21.580  -0.187 -22.330  1.00  0.00     0.278 C 
ENDBRANCH   1  12
BRANCH   2  14
ATOM     14  O   UNL     1      18.406  -0.896 -19.736  1.00  0.00    -0.504 OA
ATOM     15  H   UNL     1      18.418  -1.890 -19.933  1.00  0.00     0.293 HD
ENDBRANCH   2  14
TORSDOF 2
ENDMDL
MODEL 4
REMARK VINA RESULT:    -5.121     15.311     16.535
REMARK INTER + INTRA:          -5.512
REMARK INTER:                  -5.468
REMARK INTRA:                  -0.044
REMARK UNBOUND:                 0.059
REMARK SMILES COc1cc2ccc(=O)oc2cc1O
REMARK SMILES IDX 3 1 13 2 12 3 11 4 5 5 4 6 6 7 7 8 8 9 9 10 10 11 2 12 1 13
REMARK SMILES IDX 14 14
REMARK H PARENT 14 15
REMARK Flexibility Score: inf
ROOT
ATOM      1  C   UNL     1       7.508  -4.191 -10.865  1.00  0.00     0.161 A 
ATOM      2  C   UNL     1       7.060  -4.263  -9.532  1.00  0.00     0.161 A 
ATOM      3  C   UNL     1       7.708  -5.097  -8.613  1.00  0.00     0.098 A 
ATOM      4  C   UNL     1       8.804  -5.867  -9.009  1.00  0.00     0.142 A 
ATOM      5  C   UNL     1       9.261  -5.802 -10.342  1.00  0.00     0.022 A 
ATOM      6  C   UNL     1       8.615  -4.967 -11.264  1.00  0.00     0.062 A 
ATOM      7  C   UNL     1      10.361  -6.585 -10.707  1.00  0.00     0.019 A 
ATOM      8  C   UNL     1      10.970  -7.399  -9.753  1.00  0.00     0.094 A 
ATOM      9  C   UNL     1      10.461  -7.412  -8.450  1.00  0.00     0.336 A 
ATOM     10  O   UNL     1      10.997  -8.141  -7.575  1.00  0.00    -0.246 OA
ATOM     11  O   UNL     1       9.414  -6.658  -8.129  1.00  0.00    -0.423 OA
ENDROOT
BRANCH   1  12
ATOM     12  O   UNL     1       6.835  -3.343 -11.760  1.00  0.00    -0.493 OA
ATOM     13  C   UNL     1       7.289  -3.030 -13.073  1.00  0.00     0.278 C 
ENDBRANCH   1  12
BRANCH   2  14
ATOM     14  O   UNL     1       5.968  -3.509  -9.098  1.00  0.00    -0.504 OA
ATOM     15  H   UNL     1       5.918  -2.506  -9.229  1.00  0.00     0.293 HD
ENDBRANCH   2  14
TORSDOF 2
ENDMDL
MODEL 5
REMARK VINA RESULT:    -5.065     15.179     17.671
REMARK INTER + INTRA:          -5.451
REMARK INTER:                  -5.407
REMARK INTRA:                  -0.045
REMARK UNBOUND:                 0.059
REMARK SMILES COc1cc2ccc(=O)oc2cc1O
REMARK SMILES IDX 3 1 13 2 12 3 11 4 5 5 4 6 6 7 7 8 8 9 9 10 10 11 2 12 1 13
REMARK SMILES IDX 14 14
REMARK H PARENT 14 15
REMARK Flexibility Score: inf
ROOT
ATOM      1  C   UNL     1       7.995  -5.427 -11.526  1.00  0.00     0.161 A 
ATOM      2  C   UNL     1       8.088  -6.809 -11.780  1.00  0.00     0.161 A 
ATOM      3  C   UNL     1       8.113  -7.722 -10.720  1.00  0.00     0.098 A 
ATOM      4  C   UNL     1       8.044  -7.273  -9.399  1.00  0.00     0.142 A 
ATOM      5  C   UNL     1       7.950  -5.890  -9.134  1.00  0.00     0.022 A 
ATOM      6  C   UNL     1       7.926  -4.973 -10.193  1.00  0.00     0.062 A 
ATOM      7  C   UNL     1       7.884  -5.472  -7.800  1.00  0.00     0.019 A 
ATOM      8  C   UNL     1       7.912  -6.424  -6.781  1.00  0.00     0.094 A 
ATOM      9  C   UNL     1       8.007  -7.777  -7.121  1.00  0.00     0.336 A 
ATOM     10  O   UNL     1       8.034  -8.651  -6.215  1.00  0.00    -0.246 OA
ATOM     11  O   UNL     1       8.068  -8.148  -8.397  1.00  0.00    -0.423 OA
ENDROOT
BRANCH   1  12
ATOM     12  O   UNL     1       7.972  -4.539 -12.614  1.00  0.00    -0.493 OA
ATOM     13  C   UNL     1       7.430  -3.222 -12.572  1.00  0.00     0.278 C 
ENDBRANCH   1  12
BRANCH   2  14
ATOM     14  O   UNL     1       8.158  -7.297 -13.086  1.00  0.00    -0.504 OA
ATOM     15  H   UNL     1       7.713  -8.164 -13.363  1.00  0.00     0.293 HD
ENDBRANCH   2  14
TORSDOF 2
ENDMDL
MODEL 6
REMARK VINA RESULT:    -4.990     13.615     17.940
REMARK INTER + INTRA:          -5.369
REMARK INTER:                  -5.304
REMARK INTRA:                  -0.065
REMARK UNBOUND:                 0.059
REMARK SMILES COc1cc2ccc(=O)oc2cc1O
REMARK SMILES IDX 3 1 13 2 12 3 11 4 5 5 4 6 6 7 7 8 8 9 9 10 10 11 2 12 1 13
REMARK SMILES IDX 14 14
REMARK H PARENT 14 15
REMARK Flexibility Score: inf
ROOT
ATOM      1  C   UNL     1      11.215  -6.822  -9.252  1.00  0.00     0.161 A 
ATOM      2  C   UNL     1      10.924  -8.177  -9.505  1.00  0.00     0.161 A 
ATOM      3  C   UNL     1       9.916  -8.829  -8.786  1.00  0.00     0.098 A 
ATOM      4  C   UNL     1       9.189  -8.145  -7.810  1.00  0.00     0.142 A 
ATOM      5  C   UNL     1       9.472  -6.788  -7.548  1.00  0.00     0.022 A 
ATOM      6  C   UNL     1      10.481  -6.131  -8.266  1.00  0.00     0.062 A 
ATOM      7  C   UNL     1       8.726  -6.130  -6.564  1.00  0.00     0.019 A 
ATOM      8  C   UNL     1       7.734  -6.827  -5.876  1.00  0.00     0.094 A 
ATOM      9  C   UNL     1       7.509  -8.172  -6.190  1.00  0.00     0.336 A 
ATOM     10  O   UNL     1       6.618  -8.818  -5.580  1.00  0.00    -0.246 OA
ATOM     11  O   UNL     1       8.232  -8.774  -7.130  1.00  0.00    -0.423 OA
ENDROOT
BRANCH   1  12
ATOM     12  O   UNL     1      12.232  -6.198  -9.992  1.00  0.00    -0.493 OA
ATOM     13  C   UNL     1      12.009  -5.315 -11.088  1.00  0.00     0.278 C 
ENDBRANCH   1  12
BRANCH   2  14
ATOM     14  O   UNL     1      11.629  -8.894 -10.473  1.00  0.00    -0.504 OA
ATOM     15  H   UNL     1      12.211  -9.690 -10.237  1.00  0.00     0.293 HD
ENDBRANCH   2  14
TORSDOF 2
ENDMDL
MODEL 7
REMARK VINA RESULT:    -4.987      1.186      4.836
REMARK INTER + INTRA:          -5.366
REMARK INTER:                  -5.321
REMARK INTRA:                  -0.045
REMARK UNBOUND:                 0.059
REMARK SMILES COc1cc2ccc(=O)oc2cc1O
REMARK SMILES IDX 3 1 13 2 12 3 11 4 5 5 4 6 6 7 7 8 8 9 9 10 10 11 2 12 1 13
REMARK SMILES IDX 14 14
REMARK H PARENT 14 15
REMARK Flexibility Score: inf
ROOT
ATOM      1  C   UNL     1      21.390   0.734 -20.861  1.00  0.00     0.161 A 
ATOM      2  C   UNL     1      21.642   1.520 -19.720  1.00  0.00     0.161 A 
ATOM      3  C   UNL     1      21.055   1.192 -18.492  1.00  0.00     0.098 A 
ATOM      4  C   UNL     1      20.214   0.082 -18.386  1.00  0.00     0.142 A 
ATOM      5  C   UNL     1      19.955  -0.712 -19.523  1.00  0.00     0.022 A 
ATOM      6  C   UNL     1      20.541  -0.386 -20.754  1.00  0.00     0.062 A 
ATOM      7  C   UNL     1      19.109  -1.817 -19.384  1.00  0.00     0.019 A 
ATOM      8  C   UNL     1      18.549  -2.100 -18.139  1.00  0.00     0.094 A 
ATOM      9  C   UNL     1      18.851  -1.267 -17.056  1.00  0.00     0.336 A 
ATOM     10  O   UNL     1      18.356  -1.506 -15.924  1.00  0.00    -0.246 OA
ATOM     11  O   UNL     1      19.659  -0.223 -17.215  1.00  0.00    -0.423 OA
ENDROOT
BRANCH   1  12
ATOM     12  O   UNL     1      21.996   1.092 -22.076  1.00  0.00    -0.493 OA
ATOM     13  C   UNL     1      22.338   0.175 -23.110  1.00  0.00     0.278 C 
ENDBRANCH   1  12
BRANCH   2  14
ATOM     14  O   UNL     1      22.476   2.637 -19.785  1.00  0.00    -0.504 OA
ATOM     15  H   UNL     1      22.268   3.496 -19.290  1.00  0.00     0.293 HD
ENDBRANCH   2  14
TORSDOF 2
ENDMDL
MODEL 8
REMARK VINA RESULT:    -4.866      1.455      2.010
REMARK INTER + INTRA:          -5.234
REMARK INTER:                  -5.169
REMARK INTRA:                  -0.065
REMARK UNBOUND:                 0.059
REMARK SMILES COc1cc2ccc(=O)oc2cc1O
REMARK SMILES IDX 3 1 13 2 12 3 11 4 5 5 4 6 6 7 7 8 8 9 9 10 10 11 2 12 1 13
REMARK SMILES IDX 14 14
REMARK H PARENT 14 15
REMARK Flexibility Score: inf
ROOT
ATOM      1  C   UNL     1      21.038   0.992 -16.585  1.00  0.00     0.161 A 
ATOM      2  C   UNL     1      22.138   1.746 -17.039  1.00  0.00     0.161 A 
ATOM      3  C   UNL     1      22.479   1.750 -18.396  1.00  0.00     0.098 A 
ATOM      4  C   UNL     1      21.732   1.008 -19.315  1.00  0.00     0.142 A 
ATOM      5  C   UNL     1      20.629   0.250 -18.870  1.00  0.00     0.022 A 
ATOM      6  C   UNL     1      20.285   0.243 -17.511  1.00  0.00     0.062 A 
ATOM      7  C   UNL     1      19.901  -0.483 -19.814  1.00  0.00     0.019 A 
ATOM      8  C   UNL     1      20.283  -0.444 -21.154  1.00  0.00     0.094 A 
ATOM      9  C   UNL     1      21.389   0.330 -21.521  1.00  0.00     0.336 A 
ATOM     10  O   UNL     1      21.750   0.378 -22.726  1.00  0.00    -0.246 OA
ATOM     11  O   UNL     1      22.063   1.018 -20.604  1.00  0.00    -0.423 OA
ENDROOT
BRANCH   1  12
ATOM     12  O   UNL     1      20.724   1.010 -15.216  1.00  0.00    -0.493 OA
ATOM     13  C   UNL     1      19.716   1.827 -14.629  1.00  0.00     0.278 C 
ENDBRANCH   1  12
BRANCH   2  14
ATOM     14  O   UNL     1      22.908   2.500 -16.152  1.00  0.00    -0.504 OA
ATOM     15  H   UNL     1      22.866   3.512 -16.127  1.00  0.00     0.293 HD
ENDBRANCH   2  14
TORSDOF 2
ENDMDL
MODEL 9
REMARK VINA RESULT:    -4.841     10.811     13.041
REMARK INTER + INTRA:          -5.207
REMARK INTER:                  -5.145
REMARK INTRA:                  -0.062
REMARK UNBOUND:                 0.059
REMARK SMILES COc1cc2ccc(=O)oc2cc1O
REMARK SMILES IDX 3 1 13 2 12 3 11 4 5 5 4 6 6 7 7 8 8 9 9 10 10 11 2 12 1 13
REMARK SMILES IDX 14 14
REMARK H PARENT 14 15
REMARK Flexibility Score: inf
ROOT
ATOM      1  C   UNL     1      19.287  -2.357  -8.181  1.00  0.00     0.161 A 
ATOM      2  C   UNL     1      18.950  -2.784  -6.882  1.00  0.00     0.161 A 
ATOM      3  C   UNL     1      19.951  -3.182  -5.988  1.00  0.00     0.098 A 
ATOM      4  C   UNL     1      21.293  -3.159  -6.373  1.00  0.00     0.142 A 
ATOM      5  C   UNL     1      21.641  -2.732  -7.672  1.00  0.00     0.022 A 
ATOM      6  C   UNL     1      20.642  -2.334  -8.571  1.00  0.00     0.062 A 
ATOM      7  C   UNL     1      22.994  -2.721  -8.029  1.00  0.00     0.019 A 
ATOM      8  C   UNL     1      23.951  -3.127  -7.100  1.00  0.00     0.094 A 
ATOM      9  C   UNL     1      23.531  -3.538  -5.830  1.00  0.00     0.336 A 
ATOM     10  O   UNL     1      24.379  -3.908  -4.977  1.00  0.00    -0.246 OA
ATOM     11  O   UNL     1      22.238  -3.539  -5.516  1.00  0.00    -0.423 OA
ENDROOT
BRANCH   1  12
ATOM     12  O   UNL     1      18.258  -1.965  -9.052  1.00  0.00    -0.493 OA
ATOM     13  C   UNL     1      17.819  -0.622  -9.233  1.00  0.00     0.278 C 
ENDBRANCH   1  12
BRANCH   2  14
ATOM     14  O   UNL     1      17.620  -2.821  -6.459  1.00  0.00    -0.504 OA
ATOM     15  H   UNL     1      17.181  -2.037  -5.991  1.00  0.00     0.293 HD
ENDBRANCH   2  14
TORSDOF 2
ENDMDL
