MODEL 1
REMARK VINA RESULT:    16.740      0.000      0.000
REMARK INTER + INTRA:          42.065
REMARK INTER:                  42.184
REMARK INTRA:                  -0.119
REMARK UNBOUND:                -0.119
REMARK SMILES CCCCCCCCCCCCCCCCCCCCCCCCCCCC(=O)[O-]
REMARK SMILES IDX 15 1 16 2 17 3 18 4 19 5 20 6 21 7 22 8 23 9 24 10 25 11
REMARK SMILES IDX 26 12 27 13 28 14 29 15 30 16 14 17 13 18 12 19 11 20 10 21
REMARK SMILES IDX 9 22 8 23 7 24 6 25 5 26 4 27 3 28 2 29 1 30
REMARK H PARENT
REMARK Flexibility Score: inf
ROOT
ATOM      1  C   UNL     1      80.651  66.072 103.231  1.00  0.00     0.000 C 
ENDROOT
BRANCH   1   2
ATOM      2  C   UNL     1      82.106  66.546 103.395  1.00  0.00     0.000 C 
BRANCH   2   3
ATOM      3  C   UNL     1      82.351  67.221 104.757  1.00  0.00     0.000 C 
BRANCH   3   4
ATOM      4  C   UNL     1      83.787  67.021 105.270  1.00  0.00     0.000 C 
BRANCH   4   5
ATOM      5  C   UNL     1      83.920  65.797 106.194  1.00  0.00     0.000 C 
BRANCH   5   6
ATOM      6  C   UNL     1      83.384  64.502 105.553  1.00  0.00     0.000 C 
BRANCH   6   7
ATOM      7  C   UNL     1      84.374  63.323 105.533  1.00  0.00     0.000 C 
BRANCH   7   8
ATOM      8  C   UNL     1      84.182  62.395 104.321  1.00  0.00     0.000 C 
BRANCH   8   9
ATOM      9  C   UNL     1      83.275  63.022 103.240  1.00  0.00     0.000 C 
BRANCH   9  10
ATOM     10  C   UNL     1      83.493  62.443 101.833  1.00  0.00     0.000 C 
BRANCH  10  11
ATOM     11  C   UNL     1      84.770  62.970 101.159  1.00  0.00     0.000 C 
BRANCH  11  12
ATOM     12  C   UNL     1      85.267  62.047 100.030  1.00  0.00     0.006 C 
BRANCH  12  13
ATOM     13  C   UNL     1      86.372  62.666  99.159  1.00  0.00     0.053 C 
BRANCH  13  14
ATOM     14  C   UNL     1      85.840  63.717  98.234  1.00  0.00     0.041 C 
ATOM     15  O   UNL     1      85.693  64.901  98.639  1.00  0.00    -0.550 OA
ATOM     16  O   UNL     1      85.505  63.390  96.925  1.00  0.00    -0.550 OA
ENDBRANCH  13  14
ENDBRANCH  12  13
ENDBRANCH  11  12
ENDBRANCH  10  11
ENDBRANCH   9  10
ENDBRANCH   8   9
ENDBRANCH   7   8
ENDBRANCH   6   7
ENDBRANCH   5   6
ENDBRANCH   4   5
ENDBRANCH   3   4
ENDBRANCH   2   3
ENDBRANCH   1   2
BRANCH   1  17
ATOM     17  C   UNL     1      80.514  64.748 102.455  1.00  0.00     0.000 C 
BRANCH  17  18
ATOM     18  C   UNL     1      79.213  64.679 101.635  1.00  0.00     0.000 C 
BRANCH  18  19
ATOM     19  C   UNL     1      77.961  64.612 102.523  1.00  0.00     0.000 C 
BRANCH  19  20
ATOM     20  C   UNL     1      76.759  63.978 101.804  1.00  0.00     0.000 C 
BRANCH  20  21
ATOM     21  C   UNL     1      77.072  63.605 100.346  1.00  0.00     0.000 C 
BRANCH  21  22
ATOM     22  C   UNL     1      75.805  63.277  99.538  1.00  0.00    -0.000 C 
BRANCH  22  23
ATOM     23  C   UNL     1      74.835  64.465  99.530  1.00  0.00    -0.000 C 
BRANCH  23  24
ATOM     24  C   UNL     1      73.870  64.377  98.340  1.00  0.00    -0.000 C 
BRANCH  24  25
ATOM     25  C   UNL     1      74.555  63.918  97.041  1.00  0.00    -0.000 C 
BRANCH  25  26
ATOM     26  C   UNL     1      75.541  62.748  97.245  1.00  0.00    -0.000 C 
BRANCH  26  27
ATOM     27  C   UNL     1      75.011  61.435  96.646  1.00  0.00    -0.000 C 
BRANCH  27  28
ATOM     28  C   UNL     1      75.717  60.221  97.268  1.00  0.00    -0.000 C 
BRANCH  28  29
ATOM     29  C   UNL     1      77.209  60.155  96.904  1.00  0.00    -0.003 C 
ATOM     30  C   UNL     1      77.453  60.155  95.396  1.00  0.00     0.004 C 
ENDBRANCH  28  29
ENDBRANCH  27  28
ENDBRANCH  26  27
ENDBRANCH  25  26
ENDBRANCH  24  25
ENDBRANCH  23  24
ENDBRANCH  22  23
ENDBRANCH  21  22
ENDBRANCH  20  21
ENDBRANCH  19  20
ENDBRANCH  18  19
ENDBRANCH  17  18
ENDBRANCH   1  17
TORSDOF 26
ENDMDL
MODEL 2
REMARK VINA RESULT:    16.779      4.486      6.046
REMARK INTER + INTRA:          42.163
REMARK INTER:                  42.839
REMARK INTRA:                  -0.676
REMARK UNBOUND:                -0.119
REMARK SMILES CCCCCCCCCCCCCCCCCCCCCCCCCCCC(=O)[O-]
REMARK SMILES IDX 15 1 16 2 17 3 18 4 19 5 20 6 21 7 22 8 23 9 24 10 25 11
REMARK SMILES IDX 26 12 27 13 28 14 29 15 30 16 14 17 13 18 12 19 11 20 10 21
REMARK SMILES IDX 9 22 8 23 7 24 6 25 5 26 4 27 3 28 2 29 1 30
REMARK H PARENT
REMARK Flexibility Score: inf
ROOT
ATOM      1  C   UNL     1      80.715  65.920 103.568  1.00  0.00     0.000 C 
ENDROOT
BRANCH   1   2
ATOM      2  C   UNL     1      82.150  66.474 103.505  1.00  0.00     0.000 C 
BRANCH   2   3
ATOM      3  C   UNL     1      82.531  67.254 104.777  1.00  0.00     0.000 C 
BRANCH   3   4
ATOM      4  C   UNL     1      84.052  67.370 104.970  1.00  0.00     0.000 C 
BRANCH   4   5
ATOM      5  C   UNL     1      84.533  66.722 106.280  1.00  0.00     0.000 C 
BRANCH   5   6
ATOM      6  C   UNL     1      83.922  65.327 106.517  1.00  0.00     0.000 C 
BRANCH   6   7
ATOM      7  C   UNL     1      84.939  64.208 106.812  1.00  0.00     0.000 C 
BRANCH   7   8
ATOM      8  C   UNL     1      85.735  64.443 108.107  1.00  0.00     0.000 C 
BRANCH   8   9
ATOM      9  C   UNL     1      87.246  64.183 107.921  1.00  0.00     0.000 C 
BRANCH   9  10
ATOM     10  C   UNL     1      88.005  63.962 109.240  1.00  0.00     0.000 C 
BRANCH  10  11
ATOM     11  C   UNL     1      87.087  63.999 110.473  1.00  0.00     0.000 C 
BRANCH  11  12
ATOM     12  C   UNL     1      87.026  65.394 111.123  1.00  0.00     0.006 C 
BRANCH  12  13
ATOM     13  C   UNL     1      87.848  66.462 110.384  1.00  0.00     0.053 C 
BRANCH  13  14
ATOM     14  C   UNL     1      87.325  67.844 110.624  1.00  0.00     0.041 C 
ATOM     15  O   UNL     1      88.050  68.847 110.385  1.00  0.00    -0.550 OA
ATOM     16  O   UNL     1      86.036  68.027 111.113  1.00  0.00    -0.550 OA
ENDBRANCH  13  14
ENDBRANCH  12  13
ENDBRANCH  11  12
ENDBRANCH  10  11
ENDBRANCH   9  10
ENDBRANCH   8   9
ENDBRANCH   7   8
ENDBRANCH   6   7
ENDBRANCH   5   6
ENDBRANCH   4   5
ENDBRANCH   3   4
ENDBRANCH   2   3
ENDBRANCH   1   2
BRANCH   1  17
ATOM     17  C   UNL     1      80.098  65.640 102.183  1.00  0.00     0.000 C 
BRANCH  17  18
ATOM     18  C   UNL     1      79.747  64.154 101.986  1.00  0.00     0.000 C 
BRANCH  18  19
ATOM     19  C   UNL     1      78.305  63.830 102.407  1.00  0.00     0.000 C 
BRANCH  19  20
ATOM     20  C   UNL     1      77.267  64.712 101.693  1.00  0.00     0.000 C 
BRANCH  20  21
ATOM     21  C   UNL     1      75.983  63.945 101.339  1.00  0.00     0.000 C 
BRANCH  21  22
ATOM     22  C   UNL     1      76.054  63.290  99.950  1.00  0.00    -0.000 C 
BRANCH  22  23
ATOM     23  C   UNL     1      74.654  63.130  99.345  1.00  0.00    -0.000 C 
BRANCH  23  24
ATOM     24  C   UNL     1      74.225  64.405  98.607  1.00  0.00    -0.000 C 
BRANCH  24  25
ATOM     25  C   UNL     1      73.921  64.165  97.117  1.00  0.00    -0.000 C 
BRANCH  25  26
ATOM     26  C   UNL     1      75.187  64.066  96.238  1.00  0.00    -0.000 C 
BRANCH  26  27
ATOM     27  C   UNL     1      75.542  62.609  95.899  1.00  0.00    -0.000 C 
BRANCH  27  28
ATOM     28  C   UNL     1      76.211  61.913  97.094  1.00  0.00    -0.000 C 
BRANCH  28  29
ATOM     29  C   UNL     1      75.767  60.450  97.249  1.00  0.00    -0.003 C 
ATOM     30  C   UNL     1      75.147  59.879  95.975  1.00  0.00     0.004 C 
ENDBRANCH  28  29
ENDBRANCH  27  28
ENDBRANCH  26  27
ENDBRANCH  25  26
ENDBRANCH  24  25
ENDBRANCH  23  24
ENDBRANCH  22  23
ENDBRANCH  21  22
ENDBRANCH  20  21
ENDBRANCH  19  20
ENDBRANCH  18  19
ENDBRANCH  17  18
ENDBRANCH   1  17
TORSDOF 26
ENDMDL
MODEL 3
REMARK VINA RESULT:    17.335      2.693      9.404
REMARK INTER + INTRA:          43.565
REMARK INTER:                  44.423
REMARK INTRA:                  -0.858
REMARK UNBOUND:                -0.119
REMARK SMILES CCCCCCCCCCCCCCCCCCCCCCCCCCCC(=O)[O-]
REMARK SMILES IDX 15 1 16 2 17 3 18 4 19 5 20 6 21 7 22 8 23 9 24 10 25 11
REMARK SMILES IDX 26 12 27 13 28 14 29 15 30 16 14 17 13 18 12 19 11 20 10 21
REMARK SMILES IDX 9 22 8 23 7 24 6 25 5 26 4 27 3 28 2 29 1 30
REMARK H PARENT
REMARK Flexibility Score: inf
ROOT
ATOM      1  C   UNL     1      80.929  64.766 102.635  1.00  0.00     0.000 C 
ENDROOT
BRANCH   1   2
ATOM      2  C   UNL     1      79.675  64.864 101.747  1.00  0.00     0.000 C 
BRANCH   2   3
ATOM      3  C   UNL     1      78.373  64.805 102.567  1.00  0.00     0.000 C 
BRANCH   3   4
ATOM      4  C   UNL     1      77.431  63.680 102.106  1.00  0.00     0.000 C 
BRANCH   4   5
ATOM      5  C   UNL     1      76.643  64.052 100.837  1.00  0.00     0.000 C 
BRANCH   5   6
ATOM      6  C   UNL     1      76.455  62.859  99.879  1.00  0.00     0.000 C 
BRANCH   6   7
ATOM      7  C   UNL     1      75.317  63.017  98.853  1.00  0.00     0.000 C 
BRANCH   7   8
ATOM      8  C   UNL     1      74.390  64.206  99.159  1.00  0.00     0.000 C 
BRANCH   8   9
ATOM      9  C   UNL     1      74.160  65.103  97.924  1.00  0.00     0.000 C 
BRANCH   9  10
ATOM     10  C   UNL     1      74.993  64.697  96.697  1.00  0.00     0.000 C 
BRANCH  10  11
ATOM     11  C   UNL     1      74.673  63.278  96.197  1.00  0.00     0.000 C 
BRANCH  11  12
ATOM     12  C   UNL     1      75.934  62.506  95.764  1.00  0.00     0.006 C 
BRANCH  12  13
ATOM     13  C   UNL     1      75.732  60.985  95.674  1.00  0.00     0.053 C 
BRANCH  13  14
ATOM     14  C   UNL     1      76.014  60.299  96.975  1.00  0.00     0.041 C 
ATOM     15  O   UNL     1      75.072  60.028  97.765  1.00  0.00    -0.550 OA
ATOM     16  O   UNL     1      77.319  59.961  97.317  1.00  0.00    -0.550 OA
ENDBRANCH  13  14
ENDBRANCH  12  13
ENDBRANCH  11  12
ENDBRANCH  10  11
ENDBRANCH   9  10
ENDBRANCH   8   9
ENDBRANCH   7   8
ENDBRANCH   6   7
ENDBRANCH   5   6
ENDBRANCH   4   5
ENDBRANCH   3   4
ENDBRANCH   2   3
ENDBRANCH   1   2
BRANCH   1  17
ATOM     17  C   UNL     1      80.952  65.786 103.790  1.00  0.00     0.000 C 
BRANCH  17  18
ATOM     18  C   UNL     1      81.916  66.956 103.523  1.00  0.00     0.000 C 
BRANCH  18  19
ATOM     19  C   UNL     1      82.545  67.506 104.813  1.00  0.00     0.000 C 
BRANCH  19  20
ATOM     20  C   UNL     1      83.919  66.884 105.113  1.00  0.00     0.000 C 
BRANCH  20  21
ATOM     21  C   UNL     1      83.972  66.203 106.489  1.00  0.00     0.000 C 
BRANCH  21  22
ATOM     22  C   UNL     1      84.400  64.729 106.399  1.00  0.00    -0.000 C 
BRANCH  22  23
ATOM     23  C   UNL     1      83.390  63.911 105.584  1.00  0.00    -0.000 C 
BRANCH  23  24
ATOM     24  C   UNL     1      84.093  62.797 104.797  1.00  0.00    -0.000 C 
BRANCH  24  25
ATOM     25  C   UNL     1      83.659  62.735 103.322  1.00  0.00    -0.000 C 
BRANCH  25  26
ATOM     26  C   UNL     1      84.843  62.703 102.332  1.00  0.00    -0.000 C 
BRANCH  26  27
ATOM     27  C   UNL     1      84.377  62.786 100.869  1.00  0.00    -0.000 C 
BRANCH  27  28
ATOM     28  C   UNL     1      85.541  62.522  99.904  1.00  0.00    -0.000 C 
BRANCH  28  29
ATOM     29  C   UNL     1      85.847  63.729  99.003  1.00  0.00    -0.003 C 
ATOM     30  C   UNL     1      85.714  63.408  97.515  1.00  0.00     0.004 C 
ENDBRANCH  28  29
ENDBRANCH  27  28
ENDBRANCH  26  27
ENDBRANCH  25  26
ENDBRANCH  24  25
ENDBRANCH  23  24
ENDBRANCH  22  23
ENDBRANCH  21  22
ENDBRANCH  20  21
ENDBRANCH  19  20
ENDBRANCH  18  19
ENDBRANCH  17  18
ENDBRANCH   1  17
TORSDOF 26
ENDMDL
MODEL 4
REMARK VINA RESULT:    18.063      3.581     11.390
REMARK INTER + INTRA:          45.400
REMARK INTER:                  43.505
REMARK INTRA:                   1.895
REMARK UNBOUND:                -0.119
REMARK SMILES CCCCCCCCCCCCCCCCCCCCCCCCCCCC(=O)[O-]
REMARK SMILES IDX 15 1 16 2 17 3 18 4 19 5 20 6 21 7 22 8 23 9 24 10 25 11
REMARK SMILES IDX 26 12 27 13 28 14 29 15 30 16 14 17 13 18 12 19 11 20 10 21
REMARK SMILES IDX 9 22 8 23 7 24 6 25 5 26 4 27 3 28 2 29 1 30
REMARK H PARENT
REMARK Flexibility Score: inf
ROOT
ATOM      1  C   UNL     1      81.224  64.674 102.480  1.00  0.00     0.000 C 
ENDROOT
BRANCH   1   2
ATOM      2  C   UNL     1      79.835  64.742 101.820  1.00  0.00     0.000 C 
BRANCH   2   3
ATOM      3  C   UNL     1      78.759  65.285 102.778  1.00  0.00     0.000 C 
BRANCH   3   4
ATOM      4  C   UNL     1      77.567  64.326 102.938  1.00  0.00     0.000 C 
BRANCH   4   5
ATOM      5  C   UNL     1      77.458  63.320 101.778  1.00  0.00     0.000 C 
BRANCH   5   6
ATOM      6  C   UNL     1      77.086  63.988 100.439  1.00  0.00     0.000 C 
BRANCH   6   7
ATOM      7  C   UNL     1      75.857  63.391  99.728  1.00  0.00     0.000 C 
BRANCH   7   8
ATOM      8  C   UNL     1      74.885  64.462  99.205  1.00  0.00     0.000 C 
BRANCH   8   9
ATOM      9  C   UNL     1      73.706  63.849  98.419  1.00  0.00     0.000 C 
BRANCH   9  10
ATOM     10  C   UNL     1      73.647  64.285  96.945  1.00  0.00     0.000 C 
BRANCH  10  11
ATOM     11  C   UNL     1      74.623  63.504  96.049  1.00  0.00     0.000 C 
BRANCH  11  12
ATOM     12  C   UNL     1      75.906  63.091  96.793  1.00  0.00     0.006 C 
BRANCH  12  13
ATOM     13  C   UNL     1      75.738  61.849  97.684  1.00  0.00     0.053 C 
BRANCH  13  14
ATOM     14  C   UNL     1      75.761  60.578  96.892  1.00  0.00     0.041 C 
ATOM     15  O   UNL     1      76.847  60.141  96.427  1.00  0.00    -0.550 OA
ATOM     16  O   UNL     1      74.582  59.877  96.665  1.00  0.00    -0.550 OA
ENDBRANCH  13  14
ENDBRANCH  12  13
ENDBRANCH  11  12
ENDBRANCH  10  11
ENDBRANCH   9  10
ENDBRANCH   8   9
ENDBRANCH   7   8
ENDBRANCH   6   7
ENDBRANCH   5   6
ENDBRANCH   4   5
ENDBRANCH   3   4
ENDBRANCH   2   3
ENDBRANCH   1   2
BRANCH   1  17
ATOM     17  C   UNL     1      82.022  63.407 102.116  1.00  0.00     0.000 C 
BRANCH  17  18
ATOM     18  C   UNL     1      83.440  63.413 102.715  1.00  0.00     0.000 C 
BRANCH  18  19
ATOM     19  C   UNL     1      83.839  62.046 103.293  1.00  0.00     0.000 C 
BRANCH  19  20
ATOM     20  C   UNL     1      84.317  62.136 104.752  1.00  0.00     0.000 C 
BRANCH  20  21
ATOM     21  C   UNL     1      84.331  63.579 105.280  1.00  0.00     0.000 C 
BRANCH  21  22
ATOM     22  C   UNL     1      83.519  63.738 106.576  1.00  0.00    -0.000 C 
BRANCH  22  23
ATOM     23  C   UNL     1      84.144  64.798 107.492  1.00  0.00    -0.000 C 
BRANCH  23  24
ATOM     24  C   UNL     1      85.664  64.868 107.292  1.00  0.00    -0.000 C 
BRANCH  24  25
ATOM     25  C   UNL     1      86.269  66.208 107.746  1.00  0.00    -0.000 C 
BRANCH  25  26
ATOM     26  C   UNL     1      87.524  66.049 108.632  1.00  0.00    -0.000 C 
BRANCH  26  27
ATOM     27  C   UNL     1      87.169  65.951 110.124  1.00  0.00    -0.000 C 
BRANCH  27  28
ATOM     28  C   UNL     1      86.405  64.653 110.425  1.00  0.00    -0.000 C 
BRANCH  28  29
ATOM     29  C   UNL     1      87.335  63.506 110.850  1.00  0.00    -0.003 C 
ATOM     30  C   UNL     1      87.768  62.627 109.679  1.00  0.00     0.004 C 
ENDBRANCH  28  29
ENDBRANCH  27  28
ENDBRANCH  26  27
ENDBRANCH  25  26
ENDBRANCH  24  25
ENDBRANCH  23  24
ENDBRANCH  22  23
ENDBRANCH  21  22
ENDBRANCH  20  21
ENDBRANCH  19  20
ENDBRANCH  18  19
ENDBRANCH  17  18
ENDBRANCH   1  17
TORSDOF 26
ENDMDL
MODEL 5
REMARK VINA RESULT:    18.144      4.050     11.995
REMARK INTER + INTRA:          45.604
REMARK INTER:                  44.755
REMARK INTRA:                   0.850
REMARK UNBOUND:                -0.119
REMARK SMILES CCCCCCCCCCCCCCCCCCCCCCCCCCCC(=O)[O-]
REMARK SMILES IDX 15 1 16 2 17 3 18 4 19 5 20 6 21 7 22 8 23 9 24 10 25 11
REMARK SMILES IDX 26 12 27 13 28 14 29 15 30 16 14 17 13 18 12 19 11 20 10 21
REMARK SMILES IDX 9 22 8 23 7 24 6 25 5 26 4 27 3 28 2 29 1 30
REMARK H PARENT
REMARK Flexibility Score: inf
ROOT
ATOM      1  C   UNL     1      80.248  64.782 102.397  1.00  0.00     0.000 C 
ENDROOT
BRANCH   1   2
ATOM      2  C   UNL     1      78.900  64.763 103.140  1.00  0.00     0.000 C 
BRANCH   2   3
ATOM      3  C   UNL     1      77.913  63.749 102.534  1.00  0.00     0.000 C 
BRANCH   3   4
ATOM      4  C   UNL     1      77.610  64.027 101.052  1.00  0.00     0.000 C 
BRANCH   4   5
ATOM      5  C   UNL     1      76.383  63.250 100.543  1.00  0.00     0.000 C 
BRANCH   5   6
ATOM      6  C   UNL     1      75.321  64.162  99.898  1.00  0.00     0.000 C 
BRANCH   6   7
ATOM      7  C   UNL     1      74.305  63.444  98.990  1.00  0.00     0.000 C 
BRANCH   7   8
ATOM      8  C   UNL     1      74.969  62.513  97.962  1.00  0.00     0.000 C 
BRANCH   8   9
ATOM      9  C   UNL     1      74.920  61.032  98.395  1.00  0.00     0.000 C 
BRANCH   9  10
ATOM     10  C   UNL     1      75.183  60.039  97.251  1.00  0.00     0.000 C 
BRANCH  10  11
ATOM     11  C   UNL     1      76.404  60.419  96.397  1.00  0.00     0.000 C 
BRANCH  11  12
ATOM     12  C   UNL     1      76.057  61.420  95.279  1.00  0.00     0.006 C 
BRANCH  12  13
ATOM     13  C   UNL     1      76.371  62.883  95.633  1.00  0.00     0.053 C 
BRANCH  13  14
ATOM     14  C   UNL     1      75.313  63.822  95.143  1.00  0.00     0.041 C 
ATOM     15  O   UNL     1      74.588  64.443  95.964  1.00  0.00    -0.550 OA
ATOM     16  O   UNL     1      75.125  64.011  93.778  1.00  0.00    -0.550 OA
ENDBRANCH  13  14
ENDBRANCH  12  13
ENDBRANCH  11  12
ENDBRANCH  10  11
ENDBRANCH   9  10
ENDBRANCH   8   9
ENDBRANCH   7   8
ENDBRANCH   6   7
ENDBRANCH   5   6
ENDBRANCH   4   5
ENDBRANCH   3   4
ENDBRANCH   2   3
ENDBRANCH   1   2
BRANCH   1  17
ATOM     17  C   UNL     1      81.113  66.018 102.713  1.00  0.00     0.000 C 
BRANCH  17  18
ATOM     18  C   UNL     1      81.864  65.882 104.050  1.00  0.00     0.000 C 
BRANCH  18  19
ATOM     19  C   UNL     1      82.719  67.119 104.372  1.00  0.00     0.000 C 
BRANCH  19  20
ATOM     20  C   UNL     1      83.181  67.154 105.838  1.00  0.00     0.000 C 
BRANCH  20  21
ATOM     21  C   UNL     1      84.680  66.854 105.993  1.00  0.00     0.000 C 
BRANCH  21  22
ATOM     22  C   UNL     1      85.067  66.530 107.445  1.00  0.00    -0.000 C 
BRANCH  22  23
ATOM     23  C   UNL     1      85.290  65.024 107.634  1.00  0.00    -0.000 C 
BRANCH  23  24
ATOM     24  C   UNL     1      86.693  64.741 108.187  1.00  0.00    -0.000 C 
BRANCH  24  25
ATOM     25  C   UNL     1      86.686  64.347 109.674  1.00  0.00    -0.000 C 
BRANCH  25  26
ATOM     26  C   UNL     1      87.806  65.020 110.495  1.00  0.00    -0.000 C 
BRANCH  26  27
ATOM     27  C   UNL     1      87.952  66.513 110.160  1.00  0.00    -0.000 C 
BRANCH  27  28
ATOM     28  C   UNL     1      87.128  67.377 111.125  1.00  0.00    -0.000 C 
BRANCH  28  29
ATOM     29  C   UNL     1      85.712  67.663 110.600  1.00  0.00    -0.003 C 
ATOM     30  C   UNL     1      84.688  66.627 111.061  1.00  0.00     0.004 C 
ENDBRANCH  28  29
ENDBRANCH  27  28
ENDBRANCH  26  27
ENDBRANCH  25  26
ENDBRANCH  24  25
ENDBRANCH  23  24
ENDBRANCH  22  23
ENDBRANCH  21  22
ENDBRANCH  20  21
ENDBRANCH  19  20
ENDBRANCH  18  19
ENDBRANCH  17  18
ENDBRANCH   1  17
TORSDOF 26
ENDMDL
MODEL 6
REMARK VINA RESULT:    18.170      0.910      2.932
REMARK INTER + INTRA:          45.670
REMARK INTER:                  46.833
REMARK INTRA:                  -1.163
REMARK UNBOUND:                -0.119
REMARK SMILES CCCCCCCCCCCCCCCCCCCCCCCCCCCC(=O)[O-]
REMARK SMILES IDX 15 1 16 2 17 3 18 4 19 5 20 6 21 7 22 8 23 9 24 10 25 11
REMARK SMILES IDX 26 12 27 13 28 14 29 15 30 16 14 17 13 18 12 19 11 20 10 21
REMARK SMILES IDX 9 22 8 23 7 24 6 25 5 26 4 27 3 28 2 29 1 30
REMARK H PARENT
REMARK Flexibility Score: inf
ROOT
ATOM      1  C   UNL     1      79.103  64.809 101.731  1.00  0.00     0.000 C 
ENDROOT
BRANCH   1   2
ATOM      2  C   UNL     1      80.530  64.960 102.287  1.00  0.00     0.000 C 
BRANCH   2   3
ATOM      3  C   UNL     1      80.609  66.001 103.419  1.00  0.00     0.000 C 
BRANCH   3   4
ATOM      4  C   UNL     1      81.905  66.828 103.376  1.00  0.00     0.000 C 
BRANCH   4   5
ATOM      5  C   UNL     1      82.462  67.127 104.780  1.00  0.00     0.000 C 
BRANCH   5   6
ATOM      6  C   UNL     1      83.603  66.175 105.187  1.00  0.00     0.000 C 
BRANCH   6   7
ATOM      7  C   UNL     1      83.154  64.785 105.675  1.00  0.00     0.000 C 
BRANCH   7   8
ATOM      8  C   UNL     1      83.823  63.632 104.908  1.00  0.00     0.000 C 
BRANCH   8   9
ATOM      9  C   UNL     1      83.555  63.704 103.389  1.00  0.00     0.000 C 
BRANCH   9  10
ATOM     10  C   UNL     1      83.160  62.356 102.763  1.00  0.00     0.000 C 
BRANCH  10  11
ATOM     11  C   UNL     1      83.735  62.160 101.351  1.00  0.00     0.000 C 
BRANCH  11  12
ATOM     12  C   UNL     1      85.022  62.975 101.118  1.00  0.00     0.006 C 
BRANCH  12  13
ATOM     13  C   UNL     1      85.773  62.600  99.831  1.00  0.00     0.053 C 
BRANCH  13  14
ATOM     14  C   UNL     1      85.660  63.661  98.780  1.00  0.00     0.041 C 
ATOM     15  O   UNL     1      85.599  63.343  97.563  1.00  0.00    -0.550 OA
ATOM     16  O   UNL     1      85.624  65.002  99.144  1.00  0.00    -0.550 OA
ENDBRANCH  13  14
ENDBRANCH  12  13
ENDBRANCH  11  12
ENDBRANCH  10  11
ENDBRANCH   9  10
ENDBRANCH   8   9
ENDBRANCH   7   8
ENDBRANCH   6   7
ENDBRANCH   5   6
ENDBRANCH   4   5
ENDBRANCH   3   4
ENDBRANCH   2   3
ENDBRANCH   1   2
BRANCH   1  17
ATOM     17  C   UNL     1      78.249  63.773 102.488  1.00  0.00     0.000 C 
BRANCH  17  18
ATOM     18  C   UNL     1      76.813  63.682 101.941  1.00  0.00     0.000 C 
BRANCH  18  19
ATOM     19  C   UNL     1      76.744  63.939 100.427  1.00  0.00     0.000 C 
BRANCH  19  20
ATOM     20  C   UNL     1      75.546  63.241  99.762  1.00  0.00     0.000 C 
BRANCH  20  21
ATOM     21  C   UNL     1      75.974  62.218  98.698  1.00  0.00     0.000 C 
BRANCH  21  22
ATOM     22  C   UNL     1      75.017  61.017  98.619  1.00  0.00    -0.000 C 
BRANCH  22  23
ATOM     23  C   UNL     1      75.380  60.100  97.445  1.00  0.00    -0.000 C 
BRANCH  23  24
ATOM     24  C   UNL     1      76.303  60.818  96.452  1.00  0.00    -0.000 C 
BRANCH  24  25
ATOM     25  C   UNL     1      75.541  61.469  95.284  1.00  0.00    -0.000 C 
BRANCH  25  26
ATOM     26  C   UNL     1      75.862  62.968  95.099  1.00  0.00    -0.000 C 
BRANCH  26  27
ATOM     27  C   UNL     1      74.752  63.871  95.660  1.00  0.00    -0.000 C 
BRANCH  27  28
ATOM     28  C   UNL     1      75.294  64.786  96.768  1.00  0.00    -0.000 C 
BRANCH  28  29
ATOM     29  C   UNL     1      74.297  64.968  97.923  1.00  0.00    -0.003 C 
ATOM     30  C   UNL     1      73.074  64.062  97.801  1.00  0.00     0.004 C 
ENDBRANCH  28  29
ENDBRANCH  27  28
ENDBRANCH  26  27
ENDBRANCH  25  26
ENDBRANCH  24  25
ENDBRANCH  23  24
ENDBRANCH  22  23
ENDBRANCH  21  22
ENDBRANCH  20  21
ENDBRANCH  19  20
ENDBRANCH  18  19
ENDBRANCH  17  18
ENDBRANCH   1  17
TORSDOF 26
ENDMDL
MODEL 7
REMARK VINA RESULT:    18.294      3.159      9.516
REMARK INTER + INTRA:          45.981
REMARK INTER:                  45.762
REMARK INTRA:                   0.220
REMARK UNBOUND:                -0.119
REMARK SMILES CCCCCCCCCCCCCCCCCCCCCCCCCCCC(=O)[O-]
REMARK SMILES IDX 15 1 16 2 17 3 18 4 19 5 20 6 21 7 22 8 23 9 24 10 25 11
REMARK SMILES IDX 26 12 27 13 28 14 29 15 30 16 14 17 13 18 12 19 11 20 10 21
REMARK SMILES IDX 9 22 8 23 7 24 6 25 5 26 4 27 3 28 2 29 1 30
REMARK H PARENT
REMARK Flexibility Score: inf
ROOT
ATOM      1  C   UNL     1      79.452  64.326 101.802  1.00  0.00     0.000 C 
ENDROOT
BRANCH   1   2
ATOM      2  C   UNL     1      78.240  64.236 102.747  1.00  0.00     0.000 C 
BRANCH   2   3
ATOM      3  C   UNL     1      76.909  64.129 101.981  1.00  0.00     0.000 C 
BRANCH   3   4
ATOM      4  C   UNL     1      77.094  63.642 100.534  1.00  0.00     0.000 C 
BRANCH   4   5
ATOM      5  C   UNL     1      75.756  63.455  99.797  1.00  0.00     0.000 C 
BRANCH   5   6
ATOM      6  C   UNL     1      75.848  62.446  98.635  1.00  0.00     0.000 C 
BRANCH   6   7
ATOM      7  C   UNL     1      74.748  61.369  98.615  1.00  0.00     0.000 C 
BRANCH   7   8
ATOM      8  C   UNL     1      75.137  60.125  97.798  1.00  0.00     0.000 C 
BRANCH   8   9
ATOM      9  C   UNL     1      76.534  60.261  97.153  1.00  0.00     0.000 C 
BRANCH   9  10
ATOM     10  C   UNL     1      76.508  60.305  95.617  1.00  0.00     0.000 C 
BRANCH  10  11
ATOM     11  C   UNL     1      75.781  61.542  95.064  1.00  0.00     0.000 C 
BRANCH  11  12
ATOM     12  C   UNL     1      76.049  62.807  95.900  1.00  0.00     0.006 C 
BRANCH  12  13
ATOM     13  C   UNL     1      75.311  64.057  95.393  1.00  0.00     0.053 C 
BRANCH  13  14
ATOM     14  C   UNL     1      74.411  64.644  96.435  1.00  0.00     0.041 C 
ATOM     15  O   UNL     1      74.373  65.891  96.610  1.00  0.00    -0.550 OA
ATOM     16  O   UNL     1      73.615  63.815  97.217  1.00  0.00    -0.550 OA
ENDBRANCH  13  14
ENDBRANCH  12  13
ENDBRANCH  11  12
ENDBRANCH  10  11
ENDBRANCH   9  10
ENDBRANCH   8   9
ENDBRANCH   7   8
ENDBRANCH   6   7
ENDBRANCH   5   6
ENDBRANCH   4   5
ENDBRANCH   3   4
ENDBRANCH   2   3
ENDBRANCH   1   2
BRANCH   1  17
ATOM     17  C   UNL     1      80.201  65.671 101.882  1.00  0.00     0.000 C 
BRANCH  17  18
ATOM     18  C   UNL     1      80.629  66.021 103.319  1.00  0.00     0.000 C 
BRANCH  18  19
ATOM     19  C   UNL     1      81.667  67.154 103.363  1.00  0.00     0.000 C 
BRANCH  19  20
ATOM     20  C   UNL     1      82.221  67.393 104.778  1.00  0.00     0.000 C 
BRANCH  20  21
ATOM     21  C   UNL     1      83.541  66.648 105.029  1.00  0.00     0.000 C 
BRANCH  21  22
ATOM     22  C   UNL     1      83.322  65.172 105.401  1.00  0.00    -0.000 C 
BRANCH  22  23
ATOM     23  C   UNL     1      83.185  64.302 104.146  1.00  0.00    -0.000 C 
BRANCH  23  24
ATOM     24  C   UNL     1      83.758  62.899 104.385  1.00  0.00    -0.000 C 
BRANCH  24  25
ATOM     25  C   UNL     1      84.085  62.152 103.080  1.00  0.00    -0.000 C 
BRANCH  25  26
ATOM     26  C   UNL     1      84.174  63.076 101.847  1.00  0.00    -0.000 C 
BRANCH  26  27
ATOM     27  C   UNL     1      85.535  62.967 101.140  1.00  0.00    -0.000 C 
BRANCH  27  28
ATOM     28  C   UNL     1      85.363  62.509  99.684  1.00  0.00    -0.000 C 
BRANCH  28  29
ATOM     29  C   UNL     1      86.291  63.260  98.716  1.00  0.00    -0.003 C 
ATOM     30  C   UNL     1      85.654  63.500  97.348  1.00  0.00     0.004 C 
ENDBRANCH  28  29
ENDBRANCH  27  28
ENDBRANCH  26  27
ENDBRANCH  25  26
ENDBRANCH  24  25
ENDBRANCH  23  24
ENDBRANCH  22  23
ENDBRANCH  21  22
ENDBRANCH  20  21
ENDBRANCH  19  20
ENDBRANCH  18  19
ENDBRANCH  17  18
ENDBRANCH   1  17
TORSDOF 26
ENDMDL
MODEL 8
REMARK VINA RESULT:    18.305      3.786      5.571
REMARK INTER + INTRA:          46.009
REMARK INTER:                  47.546
REMARK INTRA:                  -1.537
REMARK UNBOUND:                -0.119
REMARK SMILES CCCCCCCCCCCCCCCCCCCCCCCCCCCC(=O)[O-]
REMARK SMILES IDX 15 1 16 2 17 3 18 4 19 5 20 6 21 7 22 8 23 9 24 10 25 11
REMARK SMILES IDX 26 12 27 13 28 14 29 15 30 16 14 17 13 18 12 19 11 20 10 21
REMARK SMILES IDX 9 22 8 23 7 24 6 25 5 26 4 27 3 28 2 29 1 30
REMARK H PARENT
REMARK Flexibility Score: inf
ROOT
ATOM      1  C   UNL     1      80.245  64.857 101.645  1.00  0.00     0.000 C 
ENDROOT
BRANCH   1   2
ATOM      2  C   UNL     1      80.690  63.411 101.935  1.00  0.00     0.000 C 
BRANCH   2   3
ATOM      3  C   UNL     1      82.146  63.152 101.507  1.00  0.00     0.000 C 
BRANCH   3   4
ATOM      4  C   UNL     1      82.679  61.798 102.004  1.00  0.00     0.000 C 
BRANCH   4   5
ATOM      5  C   UNL     1      83.963  61.939 102.842  1.00  0.00     0.000 C 
BRANCH   5   6
ATOM      6  C   UNL     1      83.966  63.204 103.722  1.00  0.00     0.000 C 
BRANCH   6   7
ATOM      7  C   UNL     1      84.334  62.973 105.200  1.00  0.00     0.000 C 
BRANCH   7   8
ATOM      8  C   UNL     1      83.566  63.894 106.163  1.00  0.00     0.000 C 
BRANCH   8   9
ATOM      9  C   UNL     1      83.646  65.378 105.745  1.00  0.00     0.000 C 
BRANCH   9  10
ATOM     10  C   UNL     1      84.410  66.265 106.743  1.00  0.00     0.000 C 
BRANCH  10  11
ATOM     11  C   UNL     1      85.210  65.453 107.775  1.00  0.00     0.000 C 
BRANCH  11  12
ATOM     12  C   UNL     1      86.612  66.038 108.028  1.00  0.00     0.006 C 
BRANCH  12  13
ATOM     13  C   UNL     1      87.021  66.060 109.510  1.00  0.00     0.053 C 
BRANCH  13  14
ATOM     14  C   UNL     1      86.237  65.080 110.327  1.00  0.00     0.041 C 
ATOM     15  O   UNL     1      85.096  65.388 110.762  1.00  0.00    -0.550 OA
ATOM     16  O   UNL     1      86.767  63.826 110.609  1.00  0.00    -0.550 OA
ENDBRANCH  13  14
ENDBRANCH  12  13
ENDBRANCH  11  12
ENDBRANCH  10  11
ENDBRANCH   9  10
ENDBRANCH   8   9
ENDBRANCH   7   8
ENDBRANCH   6   7
ENDBRANCH   5   6
ENDBRANCH   4   5
ENDBRANCH   3   4
ENDBRANCH   2   3
ENDBRANCH   1   2
BRANCH   1  17
ATOM     17  C   UNL     1      79.071  65.331 102.524  1.00  0.00     0.000 C 
BRANCH  17  18
ATOM     18  C   UNL     1      78.105  64.187 102.883  1.00  0.00     0.000 C 
BRANCH  18  19
ATOM     19  C   UNL     1      76.769  64.287 102.130  1.00  0.00     0.000 C 
BRANCH  19  20
ATOM     20  C   UNL     1      76.670  63.288 100.965  1.00  0.00     0.000 C 
BRANCH  20  21
ATOM     21  C   UNL     1      76.020  63.901  99.714  1.00  0.00     0.000 C 
BRANCH  21  22
ATOM     22  C   UNL     1      74.611  63.346  99.452  1.00  0.00    -0.000 C 
BRANCH  22  23
ATOM     23  C   UNL     1      73.835  64.247  98.484  1.00  0.00    -0.000 C 
BRANCH  23  24
ATOM     24  C   UNL     1      74.792  65.087  97.629  1.00  0.00    -0.000 C 
BRANCH  24  25
ATOM     25  C   UNL     1      75.433  64.288  96.480  1.00  0.00    -0.000 C 
BRANCH  25  26
ATOM     26  C   UNL     1      74.607  63.056  96.052  1.00  0.00    -0.000 C 
BRANCH  26  27
ATOM     27  C   UNL     1      75.499  61.843  95.739  1.00  0.00    -0.000 C 
BRANCH  27  28
ATOM     28  C   UNL     1      75.318  60.741  96.794  1.00  0.00    -0.000 C 
BRANCH  28  29
ATOM     29  C   UNL     1      76.640  60.042  97.149  1.00  0.00    -0.003 C 
ATOM     30  C   UNL     1      77.625  60.005  95.982  1.00  0.00     0.004 C 
ENDBRANCH  28  29
ENDBRANCH  27  28
ENDBRANCH  26  27
ENDBRANCH  25  26
ENDBRANCH  24  25
ENDBRANCH  23  24
ENDBRANCH  22  23
ENDBRANCH  21  22
ENDBRANCH  20  21
ENDBRANCH  19  20
ENDBRANCH  18  19
ENDBRANCH  17  18
ENDBRANCH   1  17
TORSDOF 26
ENDMDL
MODEL 9
REMARK VINA RESULT:    18.519      3.700     11.253
REMARK INTER + INTRA:          46.549
REMARK INTER:                  47.474
REMARK INTRA:                  -0.925
REMARK UNBOUND:                -0.119
REMARK SMILES CCCCCCCCCCCCCCCCCCCCCCCCCCCC(=O)[O-]
REMARK SMILES IDX 15 1 16 2 17 3 18 4 19 5 20 6 21 7 22 8 23 9 24 10 25 11
REMARK SMILES IDX 26 12 27 13 28 14 29 15 30 16 14 17 13 18 12 19 11 20 10 21
REMARK SMILES IDX 9 22 8 23 7 24 6 25 5 26 4 27 3 28 2 29 1 30
REMARK H PARENT
REMARK Flexibility Score: inf
ROOT
ATOM      1  C   UNL     1      82.552  66.977 104.788  1.00  0.00     0.000 C 
ENDROOT
BRANCH   1   2
ATOM      2  C   UNL     1      82.433  65.769 103.841  1.00  0.00     0.000 C 
BRANCH   2   3
ATOM      3  C   UNL     1      80.987  65.544 103.360  1.00  0.00     0.000 C 
BRANCH   3   4
ATOM      4  C   UNL     1      80.898  64.552 102.189  1.00  0.00     0.000 C 
BRANCH   4   5
ATOM      5  C   UNL     1      79.517  64.562 101.508  1.00  0.00     0.000 C 
BRANCH   5   6
ATOM      6  C   UNL     1      78.354  64.624 102.517  1.00  0.00     0.000 C 
BRANCH   6   7
ATOM      7  C   UNL     1      77.121  63.779 102.147  1.00  0.00     0.000 C 
BRANCH   7   8
ATOM      8  C   UNL     1      76.844  63.746 100.635  1.00  0.00     0.000 C 
BRANCH   8   9
ATOM      9  C   UNL     1      75.334  63.789 100.314  1.00  0.00     0.000 C 
BRANCH   9  10
ATOM     10  C   UNL     1      74.971  63.178  98.951  1.00  0.00     0.000 C 
BRANCH  10  11
ATOM     11  C   UNL     1      75.488  64.008  97.764  1.00  0.00     0.000 C 
BRANCH  11  12
ATOM     12  C   UNL     1      75.849  63.138  96.546  1.00  0.00     0.006 C 
BRANCH  12  13
ATOM     13  C   UNL     1      75.040  61.834  96.451  1.00  0.00     0.053 C 
BRANCH  13  14
ATOM     14  C   UNL     1      75.856  60.634  96.823  1.00  0.00     0.041 C 
ATOM     15  O   UNL     1      75.586  59.984  97.867  1.00  0.00    -0.550 OA
ATOM     16  O   UNL     1      76.917  60.235  96.018  1.00  0.00    -0.550 OA
ENDBRANCH  13  14
ENDBRANCH  12  13
ENDBRANCH  11  12
ENDBRANCH  10  11
ENDBRANCH   9  10
ENDBRANCH   8   9
ENDBRANCH   7   8
ENDBRANCH   6   7
ENDBRANCH   5   6
ENDBRANCH   4   5
ENDBRANCH   3   4
ENDBRANCH   2   3
ENDBRANCH   1   2
BRANCH   1  17
ATOM     17  C   UNL     1      83.967  67.174 105.365  1.00  0.00     0.000 C 
BRANCH  17  18
ATOM     18  C   UNL     1      84.231  66.283 106.593  1.00  0.00     0.000 C 
BRANCH  18  19
ATOM     19  C   UNL     1      85.641  66.482 107.171  1.00  0.00     0.000 C 
BRANCH  19  20
ATOM     20  C   UNL     1      85.817  65.811 108.544  1.00  0.00     0.000 C 
BRANCH  20  21
ATOM     21  C   UNL     1      86.880  66.506 109.409  1.00  0.00     0.000 C 
BRANCH  21  22
ATOM     22  C   UNL     1      86.877  66.002 110.861  1.00  0.00    -0.000 C 
BRANCH  22  23
ATOM     23  C   UNL     1      87.946  64.923 111.072  1.00  0.00    -0.000 C 
BRANCH  23  24
ATOM     24  C   UNL     1      87.362  63.521 110.856  1.00  0.00    -0.000 C 
BRANCH  24  25
ATOM     25  C   UNL     1      87.993  62.784 109.661  1.00  0.00    -0.000 C 
BRANCH  25  26
ATOM     26  C   UNL     1      87.697  63.451 108.301  1.00  0.00    -0.000 C 
BRANCH  26  27
ATOM     27  C   UNL     1      87.012  62.484 107.320  1.00  0.00    -0.000 C 
BRANCH  27  28
ATOM     28  C   UNL     1      85.729  63.101 106.745  1.00  0.00    -0.000 C 
BRANCH  28  29
ATOM     29  C   UNL     1      85.141  62.273 105.592  1.00  0.00    -0.003 C 
ATOM     30  C   UNL     1      84.261  63.099 104.656  1.00  0.00     0.004 C 
ENDBRANCH  28  29
ENDBRANCH  27  28
ENDBRANCH  26  27
ENDBRANCH  25  26
ENDBRANCH  24  25
ENDBRANCH  23  24
ENDBRANCH  22  23
ENDBRANCH  21  22
ENDBRANCH  20  21
ENDBRANCH  19  20
ENDBRANCH  18  19
ENDBRANCH  17  18
ENDBRANCH   1  17
TORSDOF 26
ENDMDL
