MODEL 1
REMARK VINA RESULT:    -3.280      0.000      0.000
REMARK INTER + INTRA:          -6.673
REMARK INTER:                  -5.581
REMARK INTRA:                  -1.092
REMARK UNBOUND:                -1.092
REMARK SMILES CCCCCCCCCCCCCC(=O)[O-]
REMARK SMILES IDX 8 1 9 2 10 3 11 4 12 5 13 6 14 7 15 8 16 9 7 10 6 11 5 12
REMARK SMILES IDX 4 13 3 14 2 15 1 16
REMARK H PARENT
REMARK Flexibility Score: inf
ROOT
ATOM      1  C   UNL     1      -2.470  11.111  -4.471  1.00  0.00     0.000 C 
ENDROOT
BRANCH   1   2
ATOM      2  C   UNL     1      -3.300   9.834  -4.268  1.00  0.00     0.000 C 
BRANCH   2   3
ATOM      3  C   UNL     1      -3.269   8.907  -5.494  1.00  0.00     0.000 C 
BRANCH   3   4
ATOM      4  C   UNL     1      -4.522   8.018  -5.596  1.00  0.00     0.000 C 
BRANCH   4   5
ATOM      5  C   UNL     1      -5.750   8.651  -4.923  1.00  0.00     0.006 C 
BRANCH   5   6
ATOM      6  C   UNL     1      -6.775   7.605  -4.464  1.00  0.00     0.053 C 
BRANCH   6   7
ATOM      7  C   UNL     1      -7.945   7.578  -5.396  1.00  0.00     0.041 C 
ATOM      8  O   UNL     1      -9.070   7.993  -5.013  1.00  0.00    -0.550 OA
ATOM      9  O   UNL     1      -7.782   7.140  -6.704  1.00  0.00    -0.550 OA
ENDBRANCH   6   7
ENDBRANCH   5   6
ENDBRANCH   4   5
ENDBRANCH   3   4
ENDBRANCH   2   3
ENDBRANCH   1   2
BRANCH   1  10
ATOM     10  C   UNL     1      -3.262  12.353  -4.037  1.00  0.00     0.000 C 
BRANCH  10  11
ATOM     11  C   UNL     1      -4.746  12.048  -3.770  1.00  0.00    -0.000 C 
BRANCH  11  12
ATOM     12  C   UNL     1      -5.590  13.320  -3.595  1.00  0.00    -0.000 C 
BRANCH  12  13
ATOM     13  C   UNL     1      -5.176  14.083  -2.328  1.00  0.00    -0.000 C 
BRANCH  13  14
ATOM     14  C   UNL     1      -5.937  13.621  -1.073  1.00  0.00    -0.000 C 
BRANCH  14  15
ATOM     15  C   UNL     1      -5.044  13.195   0.106  1.00  0.00    -0.003 C 
ATOM     16  C   UNL     1      -3.748  12.519  -0.338  1.00  0.00     0.004 C 
ENDBRANCH  14  15
ENDBRANCH  13  14
ENDBRANCH  12  13
ENDBRANCH  11  12
ENDBRANCH  10  11
ENDBRANCH   1  10
TORSDOF 12
ENDMDL
MODEL 2
REMARK VINA RESULT:    -3.277      3.984      6.837
REMARK INTER + INTRA:          -6.668
REMARK INTER:                  -5.270
REMARK INTRA:                  -1.398
REMARK UNBOUND:                -1.092
REMARK SMILES CCCCCCCCCCCCCC(=O)[O-]
REMARK SMILES IDX 8 1 9 2 10 3 11 4 12 5 13 6 14 7 15 8 16 9 7 10 6 11 5 12
REMARK SMILES IDX 4 13 3 14 2 15 1 16
REMARK H PARENT
REMARK Flexibility Score: inf
ROOT
ATOM      1  C   UNL     1      -2.308  10.957  -4.578  1.00  0.00     0.000 C 
ENDROOT
BRANCH   1   2
ATOM      2  C   UNL     1      -3.482  10.841  -3.592  1.00  0.00     0.000 C 
BRANCH   2   3
ATOM      3  C   UNL     1      -4.597  11.860  -3.878  1.00  0.00     0.000 C 
BRANCH   3   4
ATOM      4  C   UNL     1      -4.833  12.824  -2.702  1.00  0.00     0.000 C 
BRANCH   4   5
ATOM      5  C   UNL     1      -3.986  12.470  -1.470  1.00  0.00     0.006 C 
BRANCH   5   6
ATOM      6  C   UNL     1      -4.637  12.925  -0.156  1.00  0.00     0.053 C 
BRANCH   6   7
ATOM      7  C   UNL     1      -3.856  14.046   0.452  1.00  0.00     0.041 C 
ATOM      8  O   UNL     1      -4.447  15.074   0.875  1.00  0.00    -0.550 OA
ATOM      9  O   UNL     1      -2.478  13.936   0.596  1.00  0.00    -0.550 OA
ENDBRANCH   6   7
ENDBRANCH   5   6
ENDBRANCH   4   5
ENDBRANCH   3   4
ENDBRANCH   2   3
ENDBRANCH   1   2
BRANCH   1  10
ATOM     10  C   UNL     1      -2.774  11.546  -5.917  1.00  0.00     0.000 C 
BRANCH  10  11
ATOM     11  C   UNL     1      -2.494  10.612  -7.106  1.00  0.00    -0.000 C 
BRANCH  11  12
ATOM     12  C   UNL     1      -1.787   9.314  -6.687  1.00  0.00    -0.000 C 
BRANCH  12  13
ATOM     13  C   UNL     1      -2.677   8.092  -6.960  1.00  0.00    -0.000 C 
BRANCH  13  14
ATOM     14  C   UNL     1      -3.663   7.801  -5.814  1.00  0.00    -0.000 C 
BRANCH  14  15
ATOM     15  C   UNL     1      -5.130   8.155  -6.116  1.00  0.00    -0.003 C 
ATOM     16  C   UNL     1      -5.956   8.413  -4.856  1.00  0.00     0.004 C 
ENDBRANCH  14  15
ENDBRANCH  13  14
ENDBRANCH  12  13
ENDBRANCH  11  12
ENDBRANCH  10  11
ENDBRANCH   1  10
TORSDOF 12
ENDMDL
MODEL 3
REMARK VINA RESULT:    -3.231      3.859      5.471
REMARK INTER + INTRA:          -6.590
REMARK INTER:                  -5.186
REMARK INTRA:                  -1.403
REMARK UNBOUND:                -1.092
REMARK SMILES CCCCCCCCCCCCCC(=O)[O-]
REMARK SMILES IDX 8 1 9 2 10 3 11 4 12 5 13 6 14 7 15 8 16 9 7 10 6 11 5 12
REMARK SMILES IDX 4 13 3 14 2 15 1 16
REMARK H PARENT
REMARK Flexibility Score: inf
ROOT
ATOM      1  C   UNL     1      -3.550   7.949  -5.460  1.00  0.00     0.000 C 
ENDROOT
BRANCH   1   2
ATOM      2  C   UNL     1      -3.262   7.847  -6.966  1.00  0.00     0.000 C 
BRANCH   2   3
ATOM      3  C   UNL     1      -2.024   8.654  -7.387  1.00  0.00     0.000 C 
BRANCH   3   4
ATOM      4  C   UNL     1      -2.364  10.109  -7.760  1.00  0.00     0.000 C 
BRANCH   4   5
ATOM      5  C   UNL     1      -1.526  11.130  -6.975  1.00  0.00     0.006 C 
BRANCH   5   6
ATOM      6  C   UNL     1      -0.126  10.603  -6.631  1.00  0.00     0.053 C 
BRANCH   6   7
ATOM      7  C   UNL     1       0.362  11.211  -5.354  1.00  0.00     0.041 C 
ATOM      8  O   UNL     1      -0.396  11.953  -4.676  1.00  0.00    -0.550 OA
ATOM      9  O   UNL     1       1.637  10.919  -4.888  1.00  0.00    -0.550 OA
ENDBRANCH   6   7
ENDBRANCH   5   6
ENDBRANCH   4   5
ENDBRANCH   3   4
ENDBRANCH   2   3
ENDBRANCH   1   2
BRANCH   1  10
ATOM     10  C   UNL     1      -4.917   8.601  -5.206  1.00  0.00     0.000 C 
BRANCH  10  11
ATOM     11  C   UNL     1      -4.802  10.066  -4.755  1.00  0.00    -0.000 C 
BRANCH  11  12
ATOM     12  C   UNL     1      -3.498  10.350  -3.993  1.00  0.00    -0.000 C 
BRANCH  12  13
ATOM     13  C   UNL     1      -3.661  11.560  -3.059  1.00  0.00    -0.000 C 
BRANCH  13  14
ATOM     14  C   UNL     1      -4.313  12.769  -3.753  1.00  0.00    -0.000 C 
BRANCH  14  15
ATOM     15  C   UNL     1      -5.541  13.348  -3.026  1.00  0.00    -0.003 C 
ATOM     16  C   UNL     1      -5.373  13.390  -1.507  1.00  0.00     0.004 C 
ENDBRANCH  14  15
ENDBRANCH  13  14
ENDBRANCH  12  13
ENDBRANCH  11  12
ENDBRANCH  10  11
ENDBRANCH   1  10
TORSDOF 12
ENDMDL
MODEL 4
REMARK VINA RESULT:    -3.186      3.302      6.514
REMARK INTER + INTRA:          -6.513
REMARK INTER:                  -5.116
REMARK INTRA:                  -1.397
REMARK UNBOUND:                -1.092
REMARK SMILES CCCCCCCCCCCCCC(=O)[O-]
REMARK SMILES IDX 8 1 9 2 10 3 11 4 12 5 13 6 14 7 15 8 16 9 7 10 6 11 5 12
REMARK SMILES IDX 4 13 3 14 2 15 1 16
REMARK H PARENT
REMARK Flexibility Score: inf
ROOT
ATOM      1  C   UNL     1      -5.043   9.111  -4.655  1.00  0.00     0.000 C 
ENDROOT
BRANCH   1   2
ATOM      2  C   UNL     1      -3.829   9.895  -4.135  1.00  0.00     0.000 C 
BRANCH   2   3
ATOM      3  C   UNL     1      -4.090  11.408  -4.060  1.00  0.00     0.000 C 
BRANCH   3   4
ATOM      4  C   UNL     1      -2.965  12.168  -3.334  1.00  0.00     0.000 C 
BRANCH   4   5
ATOM      5  C   UNL     1      -3.501  13.163  -2.294  1.00  0.00     0.006 C 
BRANCH   5   6
ATOM      6  C   UNL     1      -3.904  12.481  -0.979  1.00  0.00     0.053 C 
BRANCH   6   7
ATOM      7  C   UNL     1      -5.102  13.155  -0.388  1.00  0.00     0.041 C 
ATOM      8  O   UNL     1      -5.148  13.398   0.846  1.00  0.00    -0.550 OA
ATOM      9  O   UNL     1      -6.148  13.558  -1.209  1.00  0.00    -0.550 OA
ENDBRANCH   6   7
ENDBRANCH   5   6
ENDBRANCH   4   5
ENDBRANCH   3   4
ENDBRANCH   2   3
ENDBRANCH   1   2
BRANCH   1  10
ATOM     10  C   UNL     1      -4.730   8.450  -6.005  1.00  0.00     0.000 C 
BRANCH  10  11
ATOM     11  C   UNL     1      -3.427   7.635  -5.980  1.00  0.00    -0.000 C 
BRANCH  11  12
ATOM     12  C   UNL     1      -2.535   7.904  -7.201  1.00  0.00    -0.000 C 
BRANCH  12  13
ATOM     13  C   UNL     1      -2.865   9.266  -7.831  1.00  0.00    -0.000 C 
BRANCH  13  14
ATOM     14  C   UNL     1      -1.929  10.391  -7.353  1.00  0.00    -0.000 C 
BRANCH  14  15
ATOM     15  C   UNL     1      -0.653   9.911  -6.638  1.00  0.00    -0.003 C 
ATOM     16  C   UNL     1      -0.271  10.785  -5.444  1.00  0.00     0.004 C 
ENDBRANCH  14  15
ENDBRANCH  13  14
ENDBRANCH  12  13
ENDBRANCH  11  12
ENDBRANCH  10  11
ENDBRANCH   1  10
TORSDOF 12
ENDMDL
MODEL 5
REMARK VINA RESULT:    -3.180      4.338      7.131
REMARK INTER + INTRA:          -6.502
REMARK INTER:                  -5.173
REMARK INTRA:                  -1.329
REMARK UNBOUND:                -1.092
REMARK SMILES CCCCCCCCCCCCCC(=O)[O-]
REMARK SMILES IDX 8 1 9 2 10 3 11 4 12 5 13 6 14 7 15 8 16 9 7 10 6 11 5 12
REMARK SMILES IDX 4 13 3 14 2 15 1 16
REMARK H PARENT
REMARK Flexibility Score: inf
ROOT
ATOM      1  C   UNL     1      -5.057  12.816  -4.309  1.00  0.00     0.000 C 
ENDROOT
BRANCH   1   2
ATOM      2  C   UNL     1      -5.293  13.985  -3.341  1.00  0.00     0.000 C 
BRANCH   2   3
ATOM      3  C   UNL     1      -6.086  13.568  -2.091  1.00  0.00     0.000 C 
BRANCH   3   4
ATOM      4  C   UNL     1      -5.367  13.944  -0.783  1.00  0.00     0.000 C 
BRANCH   4   5
ATOM      5  C   UNL     1      -4.524  12.789  -0.220  1.00  0.00     0.006 C 
BRANCH   5   6
ATOM      6  C   UNL     1      -3.032  12.934  -0.552  1.00  0.00     0.053 C 
BRANCH   6   7
ATOM      7  C   UNL     1      -2.445  14.096   0.184  1.00  0.00     0.041 C 
ATOM      8  O   UNL     1      -2.710  14.275   1.402  1.00  0.00    -0.550 OA
ATOM      9  O   UNL     1      -1.566  14.956  -0.463  1.00  0.00    -0.550 OA
ENDBRANCH   6   7
ENDBRANCH   5   6
ENDBRANCH   4   5
ENDBRANCH   3   4
ENDBRANCH   2   3
ENDBRANCH   1   2
BRANCH   1  10
ATOM     10  C   UNL     1      -3.625  12.278  -4.180  1.00  0.00     0.000 C 
BRANCH  10  11
ATOM     11  C   UNL     1      -3.582  10.792  -3.785  1.00  0.00    -0.000 C 
BRANCH  11  12
ATOM     12  C   UNL     1      -4.614   9.947  -4.547  1.00  0.00    -0.000 C 
BRANCH  12  13
ATOM     13  C   UNL     1      -4.051   9.481  -5.899  1.00  0.00    -0.000 C 
BRANCH  13  14
ATOM     14  C   UNL     1      -2.578   9.042  -5.816  1.00  0.00    -0.000 C 
BRANCH  14  15
ATOM     15  C   UNL     1      -1.596   9.917  -6.615  1.00  0.00    -0.003 C 
ATOM     16  C   UNL     1      -0.400  10.385  -5.785  1.00  0.00     0.004 C 
ENDBRANCH  14  15
ENDBRANCH  13  14
ENDBRANCH  12  13
ENDBRANCH  11  12
ENDBRANCH  10  11
ENDBRANCH   1  10
TORSDOF 12
ENDMDL
MODEL 6
REMARK VINA RESULT:    -3.169      3.250      4.467
REMARK INTER + INTRA:          -6.484
REMARK INTER:                  -5.308
REMARK INTRA:                  -1.176
REMARK UNBOUND:                -1.092
REMARK SMILES CCCCCCCCCCCCCC(=O)[O-]
REMARK SMILES IDX 8 1 9 2 10 3 11 4 12 5 13 6 14 7 15 8 16 9 7 10 6 11 5 12
REMARK SMILES IDX 4 13 3 14 2 15 1 16
REMARK H PARENT
REMARK Flexibility Score: inf
ROOT
ATOM      1  C   UNL     1      -4.918   9.598  -4.828  1.00  0.00     0.000 C 
ENDROOT
BRANCH   1   2
ATOM      2  C   UNL     1      -4.822   8.291  -5.629  1.00  0.00     0.000 C 
BRANCH   2   3
ATOM      3  C   UNL     1      -3.392   7.729  -5.676  1.00  0.00     0.000 C 
BRANCH   3   4
ATOM      4  C   UNL     1      -2.829   7.662  -7.107  1.00  0.00     0.000 C 
BRANCH   4   5
ATOM      5  C   UNL     1      -1.691   8.668  -7.341  1.00  0.00     0.006 C 
BRANCH   5   6
ATOM      6  C   UNL     1      -2.203  10.103  -7.530  1.00  0.00     0.053 C 
BRANCH   6   7
ATOM      7  C   UNL     1      -1.262  11.080  -6.899  1.00  0.00     0.041 C 
ATOM      8  O   UNL     1      -0.100  10.721  -6.575  1.00  0.00    -0.550 OA
ATOM      9  O   UNL     1      -1.653  12.400  -6.713  1.00  0.00    -0.550 OA
ENDBRANCH   6   7
ENDBRANCH   5   6
ENDBRANCH   4   5
ENDBRANCH   3   4
ENDBRANCH   2   3
ENDBRANCH   1   2
BRANCH   1  10
ATOM     10  C   UNL     1      -3.601   9.888  -4.092  1.00  0.00     0.000 C 
BRANCH  10  11
ATOM     11  C   UNL     1      -3.429  11.376  -3.745  1.00  0.00    -0.000 C 
BRANCH  11  12
ATOM     12  C   UNL     1      -4.767  12.130  -3.690  1.00  0.00    -0.000 C 
BRANCH  12  13
ATOM     13  C   UNL     1      -4.743  13.209  -2.597  1.00  0.00    -0.000 C 
BRANCH  13  14
ATOM     14  C   UNL     1      -4.279  12.671  -1.232  1.00  0.00    -0.000 C 
BRANCH  14  15
ATOM     15  C   UNL     1      -5.014  13.266  -0.017  1.00  0.00    -0.003 C 
ATOM     16  C   UNL     1      -6.343  13.923  -0.385  1.00  0.00     0.004 C 
ENDBRANCH  14  15
ENDBRANCH  13  14
ENDBRANCH  12  13
ENDBRANCH  11  12
ENDBRANCH  10  11
ENDBRANCH   1  10
TORSDOF 12
ENDMDL
MODEL 7
REMARK VINA RESULT:    -3.163      3.613      6.723
REMARK INTER + INTRA:          -6.475
REMARK INTER:                  -5.807
REMARK INTRA:                  -0.668
REMARK UNBOUND:                -1.092
REMARK SMILES CCCCCCCCCCCCCC(=O)[O-]
REMARK SMILES IDX 8 1 9 2 10 3 11 4 12 5 13 6 14 7 15 8 16 9 7 10 6 11 5 12
REMARK SMILES IDX 4 13 3 14 2 15 1 16
REMARK H PARENT
REMARK Flexibility Score: inf
ROOT
ATOM      1  C   UNL     1      -4.229  10.313  -3.982  1.00  0.00     0.000 C 
ENDROOT
BRANCH   1   2
ATOM      2  C   UNL     1      -3.637  11.681  -3.608  1.00  0.00     0.000 C 
BRANCH   2   3
ATOM      3  C   UNL     1      -4.421  12.852  -4.221  1.00  0.00     0.000 C 
BRANCH   3   4
ATOM      4  C   UNL     1      -5.248  13.622  -3.175  1.00  0.00     0.000 C 
BRANCH   4   5
ATOM      5  C   UNL     1      -5.012  13.112  -1.745  1.00  0.00     0.006 C 
BRANCH   5   6
ATOM      6  C   UNL     1      -5.986  13.728  -0.732  1.00  0.00     0.053 C 
BRANCH   6   7
ATOM      7  C   UNL     1      -5.402  13.688   0.645  1.00  0.00     0.041 C 
ATOM      8  O   UNL     1      -4.206  14.032   0.836  1.00  0.00    -0.550 OA
ATOM      9  O   UNL     1      -6.192  13.316   1.725  1.00  0.00    -0.550 OA
ENDBRANCH   6   7
ENDBRANCH   5   6
ENDBRANCH   4   5
ENDBRANCH   3   4
ENDBRANCH   2   3
ENDBRANCH   1   2
BRANCH   1  10
ATOM     10  C   UNL     1      -3.239   9.503  -4.833  1.00  0.00     0.000 C 
BRANCH  10  11
ATOM     11  C   UNL     1      -3.915   8.349  -5.593  1.00  0.00    -0.000 C 
BRANCH  11  12
ATOM     12  C   UNL     1      -5.147   8.806  -6.390  1.00  0.00    -0.000 C 
BRANCH  12  13
ATOM     13  C   UNL     1      -6.355   7.903  -6.099  1.00  0.00    -0.000 C 
BRANCH  13  14
ATOM     14  C   UNL     1      -6.690   7.814  -4.599  1.00  0.00    -0.000 C 
BRANCH  14  15
ATOM     15  C   UNL     1      -7.996   7.070  -4.271  1.00  0.00    -0.003 C 
ATOM     16  C   UNL     1      -7.791   5.890  -3.321  1.00  0.00     0.004 C 
ENDBRANCH  14  15
ENDBRANCH  13  14
ENDBRANCH  12  13
ENDBRANCH  11  12
ENDBRANCH  10  11
ENDBRANCH   1  10
TORSDOF 12
ENDMDL
MODEL 8
REMARK VINA RESULT:    -3.160      1.399      2.416
REMARK INTER + INTRA:          -6.469
REMARK INTER:                  -4.848
REMARK INTRA:                  -1.621
REMARK UNBOUND:                -1.092
REMARK SMILES CCCCCCCCCCCCCC(=O)[O-]
REMARK SMILES IDX 8 1 9 2 10 3 11 4 12 5 13 6 14 7 15 8 16 9 7 10 6 11 5 12
REMARK SMILES IDX 4 13 3 14 2 15 1 16
REMARK H PARENT
REMARK Flexibility Score: inf
ROOT
ATOM      1  C   UNL     1      -4.181  13.377  -4.249  1.00  0.00     0.000 C 
ENDROOT
BRANCH   1   2
ATOM      2  C   UNL     1      -4.700  11.939  -4.090  1.00  0.00     0.000 C 
BRANCH   2   3
ATOM      3  C   UNL     1      -3.574  10.931  -3.808  1.00  0.00     0.000 C 
BRANCH   3   4
ATOM      4  C   UNL     1      -3.131  10.171  -5.072  1.00  0.00     0.000 C 
BRANCH   4   5
ATOM      5  C   UNL     1      -3.627   8.718  -5.090  1.00  0.00     0.006 C 
BRANCH   5   6
ATOM      6  C   UNL     1      -4.797   8.506  -6.061  1.00  0.00     0.053 C 
BRANCH   6   7
ATOM      7  C   UNL     1      -6.102   8.652  -5.345  1.00  0.00     0.041 C 
ATOM      8  O   UNL     1      -6.418   7.843  -4.433  1.00  0.00    -0.550 OA
ATOM      9  O   UNL     1      -6.949   9.709  -5.651  1.00  0.00    -0.550 OA
ENDBRANCH   6   7
ENDBRANCH   5   6
ENDBRANCH   4   5
ENDBRANCH   3   4
ENDBRANCH   2   3
ENDBRANCH   1   2
BRANCH   1  10
ATOM     10  C   UNL     1      -5.041  14.362  -3.443  1.00  0.00     0.000 C 
BRANCH  10  11
ATOM     11  C   UNL     1      -6.217  13.676  -2.728  1.00  0.00    -0.000 C 
BRANCH  11  12
ATOM     12  C   UNL     1      -6.563  14.338  -1.386  1.00  0.00    -0.000 C 
BRANCH  12  13
ATOM     13  C   UNL     1      -5.354  14.325  -0.440  1.00  0.00    -0.000 C 
BRANCH  13  14
ATOM     14  C   UNL     1      -4.912  12.903  -0.050  1.00  0.00    -0.000 C 
BRANCH  14  15
ATOM     15  C   UNL     1      -3.469  12.542  -0.446  1.00  0.00    -0.003 C 
ATOM     16  C   UNL     1      -2.599  13.768  -0.719  1.00  0.00     0.004 C 
ENDBRANCH  14  15
ENDBRANCH  13  14
ENDBRANCH  12  13
ENDBRANCH  11  12
ENDBRANCH  10  11
ENDBRANCH   1  10
TORSDOF 12
ENDMDL
MODEL 9
REMARK VINA RESULT:    -3.133      3.738      6.094
REMARK INTER + INTRA:          -6.424
REMARK INTER:                  -4.474
REMARK INTRA:                  -1.950
REMARK UNBOUND:                -1.092
REMARK SMILES CCCCCCCCCCCCCC(=O)[O-]
REMARK SMILES IDX 8 1 9 2 10 3 11 4 12 5 13 6 14 7 15 8 16 9 7 10 6 11 5 12
REMARK SMILES IDX 4 13 3 14 2 15 1 16
REMARK H PARENT
REMARK Flexibility Score: inf
ROOT
ATOM      1  C   UNL     1      -2.465   9.312  -6.241  1.00  0.00     0.000 C 
ENDROOT
BRANCH   1   2
ATOM      2  C   UNL     1      -1.868  10.190  -5.131  1.00  0.00     0.000 C 
BRANCH   2   3
ATOM      3  C   UNL     1      -2.750  11.405  -4.799  1.00  0.00     0.000 C 
BRANCH   3   4
ATOM      4  C   UNL     1      -3.583  11.200  -3.521  1.00  0.00     0.000 C 
BRANCH   4   5
ATOM      5  C   UNL     1      -4.516  12.386  -3.229  1.00  0.00     0.006 C 
BRANCH   5   6
ATOM      6  C   UNL     1      -4.529  12.773  -1.744  1.00  0.00     0.053 C 
BRANCH   6   7
ATOM      7  C   UNL     1      -3.169  13.220  -1.310  1.00  0.00     0.041 C 
ATOM      8  O   UNL     1      -2.515  14.033  -2.013  1.00  0.00    -0.550 OA
ATOM      9  O   UNL     1      -2.644  12.775  -0.103  1.00  0.00    -0.550 OA
ENDBRANCH   6   7
ENDBRANCH   5   6
ENDBRANCH   4   5
ENDBRANCH   3   4
ENDBRANCH   2   3
ENDBRANCH   1   2
BRANCH   1  10
ATOM     10  C   UNL     1      -3.301   8.169  -5.646  1.00  0.00     0.000 C 
BRANCH  10  11
ATOM     11  C   UNL     1      -4.751   8.164  -6.159  1.00  0.00    -0.000 C 
BRANCH  11  12
ATOM     12  C   UNL     1      -5.758   8.617  -5.091  1.00  0.00    -0.000 C 
BRANCH  12  13
ATOM     13  C   UNL     1      -6.397   9.960  -5.475  1.00  0.00    -0.000 C 
BRANCH  13  14
ATOM     14  C   UNL     1      -5.884  10.506  -6.820  1.00  0.00    -0.000 C 
BRANCH  14  15
ATOM     15  C   UNL     1      -5.703  12.034  -6.872  1.00  0.00    -0.003 C 
ATOM     16  C   UNL     1      -4.590  12.473  -7.823  1.00  0.00     0.004 C 
ENDBRANCH  14  15
ENDBRANCH  13  14
ENDBRANCH  12  13
ENDBRANCH  11  12
ENDBRANCH  10  11
ENDBRANCH   1  10
TORSDOF 12
ENDMDL
