MODEL 1
REMARK VINA RESULT:    -3.222      0.000      0.000
REMARK INTER + INTRA:          -9.009
REMARK INTER:                  -6.048
REMARK INTRA:                  -2.961
REMARK UNBOUND:                -2.961
REMARK SMILES CCCCCCCCC=CCCCCCCCC(=O)[O-]
REMARK SMILES IDX 10 1 9 2 11 3 12 4 13 5 14 6 15 7 16 8 17 9 18 10 19 11
REMARK SMILES IDX 20 12 8 13 7 14 6 15 5 16 4 17 3 18 2 19 1 20
REMARK H PARENT
REMARK Flexibility Score: inf
ROOT
ATOM      1  C   UNL     1      59.737  26.329  49.394  1.00  0.00    -0.031 C 
ATOM      2  C   UNL     1      59.999  27.640  49.227  1.00  0.00    -0.031 C 
ENDROOT
BRANCH   1   3
ATOM      3  C   UNL     1      58.413  25.749  49.835  1.00  0.00     0.027 C 
BRANCH   3   4
ATOM      4  C   UNL     1      58.547  24.920  51.123  1.00  0.00     0.004 C 
BRANCH   4   5
ATOM      5  C   UNL     1      57.831  25.508  52.356  1.00  0.00     0.000 C 
BRANCH   5   6
ATOM      6  C   UNL     1      58.714  26.368  53.277  1.00  0.00     0.000 C 
BRANCH   6   7
ATOM      7  C   UNL     1      60.215  26.164  53.025  1.00  0.00     0.000 C 
BRANCH   7   8
ATOM      8  C   UNL     1      61.005  27.439  53.357  1.00  0.00     0.006 C 
BRANCH   8   9
ATOM      9  C   UNL     1      62.299  27.551  52.539  1.00  0.00     0.053 C 
BRANCH   9  10
ATOM     10  C   UNL     1      62.581  28.967  52.138  1.00  0.00     0.041 C 
ATOM     11  O   UNL     1      62.517  29.307  50.927  1.00  0.00    -0.550 OA
ATOM     12  O   UNL     1      62.881  29.918  53.106  1.00  0.00    -0.550 OA
ENDBRANCH   9  10
ENDBRANCH   8   9
ENDBRANCH   7   8
ENDBRANCH   6   7
ENDBRANCH   5   6
ENDBRANCH   4   5
ENDBRANCH   3   4
ENDBRANCH   1   3
BRANCH   2  13
ATOM     13  C   UNL     1      59.009  28.759  49.427  1.00  0.00     0.027 C 
BRANCH  13  14
ATOM     14  C   UNL     1      58.991  29.242  50.882  1.00  0.00     0.004 C 
BRANCH  14  15
ATOM     15  C   UNL     1      57.564  29.252  51.442  1.00  0.00     0.000 C 
BRANCH  15  16
ATOM     16  C   UNL     1      56.553  28.811  50.375  1.00  0.00     0.000 C 
BRANCH  16  17
ATOM     17  C   UNL     1      55.421  27.945  50.952  1.00  0.00    -0.000 C 
BRANCH  17  18
ATOM     18  C   UNL     1      54.976  26.833  49.989  1.00  0.00    -0.000 C 
BRANCH  18  19
ATOM     19  C   UNL     1      53.509  27.014  49.584  1.00  0.00    -0.003 C 
ATOM     20  C   UNL     1      52.995  25.802  48.813  1.00  0.00     0.004 C 
ENDBRANCH  18  19
ENDBRANCH  17  18
ENDBRANCH  16  17
ENDBRANCH  15  16
ENDBRANCH  14  15
ENDBRANCH  13  14
ENDBRANCH   2  13
TORSDOF 15
ENDMDL
MODEL 2
REMARK VINA RESULT:    -3.184     10.180     12.159
REMARK INTER + INTRA:          -8.937
REMARK INTER:                  -6.393
REMARK INTRA:                  -2.544
REMARK UNBOUND:                -2.961
REMARK SMILES CCCCCCCCC=CCCCCCCCC(=O)[O-]
REMARK SMILES IDX 10 1 9 2 11 3 12 4 13 5 14 6 15 7 16 8 17 9 18 10 19 11
REMARK SMILES IDX 20 12 8 13 7 14 6 15 5 16 4 17 3 18 2 19 1 20
REMARK H PARENT
REMARK Flexibility Score: inf
ROOT
ATOM      1  C   UNL     1      62.724  33.792  60.797  1.00  0.00    -0.031 C 
ATOM      2  C   UNL     1      61.489  33.286  60.617  1.00  0.00    -0.031 C 
ENDROOT
BRANCH   1   3
ATOM      3  C   UNL     1      63.957  33.392  60.019  1.00  0.00     0.027 C 
BRANCH   3   4
ATOM      4  C   UNL     1      64.546  32.061  60.516  1.00  0.00     0.004 C 
BRANCH   4   5
ATOM      5  C   UNL     1      64.565  30.925  59.472  1.00  0.00     0.000 C 
BRANCH   5   6
ATOM      6  C   UNL     1      65.672  29.875  59.669  1.00  0.00     0.000 C 
BRANCH   6   7
ATOM      7  C   UNL     1      65.803  29.411  61.127  1.00  0.00     0.000 C 
BRANCH   7   8
ATOM      8  C   UNL     1      66.853  28.299  61.257  1.00  0.00     0.006 C 
BRANCH   8   9
ATOM      9  C   UNL     1      68.120  28.776  61.982  1.00  0.00     0.053 C 
BRANCH   9  10
ATOM     10  C   UNL     1      69.190  29.186  61.017  1.00  0.00     0.041 C 
ATOM     11  O   UNL     1      70.266  29.686  61.439  1.00  0.00    -0.550 OA
ATOM     12  O   UNL     1      69.012  28.985  59.653  1.00  0.00    -0.550 OA
ENDBRANCH   9  10
ENDBRANCH   8   9
ENDBRANCH   7   8
ENDBRANCH   6   7
ENDBRANCH   5   6
ENDBRANCH   4   5
ENDBRANCH   3   4
ENDBRANCH   1   3
BRANCH   2  13
ATOM     13  C   UNL     1      61.113  32.247  59.590  1.00  0.00     0.027 C 
BRANCH  13  14
ATOM     14  C   UNL     1      60.754  30.909  60.248  1.00  0.00     0.004 C 
BRANCH  14  15
ATOM     15  C   UNL     1      61.087  30.924  61.744  1.00  0.00     0.000 C 
BRANCH  15  16
ATOM     16  C   UNL     1      62.175  29.893  62.075  1.00  0.00     0.000 C 
BRANCH  16  17
ATOM     17  C   UNL     1      62.106  28.648  61.176  1.00  0.00    -0.000 C 
BRANCH  17  18
ATOM     18  C   UNL     1      62.686  27.396  61.853  1.00  0.00    -0.000 C 
BRANCH  18  19
ATOM     19  C   UNL     1      63.415  26.513  60.835  1.00  0.00    -0.003 C 
ATOM     20  C   UNL     1      63.269  27.064  59.419  1.00  0.00     0.004 C 
ENDBRANCH  18  19
ENDBRANCH  17  18
ENDBRANCH  16  17
ENDBRANCH  15  16
ENDBRANCH  14  15
ENDBRANCH  13  14
ENDBRANCH   2  13
TORSDOF 15
ENDMDL
MODEL 3
REMARK VINA RESULT:    -3.179      9.824     11.848
REMARK INTER + INTRA:          -8.927
REMARK INTER:                  -6.146
REMARK INTRA:                  -2.781
REMARK UNBOUND:                -2.961
REMARK SMILES CCCCCCCCC=CCCCCCCCC(=O)[O-]
REMARK SMILES IDX 10 1 9 2 11 3 12 4 13 5 14 6 15 7 16 8 17 9 18 10 19 11
REMARK SMILES IDX 20 12 8 13 7 14 6 15 5 16 4 17 3 18 2 19 1 20
REMARK H PARENT
REMARK Flexibility Score: inf
ROOT
ATOM      1  C   UNL     1      61.769  31.538  58.496  1.00  0.00    -0.031 C 
ATOM      2  C   UNL     1      62.917  32.019  57.984  1.00  0.00    -0.031 C 
ENDROOT
BRANCH   1   3
ATOM      3  C   UNL     1      60.861  32.273  59.456  1.00  0.00     0.027 C 
BRANCH   3   4
ATOM      4  C   UNL     1      61.160  31.914  60.921  1.00  0.00     0.004 C 
BRANCH   4   5
ATOM      5  C   UNL     1      61.048  30.413  61.262  1.00  0.00     0.000 C 
BRANCH   5   6
ATOM      6  C   UNL     1      62.241  29.829  62.038  1.00  0.00     0.000 C 
BRANCH   6   7
ATOM      7  C   UNL     1      63.585  30.445  61.623  1.00  0.00     0.000 C 
BRANCH   7   8
ATOM      8  C   UNL     1      64.586  29.356  61.212  1.00  0.00     0.006 C 
BRANCH   8   9
ATOM      9  C   UNL     1      65.784  29.927  60.442  1.00  0.00     0.053 C 
BRANCH   9  10
ATOM     10  C   UNL     1      66.998  29.060  60.582  1.00  0.00     0.041 C 
ATOM     11  O   UNL     1      67.684  28.762  59.568  1.00  0.00    -0.550 OA
ATOM     12  O   UNL     1      67.390  28.607  61.836  1.00  0.00    -0.550 OA
ENDBRANCH   9  10
ENDBRANCH   8   9
ENDBRANCH   7   8
ENDBRANCH   6   7
ENDBRANCH   5   6
ENDBRANCH   4   5
ENDBRANCH   3   4
ENDBRANCH   1   3
BRANCH   2  13
ATOM     13  C   UNL     1      63.489  33.387  58.260  1.00  0.00     0.027 C 
BRANCH  13  14
ATOM     14  C   UNL     1      64.494  33.355  59.418  1.00  0.00     0.004 C 
BRANCH  14  15
ATOM     15  C   UNL     1      64.517  34.693  60.164  1.00  0.00     0.000 C 
BRANCH  15  16
ATOM     16  C   UNL     1      63.464  34.718  61.282  1.00  0.00     0.000 C 
BRANCH  16  17
ATOM     17  C   UNL     1      62.620  36.003  61.273  1.00  0.00    -0.000 C 
BRANCH  17  18
ATOM     18  C   UNL     1      61.238  35.799  60.636  1.00  0.00    -0.000 C 
BRANCH  18  19
ATOM     19  C   UNL     1      61.216  36.325  59.196  1.00  0.00    -0.003 C 
ATOM     20  C   UNL     1      60.184  35.582  58.352  1.00  0.00     0.004 C 
ENDBRANCH  18  19
ENDBRANCH  17  18
ENDBRANCH  16  17
ENDBRANCH  15  16
ENDBRANCH  14  15
ENDBRANCH  13  14
ENDBRANCH   2  13
TORSDOF 15
ENDMDL
MODEL 4
REMARK VINA RESULT:    -3.144      2.687      4.797
REMARK INTER + INTRA:          -8.862
REMARK INTER:                  -6.266
REMARK INTRA:                  -2.596
REMARK UNBOUND:                -2.961
REMARK SMILES CCCCCCCCC=CCCCCCCCC(=O)[O-]
REMARK SMILES IDX 10 1 9 2 11 3 12 4 13 5 14 6 15 7 16 8 17 9 18 10 19 11
REMARK SMILES IDX 20 12 8 13 7 14 6 15 5 16 4 17 3 18 2 19 1 20
REMARK H PARENT
REMARK Flexibility Score: inf
ROOT
ATOM      1  C   UNL     1      56.544  27.138  51.166  1.00  0.00    -0.031 C 
ATOM      2  C   UNL     1      55.902  26.022  50.770  1.00  0.00    -0.031 C 
ENDROOT
BRANCH   1   3
ATOM      3  C   UNL     1      56.628  28.427  50.381  1.00  0.00     0.027 C 
BRANCH   3   4
ATOM      4  C   UNL     1      57.995  29.112  50.544  1.00  0.00     0.004 C 
BRANCH   4   5
ATOM      5  C   UNL     1      58.880  29.114  49.279  1.00  0.00     0.000 C 
BRANCH   5   6
ATOM      6  C   UNL     1      59.635  27.801  49.008  1.00  0.00     0.000 C 
BRANCH   6   7
ATOM      7  C   UNL     1      60.419  27.300  50.229  1.00  0.00     0.000 C 
BRANCH   7   8
ATOM      8  C   UNL     1      59.935  25.908  50.660  1.00  0.00     0.006 C 
BRANCH   8   9
ATOM      9  C   UNL     1      59.830  25.773  52.185  1.00  0.00     0.053 C 
BRANCH   9  10
ATOM     10  C   UNL     1      59.595  24.354  52.603  1.00  0.00     0.041 C 
ATOM     11  O   UNL     1      60.401  23.782  53.384  1.00  0.00    -0.550 OA
ATOM     12  O   UNL     1      58.470  23.673  52.154  1.00  0.00    -0.550 OA
ENDBRANCH   9  10
ENDBRANCH   8   9
ENDBRANCH   7   8
ENDBRANCH   6   7
ENDBRANCH   5   6
ENDBRANCH   4   5
ENDBRANCH   3   4
ENDBRANCH   1   3
BRANCH   2  13
ATOM     13  C   UNL     1      55.132  25.870  49.482  1.00  0.00     0.027 C 
BRANCH  13  14
ATOM     14  C   UNL     1      53.619  25.954  49.716  1.00  0.00     0.004 C 
BRANCH  14  15
ATOM     15  C   UNL     1      53.080  27.337  49.337  1.00  0.00     0.000 C 
BRANCH  15  16
ATOM     16  C   UNL     1      52.875  28.209  50.584  1.00  0.00     0.000 C 
BRANCH  16  17
ATOM     17  C   UNL     1      53.178  29.694  50.326  1.00  0.00    -0.000 C 
BRANCH  17  18
ATOM     18  C   UNL     1      53.661  30.427  51.587  1.00  0.00    -0.000 C 
BRANCH  18  19
ATOM     19  C   UNL     1      53.953  29.434  52.719  1.00  0.00    -0.003 C 
ATOM     20  C   UNL     1      55.234  29.806  53.462  1.00  0.00     0.004 C 
ENDBRANCH  18  19
ENDBRANCH  17  18
ENDBRANCH  16  17
ENDBRANCH  15  16
ENDBRANCH  14  15
ENDBRANCH  13  14
ENDBRANCH   2  13
TORSDOF 15
ENDMDL
MODEL 5
REMARK VINA RESULT:    -3.105     11.471     13.320
REMARK INTER + INTRA:          -8.789
REMARK INTER:                  -7.503
REMARK INTRA:                  -1.286
REMARK UNBOUND:                -2.961
REMARK SMILES CCCCCCCCC=CCCCCCCCC(=O)[O-]
REMARK SMILES IDX 10 1 9 2 11 3 12 4 13 5 14 6 15 7 16 8 17 9 18 10 19 11
REMARK SMILES IDX 20 12 8 13 7 14 6 15 5 16 4 17 3 18 2 19 1 20
REMARK H PARENT
REMARK Flexibility Score: inf
ROOT
ATOM      1  C   UNL     1      65.189  30.216  60.648  1.00  0.00    -0.031 C 
ATOM      2  C   UNL     1      64.152  30.659  61.384  1.00  0.00    -0.031 C 
ENDROOT
BRANCH   1   3
ATOM      3  C   UNL     1      65.349  28.810  60.115  1.00  0.00     0.027 C 
BRANCH   3   4
ATOM      4  C   UNL     1      66.086  27.898  61.110  1.00  0.00     0.004 C 
BRANCH   4   5
ATOM      5  C   UNL     1      67.623  27.887  60.971  1.00  0.00     0.000 C 
BRANCH   5   6
ATOM      6  C   UNL     1      68.362  28.946  61.807  1.00  0.00     0.000 C 
BRANCH   6   7
ATOM      7  C   UNL     1      69.723  29.334  61.213  1.00  0.00     0.000 C 
BRANCH   7   8
ATOM      8  C   UNL     1      69.557  29.955  59.818  1.00  0.00     0.006 C 
BRANCH   8   9
ATOM      9  C   UNL     1      70.901  30.361  59.197  1.00  0.00     0.053 C 
BRANCH   9  10
ATOM     10  C   UNL     1      71.683  31.260  60.105  1.00  0.00     0.041 C 
ATOM     11  O   UNL     1      72.809  30.900  60.537  1.00  0.00    -0.550 OA
ATOM     12  O   UNL     1      71.181  32.510  60.448  1.00  0.00    -0.550 OA
ENDBRANCH   9  10
ENDBRANCH   8   9
ENDBRANCH   7   8
ENDBRANCH   6   7
ENDBRANCH   5   6
ENDBRANCH   4   5
ENDBRANCH   3   4
ENDBRANCH   1   3
BRANCH   2  13
ATOM     13  C   UNL     1      62.955  29.835  61.789  1.00  0.00     0.027 C 
BRANCH  13  14
ATOM     14  C   UNL     1      61.693  30.266  61.033  1.00  0.00     0.004 C 
BRANCH  14  15
ATOM     15  C   UNL     1      61.280  31.691  61.417  1.00  0.00     0.000 C 
BRANCH  15  16
ATOM     16  C   UNL     1      61.332  32.625  60.200  1.00  0.00     0.000 C 
BRANCH  16  17
ATOM     17  C   UNL     1      62.485  33.639  60.278  1.00  0.00    -0.000 C 
BRANCH  17  18
ATOM     18  C   UNL     1      62.048  34.988  60.870  1.00  0.00    -0.000 C 
BRANCH  18  19
ATOM     19  C   UNL     1      63.266  35.841  61.244  1.00  0.00    -0.003 C 
ATOM     20  C   UNL     1      64.417  34.972  61.742  1.00  0.00     0.004 C 
ENDBRANCH  18  19
ENDBRANCH  17  18
ENDBRANCH  16  17
ENDBRANCH  15  16
ENDBRANCH  14  15
ENDBRANCH  13  14
ENDBRANCH   2  13
TORSDOF 15
ENDMDL
MODEL 6
REMARK VINA RESULT:    -3.043      8.984     11.885
REMARK INTER + INTRA:          -8.672
REMARK INTER:                  -6.129
REMARK INTRA:                  -2.543
REMARK UNBOUND:                -2.961
REMARK SMILES CCCCCCCCC=CCCCCCCCC(=O)[O-]
REMARK SMILES IDX 10 1 9 2 11 3 12 4 13 5 14 6 15 7 16 8 17 9 18 10 19 11
REMARK SMILES IDX 20 12 8 13 7 14 6 15 5 16 4 17 3 18 2 19 1 20
REMARK H PARENT
REMARK Flexibility Score: inf
ROOT
ATOM      1  C   UNL     1      64.988  30.757  60.589  1.00  0.00    -0.031 C 
ATOM      2  C   UNL     1      64.232  29.898  61.299  1.00  0.00    -0.031 C 
ENDROOT
BRANCH   1   3
ATOM      3  C   UNL     1      64.526  31.535  59.377  1.00  0.00     0.027 C 
BRANCH   3   4
ATOM      4  C   UNL     1      64.501  33.050  59.639  1.00  0.00     0.004 C 
BRANCH   4   5
ATOM      5  C   UNL     1      63.960  33.463  61.024  1.00  0.00     0.000 C 
BRANCH   5   6
ATOM      6  C   UNL     1      64.385  34.863  61.500  1.00  0.00     0.000 C 
BRANCH   6   7
ATOM      7  C   UNL     1      63.294  35.923  61.293  1.00  0.00     0.000 C 
BRANCH   7   8
ATOM      8  C   UNL     1      61.964  35.269  60.888  1.00  0.00     0.006 C 
BRANCH   8   9
ATOM      9  C   UNL     1      60.890  36.306  60.533  1.00  0.00     0.053 C 
BRANCH   9  10
ATOM     10  C   UNL     1      60.535  36.263  59.078  1.00  0.00     0.041 C 
ATOM     11  O   UNL     1      61.381  35.874  58.231  1.00  0.00    -0.550 OA
ATOM     12  O   UNL     1      59.258  36.620  58.662  1.00  0.00    -0.550 OA
ENDBRANCH   9  10
ENDBRANCH   8   9
ENDBRANCH   7   8
ENDBRANCH   6   7
ENDBRANCH   5   6
ENDBRANCH   4   5
ENDBRANCH   3   4
ENDBRANCH   1   3
BRANCH   2  13
ATOM     13  C   UNL     1      62.784  29.578  61.025  1.00  0.00     0.027 C 
BRANCH  13  14
ATOM     14  C   UNL     1      61.856  30.248  62.045  1.00  0.00     0.004 C 
BRANCH  14  15
ATOM     15  C   UNL     1      61.053  31.381  61.396  1.00  0.00     0.000 C 
BRANCH  15  16
ATOM     16  C   UNL     1      60.947  31.180  59.877  1.00  0.00     0.000 C 
BRANCH  16  17
ATOM     17  C   UNL     1      60.604  32.478  59.129  1.00  0.00    -0.000 C 
BRANCH  17  18
ATOM     18  C   UNL     1      60.075  32.222  57.710  1.00  0.00    -0.000 C 
BRANCH  18  19
ATOM     19  C   UNL     1      61.199  31.744  56.784  1.00  0.00    -0.003 C 
ATOM     20  C   UNL     1      62.285  32.808  56.640  1.00  0.00     0.004 C 
ENDBRANCH  18  19
ENDBRANCH  17  18
ENDBRANCH  16  17
ENDBRANCH  15  16
ENDBRANCH  14  15
ENDBRANCH  13  14
ENDBRANCH   2  13
TORSDOF 15
ENDMDL
MODEL 7
REMARK VINA RESULT:    -3.042      2.187      3.389
REMARK INTER + INTRA:          -8.670
REMARK INTER:                  -5.895
REMARK INTRA:                  -2.775
REMARK UNBOUND:                -2.961
REMARK SMILES CCCCCCCCC=CCCCCCCCC(=O)[O-]
REMARK SMILES IDX 10 1 9 2 11 3 12 4 13 5 14 6 15 7 16 8 17 9 18 10 19 11
REMARK SMILES IDX 20 12 8 13 7 14 6 15 5 16 4 17 3 18 2 19 1 20
REMARK H PARENT
REMARK Flexibility Score: inf
ROOT
ATOM      1  C   UNL     1      60.672  26.797  49.618  1.00  0.00    -0.031 C 
ATOM      2  C   UNL     1      59.413  27.241  49.440  1.00  0.00    -0.031 C 
ENDROOT
BRANCH   1   3
ATOM      3  C   UNL     1      61.917  27.653  49.581  1.00  0.00     0.027 C 
BRANCH   3   4
ATOM      4  C   UNL     1      62.481  27.911  50.988  1.00  0.00     0.004 C 
BRANCH   4   5
ATOM      5  C   UNL     1      61.969  29.195  51.672  1.00  0.00     0.000 C 
BRANCH   5   6
ATOM      6  C   UNL     1      61.358  28.991  53.070  1.00  0.00     0.000 C 
BRANCH   6   7
ATOM      7  C   UNL     1      60.035  28.213  53.037  1.00  0.00     0.000 C 
BRANCH   7   8
ATOM      8  C   UNL     1      60.163  26.880  53.789  1.00  0.00     0.006 C 
BRANCH   8   9
ATOM      9  C   UNL     1      59.038  25.899  53.432  1.00  0.00     0.053 C 
BRANCH   9  10
ATOM     10  C   UNL     1      59.515  24.820  52.509  1.00  0.00     0.041 C 
ATOM     11  O   UNL     1      60.665  24.326  52.652  1.00  0.00    -0.550 OA
ATOM     12  O   UNL     1      58.677  24.336  51.512  1.00  0.00    -0.550 OA
ENDBRANCH   9  10
ENDBRANCH   8   9
ENDBRANCH   7   8
ENDBRANCH   6   7
ENDBRANCH   5   6
ENDBRANCH   4   5
ENDBRANCH   3   4
ENDBRANCH   1   3
BRANCH   2  13
ATOM     13  C   UNL     1      59.021  28.677  49.195  1.00  0.00     0.027 C 
BRANCH  13  14
ATOM     14  C   UNL     1      58.222  29.251  50.371  1.00  0.00     0.004 C 
BRANCH  14  15
ATOM     15  C   UNL     1      56.791  28.700  50.385  1.00  0.00     0.000 C 
BRANCH  15  16
ATOM     16  C   UNL     1      56.531  27.878  51.655  1.00  0.00     0.000 C 
BRANCH  16  17
ATOM     17  C   UNL     1      55.910  26.504  51.355  1.00  0.00    -0.000 C 
BRANCH  17  18
ATOM     18  C   UNL     1      55.839  26.202  49.851  1.00  0.00    -0.000 C 
BRANCH  18  19
ATOM     19  C   UNL     1      54.411  25.832  49.433  1.00  0.00    -0.003 C 
ATOM     20  C   UNL     1      53.490  27.048  49.477  1.00  0.00     0.004 C 
ENDBRANCH  18  19
ENDBRANCH  17  18
ENDBRANCH  16  17
ENDBRANCH  15  16
ENDBRANCH  14  15
ENDBRANCH  13  14
ENDBRANCH   2  13
TORSDOF 15
ENDMDL
MODEL 8
REMARK VINA RESULT:    -2.995      2.562      5.805
REMARK INTER + INTRA:          -8.582
REMARK INTER:                  -6.271
REMARK INTRA:                  -2.312
REMARK UNBOUND:                -2.961
REMARK SMILES CCCCCCCCC=CCCCCCCCC(=O)[O-]
REMARK SMILES IDX 10 1 9 2 11 3 12 4 13 5 14 6 15 7 16 8 17 9 18 10 19 11
REMARK SMILES IDX 20 12 8 13 7 14 6 15 5 16 4 17 3 18 2 19 1 20
REMARK H PARENT
REMARK Flexibility Score: inf
ROOT
ATOM      1  C   UNL     1      54.920  26.160  49.517  1.00  0.00    -0.031 C 
ATOM      2  C   UNL     1      56.177  26.248  49.992  1.00  0.00    -0.031 C 
ENDROOT
BRANCH   1   3
ATOM      3  C   UNL     1      53.672  26.586  50.257  1.00  0.00     0.027 C 
BRANCH   3   4
ATOM      4  C   UNL     1      53.056  27.863  49.660  1.00  0.00     0.004 C 
BRANCH   4   5
ATOM      5  C   UNL     1      53.589  29.184  50.252  1.00  0.00     0.000 C 
BRANCH   5   6
ATOM      6  C   UNL     1      53.925  29.138  51.753  1.00  0.00     0.000 C 
BRANCH   6   7
ATOM      7  C   UNL     1      54.677  30.387  52.236  1.00  0.00     0.000 C 
BRANCH   7   8
ATOM      8  C   UNL     1      55.667  30.034  53.355  1.00  0.00     0.006 C 
BRANCH   8   9
ATOM      9  C   UNL     1      56.178  31.278  54.094  1.00  0.00     0.053 C 
BRANCH   9  10
ATOM     10  C   UNL     1      57.416  31.832  53.458  1.00  0.00     0.041 C 
ATOM     11  O   UNL     1      57.766  33.021  53.683  1.00  0.00    -0.550 OA
ATOM     12  O   UNL     1      58.201  31.026  52.642  1.00  0.00    -0.550 OA
ENDBRANCH   9  10
ENDBRANCH   8   9
ENDBRANCH   7   8
ENDBRANCH   6   7
ENDBRANCH   5   6
ENDBRANCH   4   5
ENDBRANCH   3   4
ENDBRANCH   1   3
BRANCH   2  13
ATOM     13  C   UNL     1      56.564  26.809  51.337  1.00  0.00     0.027 C 
BRANCH  13  14
ATOM     14  C   UNL     1      57.746  27.780  51.224  1.00  0.00     0.004 C 
BRANCH  14  15
ATOM     15  C   UNL     1      57.528  28.781  50.084  1.00  0.00     0.000 C 
BRANCH  15  16
ATOM     16  C   UNL     1      58.796  28.927  49.231  1.00  0.00     0.000 C 
BRANCH  16  17
ATOM     17  C   UNL     1      59.630  27.636  49.181  1.00  0.00    -0.000 C 
BRANCH  17  18
ATOM     18  C   UNL     1      61.087  27.856  49.615  1.00  0.00    -0.000 C 
BRANCH  18  19
ATOM     19  C   UNL     1      61.236  29.173  50.385  1.00  0.00    -0.003 C 
ATOM     20  C   UNL     1      62.477  29.939  49.934  1.00  0.00     0.004 C 
ENDBRANCH  18  19
ENDBRANCH  17  18
ENDBRANCH  16  17
ENDBRANCH  15  16
ENDBRANCH  14  15
ENDBRANCH  13  14
ENDBRANCH   2  13
TORSDOF 15
ENDMDL
MODEL 9
REMARK VINA RESULT:    -2.977      2.435      5.028
REMARK INTER + INTRA:          -8.549
REMARK INTER:                  -5.962
REMARK INTRA:                  -2.587
REMARK UNBOUND:                -2.961
REMARK SMILES CCCCCCCCC=CCCCCCCCC(=O)[O-]
REMARK SMILES IDX 10 1 9 2 11 3 12 4 13 5 14 6 15 7 16 8 17 9 18 10 19 11
REMARK SMILES IDX 20 12 8 13 7 14 6 15 5 16 4 17 3 18 2 19 1 20
REMARK H PARENT
REMARK Flexibility Score: inf
ROOT
ATOM      1  C   UNL     1      54.102  26.515  50.037  1.00  0.00    -0.031 C 
ATOM      2  C   UNL     1      53.222  27.533  50.096  1.00  0.00    -0.031 C 
ENDROOT
BRANCH   1   3
ATOM      3  C   UNL     1      55.602  26.659  49.925  1.00  0.00     0.027 C 
BRANCH   3   4
ATOM      4  C   UNL     1      56.278  26.750  51.303  1.00  0.00     0.004 C 
BRANCH   4   5
ATOM      5  C   UNL     1      57.457  27.741  51.389  1.00  0.00     0.000 C 
BRANCH   5   6
ATOM      6  C   UNL     1      57.411  28.900  50.378  1.00  0.00     0.000 C 
BRANCH   6   7
ATOM      7  C   UNL     1      58.673  28.985  49.508  1.00  0.00     0.000 C 
BRANCH   7   8
ATOM      8  C   UNL     1      59.245  27.587  49.234  1.00  0.00     0.006 C 
BRANCH   8   9
ATOM      9  C   UNL     1      60.780  27.575  49.238  1.00  0.00     0.053 C 
BRANCH   9  10
ATOM     10  C   UNL     1      61.324  26.454  50.070  1.00  0.00     0.041 C 
ATOM     11  O   UNL     1      60.617  25.934  50.973  1.00  0.00    -0.550 OA
ATOM     12  O   UNL     1      62.601  25.962  49.826  1.00  0.00    -0.550 OA
ENDBRANCH   9  10
ENDBRANCH   8   9
ENDBRANCH   7   8
ENDBRANCH   6   7
ENDBRANCH   5   6
ENDBRANCH   4   5
ENDBRANCH   3   4
ENDBRANCH   1   3
BRANCH   2  13
ATOM     13  C   UNL     1      53.580  28.998  50.082  1.00  0.00     0.027 C 
BRANCH  13  14
ATOM     14  C   UNL     1      53.164  29.692  51.384  1.00  0.00     0.004 C 
BRANCH  14  15
ATOM     15  C   UNL     1      54.387  30.211  52.147  1.00  0.00     0.000 C 
BRANCH  15  16
ATOM     16  C   UNL     1      54.610  29.410  53.438  1.00  0.00     0.000 C 
BRANCH  16  17
ATOM     17  C   UNL     1      55.994  29.659  54.059  1.00  0.00    -0.000 C 
BRANCH  17  18
ATOM     18  C   UNL     1      56.682  30.909  53.490  1.00  0.00    -0.000 C 
BRANCH  18  19
ATOM     19  C   UNL     1      58.206  30.741  53.485  1.00  0.00    -0.003 C 
ATOM     20  C   UNL     1      58.903  32.033  53.068  1.00  0.00     0.004 C 
ENDBRANCH  18  19
ENDBRANCH  17  18
ENDBRANCH  16  17
ENDBRANCH  15  16
ENDBRANCH  14  15
ENDBRANCH  13  14
ENDBRANCH   2  13
TORSDOF 15
ENDMDL
