MODEL 1
REMARK VINA RESULT:    -5.806      0.000      0.000
REMARK INTER + INTRA:          -7.094
REMARK INTER:                  -6.824
REMARK INTRA:                  -0.270
REMARK UNBOUND:                -0.270
REMARK SMILES O=c1cc(-c2ccc(O)c(O)c2)oc2cc(O)cc(O)c12
REMARK SMILES IDX 4 1 3 2 2 3 1 4 21 5 19 6 18 7 16 8 15 9 14 10 13 11 5 12
REMARK SMILES IDX 6 13 7 14 8 15 12 16 10 17 9 18 11 20 20 22 17 24
REMARK H PARENT 9 19 11 21 20 23 17 25
REMARK Flexibility Score: inf
ROOT
ATOM      1  C   UNL     1      18.921  22.140  15.295  1.00  0.00     0.138 A 
ATOM      2  C   UNL     1      17.616  21.647  15.429  1.00  0.00     0.100 A 
ATOM      3  C   UNL     1      17.178  21.180  16.670  1.00  0.00     0.197 A 
ATOM      4  O   UNL     1      16.023  20.686  16.745  1.00  0.00    -0.289 OA
ATOM      5  C   UNL     1      18.042  21.240  17.789  1.00  0.00     0.107 A 
ATOM      6  C   UNL     1      17.690  20.832  19.109  1.00  0.00     0.134 A 
ATOM      7  C   UNL     1      18.667  20.827  20.114  1.00  0.00     0.093 A 
ATOM      8  C   UNL     1      19.964  21.272  19.860  1.00  0.00     0.123 A 
ATOM      9  C   UNL     1      20.305  21.725  18.584  1.00  0.00     0.094 A 
ATOM     10  C   UNL     1      19.363  21.709  17.553  1.00  0.00     0.146 A 
ATOM     11  O   UNL     1      19.731  22.134  16.349  1.00  0.00    -0.456 OA
ENDROOT
BRANCH   1  12
ATOM     12  C   UNL     1      19.438  22.649  13.999  1.00  0.00     0.021 A 
ATOM     13  C   UNL     1      19.729  21.782  12.929  1.00  0.00     0.016 A 
ATOM     14  C   UNL     1      20.205  22.290  11.716  1.00  0.00     0.051 A 
ATOM     15  C   UNL     1      20.389  23.668  11.550  1.00  0.00     0.157 A 
ATOM     16  C   UNL     1      19.613  24.033  13.819  1.00  0.00     0.062 A 
ATOM     17  C   UNL     1      20.090  24.541  12.603  1.00  0.00     0.158 A 
BRANCH  15  18
ATOM     18  O   UNL     1      20.864  24.177  10.343  1.00  0.00    -0.504 OA
ATOM     19  H   UNL     1      21.849  24.147  10.106  1.00  0.00     0.293 HD
ENDBRANCH  15  18
BRANCH  17  20
ATOM     20  O   UNL     1      20.270  25.913  12.433  1.00  0.00    -0.504 OA
ATOM     21  H   UNL     1      20.174  26.353  11.526  1.00  0.00     0.293 HD
ENDBRANCH  17  20
ENDBRANCH   1  12
BRANCH   6  22
ATOM     22  O   UNL     1      16.401  20.449  19.492  1.00  0.00    -0.507 OA
ATOM     23  H   UNL     1      15.651  20.235  18.854  1.00  0.00     0.293 HD
ENDBRANCH   6  22
BRANCH   8  24
ATOM     24  O   UNL     1      20.906  21.268  20.887  1.00  0.00    -0.508 OA
ATOM     25  H   UNL     1      21.238  20.403  21.298  1.00  0.00     0.293 HD
ENDBRANCH   8  24
TORSDOF 5
ENDMDL
MODEL 2
REMARK VINA RESULT:    -5.320      1.401      7.131
REMARK INTER + INTRA:          -6.522
REMARK INTER:                  -6.260
REMARK INTRA:                  -0.262
REMARK UNBOUND:                -0.270
REMARK SMILES O=c1cc(-c2ccc(O)c(O)c2)oc2cc(O)cc(O)c12
REMARK SMILES IDX 4 1 3 2 2 3 1 4 21 5 19 6 18 7 16 8 15 9 14 10 13 11 5 12
REMARK SMILES IDX 6 13 7 14 8 15 12 16 10 17 9 18 11 20 20 22 17 24
REMARK H PARENT 9 19 11 21 20 23 17 25
REMARK Flexibility Score: inf
ROOT
ATOM      1  C   UNL     1      19.674  21.688  15.981  1.00  0.00     0.138 A 
ATOM      2  C   UNL     1      20.088  20.628  15.162  1.00  0.00     0.100 A 
ATOM      3  C   UNL     1      20.366  20.865  13.815  1.00  0.00     0.197 A 
ATOM      4  O   UNL     1      20.675  19.883  13.091  1.00  0.00    -0.289 OA
ATOM      5  C   UNL     1      20.259  22.176  13.294  1.00  0.00     0.107 A 
ATOM      6  C   UNL     1      20.557  22.543  11.948  1.00  0.00     0.134 A 
ATOM      7  C   UNL     1      20.303  23.852  11.517  1.00  0.00     0.093 A 
ATOM      8  C   UNL     1      19.820  24.819  12.397  1.00  0.00     0.123 A 
ATOM      9  C   UNL     1      19.576  24.486  13.730  1.00  0.00     0.094 A 
ATOM     10  C   UNL     1      19.787  23.181  14.182  1.00  0.00     0.146 A 
ATOM     11  O   UNL     1      19.529  22.900  15.455  1.00  0.00    -0.456 OA
ENDROOT
BRANCH   1  12
ATOM     12  C   UNL     1      19.366  21.492  17.421  1.00  0.00     0.021 A 
ATOM     13  C   UNL     1      20.332  21.714  18.420  1.00  0.00     0.016 A 
ATOM     14  C   UNL     1      20.012  21.531  19.769  1.00  0.00     0.051 A 
ATOM     15  C   UNL     1      18.722  21.133  20.141  1.00  0.00     0.157 A 
ATOM     16  C   UNL     1      18.069  21.104  17.805  1.00  0.00     0.062 A 
ATOM     17  C   UNL     1      17.748  20.921  19.157  1.00  0.00     0.158 A 
BRANCH  15  18
ATOM     18  O   UNL     1      18.399  20.949  21.484  1.00  0.00    -0.504 OA
ATOM     19  H   UNL     1      17.521  21.280  21.868  1.00  0.00     0.293 HD
ENDBRANCH  15  18
BRANCH  17  20
ATOM     20  O   UNL     1      16.464  20.529  19.531  1.00  0.00    -0.504 OA
ATOM     21  H   UNL     1      16.268  20.166  20.457  1.00  0.00     0.293 HD
ENDBRANCH  17  20
ENDBRANCH   1  12
BRANCH   6  22
ATOM     22  O   UNL     1      21.122  21.676  11.009  1.00  0.00    -0.507 OA
ATOM     23  H   UNL     1      21.878  21.035  11.198  1.00  0.00     0.293 HD
ENDBRANCH   6  22
BRANCH   8  24
ATOM     24  O   UNL     1      19.593  26.115  11.936  1.00  0.00    -0.508 OA
ATOM     25  H   UNL     1      19.914  26.416  11.024  1.00  0.00     0.293 HD
ENDBRANCH   8  24
TORSDOF 5
ENDMDL
MODEL 3
REMARK VINA RESULT:    -5.231      8.912     11.232
REMARK INTER + INTRA:          -6.418
REMARK INTER:                  -6.126
REMARK INTRA:                  -0.292
REMARK UNBOUND:                -0.270
REMARK SMILES O=c1cc(-c2ccc(O)c(O)c2)oc2cc(O)cc(O)c12
REMARK SMILES IDX 4 1 3 2 2 3 1 4 21 5 19 6 18 7 16 8 15 9 14 10 13 11 5 12
REMARK SMILES IDX 6 13 7 14 8 15 12 16 10 17 9 18 11 20 20 22 17 24
REMARK H PARENT 9 19 11 21 20 23 17 25
REMARK Flexibility Score: inf
ROOT
ATOM      1  C   UNL     1      16.472  19.173   6.403  1.00  0.00     0.138 A 
ATOM      2  C   UNL     1      16.974  19.468   7.679  1.00  0.00     0.100 A 
ATOM      3  C   UNL     1      17.454  18.437   8.487  1.00  0.00     0.197 A 
ATOM      4  O   UNL     1      17.840  18.724   9.650  1.00  0.00    -0.289 OA
ATOM      5  C   UNL     1      17.461  17.108   8.002  1.00  0.00     0.107 A 
ATOM      6  C   UNL     1      17.964  15.983   8.721  1.00  0.00     0.134 A 
ATOM      7  C   UNL     1      17.812  14.697   8.186  1.00  0.00     0.093 A 
ATOM      8  C   UNL     1      17.231  14.502   6.933  1.00  0.00     0.123 A 
ATOM      9  C   UNL     1      16.784  15.600   6.197  1.00  0.00     0.094 A 
ATOM     10  C   UNL     1      16.890  16.892   6.718  1.00  0.00     0.146 A 
ATOM     11  O   UNL     1      16.440  17.909   5.993  1.00  0.00    -0.456 OA
ENDROOT
BRANCH   1  12
ATOM     12  C   UNL     1      15.950  20.232   5.502  1.00  0.00     0.021 A 
ATOM     13  C   UNL     1      16.665  21.422   5.268  1.00  0.00     0.016 A 
ATOM     14  C   UNL     1      16.154  22.398   4.406  1.00  0.00     0.051 A 
ATOM     15  C   UNL     1      14.928  22.197   3.760  1.00  0.00     0.157 A 
ATOM     16  C   UNL     1      14.725  20.034   4.838  1.00  0.00     0.062 A 
ATOM     17  C   UNL     1      14.213  21.012   3.975  1.00  0.00     0.158 A 
BRANCH  15  18
ATOM     18  O   UNL     1      14.415  23.168   2.902  1.00  0.00    -0.504 OA
ATOM     19  H   UNL     1      14.647  24.148   3.011  1.00  0.00     0.293 HD
ENDBRANCH  15  18
BRANCH  17  20
ATOM     20  O   UNL     1      12.995  20.814   3.327  1.00  0.00    -0.504 OA
ATOM     21  H   UNL     1      12.285  21.537   3.299  1.00  0.00     0.293 HD
ENDBRANCH  17  20
ENDBRANCH   1  12
BRANCH   6  22
ATOM     22  O   UNL     1      18.638  16.074   9.942  1.00  0.00    -0.507 OA
ATOM     23  H   UNL     1      18.262  16.495  10.778  1.00  0.00     0.293 HD
ENDBRANCH   6  22
BRANCH   8  24
ATOM     24  O   UNL     1      17.110  13.210   6.426  1.00  0.00    -0.508 OA
ATOM     25  H   UNL     1      16.203  12.788   6.260  1.00  0.00     0.293 HD
ENDBRANCH   8  24
TORSDOF 5
ENDMDL
MODEL 4
REMARK VINA RESULT:    -5.171      1.579      7.377
REMARK INTER + INTRA:          -6.348
REMARK INTER:                  -6.053
REMARK INTRA:                  -0.295
REMARK UNBOUND:                -0.270
REMARK SMILES O=c1cc(-c2ccc(O)c(O)c2)oc2cc(O)cc(O)c12
REMARK SMILES IDX 4 1 3 2 2 3 1 4 21 5 19 6 18 7 16 8 15 9 14 10 13 11 5 12
REMARK SMILES IDX 6 13 7 14 8 15 12 16 10 17 9 18 11 20 20 22 17 24
REMARK H PARENT 9 19 11 21 20 23 17 25
REMARK Flexibility Score: inf
ROOT
ATOM      1  C   UNL     1      18.927  22.070  14.964  1.00  0.00     0.138 A 
ATOM      2  C   UNL     1      19.607  23.290  14.847  1.00  0.00     0.100 A 
ATOM      3  C   UNL     1      20.178  23.648  13.625  1.00  0.00     0.197 A 
ATOM      4  O   UNL     1      20.835  24.720  13.567  1.00  0.00    -0.289 OA
ATOM      5  C   UNL     1      20.037  22.794  12.505  1.00  0.00     0.107 A 
ATOM      6  C   UNL     1      20.540  23.076  11.200  1.00  0.00     0.134 A 
ATOM      7  C   UNL     1      20.442  22.102  10.197  1.00  0.00     0.093 A 
ATOM      8  C   UNL     1      19.806  20.883  10.436  1.00  0.00     0.123 A 
ATOM      9  C   UNL     1      19.262  20.619  11.694  1.00  0.00     0.094 A 
ATOM     10  C   UNL     1      19.374  21.556  12.724  1.00  0.00     0.146 A 
ATOM     11  O   UNL     1      18.856  21.260  13.911  1.00  0.00    -0.456 OA
ENDROOT
BRANCH   1  12
ATOM     12  C   UNL     1      18.301  21.640  16.240  1.00  0.00     0.021 A 
ATOM     13  C   UNL     1      18.946  21.824  17.478  1.00  0.00     0.016 A 
ATOM     14  C   UNL     1      18.329  21.418  18.665  1.00  0.00     0.051 A 
ATOM     15  C   UNL     1      17.058  20.832  18.636  1.00  0.00     0.157 A 
ATOM     16  C   UNL     1      17.019  21.061  16.222  1.00  0.00     0.062 A 
ATOM     17  C   UNL     1      16.401  20.655  17.413  1.00  0.00     0.158 A 
BRANCH  15  18
ATOM     18  O   UNL     1      16.440  20.425  19.818  1.00  0.00    -0.504 OA
ATOM     19  H   UNL     1      16.537  19.479  20.168  1.00  0.00     0.293 HD
ENDBRANCH  15  18
BRANCH  17  20
ATOM     20  O   UNL     1      15.134  20.074  17.388  1.00  0.00    -0.504 OA
ATOM     21  H   UNL     1      14.904  19.330  16.739  1.00  0.00     0.293 HD
ENDBRANCH  17  20
ENDBRANCH   1  12
BRANCH   6  22
ATOM     22  O   UNL     1      21.118  24.294  10.831  1.00  0.00    -0.507 OA
ATOM     23  H   UNL     1      21.967  24.671  11.223  1.00  0.00     0.293 HD
ENDBRANCH   6  22
BRANCH   8  24
ATOM     24  O   UNL     1      19.714  19.945   9.410  1.00  0.00    -0.508 OA
ATOM     25  H   UNL     1      19.838  20.207   8.440  1.00  0.00     0.293 HD
ENDBRANCH   8  24
TORSDOF 5
ENDMDL
MODEL 5
REMARK VINA RESULT:    -5.167      1.181      2.607
REMARK INTER + INTRA:          -6.343
REMARK INTER:                  -6.077
REMARK INTRA:                  -0.266
REMARK UNBOUND:                -0.270
REMARK SMILES O=c1cc(-c2ccc(O)c(O)c2)oc2cc(O)cc(O)c12
REMARK SMILES IDX 4 1 3 2 2 3 1 4 21 5 19 6 18 7 16 8 15 9 14 10 13 11 5 12
REMARK SMILES IDX 6 13 7 14 8 15 12 16 10 17 9 18 11 20 20 22 17 24
REMARK H PARENT 9 19 11 21 20 23 17 25
REMARK Flexibility Score: inf
ROOT
ATOM      1  C   UNL     1      19.611  22.549  15.185  1.00  0.00     0.138 A 
ATOM      2  C   UNL     1      20.374  23.101  16.224  1.00  0.00     0.100 A 
ATOM      3  C   UNL     1      20.079  22.771  17.548  1.00  0.00     0.197 A 
ATOM      4  O   UNL     1      20.741  23.330  18.460  1.00  0.00    -0.289 OA
ATOM      5  C   UNL     1      19.035  21.859  17.830  1.00  0.00     0.107 A 
ATOM      6  C   UNL     1      18.672  21.418  19.137  1.00  0.00     0.134 A 
ATOM      7  C   UNL     1      17.545  20.603  19.303  1.00  0.00     0.093 A 
ATOM      8  C   UNL     1      16.805  20.164  18.205  1.00  0.00     0.123 A 
ATOM      9  C   UNL     1      17.183  20.545  16.916  1.00  0.00     0.094 A 
ATOM     10  C   UNL     1      18.281  21.386  16.722  1.00  0.00     0.146 A 
ATOM     11  O   UNL     1      18.600  21.738  15.481  1.00  0.00    -0.456 OA
ENDROOT
BRANCH   1  12
ATOM     12  C   UNL     1      19.882  22.866  13.760  1.00  0.00     0.021 A 
ATOM     13  C   UNL     1      20.143  21.855  12.815  1.00  0.00     0.016 A 
ATOM     14  C   UNL     1      20.385  22.181  11.477  1.00  0.00     0.051 A 
ATOM     15  C   UNL     1      20.361  23.518  11.061  1.00  0.00     0.157 A 
ATOM     16  C   UNL     1      19.847  24.205  13.330  1.00  0.00     0.062 A 
ATOM     17  C   UNL     1      20.089  24.531  11.988  1.00  0.00     0.158 A 
BRANCH  15  18
ATOM     18  O   UNL     1      20.603  23.846   9.728  1.00  0.00    -0.504 OA
ATOM     19  H   UNL     1      20.495  23.164   8.986  1.00  0.00     0.293 HD
ENDBRANCH  15  18
BRANCH  17  20
ATOM     20  O   UNL     1      20.063  25.860  11.569  1.00  0.00    -0.504 OA
ATOM     21  H   UNL     1      19.380  26.192  10.898  1.00  0.00     0.293 HD
ENDBRANCH  17  20
ENDBRANCH   1  12
BRANCH   6  22
ATOM     22  O   UNL     1      19.393  21.728  20.294  1.00  0.00    -0.507 OA
ATOM     23  H   UNL     1      19.679  21.058  20.992  1.00  0.00     0.293 HD
ENDBRANCH   6  22
BRANCH   8  24
ATOM     24  O   UNL     1      15.699  19.341  18.407  1.00  0.00    -0.508 OA
ATOM     25  H   UNL     1      15.208  19.321  19.293  1.00  0.00     0.293 HD
ENDBRANCH   8  24
TORSDOF 5
ENDMDL
MODEL 6
REMARK VINA RESULT:    -5.076     15.682     17.753
REMARK INTER + INTRA:          -6.236
REMARK INTER:                  -5.962
REMARK INTRA:                  -0.274
REMARK UNBOUND:                -0.270
REMARK SMILES O=c1cc(-c2ccc(O)c(O)c2)oc2cc(O)cc(O)c12
REMARK SMILES IDX 4 1 3 2 2 3 1 4 21 5 19 6 18 7 16 8 15 9 14 10 13 11 5 12
REMARK SMILES IDX 6 13 7 14 8 15 12 16 10 17 9 18 11 20 20 22 17 24
REMARK H PARENT 9 19 11 21 20 23 17 25
REMARK Flexibility Score: inf
ROOT
ATOM      1  C   UNL     1      10.222  14.199   3.182  1.00  0.00     0.138 A 
ATOM      2  C   UNL     1      10.094  12.848   2.831  1.00  0.00     0.100 A 
ATOM      3  C   UNL     1      11.234  12.053   2.713  1.00  0.00     0.197 A 
ATOM      4  O   UNL     1      11.092  10.861   2.336  1.00  0.00    -0.289 OA
ATOM      5  C   UNL     1      12.509  12.607   2.982  1.00  0.00     0.107 A 
ATOM      6  C   UNL     1      13.736  11.882   2.935  1.00  0.00     0.134 A 
ATOM      7  C   UNL     1      14.948  12.564   3.106  1.00  0.00     0.093 A 
ATOM      8  C   UNL     1      14.973  13.931   3.382  1.00  0.00     0.123 A 
ATOM      9  C   UNL     1      13.775  14.640   3.484  1.00  0.00     0.094 A 
ATOM     10  C   UNL     1      12.552  13.995   3.284  1.00  0.00     0.146 A 
ATOM     11  O   UNL     1      11.435  14.708   3.375  1.00  0.00    -0.456 OA
ENDROOT
BRANCH   1  12
ATOM     12  C   UNL     1       9.042  15.089   3.321  1.00  0.00     0.021 A 
ATOM     13  C   UNL     1       8.199  15.375   2.230  1.00  0.00     0.016 A 
ATOM     14  C   UNL     1       7.089  16.209   2.392  1.00  0.00     0.051 A 
ATOM     15  C   UNL     1       6.798  16.762   3.645  1.00  0.00     0.157 A 
ATOM     16  C   UNL     1       8.734  15.639   4.579  1.00  0.00     0.062 A 
ATOM     17  C   UNL     1       7.620  16.475   4.741  1.00  0.00     0.158 A 
BRANCH  15  18
ATOM     18  O   UNL     1       5.692  17.594   3.810  1.00  0.00    -0.504 OA
ATOM     19  H   UNL     1       5.726  18.576   3.559  1.00  0.00     0.293 HD
ENDBRANCH  15  18
BRANCH  17  20
ATOM     20  O   UNL     1       7.326  17.025   5.987  1.00  0.00    -0.504 OA
ATOM     21  H   UNL     1       7.025  17.987   6.085  1.00  0.00     0.293 HD
ENDBRANCH  17  20
ENDBRANCH   1  12
BRANCH   6  22
ATOM     22  O   UNL     1      13.820  10.499   2.750  1.00  0.00    -0.507 OA
ATOM     23  H   UNL     1      13.698   9.811   3.478  1.00  0.00     0.293 HD
ENDBRANCH   6  22
BRANCH   8  24
ATOM     24  O   UNL     1      16.196  14.573   3.561  1.00  0.00    -0.508 OA
ATOM     25  H   UNL     1      16.431  15.417   3.052  1.00  0.00     0.293 HD
ENDBRANCH   8  24
TORSDOF 5
ENDMDL
MODEL 7
REMARK VINA RESULT:    -5.031     10.118     12.037
REMARK INTER + INTRA:          -6.183
REMARK INTER:                  -5.892
REMARK INTRA:                  -0.291
REMARK UNBOUND:                -0.270
REMARK SMILES O=c1cc(-c2ccc(O)c(O)c2)oc2cc(O)cc(O)c12
REMARK SMILES IDX 4 1 3 2 2 3 1 4 21 5 19 6 18 7 16 8 15 9 14 10 13 11 5 12
REMARK SMILES IDX 6 13 7 14 8 15 12 16 10 17 9 18 11 20 20 22 17 24
REMARK H PARENT 9 19 11 21 20 23 17 25
REMARK Flexibility Score: inf
ROOT
ATOM      1  C   UNL     1      15.464  18.647   5.101  1.00  0.00     0.138 A 
ATOM      2  C   UNL     1      14.916  17.518   4.477  1.00  0.00     0.100 A 
ATOM      3  C   UNL     1      15.189  16.247   4.985  1.00  0.00     0.197 A 
ATOM      4  O   UNL     1      14.734  15.250   4.367  1.00  0.00    -0.289 OA
ATOM      5  C   UNL     1      15.987  16.110   6.145  1.00  0.00     0.107 A 
ATOM      6  C   UNL     1      16.297  14.869   6.777  1.00  0.00     0.134 A 
ATOM      7  C   UNL     1      17.194  14.847   7.853  1.00  0.00     0.093 A 
ATOM      8  C   UNL     1      17.744  16.025   8.357  1.00  0.00     0.123 A 
ATOM      9  C   UNL     1      17.406  17.251   7.781  1.00  0.00     0.094 A 
ATOM     10  C   UNL     1      16.542  17.302   6.685  1.00  0.00     0.146 A 
ATOM     11  O   UNL     1      16.256  18.487   6.156  1.00  0.00    -0.456 OA
ENDROOT
BRANCH   1  12
ATOM     12  C   UNL     1      15.206  20.021   4.601  1.00  0.00     0.021 A 
ATOM     13  C   UNL     1      16.034  21.104   4.954  1.00  0.00     0.016 A 
ATOM     14  C   UNL     1      15.774  22.386   4.461  1.00  0.00     0.051 A 
ATOM     15  C   UNL     1      14.690  22.605   3.602  1.00  0.00     0.157 A 
ATOM     16  C   UNL     1      14.128  20.249   3.726  1.00  0.00     0.062 A 
ATOM     17  C   UNL     1      13.867  21.535   3.232  1.00  0.00     0.158 A 
BRANCH  15  18
ATOM     18  O   UNL     1      14.427  23.882   3.109  1.00  0.00    -0.504 OA
ATOM     19  H   UNL     1      13.680  24.453   3.488  1.00  0.00     0.293 HD
ENDBRANCH  15  18
BRANCH  17  20
ATOM     20  O   UNL     1      12.791  21.756   2.373  1.00  0.00    -0.504 OA
ATOM     21  H   UNL     1      12.628  21.168   1.565  1.00  0.00     0.293 HD
ENDBRANCH  17  20
ENDBRANCH   1  12
BRANCH   6  22
ATOM     22  O   UNL     1      15.737  13.643   6.407  1.00  0.00    -0.507 OA
ATOM     23  H   UNL     1      15.626  13.323   5.457  1.00  0.00     0.293 HD
ENDBRANCH   6  22
BRANCH   8  24
ATOM     24  O   UNL     1      18.621  15.966   9.438  1.00  0.00    -0.508 OA
ATOM     25  H   UNL     1      19.620  16.083   9.317  1.00  0.00     0.293 HD
ENDBRANCH   8  24
TORSDOF 5
ENDMDL
MODEL 8
REMARK VINA RESULT:    -5.015     17.051     19.182
REMARK INTER + INTRA:          -6.164
REMARK INTER:                  -5.874
REMARK INTRA:                  -0.291
REMARK UNBOUND:                -0.270
REMARK SMILES O=c1cc(-c2ccc(O)c(O)c2)oc2cc(O)cc(O)c12
REMARK SMILES IDX 4 1 3 2 2 3 1 4 21 5 19 6 18 7 16 8 15 9 14 10 13 11 5 12
REMARK SMILES IDX 6 13 7 14 8 15 12 16 10 17 9 18 11 20 20 22 17 24
REMARK H PARENT 9 19 11 21 20 23 17 25
REMARK Flexibility Score: inf
ROOT
ATOM      1  C   UNL     1       7.557  15.808   2.790  1.00  0.00     0.138 A 
ATOM      2  C   UNL     1       8.298  16.913   2.348  1.00  0.00     0.100 A 
ATOM      3  C   UNL     1       9.686  16.816   2.240  1.00  0.00     0.197 A 
ATOM      4  O   UNL     1      10.329  17.843   1.900  1.00  0.00    -0.289 OA
ATOM      5  C   UNL     1      10.331  15.594   2.546  1.00  0.00     0.107 A 
ATOM      6  C   UNL     1      11.735  15.367   2.433  1.00  0.00     0.134 A 
ATOM      7  C   UNL     1      12.275  14.151   2.875  1.00  0.00     0.093 A 
ATOM      8  C   UNL     1      11.456  13.136   3.369  1.00  0.00     0.123 A 
ATOM      9  C   UNL     1      10.075  13.328   3.434  1.00  0.00     0.094 A 
ATOM     10  C   UNL     1       9.510  14.541   3.033  1.00  0.00     0.146 A 
ATOM     11  O   UNL     1       8.193  14.690   3.124  1.00  0.00    -0.456 OA
ENDROOT
BRANCH   1  12
ATOM     12  C   UNL     1       6.079  15.858   2.923  1.00  0.00     0.021 A 
ATOM     13  C   UNL     1       5.304  14.685   3.003  1.00  0.00     0.016 A 
ATOM     14  C   UNL     1       3.915  14.761   3.138  1.00  0.00     0.051 A 
ATOM     15  C   UNL     1       3.279  16.007   3.203  1.00  0.00     0.157 A 
ATOM     16  C   UNL     1       5.432  17.105   3.003  1.00  0.00     0.062 A 
ATOM     17  C   UNL     1       4.039  17.180   3.138  1.00  0.00     0.158 A 
BRANCH  15  18
ATOM     18  O   UNL     1       1.894  16.086   3.336  1.00  0.00    -0.504 OA
ATOM     19  H   UNL     1       1.428  15.821   4.197  1.00  0.00     0.293 HD
ENDBRANCH  15  18
BRANCH  17  20
ATOM     20  O   UNL     1       3.403  18.419   3.207  1.00  0.00    -0.504 OA
ATOM     21  H   UNL     1       2.412  18.518   3.018  1.00  0.00     0.293 HD
ENDBRANCH  17  20
ENDBRANCH   1  12
BRANCH   6  22
ATOM     22  O   UNL     1      12.632  16.281   1.875  1.00  0.00    -0.507 OA
ATOM     23  H   UNL     1      12.653  17.268   2.082  1.00  0.00     0.293 HD
ENDBRANCH   6  22
BRANCH   8  24
ATOM     24  O   UNL     1      12.027  11.935   3.786  1.00  0.00    -0.508 OA
ATOM     25  H   UNL     1      11.516  11.279   4.365  1.00  0.00     0.293 HD
ENDBRANCH   8  24
TORSDOF 5
ENDMDL
MODEL 9
REMARK VINA RESULT:    -4.779      1.641      7.377
REMARK INTER + INTRA:          -5.887
REMARK INTER:                  -5.622
REMARK INTRA:                  -0.264
REMARK UNBOUND:                -0.270
REMARK SMILES O=c1cc(-c2ccc(O)c(O)c2)oc2cc(O)cc(O)c12
REMARK SMILES IDX 4 1 3 2 2 3 1 4 21 5 19 6 18 7 16 8 15 9 14 10 13 11 5 12
REMARK SMILES IDX 6 13 7 14 8 15 12 16 10 17 9 18 11 20 20 22 17 24
REMARK H PARENT 9 19 11 21 20 23 17 25
REMARK Flexibility Score: inf
ROOT
ATOM      1  C   UNL     1      19.272  21.898  13.950  1.00  0.00     0.138 A 
ATOM      2  C   UNL     1      19.353  20.850  13.022  1.00  0.00     0.100 A 
ATOM      3  C   UNL     1      19.813  21.106  11.730  1.00  0.00     0.197 A 
ATOM      4  O   UNL     1      19.815  20.159  10.901  1.00  0.00    -0.289 OA
ATOM      5  C   UNL     1      20.226  22.412  11.375  1.00  0.00     0.107 A 
ATOM      6  C   UNL     1      20.751  22.781  10.101  1.00  0.00     0.134 A 
ATOM      7  C   UNL     1      21.017  24.130   9.828  1.00  0.00     0.093 A 
ATOM      8  C   UNL     1      20.834  25.112  10.802  1.00  0.00     0.123 A 
ATOM      9  C   UNL     1      20.372  24.755  12.070  1.00  0.00     0.094 A 
ATOM     10  C   UNL     1      20.066  23.424  12.361  1.00  0.00     0.146 A 
ATOM     11  O   UNL     1      19.614  23.127  13.575  1.00  0.00    -0.456 OA
ENDROOT
BRANCH   1  12
ATOM     12  C   UNL     1      18.790  21.681  15.337  1.00  0.00     0.021 A 
ATOM     13  C   UNL     1      19.632  21.868  16.450  1.00  0.00     0.016 A 
ATOM     14  C   UNL     1      19.149  21.666  17.746  1.00  0.00     0.051 A 
ATOM     15  C   UNL     1      17.818  21.283  17.952  1.00  0.00     0.157 A 
ATOM     16  C   UNL     1      17.451  21.309  15.555  1.00  0.00     0.062 A 
ATOM     17  C   UNL     1      16.967  21.107  16.855  1.00  0.00     0.158 A 
BRANCH  15  18
ATOM     18  O   UNL     1      17.332  21.080  19.243  1.00  0.00    -0.504 OA
ATOM     19  H   UNL     1      17.690  21.607  20.032  1.00  0.00     0.293 HD
ENDBRANCH  15  18
BRANCH  17  20
ATOM     20  O   UNL     1      15.641  20.729  17.063  1.00  0.00    -0.504 OA
ATOM     21  H   UNL     1      15.379  19.758  17.187  1.00  0.00     0.293 HD
ENDBRANCH  17  20
ENDBRANCH   1  12
BRANCH   6  22
ATOM     22  O   UNL     1      21.051  21.869   9.086  1.00  0.00    -0.507 OA
ATOM     23  H   UNL     1      21.976  21.533   8.868  1.00  0.00     0.293 HD
ENDBRANCH   6  22
BRANCH   8  24
ATOM     24  O   UNL     1      21.124  26.441  10.500  1.00  0.00    -0.508 OA
ATOM     25  H   UNL     1      21.864  26.688   9.853  1.00  0.00     0.293 HD
ENDBRANCH   8  24
TORSDOF 5
ENDMDL
