MODEL 1
REMARK VINA RESULT:    -5.053      0.000      0.000
REMARK INTER + INTRA:          -6.066
REMARK INTER:                  -5.939
REMARK INTRA:                  -0.127
REMARK UNBOUND:                -0.127
REMARK SMILES O=C([O-])C=Cc1ccc(O)c(O)c1
REMARK SMILES IDX 6 1 13 2 7 3 11 4 8 5 9 6 5 7 4 8 2 9 1 10 3 11 12 12 10 14
REMARK H PARENT 12 13 10 15
REMARK Flexibility Score: inf
ROOT
ATOM      1  C   UNL     1       8.463  -6.275  -7.408  1.00  0.00    -0.022 A 
ATOM      2  C   UNL     1       8.365  -5.371  -6.332  1.00  0.00     0.058 A 
ATOM      3  C   UNL     1       8.166  -7.626  -7.183  1.00  0.00     0.012 A 
ATOM      4  C   UNL     1       7.955  -5.802  -5.063  1.00  0.00     0.157 A 
ATOM      5  C   UNL     1       7.753  -8.064  -5.924  1.00  0.00     0.051 A 
ATOM      6  C   UNL     1       7.639  -7.166  -4.858  1.00  0.00     0.157 A 
ENDROOT
BRANCH   1   7
ATOM      7  C   UNL     1       8.905  -5.860  -8.762  1.00  0.00     0.010 C 
ATOM      8  C   UNL     1       8.082  -5.353  -9.691  1.00  0.00     0.025 C 
BRANCH   8   9
ATOM      9  C   UNL     1       8.563  -4.966 -11.027  1.00  0.00     0.064 C 
ATOM     10  O   UNL     1       9.797  -4.810 -11.222  1.00  0.00    -0.545 OA
ATOM     11  O   UNL     1       7.676  -4.771 -12.080  1.00  0.00    -0.545 OA
ENDBRANCH   8   9
ENDBRANCH   1   7
BRANCH   4  12
ATOM     12  O   UNL     1       7.882  -4.850  -4.043  1.00  0.00    -0.504 OA
ATOM     13  H   UNL     1       7.178  -4.851  -3.320  1.00  0.00     0.293 HD
ENDBRANCH   4  12
BRANCH   6  14
ATOM     14  O   UNL     1       7.216  -7.666  -3.625  1.00  0.00    -0.504 OA
ATOM     15  H   UNL     1       7.589  -8.502  -3.197  1.00  0.00     0.293 HD
ENDBRANCH   6  14
TORSDOF 4
ENDMDL
MODEL 2
REMARK VINA RESULT:    -4.795     15.234     17.294
REMARK INTER + INTRA:          -5.763
REMARK INTER:                  -5.636
REMARK INTRA:                  -0.127
REMARK UNBOUND:                -0.127
REMARK SMILES O=C([O-])C=Cc1ccc(O)c(O)c1
REMARK SMILES IDX 6 1 13 2 7 3 11 4 8 5 9 6 5 7 4 8 2 9 1 10 3 11 12 12 10 14
REMARK H PARENT 12 13 10 15
REMARK Flexibility Score: inf
ROOT
ATOM      1  C   UNL     1      12.411   5.306 -18.939  1.00  0.00    -0.022 A 
ATOM      2  C   UNL     1      12.458   3.949 -18.563  1.00  0.00     0.058 A 
ATOM      3  C   UNL     1      11.596   5.679 -20.018  1.00  0.00     0.012 A 
ATOM      4  C   UNL     1      11.687   2.988 -19.232  1.00  0.00     0.157 A 
ATOM      5  C   UNL     1      10.824   4.730 -20.688  1.00  0.00     0.051 A 
ATOM      6  C   UNL     1      10.855   3.385 -20.305  1.00  0.00     0.157 A 
ENDROOT
BRANCH   1   7
ATOM      7  C   UNL     1      13.220   6.351 -18.264  1.00  0.00     0.010 C 
ATOM      8  C   UNL     1      14.532   6.526 -18.472  1.00  0.00     0.025 C 
BRANCH   8   9
ATOM      9  C   UNL     1      15.297   7.568 -17.770  1.00  0.00     0.064 C 
ATOM     10  O   UNL     1      14.847   8.743 -17.721  1.00  0.00    -0.545 OA
ATOM     11  O   UNL     1      16.512   7.277 -17.157  1.00  0.00    -0.545 OA
ENDBRANCH   8   9
ENDBRANCH   1   7
BRANCH   4  12
ATOM     12  O   UNL     1      11.785   1.662 -18.805  1.00  0.00    -0.504 OA
ATOM     13  H   UNL     1      12.019   0.889 -19.411  1.00  0.00     0.293 HD
ENDBRANCH   4  12
BRANCH   6  14
ATOM     14  O   UNL     1      10.054   2.486 -21.012  1.00  0.00    -0.504 OA
ATOM     15  H   UNL     1       9.807   2.595 -21.986  1.00  0.00     0.293 HD
ENDBRANCH   6  14
TORSDOF 4
ENDMDL
MODEL 3
REMARK VINA RESULT:    -4.783      2.306      2.883
REMARK INTER + INTRA:          -5.749
REMARK INTER:                  -5.628
REMARK INTRA:                  -0.120
REMARK UNBOUND:                -0.127
REMARK SMILES O=C([O-])C=Cc1ccc(O)c(O)c1
REMARK SMILES IDX 6 1 13 2 7 3 11 4 8 5 9 6 5 7 4 8 2 9 1 10 3 11 12 12 10 14
REMARK H PARENT 12 13 10 15
REMARK Flexibility Score: inf
ROOT
ATOM      1  C   UNL     1       9.378  -6.754  -8.283  1.00  0.00    -0.022 A 
ATOM      2  C   UNL     1      10.188  -5.991  -7.419  1.00  0.00     0.058 A 
ATOM      3  C   UNL     1       8.013  -6.882  -7.991  1.00  0.00     0.012 A 
ATOM      4  C   UNL     1       9.642  -5.347  -6.300  1.00  0.00     0.157 A 
ATOM      5  C   UNL     1       7.460  -6.241  -6.881  1.00  0.00     0.051 A 
ATOM      6  C   UNL     1       8.258  -5.469  -6.031  1.00  0.00     0.157 A 
ENDROOT
BRANCH   1   7
ATOM      7  C   UNL     1       9.921  -7.461  -9.470  1.00  0.00     0.010 C 
ATOM      8  C   UNL     1      10.383  -6.836 -10.561  1.00  0.00     0.025 C 
BRANCH   8   9
ATOM      9  C   UNL     1      10.902  -7.578 -11.721  1.00  0.00     0.064 C 
ATOM     10  O   UNL     1      10.102  -7.996 -12.598  1.00  0.00    -0.545 OA
ATOM     11  O   UNL     1      12.263  -7.824 -11.866  1.00  0.00    -0.545 OA
ENDBRANCH   8   9
ENDBRANCH   1   7
BRANCH   4  12
ATOM     12  O   UNL     1      10.505  -4.608  -5.488  1.00  0.00    -0.504 OA
ATOM     13  H   UNL     1      10.323  -3.664  -5.182  1.00  0.00     0.293 HD
ENDBRANCH   4  12
BRANCH   6  14
ATOM     14  O   UNL     1       7.643  -4.850  -4.941  1.00  0.00    -0.504 OA
ATOM     15  H   UNL     1       8.140  -4.509  -4.131  1.00  0.00     0.293 HD
ENDBRANCH   6  14
TORSDOF 4
ENDMDL
MODEL 4
REMARK VINA RESULT:    -4.775     15.354     16.077
REMARK INTER + INTRA:          -5.739
REMARK INTER:                  -5.600
REMARK INTRA:                  -0.139
REMARK UNBOUND:                -0.127
REMARK SMILES O=C([O-])C=Cc1ccc(O)c(O)c1
REMARK SMILES IDX 6 1 13 2 7 3 11 4 8 5 9 6 5 7 4 8 2 9 1 10 3 11 12 12 10 14
REMARK H PARENT 12 13 10 15
REMARK Flexibility Score: inf
ROOT
ATOM      1  C   UNL     1      10.866   4.129 -19.154  1.00  0.00    -0.022 A 
ATOM      2  C   UNL     1       9.601   4.323 -18.564  1.00  0.00     0.058 A 
ATOM      3  C   UNL     1      10.973   3.263 -20.250  1.00  0.00     0.012 A 
ATOM      4  C   UNL     1       8.462   3.685 -19.075  1.00  0.00     0.157 A 
ATOM      5  C   UNL     1       9.844   2.626 -20.768  1.00  0.00     0.051 A 
ATOM      6  C   UNL     1       8.584   2.830 -20.195  1.00  0.00     0.157 A 
ENDROOT
BRANCH   1   7
ATOM      7  C   UNL     1      12.096   4.776 -18.635  1.00  0.00     0.010 C 
ATOM      8  C   UNL     1      13.186   4.100 -18.247  1.00  0.00     0.025 C 
BRANCH   8   9
ATOM      9  C   UNL     1      14.381   4.783 -17.727  1.00  0.00     0.064 C 
ATOM     10  O   UNL     1      14.746   5.873 -18.240  1.00  0.00    -0.545 OA
ATOM     11  O   UNL     1      15.114   4.245 -16.674  1.00  0.00    -0.545 OA
ENDBRANCH   8   9
ENDBRANCH   1   7
BRANCH   4  12
ATOM     12  O   UNL     1       7.241   3.924 -18.439  1.00  0.00    -0.504 OA
ATOM     13  H   UNL     1       6.912   3.405 -17.638  1.00  0.00     0.293 HD
ENDBRANCH   4  12
BRANCH   6  14
ATOM     14  O   UNL     1       7.494   2.168 -20.763  1.00  0.00    -0.504 OA
ATOM     15  H   UNL     1       7.462   1.854 -21.723  1.00  0.00     0.293 HD
ENDBRANCH   6  14
TORSDOF 4
ENDMDL
MODEL 5
REMARK VINA RESULT:    -4.724      1.407      2.252
REMARK INTER + INTRA:          -5.680
REMARK INTER:                  -5.526
REMARK INTRA:                  -0.154
REMARK UNBOUND:                -0.127
REMARK SMILES O=C([O-])C=Cc1ccc(O)c(O)c1
REMARK SMILES IDX 6 1 13 2 7 3 11 4 8 5 9 6 5 7 4 8 2 9 1 10 3 11 12 12 10 14
REMARK H PARENT 12 13 10 15
REMARK Flexibility Score: inf
ROOT
ATOM      1  C   UNL     1       8.019  -6.854  -7.049  1.00  0.00    -0.022 A 
ATOM      2  C   UNL     1       7.603  -7.687  -5.992  1.00  0.00     0.058 A 
ATOM      3  C   UNL     1       8.418  -5.542  -6.759  1.00  0.00     0.012 A 
ATOM      4  C   UNL     1       7.610  -7.228  -4.668  1.00  0.00     0.157 A 
ATOM      5  C   UNL     1       8.431  -5.078  -5.442  1.00  0.00     0.051 A 
ATOM      6  C   UNL     1       8.035  -5.908  -4.389  1.00  0.00     0.157 A 
ENDROOT
BRANCH   1   7
ATOM      7  C   UNL     1       8.015  -7.299  -8.465  1.00  0.00     0.010 C 
ATOM      8  C   UNL     1       8.360  -6.512  -9.493  1.00  0.00     0.025 C 
BRANCH   8   9
ATOM      9  C   UNL     1       8.329  -6.992 -10.884  1.00  0.00     0.064 C 
ATOM     10  O   UNL     1       8.651  -8.183 -11.137  1.00  0.00    -0.545 OA
ATOM     11  O   UNL     1       7.949  -6.152 -11.925  1.00  0.00    -0.545 OA
ENDBRANCH   8   9
ENDBRANCH   1   7
BRANCH   4  12
ATOM     12  O   UNL     1       7.183  -8.109  -3.671  1.00  0.00    -0.504 OA
ATOM     13  H   UNL     1       7.757  -8.403  -2.894  1.00  0.00     0.293 HD
ENDBRANCH   4  12
BRANCH   6  14
ATOM     14  O   UNL     1       8.076  -5.385  -3.095  1.00  0.00    -0.504 OA
ATOM     15  H   UNL     1       7.785  -5.892  -2.271  1.00  0.00     0.293 HD
ENDBRANCH   6  14
TORSDOF 4
ENDMDL
MODEL 6
REMARK VINA RESULT:    -4.695      1.522      2.081
REMARK INTER + INTRA:          -5.645
REMARK INTER:                  -5.518
REMARK INTRA:                  -0.127
REMARK UNBOUND:                -0.127
REMARK SMILES O=C([O-])C=Cc1ccc(O)c(O)c1
REMARK SMILES IDX 6 1 13 2 7 3 11 4 8 5 9 6 5 7 4 8 2 9 1 10 3 11 12 12 10 14
REMARK H PARENT 12 13 10 15
REMARK Flexibility Score: inf
ROOT
ATOM      1  C   UNL     1       8.961  -6.616  -7.563  1.00  0.00    -0.022 A 
ATOM      2  C   UNL     1       8.628  -5.676  -6.568  1.00  0.00     0.058 A 
ATOM      3  C   UNL     1       8.658  -7.967  -7.342  1.00  0.00     0.012 A 
ATOM      4  C   UNL     1       7.982  -6.072  -5.389  1.00  0.00     0.157 A 
ATOM      5  C   UNL     1       8.012  -8.370  -6.172  1.00  0.00     0.051 A 
ATOM      6  C   UNL     1       7.665  -7.436  -5.191  1.00  0.00     0.157 A 
ENDROOT
BRANCH   1   7
ATOM      7  C   UNL     1       9.655  -6.239  -8.818  1.00  0.00     0.010 C 
ATOM      8  C   UNL     1      10.981  -6.068  -8.914  1.00  0.00     0.025 C 
BRANCH   8   9
ATOM      9  C   UNL     1      11.626  -5.681 -10.178  1.00  0.00     0.064 C 
ATOM     10  O   UNL     1      10.993  -4.977 -11.008  1.00  0.00    -0.545 OA
ATOM     11  O   UNL     1      12.926  -6.079 -10.472  1.00  0.00    -0.545 OA
ENDBRANCH   8   9
ENDBRANCH   1   7
BRANCH   4  12
ATOM     12  O   UNL     1       7.683  -5.084  -4.447  1.00  0.00    -0.504 OA
ATOM     13  H   UNL     1       7.877  -4.102  -4.577  1.00  0.00     0.293 HD
ENDBRANCH   4  12
BRANCH   6  14
ATOM     14  O   UNL     1       7.016  -7.903  -4.046  1.00  0.00    -0.504 OA
ATOM     15  H   UNL     1       6.140  -7.533  -3.703  1.00  0.00     0.293 HD
ENDBRANCH   6  14
TORSDOF 4
ENDMDL
MODEL 7
REMARK VINA RESULT:    -4.658     14.809     16.112
REMARK INTER + INTRA:          -5.601
REMARK INTER:                  -5.477
REMARK INTRA:                  -0.125
REMARK UNBOUND:                -0.127
REMARK SMILES O=C([O-])C=Cc1ccc(O)c(O)c1
REMARK SMILES IDX 6 1 13 2 7 3 11 4 8 5 9 6 5 7 4 8 2 9 1 10 3 11 12 12 10 14
REMARK H PARENT 12 13 10 15
REMARK Flexibility Score: inf
ROOT
ATOM      1  C   UNL     1      11.673   3.556 -18.376  1.00  0.00    -0.022 A 
ATOM      2  C   UNL     1      11.735   3.315 -19.762  1.00  0.00     0.058 A 
ATOM      3  C   UNL     1      10.418   3.581 -17.750  1.00  0.00     0.012 A 
ATOM      4  C   UNL     1      10.570   3.076 -20.505  1.00  0.00     0.157 A 
ATOM      5  C   UNL     1       9.254   3.341 -18.482  1.00  0.00     0.051 A 
ATOM      6  C   UNL     1       9.314   3.084 -19.855  1.00  0.00     0.157 A 
ENDROOT
BRANCH   1   7
ATOM      7  C   UNL     1      12.881   3.825 -17.557  1.00  0.00     0.010 C 
ATOM      8  C   UNL     1      13.839   4.694 -17.907  1.00  0.00     0.025 C 
BRANCH   8   9
ATOM      9  C   UNL     1      15.028   4.919 -17.070  1.00  0.00     0.064 C 
ATOM     10  O   UNL     1      15.428   4.006 -16.302  1.00  0.00    -0.545 OA
ATOM     11  O   UNL     1      15.719   6.126 -17.114  1.00  0.00    -0.545 OA
ENDBRANCH   8   9
ENDBRANCH   1   7
BRANCH   4  12
ATOM     12  O   UNL     1      10.707   2.845 -21.876  1.00  0.00    -0.504 OA
ATOM     13  H   UNL     1      11.498   2.376 -22.293  1.00  0.00     0.293 HD
ENDBRANCH   4  12
BRANCH   6  14
ATOM     14  O   UNL     1       8.113   2.847 -20.528  1.00  0.00    -0.504 OA
ATOM     15  H   UNL     1       7.223   3.232 -20.246  1.00  0.00     0.293 HD
ENDBRANCH   6  14
TORSDOF 4
ENDMDL
MODEL 8
REMARK VINA RESULT:    -4.625     15.115     17.511
REMARK INTER + INTRA:          -5.563
REMARK INTER:                  -5.435
REMARK INTRA:                  -0.128
REMARK UNBOUND:                -0.127
REMARK SMILES O=C([O-])C=Cc1ccc(O)c(O)c1
REMARK SMILES IDX 6 1 13 2 7 3 11 4 8 5 9 6 5 7 4 8 2 9 1 10 3 11 12 12 10 14
REMARK H PARENT 12 13 10 15
REMARK Flexibility Score: inf
ROOT
ATOM      1  C   UNL     1      11.352   5.857 -19.347  1.00  0.00    -0.022 A 
ATOM      2  C   UNL     1      10.937   4.983 -20.371  1.00  0.00     0.058 A 
ATOM      3  C   UNL     1      11.896   5.314 -18.175  1.00  0.00     0.012 A 
ATOM      4  C   UNL     1      11.086   3.596 -20.239  1.00  0.00     0.157 A 
ATOM      5  C   UNL     1      12.051   3.933 -18.036  1.00  0.00     0.051 A 
ATOM      6  C   UNL     1      11.656   3.064 -19.058  1.00  0.00     0.157 A 
ENDROOT
BRANCH   1   7
ATOM      7  C   UNL     1      11.200   7.330 -19.444  1.00  0.00     0.010 C 
ATOM      8  C   UNL     1      10.122   7.998 -19.009  1.00  0.00     0.025 C 
BRANCH   8   9
ATOM      9  C   UNL     1      10.009   9.459 -19.137  1.00  0.00     0.064 C 
ATOM     10  O   UNL     1       9.001   9.956 -19.704  1.00  0.00    -0.545 OA
ATOM     11  O   UNL     1      10.998  10.302 -18.639  1.00  0.00    -0.545 OA
ENDBRANCH   8   9
ENDBRANCH   1   7
BRANCH   4  12
ATOM     12  O   UNL     1      10.651   2.791 -21.294  1.00  0.00    -0.504 OA
ATOM     13  H   UNL     1      10.616   1.782 -21.257  1.00  0.00     0.293 HD
ENDBRANCH   4  12
BRANCH   6  14
ATOM     14  O   UNL     1      11.843   1.695 -18.859  1.00  0.00    -0.504 OA
ATOM     15  H   UNL     1      12.521   1.139 -19.361  1.00  0.00     0.293 HD
ENDBRANCH   6  14
TORSDOF 4
ENDMDL
MODEL 9
REMARK VINA RESULT:    -4.546     21.851     23.078
REMARK INTER + INTRA:          -5.470
REMARK INTER:                  -5.348
REMARK INTRA:                  -0.122
REMARK UNBOUND:                -0.127
REMARK SMILES O=C([O-])C=Cc1ccc(O)c(O)c1
REMARK SMILES IDX 6 1 13 2 7 3 11 4 8 5 9 6 5 7 4 8 2 9 1 10 3 11 12 12 10 14
REMARK H PARENT 12 13 10 15
REMARK Flexibility Score: inf
ROOT
ATOM      1  C   UNL     1      19.994   7.756 -21.453  1.00  0.00    -0.022 A 
ATOM      2  C   UNL     1      18.949   7.381 -22.320  1.00  0.00     0.058 A 
ATOM      3  C   UNL     1      19.687   8.518 -20.317  1.00  0.00     0.012 A 
ATOM      4  C   UNL     1      17.621   7.737 -22.046  1.00  0.00     0.157 A 
ATOM      5  C   UNL     1      18.367   8.874 -20.034  1.00  0.00     0.051 A 
ATOM      6  C   UNL     1      17.326   8.489 -20.884  1.00  0.00     0.157 A 
ENDROOT
BRANCH   1   7
ATOM      7  C   UNL     1      21.412   7.410 -21.715  1.00  0.00     0.010 C 
ATOM      8  C   UNL     1      21.917   6.177 -21.566  1.00  0.00     0.025 C 
BRANCH   8   9
ATOM      9  C   UNL     1      23.335   5.881 -21.825  1.00  0.00     0.064 C 
ATOM     10  O   UNL     1      24.125   5.728 -20.857  1.00  0.00    -0.545 OA
ATOM     11  O   UNL     1      23.818   5.766 -23.125  1.00  0.00    -0.545 OA
ENDBRANCH   8   9
ENDBRANCH   1   7
BRANCH   4  12
ATOM     12  O   UNL     1      16.637   7.331 -22.951  1.00  0.00    -0.504 OA
ATOM     13  H   UNL     1      16.824   7.071 -23.908  1.00  0.00     0.293 HD
ENDBRANCH   4  12
BRANCH   6  14
ATOM     14  O   UNL     1      16.028   8.872 -20.542  1.00  0.00    -0.504 OA
ATOM     15  H   UNL     1      15.276   8.978 -21.208  1.00  0.00     0.293 HD
ENDBRANCH   6  14
TORSDOF 4
ENDMDL
