MODEL 1
REMARK VINA RESULT:    -4.134      0.000      0.000
REMARK INTER + INTRA:          -8.077
REMARK INTER:                  -7.034
REMARK INTRA:                  -1.044
REMARK UNBOUND:                -1.044
REMARK SMILES CCCCCCCCCCCCCC(=O)[O-]
REMARK SMILES IDX 8 1 9 2 10 3 11 4 12 5 13 6 14 7 15 8 16 9 7 10 6 11 5 12
REMARK SMILES IDX 4 13 3 14 2 15 1 16
REMARK H PARENT
REMARK Flexibility Score: inf
ROOT
ATOM      1  C   UNL     1     130.042 137.136 130.761  1.00  0.00     0.000 C 
ENDROOT
BRANCH   1   2
ATOM      2  C   UNL     1     129.873 135.675 130.304  1.00  0.00     0.000 C 
BRANCH   2   3
ATOM      3  C   UNL     1     131.214 134.966 130.054  1.00  0.00     0.000 C 
BRANCH   3   4
ATOM      4  C   UNL     1     131.049 133.454 129.827  1.00  0.00     0.000 C 
BRANCH   4   5
ATOM      5  C   UNL     1     130.529 133.121 128.418  1.00  0.00     0.006 C 
BRANCH   5   6
ATOM      6  C   UNL     1     130.013 131.678 128.317  1.00  0.00     0.053 C 
BRANCH   6   7
ATOM      7  C   UNL     1     128.717 131.599 127.571  1.00  0.00     0.041 C 
ATOM      8  O   UNL     1     127.638 131.904 128.144  1.00  0.00    -0.550 OA
ATOM      9  O   UNL     1     128.704 131.219 126.236  1.00  0.00    -0.550 OA
ENDBRANCH   6   7
ENDBRANCH   5   6
ENDBRANCH   4   5
ENDBRANCH   3   4
ENDBRANCH   2   3
ENDBRANCH   1   2
BRANCH   1  10
ATOM     10  C   UNL     1     131.496 137.632 130.859  1.00  0.00     0.000 C 
BRANCH  10  11
ATOM     11  C   UNL     1     131.972 137.813 132.310  1.00  0.00    -0.000 C 
BRANCH  11  12
ATOM     12  C   UNL     1     133.188 136.932 132.656  1.00  0.00    -0.000 C 
BRANCH  12  13
ATOM     13  C   UNL     1     132.945 135.877 133.754  1.00  0.00    -0.000 C 
BRANCH  13  14
ATOM     14  C   UNL     1     132.585 134.467 133.241  1.00  0.00    -0.000 C 
BRANCH  14  15
ATOM     15  C   UNL     1     132.170 133.469 134.336  1.00  0.00    -0.003 C 
ATOM     16  C   UNL     1     130.998 132.581 133.918  1.00  0.00     0.004 C 
ENDBRANCH  14  15
ENDBRANCH  13  14
ENDBRANCH  12  13
ENDBRANCH  11  12
ENDBRANCH  10  11
ENDBRANCH   1  10
TORSDOF 12
ENDMDL
MODEL 2
REMARK VINA RESULT:    -4.004      2.838      5.897
REMARK INTER + INTRA:          -7.856
REMARK INTER:                  -6.840
REMARK INTRA:                  -1.016
REMARK UNBOUND:                -1.044
REMARK SMILES CCCCCCCCCCCCCC(=O)[O-]
REMARK SMILES IDX 8 1 9 2 10 3 11 4 12 5 13 6 14 7 15 8 16 9 7 10 6 11 5 12
REMARK SMILES IDX 4 13 3 14 2 15 1 16
REMARK H PARENT
REMARK Flexibility Score: inf
ROOT
ATOM      1  C   UNL     1     130.417 136.968 130.478  1.00  0.00     0.000 C 
ENDROOT
BRANCH   1   2
ATOM      2  C   UNL     1     130.931 137.940 131.555  1.00  0.00     0.000 C 
BRANCH   2   3
ATOM      3  C   UNL     1     132.445 137.822 131.797  1.00  0.00     0.000 C 
BRANCH   3   4
ATOM      4  C   UNL     1     132.780 137.323 133.212  1.00  0.00     0.000 C 
BRANCH   4   5
ATOM      5  C   UNL     1     133.481 135.953 133.206  1.00  0.00     0.006 C 
BRANCH   5   6
ATOM      6  C   UNL     1     132.758 134.929 134.092  1.00  0.00     0.053 C 
BRANCH   6   7
ATOM      7  C   UNL     1     132.706 133.575 133.453  1.00  0.00     0.041 C 
ATOM      8  O   UNL     1     131.757 132.788 133.714  1.00  0.00    -0.550 OA
ATOM      9  O   UNL     1     133.687 133.194 132.548  1.00  0.00    -0.550 OA
ENDBRANCH   6   7
ENDBRANCH   5   6
ENDBRANCH   4   5
ENDBRANCH   3   4
ENDBRANCH   2   3
ENDBRANCH   1   2
BRANCH   1  10
ATOM     10  C   UNL     1     130.520 135.473 130.834  1.00  0.00     0.000 C 
BRANCH  10  11
ATOM     11  C   UNL     1     131.064 134.617 129.679  1.00  0.00    -0.000 C 
BRANCH  11  12
ATOM     12  C   UNL     1     131.260 133.140 130.069  1.00  0.00    -0.000 C 
BRANCH  12  13
ATOM     13  C   UNL     1     131.203 132.137 128.898  1.00  0.00    -0.000 C 
BRANCH  13  14
ATOM     14  C   UNL     1     129.893 131.331 128.788  1.00  0.00    -0.000 C 
BRANCH  14  15
ATOM     15  C   UNL     1     128.836 131.942 127.852  1.00  0.00    -0.003 C 
ATOM     16  C   UNL     1     128.781 131.257 126.487  1.00  0.00     0.004 C 
ENDBRANCH  14  15
ENDBRANCH  13  14
ENDBRANCH  12  13
ENDBRANCH  11  12
ENDBRANCH  10  11
ENDBRANCH   1  10
TORSDOF 12
ENDMDL
MODEL 3
REMARK VINA RESULT:    -3.898     10.852     14.291
REMARK INTER + INTRA:          -7.676
REMARK INTER:                  -6.522
REMARK INTRA:                  -1.154
REMARK UNBOUND:                -1.044
REMARK SMILES CCCCCCCCCCCCCC(=O)[O-]
REMARK SMILES IDX 8 1 9 2 10 3 11 4 12 5 13 6 14 7 15 8 16 9 7 10 6 11 5 12
REMARK SMILES IDX 4 13 3 14 2 15 1 16
REMARK H PARENT
REMARK Flexibility Score: inf
ROOT
ATOM      1  C   UNL     1     122.382 122.014 132.165  1.00  0.00     0.000 C 
ENDROOT
BRANCH   1   2
ATOM      2  C   UNL     1     122.457 122.496 133.626  1.00  0.00     0.000 C 
BRANCH   2   3
ATOM      3  C   UNL     1     123.345 121.602 134.507  1.00  0.00     0.000 C 
BRANCH   3   4
ATOM      4  C   UNL     1     124.453 122.394 135.223  1.00  0.00     0.000 C 
BRANCH   4   5
ATOM      5  C   UNL     1     125.312 123.221 134.249  1.00  0.00     0.006 C 
BRANCH   5   6
ATOM      6  C   UNL     1     125.308 124.716 134.601  1.00  0.00     0.053 C 
BRANCH   6   7
ATOM      7  C   UNL     1     126.642 125.174 135.104  1.00  0.00     0.041 C 
ATOM      8  O   UNL     1     126.859 126.400 135.295  1.00  0.00    -0.550 OA
ATOM      9  O   UNL     1     127.635 124.247 135.390  1.00  0.00    -0.550 OA
ENDBRANCH   6   7
ENDBRANCH   5   6
ENDBRANCH   4   5
ENDBRANCH   3   4
ENDBRANCH   2   3
ENDBRANCH   1   2
BRANCH   1  10
ATOM     10  C   UNL     1     123.350 120.875 131.796  1.00  0.00     0.000 C 
BRANCH  10  11
ATOM     11  C   UNL     1     124.277 121.232 130.622  1.00  0.00    -0.000 C 
BRANCH  11  12
ATOM     12  C   UNL     1     124.523 122.746 130.493  1.00  0.00    -0.000 C 
BRANCH  12  13
ATOM     13  C   UNL     1     124.614 123.277 129.048  1.00  0.00    -0.000 C 
BRANCH  13  14
ATOM     14  C   UNL     1     125.844 122.802 128.249  1.00  0.00    -0.000 C 
BRANCH  14  15
ATOM     15  C   UNL     1     126.636 123.923 127.555  1.00  0.00    -0.003 C 
ATOM     16  C   UNL     1     126.498 125.273 128.260  1.00  0.00     0.004 C 
ENDBRANCH  14  15
ENDBRANCH  13  14
ENDBRANCH  12  13
ENDBRANCH  11  12
ENDBRANCH  10  11
ENDBRANCH   1  10
TORSDOF 12
ENDMDL
MODEL 4
REMARK VINA RESULT:    -3.896      1.722      2.992
REMARK INTER + INTRA:          -7.673
REMARK INTER:                  -6.828
REMARK INTRA:                  -0.846
REMARK UNBOUND:                -1.044
REMARK SMILES CCCCCCCCCCCCCC(=O)[O-]
REMARK SMILES IDX 8 1 9 2 10 3 11 4 12 5 13 6 14 7 15 8 16 9 7 10 6 11 5 12
REMARK SMILES IDX 4 13 3 14 2 15 1 16
REMARK H PARENT
REMARK Flexibility Score: inf
ROOT
ATOM      1  C   UNL     1     132.569 135.369 131.637  1.00  0.00     0.000 C 
ENDROOT
BRANCH   1   2
ATOM      2  C   UNL     1     131.344 136.088 131.045  1.00  0.00     0.000 C 
BRANCH   2   3
ATOM      3  C   UNL     1     130.471 135.168 130.174  1.00  0.00     0.000 C 
BRANCH   3   4
ATOM      4  C   UNL     1     131.118 133.794 129.934  1.00  0.00     0.000 C 
BRANCH   4   5
ATOM      5  C   UNL     1     130.945 133.304 128.485  1.00  0.00     0.006 C 
BRANCH   5   6
ATOM      6  C   UNL     1     129.996 132.101 128.391  1.00  0.00     0.053 C 
BRANCH   6   7
ATOM      7  C   UNL     1     128.713 132.454 127.704  1.00  0.00     0.041 C 
ATOM      8  O   UNL     1     128.013 133.413 128.124  1.00  0.00    -0.550 OA
ATOM      9  O   UNL     1     128.305 131.745 126.582  1.00  0.00    -0.550 OA
ENDBRANCH   6   7
ENDBRANCH   5   6
ENDBRANCH   4   5
ENDBRANCH   3   4
ENDBRANCH   2   3
ENDBRANCH   1   2
BRANCH   1  10
ATOM     10  C   UNL     1     132.515 135.116 133.156  1.00  0.00     0.000 C 
BRANCH  10  11
ATOM     11  C   UNL     1     132.651 133.628 133.521  1.00  0.00    -0.000 C 
BRANCH  11  12
ATOM     12  C   UNL     1     131.298 132.895 133.559  1.00  0.00    -0.000 C 
BRANCH  12  13
ATOM     13  C   UNL     1     130.570 132.926 134.918  1.00  0.00    -0.000 C 
BRANCH  13  14
ATOM     14  C   UNL     1     129.331 132.013 135.020  1.00  0.00    -0.000 C 
BRANCH  14  15
ATOM     15  C   UNL     1     129.459 130.863 136.035  1.00  0.00    -0.003 C 
ATOM     16  C   UNL     1     128.354 130.877 137.092  1.00  0.00     0.004 C 
ENDBRANCH  14  15
ENDBRANCH  13  14
ENDBRANCH  12  13
ENDBRANCH  11  12
ENDBRANCH  10  11
ENDBRANCH   1  10
TORSDOF 12
ENDMDL
MODEL 5
REMARK VINA RESULT:    -3.896      1.223      3.278
REMARK INTER + INTRA:          -7.673
REMARK INTER:                  -6.469
REMARK INTRA:                  -1.203
REMARK UNBOUND:                -1.044
REMARK SMILES CCCCCCCCCCCCCC(=O)[O-]
REMARK SMILES IDX 8 1 9 2 10 3 11 4 12 5 13 6 14 7 15 8 16 9 7 10 6 11 5 12
REMARK SMILES IDX 4 13 3 14 2 15 1 16
REMARK H PARENT
REMARK Flexibility Score: inf
ROOT
ATOM      1  C   UNL     1     132.383 133.276 133.454  1.00  0.00     0.000 C 
ENDROOT
BRANCH   1   2
ATOM      2  C   UNL     1     131.368 133.671 132.366  1.00  0.00     0.000 C 
BRANCH   2   3
ATOM      3  C   UNL     1     131.995 133.762 130.965  1.00  0.00     0.000 C 
BRANCH   3   4
ATOM      4  C   UNL     1     130.971 134.143 129.883  1.00  0.00     0.000 C 
BRANCH   4   5
ATOM      5  C   UNL     1     131.087 133.267 128.623  1.00  0.00     0.006 C 
BRANCH   5   6
ATOM      6  C   UNL     1     130.762 131.794 128.910  1.00  0.00     0.053 C 
BRANCH   6   7
ATOM      7  C   UNL     1     129.504 131.356 128.224  1.00  0.00     0.041 C 
ATOM      8  O   UNL     1     128.992 132.074 127.325  1.00  0.00    -0.550 OA
ATOM      9  O   UNL     1     128.916 130.144 128.555  1.00  0.00    -0.550 OA
ENDBRANCH   6   7
ENDBRANCH   5   6
ENDBRANCH   4   5
ENDBRANCH   3   4
ENDBRANCH   2   3
ENDBRANCH   1   2
BRANCH   1  10
ATOM     10  C   UNL     1     133.850 133.631 133.149  1.00  0.00     0.000 C 
BRANCH  10  11
ATOM     11  C   UNL     1     134.379 134.788 134.012  1.00  0.00    -0.000 C 
BRANCH  11  12
ATOM     12  C   UNL     1     133.260 135.712 134.526  1.00  0.00    -0.000 C 
BRANCH  12  13
ATOM     13  C   UNL     1     133.239 137.126 133.909  1.00  0.00    -0.000 C 
BRANCH  13  14
ATOM     14  C   UNL     1     133.039 137.171 132.380  1.00  0.00    -0.000 C 
BRANCH  14  15
ATOM     15  C   UNL     1     131.929 138.125 131.903  1.00  0.00    -0.003 C 
ATOM     16  C   UNL     1     130.872 137.426 131.049  1.00  0.00     0.004 C 
ENDBRANCH  14  15
ENDBRANCH  13  14
ENDBRANCH  12  13
ENDBRANCH  11  12
ENDBRANCH  10  11
ENDBRANCH   1  10
TORSDOF 12
ENDMDL
MODEL 6
REMARK VINA RESULT:    -3.852     11.568     14.421
REMARK INTER + INTRA:          -7.598
REMARK INTER:                  -6.266
REMARK INTRA:                  -1.332
REMARK UNBOUND:                -1.044
REMARK SMILES CCCCCCCCCCCCCC(=O)[O-]
REMARK SMILES IDX 8 1 9 2 10 3 11 4 12 5 13 6 14 7 15 8 16 9 7 10 6 11 5 12
REMARK SMILES IDX 4 13 3 14 2 15 1 16
REMARK H PARENT
REMARK Flexibility Score: inf
ROOT
ATOM      1  C   UNL     1     123.921 120.095 131.529  1.00  0.00     0.000 C 
ENDROOT
BRANCH   1   2
ATOM      2  C   UNL     1     124.790 121.334 131.244  1.00  0.00     0.000 C 
BRANCH   2   3
ATOM      3  C   UNL     1     123.962 122.576 130.874  1.00  0.00     0.000 C 
BRANCH   3   4
ATOM      4  C   UNL     1     124.647 123.446 129.808  1.00  0.00     0.000 C 
BRANCH   4   5
ATOM      5  C   UNL     1     125.225 122.616 128.648  1.00  0.00     0.006 C 
BRANCH   5   6
ATOM      6  C   UNL     1     125.834 123.500 127.550  1.00  0.00     0.053 C 
BRANCH   6   7
ATOM      7  C   UNL     1     127.013 124.278 128.050  1.00  0.00     0.041 C 
ATOM      8  O   UNL     1     128.140 123.725 128.148  1.00  0.00    -0.550 OA
ATOM      9  O   UNL     1     126.873 125.619 128.380  1.00  0.00    -0.550 OA
ENDBRANCH   6   7
ENDBRANCH   5   6
ENDBRANCH   4   5
ENDBRANCH   3   4
ENDBRANCH   2   3
ENDBRANCH   1   2
BRANCH   1  10
ATOM     10  C   UNL     1     122.425 120.377 131.758  1.00  0.00     0.000 C 
BRANCH  10  11
ATOM     11  C   UNL     1     121.926 119.893 133.129  1.00  0.00    -0.000 C 
BRANCH  11  12
ATOM     12  C   UNL     1     122.878 120.270 134.280  1.00  0.00    -0.000 C 
BRANCH  12  13
ATOM     13  C   UNL     1     122.534 121.581 135.016  1.00  0.00    -0.000 C 
BRANCH  13  14
ATOM     14  C   UNL     1     123.241 122.841 134.478  1.00  0.00    -0.000 C 
BRANCH  14  15
ATOM     15  C   UNL     1     124.773 122.832 134.621  1.00  0.00    -0.003 C 
ATOM     16  C   UNL     1     125.235 122.686 136.071  1.00  0.00     0.004 C 
ENDBRANCH  14  15
ENDBRANCH  13  14
ENDBRANCH  12  13
ENDBRANCH  11  12
ENDBRANCH  10  11
ENDBRANCH   1  10
TORSDOF 12
ENDMDL
MODEL 7
REMARK VINA RESULT:    -3.843      2.792      5.874
REMARK INTER + INTRA:          -7.582
REMARK INTER:                  -6.523
REMARK INTRA:                  -1.058
REMARK UNBOUND:                -1.044
REMARK SMILES CCCCCCCCCCCCCC(=O)[O-]
REMARK SMILES IDX 8 1 9 2 10 3 11 4 12 5 13 6 14 7 15 8 16 9 7 10 6 11 5 12
REMARK SMILES IDX 4 13 3 14 2 15 1 16
REMARK H PARENT
REMARK Flexibility Score: inf
ROOT
ATOM      1  C   UNL     1     133.383 134.849 131.879  1.00  0.00     0.000 C 
ENDROOT
BRANCH   1   2
ATOM      2  C   UNL     1     133.648 134.229 133.264  1.00  0.00     0.000 C 
BRANCH   2   3
ATOM      3  C   UNL     1     132.432 134.312 134.201  1.00  0.00     0.000 C 
BRANCH   3   4
ATOM      4  C   UNL     1     131.913 132.926 134.619  1.00  0.00     0.000 C 
BRANCH   4   5
ATOM      5  C   UNL     1     130.487 132.650 134.109  1.00  0.00     0.006 C 
BRANCH   5   6
ATOM      6  C   UNL     1     129.778 131.565 134.932  1.00  0.00     0.053 C 
BRANCH   6   7
ATOM      7  C   UNL     1     130.141 130.187 134.471  1.00  0.00     0.041 C 
ATOM      8  O   UNL     1     130.934 129.481 135.149  1.00  0.00    -0.550 OA
ATOM      9  O   UNL     1     129.582 129.671 133.310  1.00  0.00    -0.550 OA
ENDBRANCH   6   7
ENDBRANCH   5   6
ENDBRANCH   4   5
ENDBRANCH   3   4
ENDBRANCH   2   3
ENDBRANCH   1   2
BRANCH   1  10
ATOM     10  C   UNL     1     131.959 135.394 131.663  1.00  0.00     0.000 C 
BRANCH  10  11
ATOM     11  C   UNL     1     131.198 134.658 130.548  1.00  0.00    -0.000 C 
BRANCH  11  12
ATOM     12  C   UNL     1     131.428 133.135 130.571  1.00  0.00    -0.000 C 
BRANCH  12  13
ATOM     13  C   UNL     1     131.386 132.443 129.194  1.00  0.00    -0.000 C 
BRANCH  13  14
ATOM     14  C   UNL     1     130.123 132.724 128.355  1.00  0.00    -0.000 C 
BRANCH  14  15
ATOM     15  C   UNL     1     129.202 131.509 128.147  1.00  0.00    -0.003 C 
ATOM     16  C   UNL     1     128.848 131.276 126.679  1.00  0.00     0.004 C 
ENDBRANCH  14  15
ENDBRANCH  13  14
ENDBRANCH  12  13
ENDBRANCH  11  12
ENDBRANCH  10  11
ENDBRANCH   1  10
TORSDOF 12
ENDMDL
MODEL 8
REMARK VINA RESULT:    -3.839     10.153     13.102
REMARK INTER + INTRA:          -7.576
REMARK INTER:                  -6.639
REMARK INTRA:                  -0.936
REMARK UNBOUND:                -1.044
REMARK SMILES CCCCCCCCCCCCCC(=O)[O-]
REMARK SMILES IDX 8 1 9 2 10 3 11 4 12 5 13 6 14 7 15 8 16 9 7 10 6 11 5 12
REMARK SMILES IDX 4 13 3 14 2 15 1 16
REMARK H PARENT
REMARK Flexibility Score: inf
ROOT
ATOM      1  C   UNL     1     123.274 121.471 132.295  1.00  0.00     0.000 C 
ENDROOT
BRANCH   1   2
ATOM      2  C   UNL     1     124.371 120.730 131.508  1.00  0.00     0.000 C 
BRANCH   2   3
ATOM      3  C   UNL     1     124.706 121.404 130.166  1.00  0.00     0.000 C 
BRANCH   3   4
ATOM      4  C   UNL     1     124.560 122.933 130.221  1.00  0.00     0.000 C 
BRANCH   4   5
ATOM      5  C   UNL     1     124.540 123.576 128.822  1.00  0.00     0.006 C 
BRANCH   5   6
ATOM      6  C   UNL     1     125.814 123.264 128.024  1.00  0.00     0.053 C 
BRANCH   6   7
ATOM      7  C   UNL     1     126.569 124.508 127.668  1.00  0.00     0.041 C 
ATOM      8  O   UNL     1     127.048 124.648 126.512  1.00  0.00    -0.550 OA
ATOM      9  O   UNL     1     126.716 125.524 128.602  1.00  0.00    -0.550 OA
ENDBRANCH   6   7
ENDBRANCH   5   6
ENDBRANCH   4   5
ENDBRANCH   3   4
ENDBRANCH   2   3
ENDBRANCH   1   2
BRANCH   1  10
ATOM     10  C   UNL     1     123.182 121.117 133.791  1.00  0.00     0.000 C 
BRANCH  10  11
ATOM     11  C   UNL     1     123.275 122.349 134.706  1.00  0.00    -0.000 C 
BRANCH  11  12
ATOM     12  C   UNL     1     124.300 123.386 134.212  1.00  0.00    -0.000 C 
BRANCH  12  13
ATOM     13  C   UNL     1     125.753 123.145 134.670  1.00  0.00    -0.000 C 
BRANCH  13  14
ATOM     14  C   UNL     1     126.564 124.420 134.978  1.00  0.00    -0.000 C 
BRANCH  14  15
ATOM     15  C   UNL     1     125.808 125.739 134.744  1.00  0.00    -0.003 C 
ATOM     16  C   UNL     1     126.294 126.491 133.505  1.00  0.00     0.004 C 
ENDBRANCH  14  15
ENDBRANCH  13  14
ENDBRANCH  12  13
ENDBRANCH  11  12
ENDBRANCH  10  11
ENDBRANCH   1  10
TORSDOF 12
ENDMDL
MODEL 9
REMARK VINA RESULT:    -3.824     12.503     15.734
REMARK INTER + INTRA:          -7.551
REMARK INTER:                  -6.470
REMARK INTRA:                  -1.081
REMARK UNBOUND:                -1.044
REMARK SMILES CCCCCCCCCCCCCC(=O)[O-]
REMARK SMILES IDX 8 1 9 2 10 3 11 4 12 5 13 6 14 7 15 8 16 9 7 10 6 11 5 12
REMARK SMILES IDX 4 13 3 14 2 15 1 16
REMARK H PARENT
REMARK Flexibility Score: inf
ROOT
ATOM      1  C   UNL     1     122.101 121.465 133.541  1.00  0.00     0.000 C 
ENDROOT
BRANCH   1   2
ATOM      2  C   UNL     1     122.917 120.189 133.818  1.00  0.00     0.000 C 
BRANCH   2   3
ATOM      3  C   UNL     1     122.148 118.900 133.482  1.00  0.00     0.000 C 
BRANCH   3   4
ATOM      4  C   UNL     1     122.706 118.186 132.239  1.00  0.00     0.000 C 
BRANCH   4   5
ATOM      5  C   UNL     1     124.231 118.347 132.100  1.00  0.00     0.006 C 
BRANCH   5   6
ATOM      6  C   UNL     1     124.653 118.634 130.652  1.00  0.00     0.053 C 
BRANCH   6   7
ATOM      7  C   UNL     1     126.141 118.724 130.512  1.00  0.00     0.041 C 
ATOM      8  O   UNL     1     126.654 119.589 129.753  1.00  0.00    -0.550 OA
ATOM      9  O   UNL     1     126.962 117.875 131.241  1.00  0.00    -0.550 OA
ENDBRANCH   6   7
ENDBRANCH   5   6
ENDBRANCH   4   5
ENDBRANCH   3   4
ENDBRANCH   2   3
ENDBRANCH   1   2
BRANCH   1  10
ATOM     10  C   UNL     1     122.449 122.198 132.232  1.00  0.00     0.000 C 
BRANCH  10  11
ATOM     11  C   UNL     1     123.958 122.224 131.941  1.00  0.00    -0.000 C 
BRANCH  11  12
ATOM     12  C   UNL     1     124.281 122.123 130.439  1.00  0.00    -0.000 C 
BRANCH  12  13
ATOM     13  C   UNL     1     124.632 123.458 129.750  1.00  0.00    -0.000 C 
BRANCH  13  14
ATOM     14  C   UNL     1     125.200 123.331 128.322  1.00  0.00    -0.000 C 
BRANCH  14  15
ATOM     15  C   UNL     1     126.333 124.317 127.988  1.00  0.00    -0.003 C 
ATOM     16  C   UNL     1     127.623 123.617 127.559  1.00  0.00     0.004 C 
ENDBRANCH  14  15
ENDBRANCH  13  14
ENDBRANCH  12  13
ENDBRANCH  11  12
ENDBRANCH  10  11
ENDBRANCH   1  10
TORSDOF 12
ENDMDL
