MODEL 1
REMARK VINA RESULT:    -3.681      0.000      0.000
REMARK INTER + INTRA:          -8.603
REMARK INTER:                  -6.910
REMARK INTRA:                  -1.694
REMARK UNBOUND:                -1.694
REMARK SMILES CCCCCCCCC=CCCCCCCCC(=O)[O-]
REMARK SMILES IDX 10 1 9 2 11 3 12 4 13 5 14 6 15 7 16 8 17 9 18 10 19 11
REMARK SMILES IDX 20 12 8 13 7 14 6 15 5 16 4 17 3 18 2 19 1 20
REMARK H PARENT
REMARK Flexibility Score: inf
ROOT
ATOM      1  C   UNL     1      -0.480   7.960   3.990  1.00  0.00    -0.031 C 
ATOM      2  C   UNL     1       0.467   7.003   4.016  1.00  0.00    -0.031 C 
ENDROOT
BRANCH   1   3
ATOM      3  C   UNL     1      -0.488   9.185   4.870  1.00  0.00     0.027 C 
BRANCH   3   4
ATOM      4  C   UNL     1      -1.897   9.780   5.010  1.00  0.00     0.004 C 
BRANCH   4   5
ATOM      5  C   UNL     1      -2.614   9.893   3.656  1.00  0.00     0.000 C 
BRANCH   5   6
ATOM      6  C   UNL     1      -4.097   9.525   3.786  1.00  0.00     0.000 C 
BRANCH   6   7
ATOM      7  C   UNL     1      -4.262   8.079   4.278  1.00  0.00     0.000 C 
BRANCH   7   8
ATOM      8  C   UNL     1      -4.483   7.075   3.132  1.00  0.00     0.006 C 
BRANCH   8   9
ATOM      9  C   UNL     1      -3.327   6.077   2.944  1.00  0.00     0.053 C 
BRANCH   9  10
ATOM     10  C   UNL     1      -3.760   4.651   3.107  1.00  0.00     0.041 C 
ATOM     11  O   UNL     1      -2.909   3.748   3.319  1.00  0.00    -0.550 OA
ATOM     12  O   UNL     1      -5.110   4.324   3.058  1.00  0.00    -0.550 OA
ENDBRANCH   9  10
ENDBRANCH   8   9
ENDBRANCH   7   8
ENDBRANCH   6   7
ENDBRANCH   5   6
ENDBRANCH   4   5
ENDBRANCH   3   4
ENDBRANCH   1   3
BRANCH   2  13
ATOM     13  C   UNL     1       1.613   6.953   4.998  1.00  0.00     0.027 C 
BRANCH  13  14
ATOM     14  C   UNL     1       1.859   5.531   5.531  1.00  0.00     0.004 C 
BRANCH  14  15
ATOM     15  C   UNL     1       1.282   4.412   4.644  1.00  0.00     0.000 C 
BRANCH  15  16
ATOM     16  C   UNL     1       0.664   3.265   5.456  1.00  0.00     0.000 C 
BRANCH  16  17
ATOM     17  C   UNL     1       1.043   3.377   6.939  1.00  0.00    -0.000 C 
BRANCH  17  18
ATOM     18  C   UNL     1       1.772   2.116   7.418  1.00  0.00    -0.000 C 
BRANCH  18  19
ATOM     19  C   UNL     1       3.235   2.421   7.757  1.00  0.00    -0.003 C 
ATOM     20  C   UNL     1       4.126   2.296   6.525  1.00  0.00     0.004 C 
ENDBRANCH  18  19
ENDBRANCH  17  18
ENDBRANCH  16  17
ENDBRANCH  15  16
ENDBRANCH  14  15
ENDBRANCH  13  14
ENDBRANCH   2  13
TORSDOF 15
ENDMDL
MODEL 2
REMARK VINA RESULT:    -3.584      3.770      7.167
REMARK INTER + INTRA:          -8.420
REMARK INTER:                  -5.224
REMARK INTRA:                  -3.196
REMARK UNBOUND:                -1.694
REMARK SMILES CCCCCCCCC=CCCCCCCCC(=O)[O-]
REMARK SMILES IDX 10 1 9 2 11 3 12 4 13 5 14 6 15 7 16 8 17 9 18 10 19 11
REMARK SMILES IDX 20 12 8 13 7 14 6 15 5 16 4 17 3 18 2 19 1 20
REMARK H PARENT
REMARK Flexibility Score: inf
ROOT
ATOM      1  C   UNL     1      -1.365   5.529   1.379  1.00  0.00    -0.031 C 
ATOM      2  C   UNL     1      -2.428   6.202   0.898  1.00  0.00    -0.031 C 
ENDROOT
BRANCH   1   3
ATOM      3  C   UNL     1      -1.189   5.116   2.819  1.00  0.00     0.027 C 
BRANCH   3   4
ATOM      4  C   UNL     1       0.292   5.052   3.220  1.00  0.00     0.004 C 
BRANCH   4   5
ATOM      5  C   UNL     1       1.213   5.604   2.121  1.00  0.00     0.000 C 
BRANCH   5   6
ATOM      6  C   UNL     1       2.281   6.531   2.713  1.00  0.00     0.000 C 
BRANCH   6   7
ATOM      7  C   UNL     1       2.504   6.232   4.203  1.00  0.00     0.000 C 
BRANCH   7   8
ATOM      8  C   UNL     1       2.829   7.491   5.028  1.00  0.00     0.006 C 
BRANCH   8   9
ATOM      9  C   UNL     1       1.915   7.691   6.250  1.00  0.00     0.053 C 
BRANCH   9  10
ATOM     10  C   UNL     1       2.075   9.042   6.878  1.00  0.00     0.041 C 
ATOM     11  O   UNL     1       1.097   9.833   6.946  1.00  0.00    -0.550 OA
ATOM     12  O   UNL     1       3.299   9.418   7.419  1.00  0.00    -0.550 OA
ENDBRANCH   9  10
ENDBRANCH   8   9
ENDBRANCH   7   8
ENDBRANCH   6   7
ENDBRANCH   5   6
ENDBRANCH   4   5
ENDBRANCH   3   4
ENDBRANCH   1   3
BRANCH   2  13
ATOM     13  C   UNL     1      -3.560   6.737   1.741  1.00  0.00     0.027 C 
BRANCH  13  14
ATOM     14  C   UNL     1      -3.785   8.244   1.523  1.00  0.00     0.004 C 
BRANCH  14  15
ATOM     15  C   UNL     1      -3.912   9.060   2.823  1.00  0.00     0.000 C 
BRANCH  15  16
ATOM     16  C   UNL     1      -3.436   8.287   4.062  1.00  0.00     0.000 C 
BRANCH  16  17
ATOM     17  C   UNL     1      -2.201   8.952   4.682  1.00  0.00    -0.000 C 
BRANCH  17  18
ATOM     18  C   UNL     1      -0.909   8.372   4.096  1.00  0.00    -0.000 C 
BRANCH  18  19
ATOM     19  C   UNL     1      -0.161   9.420   3.264  1.00  0.00    -0.003 C 
ATOM     20  C   UNL     1      -0.187   9.068   1.781  1.00  0.00     0.004 C 
ENDBRANCH  18  19
ENDBRANCH  17  18
ENDBRANCH  16  17
ENDBRANCH  15  16
ENDBRANCH  14  15
ENDBRANCH  13  14
ENDBRANCH   2  13
TORSDOF 15
ENDMDL
MODEL 3
REMARK VINA RESULT:    -3.569     15.115     17.022
REMARK INTER + INTRA:          -8.392
REMARK INTER:                  -6.056
REMARK INTRA:                  -2.336
REMARK UNBOUND:                -1.694
REMARK SMILES CCCCCCCCC=CCCCCCCCC(=O)[O-]
REMARK SMILES IDX 10 1 9 2 11 3 12 4 13 5 14 6 15 7 16 8 17 9 18 10 19 11
REMARK SMILES IDX 20 12 8 13 7 14 6 15 5 16 4 17 3 18 2 19 1 20
REMARK H PARENT
REMARK Flexibility Score: inf
ROOT
ATOM      1  C   UNL     1      -8.010  -5.957  -0.591  1.00  0.00    -0.031 C 
ATOM      2  C   UNL     1      -8.440  -5.417  -1.748  1.00  0.00    -0.031 C 
ENDROOT
BRANCH   1   3
ATOM      3  C   UNL     1      -8.826  -6.875   0.285  1.00  0.00     0.027 C 
BRANCH   3   4
ATOM      4  C   UNL     1      -8.603  -8.353  -0.069  1.00  0.00     0.004 C 
BRANCH   4   5
ATOM      5  C   UNL     1      -7.537  -9.007   0.824  1.00  0.00     0.000 C 
BRANCH   5   6
ATOM      6  C   UNL     1      -7.796  -8.699   2.304  1.00  0.00     0.000 C 
BRANCH   6   7
ATOM      7  C   UNL     1      -8.976  -9.523   2.838  1.00  0.00     0.000 C 
BRANCH   7   8
ATOM      8  C   UNL     1      -9.722  -8.828   3.992  1.00  0.00     0.006 C 
BRANCH   8   9
ATOM      9  C   UNL     1     -10.125  -7.374   3.692  1.00  0.00     0.053 C 
BRANCH   9  10
ATOM     10  C   UNL     1      -9.394  -6.383   4.546  1.00  0.00     0.041 C 
ATOM     11  O   UNL     1      -9.705  -6.236   5.758  1.00  0.00    -0.550 OA
ATOM     12  O   UNL     1      -8.345  -5.643   4.013  1.00  0.00    -0.550 OA
ENDBRANCH   9  10
ENDBRANCH   8   9
ENDBRANCH   7   8
ENDBRANCH   6   7
ENDBRANCH   5   6
ENDBRANCH   4   5
ENDBRANCH   3   4
ENDBRANCH   1   3
BRANCH   2  13
ATOM     13  C   UNL     1      -9.838  -5.562  -2.297  1.00  0.00     0.027 C 
BRANCH  13  14
ATOM     14  C   UNL     1      -9.944  -6.704  -3.323  1.00  0.00     0.004 C 
BRANCH  14  15
ATOM     15  C   UNL     1      -8.616  -7.056  -4.019  1.00  0.00     0.000 C 
BRANCH  15  16
ATOM     16  C   UNL     1      -8.549  -8.523  -4.470  1.00  0.00     0.000 C 
BRANCH  16  17
ATOM     17  C   UNL     1      -7.194  -9.145  -4.111  1.00  0.00    -0.000 C 
BRANCH  17  18
ATOM     18  C   UNL     1      -6.153  -8.062  -3.808  1.00  0.00    -0.000 C 
BRANCH  18  19
ATOM     19  C   UNL     1      -5.395  -8.373  -2.512  1.00  0.00    -0.003 C 
ATOM     20  C   UNL     1      -4.826  -7.104  -1.887  1.00  0.00     0.004 C 
ENDBRANCH  18  19
ENDBRANCH  17  18
ENDBRANCH  16  17
ENDBRANCH  15  16
ENDBRANCH  14  15
ENDBRANCH  13  14
ENDBRANCH   2  13
TORSDOF 15
ENDMDL
MODEL 4
REMARK VINA RESULT:    -3.568      2.620      3.413
REMARK INTER + INTRA:          -8.391
REMARK INTER:                  -7.422
REMARK INTRA:                  -0.968
REMARK UNBOUND:                -1.694
REMARK SMILES CCCCCCCCC=CCCCCCCCC(=O)[O-]
REMARK SMILES IDX 10 1 9 2 11 3 12 4 13 5 14 6 15 7 16 8 17 9 18 10 19 11
REMARK SMILES IDX 20 12 8 13 7 14 6 15 5 16 4 17 3 18 2 19 1 20
REMARK H PARENT
REMARK Flexibility Score: inf
ROOT
ATOM      1  C   UNL     1      -0.974   8.796   4.245  1.00  0.00    -0.031 C 
ATOM      2  C   UNL     1       0.288   8.392   4.486  1.00  0.00    -0.031 C 
ENDROOT
BRANCH   1   3
ATOM      3  C   UNL     1      -1.717   9.827   5.059  1.00  0.00     0.027 C 
BRANCH   3   4
ATOM      4  C   UNL     1      -3.223   9.819   4.757  1.00  0.00     0.004 C 
BRANCH   4   5
ATOM      5  C   UNL     1      -3.750   8.403   4.480  1.00  0.00     0.000 C 
BRANCH   5   6
ATOM      6  C   UNL     1      -4.915   8.435   3.484  1.00  0.00     0.000 C 
BRANCH   6   7
ATOM      7  C   UNL     1      -4.789   9.631   2.529  1.00  0.00     0.000 C 
BRANCH   7   8
ATOM      8  C   UNL     1      -6.136  10.056   1.916  1.00  0.00     0.006 C 
BRANCH   8   9
ATOM      9  C   UNL     1      -7.365   9.520   2.671  1.00  0.00     0.053 C 
BRANCH   9  10
ATOM     10  C   UNL     1      -8.203   8.601   1.834  1.00  0.00     0.041 C 
ATOM     11  O   UNL     1      -8.038   8.548   0.587  1.00  0.00    -0.550 OA
ATOM     12  O   UNL     1      -9.146   7.777   2.437  1.00  0.00    -0.550 OA
ENDBRANCH   9  10
ENDBRANCH   8   9
ENDBRANCH   7   8
ENDBRANCH   6   7
ENDBRANCH   5   6
ENDBRANCH   4   5
ENDBRANCH   3   4
ENDBRANCH   1   3
BRANCH   2  13
ATOM     13  C   UNL     1       1.120   8.830   5.667  1.00  0.00     0.027 C 
BRANCH  13  14
ATOM     14  C   UNL     1       2.088   7.729   6.136  1.00  0.00     0.004 C 
BRANCH  14  15
ATOM     15  C   UNL     1       2.032   6.437   5.299  1.00  0.00     0.000 C 
BRANCH  15  16
ATOM     16  C   UNL     1       2.457   5.193   6.093  1.00  0.00     0.000 C 
BRANCH  16  17
ATOM     17  C   UNL     1       1.409   4.080   5.970  1.00  0.00    -0.000 C 
BRANCH  17  18
ATOM     18  C   UNL     1       1.410   3.182   7.213  1.00  0.00    -0.000 C 
BRANCH  18  19
ATOM     19  C   UNL     1       0.155   2.303   7.258  1.00  0.00    -0.003 C 
ATOM     20  C   UNL     1       0.520   0.826   7.366  1.00  0.00     0.004 C 
ENDBRANCH  18  19
ENDBRANCH  17  18
ENDBRANCH  16  17
ENDBRANCH  15  16
ENDBRANCH  14  15
ENDBRANCH  13  14
ENDBRANCH   2  13
TORSDOF 15
ENDMDL
MODEL 5
REMARK VINA RESULT:    -3.561      8.874     11.195
REMARK INTER + INTRA:          -8.377
REMARK INTER:                  -5.343
REMARK INTRA:                  -3.034
REMARK UNBOUND:                -1.694
REMARK SMILES CCCCCCCCC=CCCCCCCCC(=O)[O-]
REMARK SMILES IDX 10 1 9 2 11 3 12 4 13 5 14 6 15 7 16 8 17 9 18 10 19 11
REMARK SMILES IDX 20 12 8 13 7 14 6 15 5 16 4 17 3 18 2 19 1 20
REMARK H PARENT
REMARK Flexibility Score: inf
ROOT
ATOM      1  C   UNL     1      -7.567  -3.456   9.324  1.00  0.00    -0.031 C 
ATOM      2  C   UNL     1      -8.876  -3.144   9.381  1.00  0.00    -0.031 C 
ENDROOT
BRANCH   1   3
ATOM      3  C   UNL     1      -6.451  -2.575   9.829  1.00  0.00     0.027 C 
BRANCH   3   4
ATOM      4  C   UNL     1      -5.454  -2.219   8.717  1.00  0.00     0.004 C 
BRANCH   4   5
ATOM      5  C   UNL     1      -6.131  -1.494   7.544  1.00  0.00     0.000 C 
BRANCH   5   6
ATOM      6  C   UNL     1      -6.327  -0.006   7.857  1.00  0.00     0.000 C 
BRANCH   6   7
ATOM      7  C   UNL     1      -7.758   0.442   7.527  1.00  0.00     0.000 C 
BRANCH   7   8
ATOM      8  C   UNL     1      -8.509  -0.556   6.626  1.00  0.00     0.006 C 
BRANCH   8   9
ATOM      9  C   UNL     1      -8.726  -0.059   5.186  1.00  0.00     0.053 C 
BRANCH   9  10
ATOM     10  C   UNL     1      -7.489  -0.158   4.346  1.00  0.00     0.041 C 
ATOM     11  O   UNL     1      -6.899   0.884   3.957  1.00  0.00    -0.550 OA
ATOM     12  O   UNL     1      -6.966  -1.404   4.022  1.00  0.00    -0.550 OA
ENDBRANCH   9  10
ENDBRANCH   8   9
ENDBRANCH   7   8
ENDBRANCH   6   7
ENDBRANCH   5   6
ENDBRANCH   4   5
ENDBRANCH   3   4
ENDBRANCH   1   3
BRANCH   2  13
ATOM     13  C   UNL     1      -9.426  -1.825   9.866  1.00  0.00     0.027 C 
BRANCH  13  14
ATOM     14  C   UNL     1      -9.523  -1.764  11.401  1.00  0.00     0.004 C 
BRANCH  14  15
ATOM     15  C   UNL     1      -8.728  -0.610  12.041  1.00  0.00     0.000 C 
BRANCH  15  16
ATOM     16  C   UNL     1      -8.617   0.618  11.125  1.00  0.00     0.000 C 
BRANCH  16  17
ATOM     17  C   UNL     1      -7.233   1.269  11.248  1.00  0.00    -0.000 C 
BRANCH  17  18
ATOM     18  C   UNL     1      -6.249   0.341  11.969  1.00  0.00    -0.000 C 
BRANCH  18  19
ATOM     19  C   UNL     1      -4.839   0.943  11.990  1.00  0.00    -0.003 C 
ATOM     20  C   UNL     1      -4.395   1.356  10.590  1.00  0.00     0.004 C 
ENDBRANCH  18  19
ENDBRANCH  17  18
ENDBRANCH  16  17
ENDBRANCH  15  16
ENDBRANCH  14  15
ENDBRANCH  13  14
ENDBRANCH   2  13
TORSDOF 15
ENDMDL
MODEL 6
REMARK VINA RESULT:    -3.555     12.702     16.078
REMARK INTER + INTRA:          -8.366
REMARK INTER:                  -5.979
REMARK INTRA:                  -2.388
REMARK UNBOUND:                -1.694
REMARK SMILES CCCCCCCCC=CCCCCCCCC(=O)[O-]
REMARK SMILES IDX 10 1 9 2 11 3 12 4 13 5 14 6 15 7 16 8 17 9 18 10 19 11
REMARK SMILES IDX 20 12 8 13 7 14 6 15 5 16 4 17 3 18 2 19 1 20
REMARK H PARENT
REMARK Flexibility Score: inf
ROOT
ATOM      1  C   UNL     1      -5.824  -7.122  -2.933  1.00  0.00    -0.031 C 
ATOM      2  C   UNL     1      -6.226  -8.339  -3.346  1.00  0.00    -0.031 C 
ENDROOT
BRANCH   1   3
ATOM      3  C   UNL     1      -6.232  -5.818  -3.574  1.00  0.00     0.027 C 
BRANCH   3   4
ATOM      4  C   UNL     1      -5.096  -4.785  -3.542  1.00  0.00     0.004 C 
BRANCH   4   5
ATOM      5  C   UNL     1      -3.728  -5.436  -3.288  1.00  0.00     0.000 C 
BRANCH   5   6
ATOM      6  C   UNL     1      -2.588  -4.463  -3.612  1.00  0.00     0.000 C 
BRANCH   6   7
ATOM      7  C   UNL     1      -2.863  -3.711  -4.922  1.00  0.00     0.000 C 
BRANCH   7   8
ATOM      8  C   UNL     1      -1.977  -2.463  -5.098  1.00  0.00     0.006 C 
BRANCH   8   9
ATOM      9  C   UNL     1      -2.340  -1.301  -4.157  1.00  0.00     0.053 C 
BRANCH   9  10
ATOM     10  C   UNL     1      -3.782  -0.906  -4.255  1.00  0.00     0.041 C 
ATOM     11  O   UNL     1      -4.232  -0.393  -5.314  1.00  0.00    -0.550 OA
ATOM     12  O   UNL     1      -4.641  -1.135  -3.186  1.00  0.00    -0.550 OA
ENDBRANCH   9  10
ENDBRANCH   8   9
ENDBRANCH   7   8
ENDBRANCH   6   7
ENDBRANCH   5   6
ENDBRANCH   4   5
ENDBRANCH   3   4
ENDBRANCH   1   3
BRANCH   2  13
ATOM     13  C   UNL     1      -7.064  -8.597  -4.575  1.00  0.00     0.027 C 
BRANCH  13  14
ATOM     14  C   UNL     1      -8.569  -8.622  -4.258  1.00  0.00     0.004 C 
BRANCH  14  15
ATOM     15  C   UNL     1      -9.373  -7.479  -4.905  1.00  0.00     0.000 C 
BRANCH  15  16
ATOM     16  C   UNL     1      -9.898  -6.463  -3.879  1.00  0.00     0.000 C 
BRANCH  16  17
ATOM     17  C   UNL     1      -9.750  -7.002  -2.450  1.00  0.00    -0.000 C 
BRANCH  17  18
ATOM     18  C   UNL     1      -9.298  -5.897  -1.489  1.00  0.00    -0.000 C 
BRANCH  18  19
ATOM     19  C   UNL     1      -8.504  -6.480  -0.314  1.00  0.00    -0.003 C 
ATOM     20  C   UNL     1      -8.454  -8.002  -0.383  1.00  0.00     0.004 C 
ENDBRANCH  18  19
ENDBRANCH  17  18
ENDBRANCH  16  17
ENDBRANCH  15  16
ENDBRANCH  14  15
ENDBRANCH  13  14
ENDBRANCH   2  13
TORSDOF 15
ENDMDL
MODEL 7
REMARK VINA RESULT:    -3.540      2.309      3.326
REMARK INTER + INTRA:          -8.338
REMARK INTER:                  -7.161
REMARK INTRA:                  -1.177
REMARK UNBOUND:                -1.694
REMARK SMILES CCCCCCCCC=CCCCCCCCC(=O)[O-]
REMARK SMILES IDX 10 1 9 2 11 3 12 4 13 5 14 6 15 7 16 8 17 9 18 10 19 11
REMARK SMILES IDX 20 12 8 13 7 14 6 15 5 16 4 17 3 18 2 19 1 20
REMARK H PARENT
REMARK Flexibility Score: inf
ROOT
ATOM      1  C   UNL     1       3.162   7.883   5.887  1.00  0.00    -0.031 C 
ATOM      2  C   UNL     1       3.192   6.575   5.567  1.00  0.00    -0.031 C 
ENDROOT
BRANCH   1   3
ATOM      3  C   UNL     1       2.241   8.495   6.913  1.00  0.00     0.027 C 
BRANCH   3   4
ATOM      4  C   UNL     1       1.408   9.642   6.322  1.00  0.00     0.004 C 
BRANCH   4   5
ATOM      5  C   UNL     1       1.198   9.486   4.809  1.00  0.00     0.000 C 
BRANCH   5   6
ATOM      6  C   UNL     1      -0.289   9.319   4.474  1.00  0.00     0.000 C 
BRANCH   6   7
ATOM      7  C   UNL     1      -1.170   9.996   5.535  1.00  0.00     0.000 C 
BRANCH   7   8
ATOM      8  C   UNL     1      -2.642  10.125   5.102  1.00  0.00     0.006 C 
BRANCH   8   9
ATOM      9  C   UNL     1      -3.248   8.823   4.549  1.00  0.00     0.053 C 
BRANCH   9  10
ATOM     10  C   UNL     1      -4.100   9.050   3.337  1.00  0.00     0.041 C 
ATOM     11  O   UNL     1      -3.592   9.007   2.185  1.00  0.00    -0.550 OA
ATOM     12  O   UNL     1      -5.464   9.276   3.477  1.00  0.00    -0.550 OA
ENDBRANCH   9  10
ENDBRANCH   8   9
ENDBRANCH   7   8
ENDBRANCH   6   7
ENDBRANCH   5   6
ENDBRANCH   4   5
ENDBRANCH   3   4
ENDBRANCH   1   3
BRANCH   2  13
ATOM     13  C   UNL     1       2.242   5.535   6.108  1.00  0.00     0.027 C 
BRANCH  13  14
ATOM     14  C   UNL     1       1.610   4.687   4.990  1.00  0.00     0.004 C 
BRANCH  14  15
ATOM     15  C   UNL     1       1.259   3.246   5.408  1.00  0.00     0.000 C 
BRANCH  15  16
ATOM     16  C   UNL     1       0.907   3.127   6.899  1.00  0.00     0.000 C 
BRANCH  16  17
ATOM     17  C   UNL     1       1.798   2.088   7.591  1.00  0.00    -0.000 C 
BRANCH  17  18
ATOM     18  C   UNL     1       3.282   2.399   7.367  1.00  0.00    -0.000 C 
BRANCH  18  19
ATOM     19  C   UNL     1       4.154   1.717   8.428  1.00  0.00    -0.003 C 
ATOM     20  C   UNL     1       4.053   0.198   8.333  1.00  0.00     0.004 C 
ENDBRANCH  18  19
ENDBRANCH  17  18
ENDBRANCH  16  17
ENDBRANCH  15  16
ENDBRANCH  14  15
ENDBRANCH  13  14
ENDBRANCH   2  13
TORSDOF 15
ENDMDL
MODEL 8
REMARK VINA RESULT:    -3.511      3.556      7.272
REMARK INTER + INTRA:          -8.283
REMARK INTER:                  -5.967
REMARK INTRA:                  -2.316
REMARK UNBOUND:                -1.694
REMARK SMILES CCCCCCCCC=CCCCCCCCC(=O)[O-]
REMARK SMILES IDX 10 1 9 2 11 3 12 4 13 5 14 6 15 7 16 8 17 9 18 10 19 11
REMARK SMILES IDX 20 12 8 13 7 14 6 15 5 16 4 17 3 18 2 19 1 20
REMARK H PARENT
REMARK Flexibility Score: inf
ROOT
ATOM      1  C   UNL     1       0.827   6.404   1.600  1.00  0.00    -0.031 C 
ATOM      2  C   UNL     1       1.211   7.624   1.181  1.00  0.00    -0.031 C 
ENDROOT
BRANCH   1   3
ATOM      3  C   UNL     1      -0.005   6.140   2.831  1.00  0.00     0.027 C 
BRANCH   3   4
ATOM      4  C   UNL     1       0.522   4.941   3.633  1.00  0.00     0.004 C 
BRANCH   4   5
ATOM      5  C   UNL     1       1.782   5.293   4.439  1.00  0.00     0.000 C 
BRANCH   5   6
ATOM      6  C   UNL     1       1.555   6.543   5.297  1.00  0.00     0.000 C 
BRANCH   6   7
ATOM      7  C   UNL     1       2.889   7.117   5.796  1.00  0.00     0.000 C 
BRANCH   7   8
ATOM      8  C   UNL     1       3.362   8.336   4.982  1.00  0.00     0.006 C 
BRANCH   8   9
ATOM      9  C   UNL     1       2.451   9.568   5.113  1.00  0.00     0.053 C 
BRANCH   9  10
ATOM     10  C   UNL     1       2.184   9.942   6.540  1.00  0.00     0.041 C 
ATOM     11  O   UNL     1       3.140  10.124   7.339  1.00  0.00    -0.550 OA
ATOM     12  O   UNL     1       0.879  10.124   6.980  1.00  0.00    -0.550 OA
ENDBRANCH   9  10
ENDBRANCH   8   9
ENDBRANCH   7   8
ENDBRANCH   6   7
ENDBRANCH   5   6
ENDBRANCH   4   5
ENDBRANCH   3   4
ENDBRANCH   1   3
BRANCH   2  13
ATOM     13  C   UNL     1       0.958   8.910   1.930  1.00  0.00     0.027 C 
BRANCH  13  14
ATOM     14  C   UNL     1      -0.228   9.699   1.348  1.00  0.00     0.004 C 
BRANCH  14  15
ATOM     15  C   UNL     1      -1.477   9.720   2.249  1.00  0.00     0.000 C 
BRANCH  15  16
ATOM     16  C   UNL     1      -1.142   9.555   3.738  1.00  0.00     0.000 C 
BRANCH  16  17
ATOM     17  C   UNL     1      -2.131   8.602   4.420  1.00  0.00    -0.000 C 
BRANCH  17  18
ATOM     18  C   UNL     1      -3.516   9.247   4.554  1.00  0.00    -0.000 C 
BRANCH  18  19
ATOM     19  C   UNL     1      -4.558   8.490   3.723  1.00  0.00    -0.003 C 
ATOM     20  C   UNL     1      -4.254   6.996   3.682  1.00  0.00     0.004 C 
ENDBRANCH  18  19
ENDBRANCH  17  18
ENDBRANCH  16  17
ENDBRANCH  15  16
ENDBRANCH  14  15
ENDBRANCH  13  14
ENDBRANCH   2  13
TORSDOF 15
ENDMDL
MODEL 9
REMARK VINA RESULT:    -3.495     11.866     13.935
REMARK INTER + INTRA:          -8.253
REMARK INTER:                  -5.599
REMARK INTRA:                  -2.654
REMARK UNBOUND:                -1.694
REMARK SMILES CCCCCCCCC=CCCCCCCCC(=O)[O-]
REMARK SMILES IDX 10 1 9 2 11 3 12 4 13 5 14 6 15 7 16 8 17 9 18 10 19 11
REMARK SMILES IDX 20 12 8 13 7 14 6 15 5 16 4 17 3 18 2 19 1 20
REMARK H PARENT
REMARK Flexibility Score: inf
ROOT
ATOM      1  C   UNL     1       3.732  -1.748  -7.161  1.00  0.00    -0.031 C 
ATOM      2  C   UNL     1       4.653  -0.786  -7.354  1.00  0.00    -0.031 C 
ENDROOT
BRANCH   1   3
ATOM      3  C   UNL     1       2.252  -1.502  -7.000  1.00  0.00     0.027 C 
BRANCH   3   4
ATOM      4  C   UNL     1       1.769  -1.821  -5.578  1.00  0.00     0.004 C 
BRANCH   4   5
ATOM      5  C   UNL     1       2.844  -2.543  -4.750  1.00  0.00     0.000 C 
BRANCH   5   6
ATOM      6  C   UNL     1       3.310  -1.673  -3.577  1.00  0.00     0.000 C 
BRANCH   6   7
ATOM      7  C   UNL     1       4.822  -1.418  -3.648  1.00  0.00     0.000 C 
BRANCH   7   8
ATOM      8  C   UNL     1       5.234  -0.063  -3.044  1.00  0.00     0.006 C 
BRANCH   8   9
ATOM      9  C   UNL     1       4.227   0.501  -2.026  1.00  0.00     0.053 C 
BRANCH   9  10
ATOM     10  C   UNL     1       4.169   1.998  -2.036  1.00  0.00     0.041 C 
ATOM     11  O   UNL     1       4.192   2.643  -0.955  1.00  0.00    -0.550 OA
ATOM     12  O   UNL     1       4.125   2.685  -3.244  1.00  0.00    -0.550 OA
ENDBRANCH   9  10
ENDBRANCH   8   9
ENDBRANCH   7   8
ENDBRANCH   6   7
ENDBRANCH   5   6
ENDBRANCH   4   5
ENDBRANCH   3   4
ENDBRANCH   1   3
BRANCH   2  13
ATOM     13  C   UNL     1       4.365   0.696  -7.337  1.00  0.00     0.027 C 
BRANCH  13  14
ATOM     14  C   UNL     1       5.253   1.449  -6.330  1.00  0.00     0.004 C 
BRANCH  14  15
ATOM     15  C   UNL     1       6.762   1.362  -6.626  1.00  0.00     0.000 C 
BRANCH  15  16
ATOM     16  C   UNL     1       7.604   1.118  -5.366  1.00  0.00     0.000 C 
BRANCH  16  17
ATOM     17  C   UNL     1       8.705   0.084  -5.634  1.00  0.00    -0.000 C 
BRANCH  17  18
ATOM     18  C   UNL     1       8.351  -1.272  -5.011  1.00  0.00    -0.000 C 
BRANCH  18  19
ATOM     19  C   UNL     1       7.649  -2.179  -6.029  1.00  0.00    -0.003 C 
ATOM     20  C   UNL     1       8.244  -2.008  -7.423  1.00  0.00     0.004 C 
ENDBRANCH  18  19
ENDBRANCH  17  18
ENDBRANCH  16  17
ENDBRANCH  15  16
ENDBRANCH  14  15
ENDBRANCH  13  14
ENDBRANCH   2  13
TORSDOF 15
ENDMDL
