MODEL 1
REMARK VINA RESULT:    -0.536      0.000      0.000
REMARK INTER + INTRA:          -1.182
REMARK INTER:                  -0.850
REMARK INTRA:                  -0.332
REMARK UNBOUND:                -0.332
REMARK SMILES CCCCCCCCCCCC(=O)[O-]
REMARK SMILES IDX 7 1 8 2 9 3 10 4 11 5 12 6 13 7 14 8 6 9 5 10 4 11 3 12 2 13
REMARK SMILES IDX 1 14
REMARK H PARENT
REMARK Flexibility Score: inf
ROOT
ATOM      1  C   UNL     1      -7.992  29.261 -18.914  1.00  0.00     0.000 C 
ENDROOT
BRANCH   1   2
ATOM      2  C   UNL     1      -8.782  29.392 -17.603  1.00  0.00     0.000 C 
BRANCH   2   3
ATOM      3  C   UNL     1      -7.947  29.017 -16.368  1.00  0.00     0.000 C 
BRANCH   3   4
ATOM      4  C   UNL     1      -8.299  29.865 -15.137  1.00  0.00     0.006 C 
BRANCH   4   5
ATOM      5  C   UNL     1      -9.494  30.779 -15.425  1.00  0.00     0.053 C 
BRANCH   5   6
ATOM      6  C   UNL     1      -9.025  32.150 -15.801  1.00  0.00     0.041 C 
ATOM      7  O   UNL     1      -8.535  32.913 -14.928  1.00  0.00    -0.550 OA
ATOM      8  O   UNL     1      -9.175  32.604 -17.105  1.00  0.00    -0.550 OA
ENDBRANCH   5   6
ENDBRANCH   4   5
ENDBRANCH   3   4
ENDBRANCH   2   3
ENDBRANCH   1   2
BRANCH   1   9
ATOM      9  C   UNL     1      -6.615  28.634 -18.664  1.00  0.00     0.000 C 
BRANCH   9  10
ATOM     10  C   UNL     1      -6.008  28.097 -19.966  1.00  0.00    -0.000 C 
BRANCH  10  11
ATOM     11  C   UNL     1      -6.280  29.054 -21.138  1.00  0.00    -0.000 C 
BRANCH  11  12
ATOM     12  C   UNL     1      -6.375  28.312 -22.487  1.00  0.00    -0.000 C 
BRANCH  12  13
ATOM     13  C   UNL     1      -5.012  27.859 -23.037  1.00  0.00    -0.003 C 
ATOM     14  C   UNL     1      -4.876  26.341 -23.125  1.00  0.00     0.004 C 
ENDBRANCH  12  13
ENDBRANCH  11  12
ENDBRANCH  10  11
ENDBRANCH   9  10
ENDBRANCH   1   9
TORSDOF 10
ENDMDL
MODEL 2
REMARK VINA RESULT:     0.995      3.377      7.126
REMARK INTER + INTRA:           1.244
REMARK INTER:                   1.771
REMARK INTRA:                  -0.527
REMARK UNBOUND:                -0.332
REMARK SMILES CCCCCCCCCCCC(=O)[O-]
REMARK SMILES IDX 7 1 8 2 9 3 10 4 11 5 12 6 13 7 14 8 6 9 5 10 4 11 3 12 2 13
REMARK SMILES IDX 1 14
REMARK H PARENT
REMARK Flexibility Score: inf
ROOT
ATOM      1  C   UNL     1      -6.621  28.180 -16.427  1.00  0.00     0.000 C 
ENDROOT
BRANCH   1   2
ATOM      2  C   UNL     1      -6.032  28.092 -17.843  1.00  0.00     0.000 C 
BRANCH   2   3
ATOM      3  C   UNL     1      -6.989  28.632 -18.918  1.00  0.00     0.000 C 
BRANCH   3   4
ATOM      4  C   UNL     1      -6.294  28.862 -20.268  1.00  0.00     0.006 C 
BRANCH   4   5
ATOM      5  C   UNL     1      -6.243  27.567 -21.084  1.00  0.00     0.053 C 
BRANCH   5   6
ATOM      6  C   UNL     1      -5.701  27.831 -22.453  1.00  0.00     0.041 C 
ATOM      7  O   UNL     1      -6.027  28.878 -23.072  1.00  0.00    -0.550 OA
ATOM      8  O   UNL     1      -4.875  26.898 -23.067  1.00  0.00    -0.550 OA
ENDBRANCH   5   6
ENDBRANCH   4   5
ENDBRANCH   3   4
ENDBRANCH   2   3
ENDBRANCH   1   2
BRANCH   1   9
ATOM      9  C   UNL     1      -7.886  29.047 -16.413  1.00  0.00     0.000 C 
BRANCH   9  10
ATOM     10  C   UNL     1      -8.188  29.558 -14.999  1.00  0.00    -0.000 C 
BRANCH  10  11
ATOM     11  C   UNL     1      -9.431  30.462 -14.992  1.00  0.00    -0.000 C 
BRANCH  11  12
ATOM     12  C   UNL     1      -9.610  31.219 -16.324  1.00  0.00    -0.000 C 
BRANCH  12  13
ATOM     13  C   UNL     1      -8.807  32.528 -16.401  1.00  0.00    -0.003 C 
ATOM     14  C   UNL     1      -8.588  33.177 -15.037  1.00  0.00     0.004 C 
ENDBRANCH  12  13
ENDBRANCH  11  12
ENDBRANCH  10  11
ENDBRANCH   9  10
ENDBRANCH   1   9
TORSDOF 10
ENDMDL
MODEL 3
REMARK VINA RESULT:     1.881      1.663      1.992
REMARK INTER + INTRA:           2.648
REMARK INTER:                   2.402
REMARK INTRA:                   0.246
REMARK UNBOUND:                -0.332
REMARK SMILES CCCCCCCCCCCC(=O)[O-]
REMARK SMILES IDX 7 1 8 2 9 3 10 4 11 5 12 6 13 7 14 8 6 9 5 10 4 11 3 12 2 13
REMARK SMILES IDX 1 14
REMARK H PARENT
REMARK Flexibility Score: inf
ROOT
ATOM      1  C   UNL     1      -8.381  29.398 -18.917  1.00  0.00     0.000 C 
ENDROOT
BRANCH   1   2
ATOM      2  C   UNL     1      -9.248  29.868 -17.739  1.00  0.00     0.000 C 
BRANCH   2   3
ATOM      3  C   UNL     1      -9.105  31.373 -17.463  1.00  0.00     0.000 C 
BRANCH   3   4
ATOM      4  C   UNL     1      -9.065  31.698 -15.962  1.00  0.00     0.006 C 
BRANCH   4   5
ATOM      5  C   UNL     1      -9.544  30.503 -15.131  1.00  0.00     0.053 C 
BRANCH   5   6
ATOM      6  C   UNL     1      -8.377  29.739 -14.591  1.00  0.00     0.041 C 
ATOM      7  O   UNL     1      -8.037  29.869 -13.386  1.00  0.00    -0.550 OA
ATOM      8  O   UNL     1      -7.633  28.919 -15.431  1.00  0.00    -0.550 OA
ENDBRANCH   5   6
ENDBRANCH   4   5
ENDBRANCH   3   4
ENDBRANCH   2   3
ENDBRANCH   1   2
BRANCH   1   9
ATOM      9  C   UNL     1      -7.120  28.682 -18.418  1.00  0.00     0.000 C 
BRANCH   9  10
ATOM     10  C   UNL     1      -5.995  28.756 -19.458  1.00  0.00    -0.000 C 
BRANCH  10  11
ATOM     11  C   UNL     1      -6.298  27.852 -20.664  1.00  0.00    -0.000 C 
BRANCH  11  12
ATOM     12  C   UNL     1      -6.413  28.651 -21.978  1.00  0.00    -0.000 C 
BRANCH  12  13
ATOM     13  C   UNL     1      -5.560  28.080 -23.123  1.00  0.00    -0.003 C 
ATOM     14  C   UNL     1      -4.877  26.763 -22.761  1.00  0.00     0.004 C 
ENDBRANCH  12  13
ENDBRANCH  11  12
ENDBRANCH  10  11
ENDBRANCH   9  10
ENDBRANCH   1   9
TORSDOF 10
ENDMDL
