MODEL 1
REMARK VINA RESULT:    -5.204      0.000      0.000
REMARK INTER + INTRA:         -14.915
REMARK INTER:                 -11.897
REMARK INTRA:                  -3.018
REMARK UNBOUND:                -3.018
REMARK SMILES CCCCCCCCCCCCCCCCCCCCCCCC(=O)[O-]
REMARK SMILES IDX 13 1 14 2 15 3 16 4 17 5 18 6 19 7 20 8 21 9 22 10 23 11
REMARK SMILES IDX 24 12 25 13 26 14 12 15 11 16 10 17 9 18 8 19 7 20 6 21 5 22
REMARK SMILES IDX 4 23 3 24 2 25 1 26
REMARK H PARENT
REMARK Flexibility Score: inf
ROOT
ATOM      1  C   UNL     1     159.424 166.800 160.847  1.00  0.00     0.000 C 
ENDROOT
BRANCH   1   2
ATOM      2  C   UNL     1     160.306 167.432 159.760  1.00  0.00     0.000 C 
BRANCH   2   3
ATOM      3  C   UNL     1     161.480 168.231 160.347  1.00  0.00     0.000 C 
BRANCH   3   4
ATOM      4  C   UNL     1     162.818 167.538 160.044  1.00  0.00     0.000 C 
BRANCH   4   5
ATOM      5  C   UNL     1     162.681 166.404 159.011  1.00  0.00     0.000 C 
BRANCH   5   6
ATOM      6  C   UNL     1     163.490 166.625 157.714  1.00  0.00     0.000 C 
BRANCH   6   7
ATOM      7  C   UNL     1     162.632 166.996 156.488  1.00  0.00     0.000 C 
BRANCH   7   8
ATOM      8  C   UNL     1     161.310 166.208 156.388  1.00  0.00     0.000 C 
BRANCH   8   9
ATOM      9  C   UNL     1     160.532 166.536 155.101  1.00  0.00     0.000 C 
BRANCH   9  10
ATOM     10  C   UNL     1     161.444 166.939 153.929  1.00  0.00     0.006 C 
BRANCH  10  11
ATOM     11  C   UNL     1     161.070 166.280 152.590  1.00  0.00     0.053 C 
BRANCH  11  12
ATOM     12  C   UNL     1     162.274 165.953 151.758  1.00  0.00     0.041 C 
ATOM     13  O   UNL     1     162.199 165.084 150.849  1.00  0.00    -0.550 OA
ATOM     14  O   UNL     1     163.489 166.579 152.009  1.00  0.00    -0.550 OA
ENDBRANCH  11  12
ENDBRANCH  10  11
ENDBRANCH   9  10
ENDBRANCH   8   9
ENDBRANCH   7   8
ENDBRANCH   6   7
ENDBRANCH   5   6
ENDBRANCH   4   5
ENDBRANCH   3   4
ENDBRANCH   2   3
ENDBRANCH   1   2
BRANCH   1  15
ATOM     15  C   UNL     1     160.147 166.673 162.200  1.00  0.00     0.000 C 
BRANCH  15  16
ATOM     16  C   UNL     1     160.292 165.211 162.650  1.00  0.00     0.000 C 
BRANCH  16  17
ATOM     17  C   UNL     1     161.410 164.472 161.894  1.00  0.00     0.000 C 
BRANCH  17  18
ATOM     18  C   UNL     1     160.878 163.594 160.749  1.00  0.00    -0.000 C 
BRANCH  18  19
ATOM     19  C   UNL     1     161.917 163.230 159.667  1.00  0.00    -0.000 C 
BRANCH  19  20
ATOM     20  C   UNL     1     161.338 162.652 158.364  1.00  0.00    -0.000 C 
BRANCH  20  21
ATOM     21  C   UNL     1     159.969 163.250 157.998  1.00  0.00    -0.000 C 
BRANCH  21  22
ATOM     22  C   UNL     1     158.825 162.233 158.140  1.00  0.00    -0.000 C 
BRANCH  22  23
ATOM     23  C   UNL     1     157.511 162.876 158.619  1.00  0.00    -0.000 C 
BRANCH  23  24
ATOM     24  C   UNL     1     157.724 163.802 159.836  1.00  0.00    -0.000 C 
BRANCH  24  25
ATOM     25  C   UNL     1     156.497 164.667 160.171  1.00  0.00    -0.003 C 
ATOM     26  C   UNL     1     155.271 164.322 159.326  1.00  0.00     0.004 C 
ENDBRANCH  24  25
ENDBRANCH  23  24
ENDBRANCH  22  23
ENDBRANCH  21  22
ENDBRANCH  20  21
ENDBRANCH  19  20
ENDBRANCH  18  19
ENDBRANCH  17  18
ENDBRANCH  16  17
ENDBRANCH  15  16
ENDBRANCH   1  15
TORSDOF 22
ENDMDL
MODEL 2
REMARK VINA RESULT:    -5.139      4.090      8.178
REMARK INTER + INTRA:         -14.767
REMARK INTER:                 -11.684
REMARK INTRA:                  -3.083
REMARK UNBOUND:                -3.018
REMARK SMILES CCCCCCCCCCCCCCCCCCCCCCCC(=O)[O-]
REMARK SMILES IDX 13 1 14 2 15 3 16 4 17 5 18 6 19 7 20 8 21 9 22 10 23 11
REMARK SMILES IDX 24 12 25 13 26 14 12 15 11 16 10 17 9 18 8 19 7 20 6 21 5 22
REMARK SMILES IDX 4 23 3 24 2 25 1 26
REMARK H PARENT
REMARK Flexibility Score: inf
ROOT
ATOM      1  C   UNL     1     163.213 162.484 158.352  1.00  0.00     0.000 C 
ENDROOT
BRANCH   1   2
ATOM      2  C   UNL     1     161.882 162.581 159.114  1.00  0.00     0.000 C 
BRANCH   2   3
ATOM      3  C   UNL     1     160.693 162.063 158.290  1.00  0.00     0.000 C 
BRANCH   3   4
ATOM      4  C   UNL     1     159.700 163.197 157.992  1.00  0.00     0.000 C 
BRANCH   4   5
ATOM      5  C   UNL     1     158.436 163.127 158.868  1.00  0.00     0.000 C 
BRANCH   5   6
ATOM      6  C   UNL     1     158.435 164.107 160.062  1.00  0.00     0.000 C 
BRANCH   6   7
ATOM      7  C   UNL     1     159.355 165.329 159.879  1.00  0.00     0.000 C 
BRANCH   7   8
ATOM      8  C   UNL     1     159.642 166.098 161.185  1.00  0.00     0.000 C 
BRANCH   8   9
ATOM      9  C   UNL     1     161.116 165.988 161.616  1.00  0.00     0.000 C 
BRANCH   9  10
ATOM     10  C   UNL     1     161.428 164.686 162.375  1.00  0.00     0.006 C 
BRANCH  10  11
ATOM     11  C   UNL     1     160.656 164.534 163.698  1.00  0.00     0.053 C 
BRANCH  11  12
ATOM     12  C   UNL     1     161.353 163.625 164.665  1.00  0.00     0.041 C 
ATOM     13  O   UNL     1     160.726 163.140 165.644  1.00  0.00    -0.550 OA
ATOM     14  O   UNL     1     162.705 163.342 164.509  1.00  0.00    -0.550 OA
ENDBRANCH  11  12
ENDBRANCH  10  11
ENDBRANCH   9  10
ENDBRANCH   8   9
ENDBRANCH   7   8
ENDBRANCH   6   7
ENDBRANCH   5   6
ENDBRANCH   4   5
ENDBRANCH   3   4
ENDBRANCH   2   3
ENDBRANCH   1   2
BRANCH   1  15
ATOM     15  C   UNL     1     163.720 163.854 157.868  1.00  0.00     0.000 C 
BRANCH  15  16
ATOM     16  C   UNL     1     163.078 165.020 158.636  1.00  0.00     0.000 C 
BRANCH  16  17
ATOM     17  C   UNL     1     163.523 166.392 158.100  1.00  0.00     0.000 C 
BRANCH  17  18
ATOM     18  C   UNL     1     162.788 166.797 156.812  1.00  0.00    -0.000 C 
BRANCH  18  19
ATOM     19  C   UNL     1     161.265 166.551 156.822  1.00  0.00    -0.000 C 
BRANCH  19  20
ATOM     20  C   UNL     1     160.688 165.928 155.537  1.00  0.00    -0.000 C 
BRANCH  20  21
ATOM     21  C   UNL     1     160.721 166.890 154.338  1.00  0.00    -0.000 C 
BRANCH  21  22
ATOM     22  C   UNL     1     160.851 166.153 152.995  1.00  0.00    -0.000 C 
BRANCH  22  23
ATOM     23  C   UNL     1     162.127 166.537 152.225  1.00  0.00    -0.000 C 
BRANCH  23  24
ATOM     24  C   UNL     1     162.897 167.688 152.908  1.00  0.00    -0.000 C 
BRANCH  24  25
ATOM     25  C   UNL     1     164.399 167.704 152.576  1.00  0.00    -0.003 C 
ATOM     26  C   UNL     1     165.252 168.311 153.688  1.00  0.00     0.004 C 
ENDBRANCH  24  25
ENDBRANCH  23  24
ENDBRANCH  22  23
ENDBRANCH  21  22
ENDBRANCH  20  21
ENDBRANCH  19  20
ENDBRANCH  18  19
ENDBRANCH  17  18
ENDBRANCH  16  17
ENDBRANCH  15  16
ENDBRANCH   1  15
TORSDOF 22
ENDMDL
MODEL 3
REMARK VINA RESULT:    -5.118      3.340      7.770
REMARK INTER + INTRA:         -14.718
REMARK INTER:                 -11.931
REMARK INTRA:                  -2.787
REMARK UNBOUND:                -3.018
REMARK SMILES CCCCCCCCCCCCCCCCCCCCCCCC(=O)[O-]
REMARK SMILES IDX 13 1 14 2 15 3 16 4 17 5 18 6 19 7 20 8 21 9 22 10 23 11
REMARK SMILES IDX 24 12 25 13 26 14 12 15 11 16 10 17 9 18 8 19 7 20 6 21 5 22
REMARK SMILES IDX 4 23 3 24 2 25 1 26
REMARK H PARENT
REMARK Flexibility Score: inf
ROOT
ATOM      1  C   UNL     1     163.286 165.577 157.668  1.00  0.00     0.000 C 
ENDROOT
BRANCH   1   2
ATOM      2  C   UNL     1     163.921 166.184 158.928  1.00  0.00     0.000 C 
BRANCH   2   3
ATOM      3  C   UNL     1     162.922 166.306 160.089  1.00  0.00     0.000 C 
BRANCH   3   4
ATOM      4  C   UNL     1     162.372 167.738 160.189  1.00  0.00     0.000 C 
BRANCH   4   5
ATOM      5  C   UNL     1     160.963 167.794 160.806  1.00  0.00     0.000 C 
BRANCH   5   6
ATOM      6  C   UNL     1     159.842 167.271 159.880  1.00  0.00     0.000 C 
BRANCH   6   7
ATOM      7  C   UNL     1     158.877 166.275 160.553  1.00  0.00     0.000 C 
BRANCH   7   8
ATOM      8  C   UNL     1     159.468 164.865 160.749  1.00  0.00     0.000 C 
BRANCH   8   9
ATOM      9  C   UNL     1     159.955 164.246 159.426  1.00  0.00     0.000 C 
BRANCH   9  10
ATOM     10  C   UNL     1     161.146 163.289 159.609  1.00  0.00     0.006 C 
BRANCH  10  11
ATOM     11  C   UNL     1     161.592 162.590 158.313  1.00  0.00     0.053 C 
BRANCH  11  12
ATOM     12  C   UNL     1     162.836 161.775 158.502  1.00  0.00     0.041 C 
ATOM     13  O   UNL     1     162.763 160.604 158.960  1.00  0.00    -0.550 OA
ATOM     14  O   UNL     1     164.080 162.320 158.209  1.00  0.00    -0.550 OA
ENDBRANCH  11  12
ENDBRANCH  10  11
ENDBRANCH   9  10
ENDBRANCH   8   9
ENDBRANCH   7   8
ENDBRANCH   6   7
ENDBRANCH   5   6
ENDBRANCH   4   5
ENDBRANCH   3   4
ENDBRANCH   2   3
ENDBRANCH   1   2
BRANCH   1  15
ATOM     15  C   UNL     1     162.670 166.641 156.742  1.00  0.00     0.000 C 
BRANCH  15  16
ATOM     16  C   UNL     1     161.137 166.547 156.682  1.00  0.00     0.000 C 
BRANCH  16  17
ATOM     17  C   UNL     1     160.636 166.001 155.334  1.00  0.00     0.000 C 
BRANCH  17  18
ATOM     18  C   UNL     1     160.628 167.065 154.224  1.00  0.00    -0.000 C 
BRANCH  18  19
ATOM     19  C   UNL     1     160.785 166.517 152.790  1.00  0.00    -0.000 C 
BRANCH  19  20
ATOM     20  C   UNL     1     162.208 166.590 152.207  1.00  0.00    -0.000 C 
BRANCH  20  21
ATOM     21  C   UNL     1     163.125 167.551 152.982  1.00  0.00    -0.000 C 
BRANCH  21  22
ATOM     22  C   UNL     1     164.614 167.308 152.690  1.00  0.00    -0.000 C 
BRANCH  22  23
ATOM     23  C   UNL     1     165.458 168.592 152.784  1.00  0.00    -0.000 C 
BRANCH  23  24
ATOM     24  C   UNL     1     164.629 169.859 152.483  1.00  0.00    -0.000 C 
BRANCH  24  25
ATOM     25  C   UNL     1     165.127 170.640 151.255  1.00  0.00    -0.003 C 
ATOM     26  C   UNL     1     165.741 171.993 151.614  1.00  0.00     0.004 C 
ENDBRANCH  24  25
ENDBRANCH  23  24
ENDBRANCH  22  23
ENDBRANCH  21  22
ENDBRANCH  20  21
ENDBRANCH  19  20
ENDBRANCH  18  19
ENDBRANCH  17  18
ENDBRANCH  16  17
ENDBRANCH  15  16
ENDBRANCH   1  15
TORSDOF 22
ENDMDL
MODEL 4
REMARK VINA RESULT:    -4.988      2.014      4.244
REMARK INTER + INTRA:         -14.420
REMARK INTER:                 -11.551
REMARK INTRA:                  -2.869
REMARK UNBOUND:                -3.018
REMARK SMILES CCCCCCCCCCCCCCCCCCCCCCCC(=O)[O-]
REMARK SMILES IDX 13 1 14 2 15 3 16 4 17 5 18 6 19 7 20 8 21 9 22 10 23 11
REMARK SMILES IDX 24 12 25 13 26 14 12 15 11 16 10 17 9 18 8 19 7 20 6 21 5 22
REMARK SMILES IDX 4 23 3 24 2 25 1 26
REMARK H PARENT
REMARK Flexibility Score: inf
ROOT
ATOM      1  C   UNL     1     164.353 164.236 157.919  1.00  0.00     0.000 C 
ENDROOT
BRANCH   1   2
ATOM      2  C   UNL     1     164.034 165.477 158.766  1.00  0.00     0.000 C 
BRANCH   2   3
ATOM      3  C   UNL     1     163.468 166.633 157.926  1.00  0.00     0.000 C 
BRANCH   3   4
ATOM      4  C   UNL     1     161.953 166.773 158.140  1.00  0.00     0.000 C 
BRANCH   4   5
ATOM      5  C   UNL     1     161.133 166.304 156.923  1.00  0.00     0.000 C 
BRANCH   5   6
ATOM      6  C   UNL     1     161.768 166.649 155.559  1.00  0.00     0.000 C 
BRANCH   6   7
ATOM      7  C   UNL     1     160.763 166.727 154.393  1.00  0.00     0.000 C 
BRANCH   7   8
ATOM      8  C   UNL     1     161.411 166.614 152.998  1.00  0.00     0.000 C 
BRANCH   8   9
ATOM      9  C   UNL     1     162.414 167.750 152.727  1.00  0.00     0.000 C 
BRANCH   9  10
ATOM     10  C   UNL     1     163.882 167.295 152.826  1.00  0.00     0.006 C 
BRANCH  10  11
ATOM     11  C   UNL     1     164.874 168.223 152.104  1.00  0.00     0.053 C 
BRANCH  11  12
ATOM     12  C   UNL     1     164.901 169.601 152.694  1.00  0.00     0.041 C 
ATOM     13  O   UNL     1     164.152 170.503 152.232  1.00  0.00    -0.550 OA
ATOM     14  O   UNL     1     165.779 169.902 153.728  1.00  0.00    -0.550 OA
ENDBRANCH  11  12
ENDBRANCH  10  11
ENDBRANCH   9  10
ENDBRANCH   8   9
ENDBRANCH   7   8
ENDBRANCH   6   7
ENDBRANCH   5   6
ENDBRANCH   4   5
ENDBRANCH   3   4
ENDBRANCH   2   3
ENDBRANCH   1   2
BRANCH   1  15
ATOM     15  C   UNL     1     163.195 163.221 157.894  1.00  0.00     0.000 C 
BRANCH  15  16
ATOM     16  C   UNL     1     162.366 163.249 159.187  1.00  0.00     0.000 C 
BRANCH  16  17
ATOM     17  C   UNL     1     161.347 162.099 159.255  1.00  0.00     0.000 C 
BRANCH  17  18
ATOM     18  C   UNL     1     160.315 162.147 158.115  1.00  0.00    -0.000 C 
BRANCH  18  19
ATOM     19  C   UNL     1     159.336 163.339 158.168  1.00  0.00    -0.000 C 
BRANCH  19  20
ATOM     20  C   UNL     1     158.155 163.181 159.142  1.00  0.00    -0.000 C 
BRANCH  20  21
ATOM     21  C   UNL     1     158.144 164.249 160.249  1.00  0.00    -0.000 C 
BRANCH  21  22
ATOM     22  C   UNL     1     159.221 165.325 160.041  1.00  0.00    -0.000 C 
BRANCH  22  23
ATOM     23  C   UNL     1     159.469 166.172 161.301  1.00  0.00    -0.000 C 
BRANCH  23  24
ATOM     24  C   UNL     1     160.921 166.047 161.812  1.00  0.00    -0.000 C 
BRANCH  24  25
ATOM     25  C   UNL     1     161.350 164.598 162.095  1.00  0.00    -0.003 C 
ATOM     26  C   UNL     1     161.283 164.232 163.577  1.00  0.00     0.004 C 
ENDBRANCH  24  25
ENDBRANCH  23  24
ENDBRANCH  22  23
ENDBRANCH  21  22
ENDBRANCH  20  21
ENDBRANCH  19  20
ENDBRANCH  18  19
ENDBRANCH  17  18
ENDBRANCH  16  17
ENDBRANCH  15  16
ENDBRANCH   1  15
TORSDOF 22
ENDMDL
MODEL 5
REMARK VINA RESULT:    -4.922      4.266      9.300
REMARK INTER + INTRA:         -14.269
REMARK INTER:                 -11.850
REMARK INTRA:                  -2.419
REMARK UNBOUND:                -3.018
REMARK SMILES CCCCCCCCCCCCCCCCCCCCCCCC(=O)[O-]
REMARK SMILES IDX 13 1 14 2 15 3 16 4 17 5 18 6 19 7 20 8 21 9 22 10 23 11
REMARK SMILES IDX 24 12 25 13 26 14 12 15 11 16 10 17 9 18 8 19 7 20 6 21 5 22
REMARK SMILES IDX 4 23 3 24 2 25 1 26
REMARK H PARENT
REMARK Flexibility Score: inf
ROOT
ATOM      1  C   UNL     1     160.514 166.061 155.010  1.00  0.00     0.000 C 
ENDROOT
BRANCH   1   2
ATOM      2  C   UNL     1     160.982 166.507 156.404  1.00  0.00     0.000 C 
BRANCH   2   3
ATOM      3  C   UNL     1     162.512 166.607 156.506  1.00  0.00     0.000 C 
BRANCH   3   4
ATOM      4  C   UNL     1     162.944 166.914 157.949  1.00  0.00     0.000 C 
BRANCH   4   5
ATOM      5  C   UNL     1     163.497 165.678 158.681  1.00  0.00     0.000 C 
BRANCH   5   6
ATOM      6  C   UNL     1     163.439 164.373 157.857  1.00  0.00     0.000 C 
BRANCH   6   7
ATOM      7  C   UNL     1     162.524 163.286 158.455  1.00  0.00     0.000 C 
BRANCH   7   8
ATOM      8  C   UNL     1     161.671 163.770 159.644  1.00  0.00     0.000 C 
BRANCH   8   9
ATOM      9  C   UNL     1     160.234 164.128 159.225  1.00  0.00     0.000 C 
BRANCH   9  10
ATOM     10  C   UNL     1     159.294 164.356 160.423  1.00  0.00     0.006 C 
BRANCH  10  11
ATOM     11  C   UNL     1     158.716 165.780 160.502  1.00  0.00     0.053 C 
BRANCH  11  12
ATOM     12  C   UNL     1     159.778 166.818 160.708  1.00  0.00     0.041 C 
ATOM     13  O   UNL     1     160.488 166.800 161.748  1.00  0.00    -0.550 OA
ATOM     14  O   UNL     1     159.959 167.828 159.770  1.00  0.00    -0.550 OA
ENDBRANCH  11  12
ENDBRANCH  10  11
ENDBRANCH   9  10
ENDBRANCH   8   9
ENDBRANCH   7   8
ENDBRANCH   6   7
ENDBRANCH   5   6
ENDBRANCH   4   5
ENDBRANCH   3   4
ENDBRANCH   2   3
ENDBRANCH   1   2
BRANCH   1  15
ATOM     15  C   UNL     1     160.152 167.246 154.098  1.00  0.00     0.000 C 
BRANCH  15  16
ATOM     16  C   UNL     1     160.535 166.994 152.632  1.00  0.00     0.000 C 
BRANCH  16  17
ATOM     17  C   UNL     1     162.028 166.664 152.464  1.00  0.00     0.000 C 
BRANCH  17  18
ATOM     18  C   UNL     1     162.948 167.801 152.940  1.00  0.00    -0.000 C 
BRANCH  18  19
ATOM     19  C   UNL     1     164.453 167.576 152.683  1.00  0.00    -0.000 C 
BRANCH  19  20
ATOM     20  C   UNL     1     165.330 168.840 152.748  1.00  0.00    -0.000 C 
BRANCH  20  21
ATOM     21  C   UNL     1     164.593 170.106 152.282  1.00  0.00    -0.000 C 
BRANCH  21  22
ATOM     22  C   UNL     1     165.334 171.396 152.670  1.00  0.00    -0.000 C 
BRANCH  22  23
ATOM     23  C   UNL     1     165.985 172.095 151.464  1.00  0.00    -0.000 C 
BRANCH  23  24
ATOM     24  C   UNL     1     165.362 171.650 150.123  1.00  0.00    -0.000 C 
BRANCH  24  25
ATOM     25  C   UNL     1     166.392 171.116 149.114  1.00  0.00    -0.003 C 
ATOM     26  C   UNL     1     166.392 169.592 149.007  1.00  0.00     0.004 C 
ENDBRANCH  24  25
ENDBRANCH  23  24
ENDBRANCH  22  23
ENDBRANCH  21  22
ENDBRANCH  20  21
ENDBRANCH  19  20
ENDBRANCH  18  19
ENDBRANCH  17  18
ENDBRANCH  16  17
ENDBRANCH  15  16
ENDBRANCH   1  15
TORSDOF 22
ENDMDL
MODEL 6
REMARK VINA RESULT:    -4.840      3.264      5.575
REMARK INTER + INTRA:         -14.083
REMARK INTER:                 -11.391
REMARK INTRA:                  -2.692
REMARK UNBOUND:                -3.018
REMARK SMILES CCCCCCCCCCCCCCCCCCCCCCCC(=O)[O-]
REMARK SMILES IDX 13 1 14 2 15 3 16 4 17 5 18 6 19 7 20 8 21 9 22 10 23 11
REMARK SMILES IDX 24 12 25 13 26 14 12 15 11 16 10 17 9 18 8 19 7 20 6 21 5 22
REMARK SMILES IDX 4 23 3 24 2 25 1 26
REMARK H PARENT
REMARK Flexibility Score: inf
ROOT
ATOM      1  C   UNL     1     161.240 166.463 156.499  1.00  0.00     0.000 C 
ENDROOT
BRANCH   1   2
ATOM      2  C   UNL     1     160.444 166.118 155.231  1.00  0.00     0.000 C 
BRANCH   2   3
ATOM      3  C   UNL     1     160.776 167.050 154.056  1.00  0.00     0.000 C 
BRANCH   3   4
ATOM      4  C   UNL     1     160.996 166.246 152.766  1.00  0.00     0.000 C 
BRANCH   4   5
ATOM      5  C   UNL     1     162.365 166.522 152.117  1.00  0.00     0.000 C 
BRANCH   5   6
ATOM      6  C   UNL     1     163.133 167.711 152.735  1.00  0.00     0.000 C 
BRANCH   6   7
ATOM      7  C   UNL     1     164.636 167.451 152.952  1.00  0.00     0.000 C 
BRANCH   7   8
ATOM      8  C   UNL     1     165.341 168.527 153.803  1.00  0.00     0.000 C 
BRANCH   8   9
ATOM      9  C   UNL     1     166.268 169.423 152.962  1.00  0.00     0.000 C 
BRANCH   9  10
ATOM     10  C   UNL     1     165.870 169.476 151.476  1.00  0.00     0.006 C 
BRANCH  10  11
ATOM     11  C   UNL     1     165.257 170.819 151.040  1.00  0.00     0.053 C 
BRANCH  11  12
ATOM     12  C   UNL     1     166.299 171.865 150.779  1.00  0.00     0.041 C 
ATOM     13  O   UNL     1     166.726 172.056 149.609  1.00  0.00    -0.550 OA
ATOM     14  O   UNL     1     166.828 172.603 151.831  1.00  0.00    -0.550 OA
ENDBRANCH  11  12
ENDBRANCH  10  11
ENDBRANCH   9  10
ENDBRANCH   8   9
ENDBRANCH   7   8
ENDBRANCH   6   7
ENDBRANCH   5   6
ENDBRANCH   4   5
ENDBRANCH   3   4
ENDBRANCH   2   3
ENDBRANCH   1   2
BRANCH   1  15
ATOM     15  C   UNL     1     162.695 166.863 156.196  1.00  0.00     0.000 C 
BRANCH  15  16
ATOM     16  C   UNL     1     163.461 167.282 157.460  1.00  0.00     0.000 C 
BRANCH  16  17
ATOM     17  C   UNL     1     163.642 166.117 158.449  1.00  0.00     0.000 C 
BRANCH  17  18
ATOM     18  C   UNL     1     163.167 166.460 159.870  1.00  0.00    -0.000 C 
BRANCH  18  19
ATOM     19  C   UNL     1     162.355 167.767 159.992  1.00  0.00    -0.000 C 
BRANCH  19  20
ATOM     20  C   UNL     1     161.038 167.655 160.781  1.00  0.00    -0.000 C 
BRANCH  20  21
ATOM     21  C   UNL     1     159.852 167.208 159.910  1.00  0.00    -0.000 C 
BRANCH  21  22
ATOM     22  C   UNL     1     159.080 166.030 160.524  1.00  0.00    -0.000 C 
BRANCH  22  23
ATOM     23  C   UNL     1     159.925 164.746 160.615  1.00  0.00    -0.000 C 
BRANCH  23  24
ATOM     24  C   UNL     1     160.281 164.181 159.223  1.00  0.00    -0.000 C 
BRANCH  24  25
ATOM     25  C   UNL     1     159.720 162.771 158.971  1.00  0.00    -0.003 C 
ATOM     26  C   UNL     1     158.257 162.777 158.530  1.00  0.00     0.004 C 
ENDBRANCH  24  25
ENDBRANCH  23  24
ENDBRANCH  22  23
ENDBRANCH  21  22
ENDBRANCH  20  21
ENDBRANCH  19  20
ENDBRANCH  18  19
ENDBRANCH  17  18
ENDBRANCH  16  17
ENDBRANCH  15  16
ENDBRANCH   1  15
TORSDOF 22
ENDMDL
MODEL 7
REMARK VINA RESULT:    -4.834      3.420      5.239
REMARK INTER + INTRA:         -14.068
REMARK INTER:                 -11.718
REMARK INTRA:                  -2.350
REMARK UNBOUND:                -3.018
REMARK SMILES CCCCCCCCCCCCCCCCCCCCCCCC(=O)[O-]
REMARK SMILES IDX 13 1 14 2 15 3 16 4 17 5 18 6 19 7 20 8 21 9 22 10 23 11
REMARK SMILES IDX 24 12 25 13 26 14 12 15 11 16 10 17 9 18 8 19 7 20 6 21 5 22
REMARK SMILES IDX 4 23 3 24 2 25 1 26
REMARK H PARENT
REMARK Flexibility Score: inf
ROOT
ATOM      1  C   UNL     1     161.217 166.158 157.110  1.00  0.00     0.000 C 
ENDROOT
BRANCH   1   2
ATOM      2  C   UNL     1     161.630 166.563 155.687  1.00  0.00     0.000 C 
BRANCH   2   3
ATOM      3  C   UNL     1     160.453 166.525 154.700  1.00  0.00     0.000 C 
BRANCH   3   4
ATOM      4  C   UNL     1     160.958 166.419 153.253  1.00  0.00     0.000 C 
BRANCH   4   5
ATOM      5  C   UNL     1     161.919 167.560 152.872  1.00  0.00     0.000 C 
BRANCH   5   6
ATOM      6  C   UNL     1     163.330 167.090 152.455  1.00  0.00     0.000 C 
BRANCH   6   7
ATOM      7  C   UNL     1     164.480 167.795 153.200  1.00  0.00     0.000 C 
BRANCH   7   8
ATOM      8  C   UNL     1     165.235 168.834 152.348  1.00  0.00     0.000 C 
BRANCH   8   9
ATOM      9  C   UNL     1     164.455 170.153 152.208  1.00  0.00     0.000 C 
BRANCH   9  10
ATOM     10  C   UNL     1     165.162 171.179 151.304  1.00  0.00     0.006 C 
BRANCH  10  11
ATOM     11  C   UNL     1     166.480 171.721 151.884  1.00  0.00     0.053 C 
BRANCH  11  12
ATOM     12  C   UNL     1     166.336 172.174 153.306  1.00  0.00     0.041 C 
ATOM     13  O   UNL     1     166.993 171.609 154.220  1.00  0.00    -0.550 OA
ATOM     14  O   UNL     1     165.448 173.193 153.628  1.00  0.00    -0.550 OA
ENDBRANCH  11  12
ENDBRANCH  10  11
ENDBRANCH   9  10
ENDBRANCH   8   9
ENDBRANCH   7   8
ENDBRANCH   6   7
ENDBRANCH   5   6
ENDBRANCH   4   5
ENDBRANCH   3   4
ENDBRANCH   2   3
ENDBRANCH   1   2
BRANCH   1  15
ATOM     15  C   UNL     1     162.258 166.566 158.168  1.00  0.00     0.000 C 
BRANCH  15  16
ATOM     16  C   UNL     1     162.785 165.362 158.964  1.00  0.00     0.000 C 
BRANCH  16  17
ATOM     17  C   UNL     1     163.174 164.184 158.054  1.00  0.00     0.000 C 
BRANCH  17  18
ATOM     18  C   UNL     1     162.609 162.839 158.543  1.00  0.00    -0.000 C 
BRANCH  18  19
ATOM     19  C   UNL     1     161.262 162.427 157.912  1.00  0.00    -0.000 C 
BRANCH  19  20
ATOM     20  C   UNL     1     160.106 162.213 158.906  1.00  0.00    -0.000 C 
BRANCH  20  21
ATOM     21  C   UNL     1     158.811 162.926 158.482  1.00  0.00    -0.000 C 
BRANCH  21  22
ATOM     22  C   UNL     1     158.191 163.749 159.622  1.00  0.00    -0.000 C 
BRANCH  22  23
ATOM     23  C   UNL     1     159.246 164.456 160.491  1.00  0.00    -0.000 C 
BRANCH  23  24
ATOM     24  C   UNL     1     159.275 165.980 160.250  1.00  0.00    -0.000 C 
BRANCH  24  25
ATOM     25  C   UNL     1     159.970 166.767 161.374  1.00  0.00    -0.003 C 
ATOM     26  C   UNL     1     159.857 166.088 162.739  1.00  0.00     0.004 C 
ENDBRANCH  24  25
ENDBRANCH  23  24
ENDBRANCH  22  23
ENDBRANCH  21  22
ENDBRANCH  20  21
ENDBRANCH  19  20
ENDBRANCH  18  19
ENDBRANCH  17  18
ENDBRANCH  16  17
ENDBRANCH  15  16
ENDBRANCH   1  15
TORSDOF 22
ENDMDL
MODEL 8
REMARK VINA RESULT:    -4.794      3.742      8.130
REMARK INTER + INTRA:         -13.978
REMARK INTER:                 -11.578
REMARK INTRA:                  -2.400
REMARK UNBOUND:                -3.018
REMARK SMILES CCCCCCCCCCCCCCCCCCCCCCCC(=O)[O-]
REMARK SMILES IDX 13 1 14 2 15 3 16 4 17 5 18 6 19 7 20 8 21 9 22 10 23 11
REMARK SMILES IDX 24 12 25 13 26 14 12 15 11 16 10 17 9 18 8 19 7 20 6 21 5 22
REMARK SMILES IDX 4 23 3 24 2 25 1 26
REMARK H PARENT
REMARK Flexibility Score: inf
ROOT
ATOM      1  C   UNL     1     163.165 166.503 159.151  1.00  0.00     0.000 C 
ENDROOT
BRANCH   1   2
ATOM      2  C   UNL     1     164.102 165.293 159.013  1.00  0.00     0.000 C 
BRANCH   2   3
ATOM      3  C   UNL     1     163.707 164.374 157.846  1.00  0.00     0.000 C 
BRANCH   3   4
ATOM      4  C   UNL     1     163.268 162.995 158.362  1.00  0.00     0.000 C 
BRANCH   4   5
ATOM      5  C   UNL     1     161.972 163.054 159.192  1.00  0.00     0.000 C 
BRANCH   5   6
ATOM      6  C   UNL     1     160.698 163.326 158.363  1.00  0.00     0.000 C 
BRANCH   6   7
ATOM      7  C   UNL     1     159.445 162.581 158.863  1.00  0.00     0.000 C 
BRANCH   7   8
ATOM      8  C   UNL     1     158.257 163.506 159.194  1.00  0.00     0.000 C 
BRANCH   8   9
ATOM      9  C   UNL     1     158.474 164.291 160.500  1.00  0.00     0.000 C 
BRANCH   9  10
ATOM     10  C   UNL     1     158.464 165.817 160.296  1.00  0.00     0.006 C 
BRANCH  10  11
ATOM     11  C   UNL     1     159.787 166.507 160.671  1.00  0.00     0.053 C 
BRANCH  11  12
ATOM     12  C   UNL     1     160.327 166.032 161.987  1.00  0.00     0.041 C 
ATOM     13  O   UNL     1     159.754 166.356 163.061  1.00  0.00    -0.550 OA
ATOM     14  O   UNL     1     161.483 165.263 162.031  1.00  0.00    -0.550 OA
ENDBRANCH  11  12
ENDBRANCH  10  11
ENDBRANCH   9  10
ENDBRANCH   8   9
ENDBRANCH   7   8
ENDBRANCH   6   7
ENDBRANCH   5   6
ENDBRANCH   4   5
ENDBRANCH   3   4
ENDBRANCH   2   3
ENDBRANCH   1   2
BRANCH   1  15
ATOM     15  C   UNL     1     162.955 167.246 157.820  1.00  0.00     0.000 C 
BRANCH  15  16
ATOM     16  C   UNL     1     161.685 166.785 157.087  1.00  0.00     0.000 C 
BRANCH  16  17
ATOM     17  C   UNL     1     161.893 166.676 155.567  1.00  0.00     0.000 C 
BRANCH  17  18
ATOM     18  C   UNL     1     160.573 166.531 154.791  1.00  0.00    -0.000 C 
BRANCH  18  19
ATOM     19  C   UNL     1     160.714 166.523 153.254  1.00  0.00    -0.000 C 
BRANCH  19  20
ATOM     20  C   UNL     1     161.866 167.376 152.692  1.00  0.00    -0.000 C 
BRANCH  20  21
ATOM     21  C   UNL     1     162.866 166.558 151.858  1.00  0.00    -0.000 C 
BRANCH  21  22
ATOM     22  C   UNL     1     164.322 166.779 152.301  1.00  0.00    -0.000 C 
BRANCH  22  23
ATOM     23  C   UNL     1     164.482 167.985 153.244  1.00  0.00    -0.000 C 
BRANCH  23  24
ATOM     24  C   UNL     1     165.550 168.981 152.741  1.00  0.00    -0.000 C 
BRANCH  24  25
ATOM     25  C   UNL     1     165.024 170.418 152.588  1.00  0.00    -0.003 C 
ATOM     26  C   UNL     1     165.066 170.921 151.146  1.00  0.00     0.004 C 
ENDBRANCH  24  25
ENDBRANCH  23  24
ENDBRANCH  22  23
ENDBRANCH  21  22
ENDBRANCH  20  21
ENDBRANCH  19  20
ENDBRANCH  18  19
ENDBRANCH  17  18
ENDBRANCH  16  17
ENDBRANCH  15  16
ENDBRANCH   1  15
TORSDOF 22
ENDMDL
MODEL 9
REMARK VINA RESULT:    -4.774      2.759      5.095
REMARK INTER + INTRA:         -13.931
REMARK INTER:                 -10.836
REMARK INTRA:                  -3.095
REMARK UNBOUND:                -3.018
REMARK SMILES CCCCCCCCCCCCCCCCCCCCCCCC(=O)[O-]
REMARK SMILES IDX 13 1 14 2 15 3 16 4 17 5 18 6 19 7 20 8 21 9 22 10 23 11
REMARK SMILES IDX 24 12 25 13 26 14 12 15 11 16 10 17 9 18 8 19 7 20 6 21 5 22
REMARK SMILES IDX 4 23 3 24 2 25 1 26
REMARK H PARENT
REMARK Flexibility Score: inf
ROOT
ATOM      1  C   UNL     1     163.220 167.207 157.277  1.00  0.00     0.000 C 
ENDROOT
BRANCH   1   2
ATOM      2  C   UNL     1     162.572 166.845 155.932  1.00  0.00     0.000 C 
BRANCH   2   3
ATOM      3  C   UNL     1     161.090 166.464 156.077  1.00  0.00     0.000 C 
BRANCH   3   4
ATOM      4  C   UNL     1     160.419 166.349 154.699  1.00  0.00     0.000 C 
BRANCH   4   5
ATOM      5  C   UNL     1     161.137 167.175 153.616  1.00  0.00     0.000 C 
BRANCH   5   6
ATOM      6  C   UNL     1     161.664 166.342 152.427  1.00  0.00     0.000 C 
BRANCH   6   7
ATOM      7  C   UNL     1     163.134 166.623 152.058  1.00  0.00     0.000 C 
BRANCH   7   8
ATOM      8  C   UNL     1     163.695 167.923 152.669  1.00  0.00     0.000 C 
BRANCH   8   9
ATOM      9  C   UNL     1     165.158 167.770 153.122  1.00  0.00     0.000 C 
BRANCH   9  10
ATOM     10  C   UNL     1     165.585 168.832 154.152  1.00  0.00     0.006 C 
BRANCH  10  11
ATOM     11  C   UNL     1     166.795 169.675 153.715  1.00  0.00     0.053 C 
BRANCH  11  12
ATOM     12  C   UNL     1     166.408 170.803 152.806  1.00  0.00     0.041 C 
ATOM     13  O   UNL     1     166.460 170.656 151.556  1.00  0.00    -0.550 OA
ATOM     14  O   UNL     1     166.026 172.029 153.337  1.00  0.00    -0.550 OA
ENDBRANCH  11  12
ENDBRANCH  10  11
ENDBRANCH   9  10
ENDBRANCH   8   9
ENDBRANCH   7   8
ENDBRANCH   6   7
ENDBRANCH   5   6
ENDBRANCH   4   5
ENDBRANCH   3   4
ENDBRANCH   2   3
ENDBRANCH   1   2
BRANCH   1  15
ATOM     15  C   UNL     1     162.307 166.901 158.477  1.00  0.00     0.000 C 
BRANCH  15  16
ATOM     16  C   UNL     1     163.100 166.697 159.778  1.00  0.00     0.000 C 
BRANCH  16  17
ATOM     17  C   UNL     1     162.213 166.201 160.933  1.00  0.00     0.000 C 
BRANCH  17  18
ATOM     18  C   UNL     1     161.005 167.115 161.196  1.00  0.00    -0.000 C 
BRANCH  18  19
ATOM     19  C   UNL     1     159.676 166.382 161.474  1.00  0.00    -0.000 C 
BRANCH  19  20
ATOM     20  C   UNL     1     158.962 165.817 160.232  1.00  0.00    -0.000 C 
BRANCH  20  21
ATOM     21  C   UNL     1     158.608 164.327 160.369  1.00  0.00    -0.000 C 
BRANCH  21  22
ATOM     22  C   UNL     1     158.978 163.516 159.117  1.00  0.00    -0.000 C 
BRANCH  22  23
ATOM     23  C   UNL     1     160.423 163.764 158.651  1.00  0.00    -0.000 C 
BRANCH  23  24
ATOM     24  C   UNL     1     161.450 162.962 159.479  1.00  0.00    -0.000 C 
BRANCH  24  25
ATOM     25  C   UNL     1     162.592 162.371 158.635  1.00  0.00    -0.003 C 
ATOM     26  C   UNL     1     163.504 163.436 158.029  1.00  0.00     0.004 C 
ENDBRANCH  24  25
ENDBRANCH  23  24
ENDBRANCH  22  23
ENDBRANCH  21  22
ENDBRANCH  20  21
ENDBRANCH  19  20
ENDBRANCH  18  19
ENDBRANCH  17  18
ENDBRANCH  16  17
ENDBRANCH  15  16
ENDBRANCH   1  15
TORSDOF 22
ENDMDL
