MODEL 1
REMARK VINA RESULT:    -4.615      0.000      0.000
REMARK INTER + INTRA:          -9.908
REMARK INTER:                  -8.662
REMARK INTRA:                  -1.245
REMARK UNBOUND:                -1.245
REMARK SMILES CCCCCCCCC=CCCCCCCCC(=O)[O-]
REMARK SMILES IDX 10 1 9 2 11 3 12 4 13 5 14 6 15 7 16 8 17 9 18 10 19 11
REMARK SMILES IDX 20 12 8 13 7 14 6 15 5 16 4 17 3 18 2 19 1 20
REMARK H PARENT
REMARK Flexibility Score: inf
ROOT
ATOM      1  C   UNL     1       2.766  12.828  19.137  1.00  0.00    -0.031 C 
ATOM      2  C   UNL     1       2.186  14.037  19.011  1.00  0.00    -0.031 C 
ENDROOT
BRANCH   1   3
ATOM      3  C   UNL     1       2.744  11.750  18.085  1.00  0.00     0.027 C 
BRANCH   3   4
ATOM      4  C   UNL     1       2.569  10.365  18.718  1.00  0.00     0.004 C 
BRANCH   4   5
ATOM      5  C   UNL     1       3.909   9.616  18.776  1.00  0.00     0.000 C 
BRANCH   5   6
ATOM      6  C   UNL     1       4.664   9.628  17.435  1.00  0.00     0.000 C 
BRANCH   6   7
ATOM      7  C   UNL     1       6.066  10.263  17.480  1.00  0.00     0.000 C 
BRANCH   7   8
ATOM      8  C   UNL     1       6.315  11.080  18.760  1.00  0.00     0.006 C 
BRANCH   8   9
ATOM      9  C   UNL     1       7.671  10.755  19.399  1.00  0.00     0.053 C 
BRANCH   9  10
ATOM     10  C   UNL     1       7.529  10.372  20.841  1.00  0.00     0.041 C 
ATOM     11  O   UNL     1       6.397  10.386  21.392  1.00  0.00    -0.550 OA
ATOM     12  O   UNL     1       8.652  10.025  21.582  1.00  0.00    -0.550 OA
ENDBRANCH   9  10
ENDBRANCH   8   9
ENDBRANCH   7   8
ENDBRANCH   6   7
ENDBRANCH   5   6
ENDBRANCH   4   5
ENDBRANCH   3   4
ENDBRANCH   1   3
BRANCH   2  13
ATOM     13  C   UNL     1       1.465  14.532  17.778  1.00  0.00     0.027 C 
BRANCH  13  14
ATOM     14  C   UNL     1       0.925  15.953  17.978  1.00  0.00     0.004 C 
BRANCH  14  15
ATOM     15  C   UNL     1      -0.515  15.953  18.514  1.00  0.00     0.000 C 
BRANCH  15  16
ATOM     16  C   UNL     1      -0.832  17.267  19.236  1.00  0.00     0.000 C 
BRANCH  16  17
ATOM     17  C   UNL     1       0.326  18.266  19.095  1.00  0.00    -0.000 C 
BRANCH  17  18
ATOM     18  C   UNL     1      -0.115  19.619  18.507  1.00  0.00    -0.000 C 
BRANCH  18  19
ATOM     19  C   UNL     1       0.524  19.973  17.153  1.00  0.00    -0.003 C 
ATOM     20  C   UNL     1       2.049  20.048  17.212  1.00  0.00     0.004 C 
ENDBRANCH  18  19
ENDBRANCH  17  18
ENDBRANCH  16  17
ENDBRANCH  15  16
ENDBRANCH  14  15
ENDBRANCH  13  14
ENDBRANCH   2  13
TORSDOF 15
ENDMDL
MODEL 2
REMARK VINA RESULT:    -4.551      0.958      1.855
REMARK INTER + INTRA:          -9.787
REMARK INTER:                  -8.530
REMARK INTRA:                  -1.257
REMARK UNBOUND:                -1.245
REMARK SMILES CCCCCCCCC=CCCCCCCCC(=O)[O-]
REMARK SMILES IDX 10 1 9 2 11 3 12 4 13 5 14 6 15 7 16 8 17 9 18 10 19 11
REMARK SMILES IDX 20 12 8 13 7 14 6 15 5 16 4 17 3 18 2 19 1 20
REMARK H PARENT
REMARK Flexibility Score: inf
ROOT
ATOM      1  C   UNL     1       1.670  14.789  17.993  1.00  0.00    -0.031 C 
ATOM      2  C   UNL     1       0.614  15.623  18.025  1.00  0.00    -0.031 C 
ENDROOT
BRANCH   1   3
ATOM      3  C   UNL     1       1.913  13.673  18.976  1.00  0.00     0.027 C 
BRANCH   3   4
ATOM      4  C   UNL     1       2.904  12.647  18.412  1.00  0.00     0.004 C 
BRANCH   4   5
ATOM      5  C   UNL     1       2.442  11.214  18.715  1.00  0.00     0.000 C 
BRANCH   5   6
ATOM      6  C   UNL     1       3.607  10.264  19.048  1.00  0.00     0.000 C 
BRANCH   6   7
ATOM      7  C   UNL     1       4.601  10.021  17.897  1.00  0.00     0.000 C 
BRANCH   7   8
ATOM      8  C   UNL     1       6.050  10.376  18.270  1.00  0.00     0.006 C 
BRANCH   8   9
ATOM      9  C   UNL     1       6.122  11.361  19.443  1.00  0.00     0.053 C 
BRANCH   9  10
ATOM     10  C   UNL     1       6.667  10.714  20.680  1.00  0.00     0.041 C 
ATOM     11  O   UNL     1       5.885  10.286  21.569  1.00  0.00    -0.550 OA
ATOM     12  O   UNL     1       8.041  10.609  20.862  1.00  0.00    -0.550 OA
ENDBRANCH   9  10
ENDBRANCH   8   9
ENDBRANCH   7   8
ENDBRANCH   6   7
ENDBRANCH   5   6
ENDBRANCH   4   5
ENDBRANCH   3   4
ENDBRANCH   1   3
BRANCH   2  13
ATOM     13  C   UNL     1      -0.526  15.548  19.014  1.00  0.00     0.027 C 
BRANCH  13  14
ATOM     14  C   UNL     1      -1.827  16.093  18.412  1.00  0.00     0.004 C 
BRANCH  14  15
ATOM     15  C   UNL     1      -2.125  17.525  18.882  1.00  0.00     0.000 C 
BRANCH  15  16
ATOM     16  C   UNL     1      -1.528  17.784  20.269  1.00  0.00     0.000 C 
BRANCH  16  17
ATOM     17  C   UNL     1      -0.878  19.175  20.337  1.00  0.00    -0.000 C 
BRANCH  17  18
ATOM     18  C   UNL     1      -0.398  19.681  18.965  1.00  0.00    -0.000 C 
BRANCH  18  19
ATOM     19  C   UNL     1       1.086  19.412  18.661  1.00  0.00    -0.003 C 
ATOM     20  C   UNL     1       1.479  19.772  17.229  1.00  0.00     0.004 C 
ENDBRANCH  18  19
ENDBRANCH  17  18
ENDBRANCH  16  17
ENDBRANCH  15  16
ENDBRANCH  14  15
ENDBRANCH  13  14
ENDBRANCH   2  13
TORSDOF 15
ENDMDL
MODEL 3
REMARK VINA RESULT:    -4.349      1.832      2.503
REMARK INTER + INTRA:          -9.408
REMARK INTER:                  -8.174
REMARK INTRA:                  -1.234
REMARK UNBOUND:                -1.245
REMARK SMILES CCCCCCCCC=CCCCCCCCC(=O)[O-]
REMARK SMILES IDX 10 1 9 2 11 3 12 4 13 5 14 6 15 7 16 8 17 9 18 10 19 11
REMARK SMILES IDX 20 12 8 13 7 14 6 15 5 16 4 17 3 18 2 19 1 20
REMARK H PARENT
REMARK Flexibility Score: inf
ROOT
ATOM      1  C   UNL     1       1.783  14.551  18.037  1.00  0.00    -0.031 C 
ATOM      2  C   UNL     1       0.767  15.433  17.987  1.00  0.00    -0.031 C 
ENDROOT
BRANCH   1   3
ATOM      3  C   UNL     1       2.000  13.553  19.145  1.00  0.00     0.027 C 
BRANCH   3   4
ATOM      4  C   UNL     1       3.187  12.632  18.833  1.00  0.00     0.004 C 
BRANCH   4   5
ATOM      5  C   UNL     1       2.719  11.183  18.636  1.00  0.00     0.000 C 
BRANCH   5   6
ATOM      6  C   UNL     1       3.677  10.151  19.257  1.00  0.00     0.000 C 
BRANCH   6   7
ATOM      7  C   UNL     1       4.780  10.741  20.155  1.00  0.00     0.000 C 
BRANCH   7   8
ATOM      8  C   UNL     1       6.199  10.407  19.664  1.00  0.00     0.006 C 
BRANCH   8   9
ATOM      9  C   UNL     1       6.657  11.342  18.537  1.00  0.00     0.053 C 
BRANCH   9  10
ATOM     10  C   UNL     1       6.760  10.624  17.226  1.00  0.00     0.041 C 
ATOM     11  O   UNL     1       5.829   9.870  16.840  1.00  0.00    -0.550 OA
ATOM     12  O   UNL     1       7.900  10.769  16.443  1.00  0.00    -0.550 OA
ENDBRANCH   9  10
ENDBRANCH   8   9
ENDBRANCH   7   8
ENDBRANCH   6   7
ENDBRANCH   5   6
ENDBRANCH   4   5
ENDBRANCH   3   4
ENDBRANCH   1   3
BRANCH   2  13
ATOM     13  C   UNL     1      -0.349  15.534  19.001  1.00  0.00     0.027 C 
BRANCH  13  14
ATOM     14  C   UNL     1      -1.638  16.068  18.363  1.00  0.00     0.004 C 
BRANCH  14  15
ATOM     15  C   UNL     1      -1.948  17.506  18.807  1.00  0.00     0.000 C 
BRANCH  15  16
ATOM     16  C   UNL     1      -0.904  18.010  19.809  1.00  0.00     0.000 C 
BRANCH  16  17
ATOM     17  C   UNL     1      -0.408  19.413  19.427  1.00  0.00    -0.000 C 
BRANCH  17  18
ATOM     18  C   UNL     1      -0.615  19.738  17.936  1.00  0.00    -0.000 C 
BRANCH  18  19
ATOM     19  C   UNL     1       0.665  20.124  17.176  1.00  0.00    -0.003 C 
ATOM     20  C   UNL     1       1.932  19.543  17.802  1.00  0.00     0.004 C 
ENDBRANCH  18  19
ENDBRANCH  17  18
ENDBRANCH  16  17
ENDBRANCH  15  16
ENDBRANCH  14  15
ENDBRANCH  13  14
ENDBRANCH   2  13
TORSDOF 15
ENDMDL
MODEL 4
REMARK VINA RESULT:    -4.283      1.830      2.208
REMARK INTER + INTRA:          -9.284
REMARK INTER:                  -8.093
REMARK INTRA:                  -1.190
REMARK UNBOUND:                -1.245
REMARK SMILES CCCCCCCCC=CCCCCCCCC(=O)[O-]
REMARK SMILES IDX 10 1 9 2 11 3 12 4 13 5 14 6 15 7 16 8 17 9 18 10 19 11
REMARK SMILES IDX 20 12 8 13 7 14 6 15 5 16 4 17 3 18 2 19 1 20
REMARK H PARENT
REMARK Flexibility Score: inf
ROOT
ATOM      1  C   UNL     1       2.623  12.662  19.131  1.00  0.00    -0.031 C 
ATOM      2  C   UNL     1       2.106  13.898  19.003  1.00  0.00    -0.031 C 
ENDROOT
BRANCH   1   3
ATOM      3  C   UNL     1       2.737  11.658  18.014  1.00  0.00     0.027 C 
BRANCH   3   4
ATOM      4  C   UNL     1       2.567  10.227  18.538  1.00  0.00     0.004 C 
BRANCH   4   5
ATOM      5  C   UNL     1       3.929   9.597  18.863  1.00  0.00     0.000 C 
BRANCH   5   6
ATOM      6  C   UNL     1       4.318   9.736  20.346  1.00  0.00     0.000 C 
BRANCH   6   7
ATOM      7  C   UNL     1       5.619  10.518  20.610  1.00  0.00     0.000 C 
BRANCH   7   8
ATOM      8  C   UNL     1       6.066  11.364  19.405  1.00  0.00     0.006 C 
BRANCH   8   9
ATOM      9  C   UNL     1       7.223  10.711  18.637  1.00  0.00     0.053 C 
BRANCH   9  10
ATOM     10  C   UNL     1       7.025  10.798  17.154  1.00  0.00     0.041 C 
ATOM     11  O   UNL     1       7.632  11.674  16.483  1.00  0.00    -0.550 OA
ATOM     12  O   UNL     1       6.148   9.928  16.517  1.00  0.00    -0.550 OA
ENDBRANCH   9  10
ENDBRANCH   8   9
ENDBRANCH   7   8
ENDBRANCH   6   7
ENDBRANCH   5   6
ENDBRANCH   4   5
ENDBRANCH   3   4
ENDBRANCH   1   3
BRANCH   2  13
ATOM     13  C   UNL     1       1.604  14.502  17.712  1.00  0.00     0.027 C 
BRANCH  13  14
ATOM     14  C   UNL     1       0.854  15.816  17.963  1.00  0.00     0.004 C 
BRANCH  14  15
ATOM     15  C   UNL     1      -0.439  15.600  18.763  1.00  0.00     0.000 C 
BRANCH  15  16
ATOM     16  C   UNL     1      -1.345  16.833  18.688  1.00  0.00     0.000 C 
BRANCH  16  17
ATOM     17  C   UNL     1      -0.584  18.101  19.105  1.00  0.00    -0.000 C 
BRANCH  17  18
ATOM     18  C   UNL     1      -0.929  19.323  18.234  1.00  0.00    -0.000 C 
BRANCH  18  19
ATOM     19  C   UNL     1       0.274  19.971  17.526  1.00  0.00    -0.003 C 
ATOM     20  C   UNL     1       1.614  19.383  17.964  1.00  0.00     0.004 C 
ENDBRANCH  18  19
ENDBRANCH  17  18
ENDBRANCH  16  17
ENDBRANCH  15  16
ENDBRANCH  14  15
ENDBRANCH  13  14
ENDBRANCH   2  13
TORSDOF 15
ENDMDL
MODEL 5
REMARK VINA RESULT:    -4.255      3.780      9.207
REMARK INTER + INTRA:          -9.232
REMARK INTER:                  -8.075
REMARK INTRA:                  -1.157
REMARK UNBOUND:                -1.245
REMARK SMILES CCCCCCCCC=CCCCCCCCC(=O)[O-]
REMARK SMILES IDX 10 1 9 2 11 3 12 4 13 5 14 6 15 7 16 8 17 9 18 10 19 11
REMARK SMILES IDX 20 12 8 13 7 14 6 15 5 16 4 17 3 18 2 19 1 20
REMARK H PARENT
REMARK Flexibility Score: inf
ROOT
ATOM      1  C   UNL     1       2.327  13.722  19.094  1.00  0.00    -0.031 C 
ATOM      2  C   UNL     1       2.780  12.455  19.075  1.00  0.00    -0.031 C 
ENDROOT
BRANCH   1   3
ATOM      3  C   UNL     1       1.680  14.421  17.927  1.00  0.00     0.027 C 
BRANCH   3   4
ATOM      4  C   UNL     1       1.049  15.750  18.359  1.00  0.00     0.004 C 
BRANCH   4   5
ATOM      5  C   UNL     1      -0.482  15.642  18.402  1.00  0.00     0.000 C 
BRANCH   5   6
ATOM      6  C   UNL     1      -1.140  16.740  19.257  1.00  0.00     0.000 C 
BRANCH   6   7
ATOM      7  C   UNL     1      -2.017  17.738  18.478  1.00  0.00     0.000 C 
BRANCH   7   8
ATOM      8  C   UNL     1      -1.576  19.200  18.667  1.00  0.00     0.006 C 
BRANCH   8   9
ATOM      9  C   UNL     1      -0.451  19.595  17.702  1.00  0.00     0.053 C 
BRANCH   9  10
ATOM     10  C   UNL     1       0.880  19.645  18.390  1.00  0.00     0.041 C 
ATOM     11  O   UNL     1       0.947  19.584  19.646  1.00  0.00    -0.550 OA
ATOM     12  O   UNL     1       2.043  19.785  17.643  1.00  0.00    -0.550 OA
ENDBRANCH   9  10
ENDBRANCH   8   9
ENDBRANCH   7   8
ENDBRANCH   6   7
ENDBRANCH   5   6
ENDBRANCH   4   5
ENDBRANCH   3   4
ENDBRANCH   1   3
BRANCH   2  13
ATOM     13  C   UNL     1       2.668  11.508  17.903  1.00  0.00     0.027 C 
BRANCH  13  14
ATOM     14  C   UNL     1       2.772  10.045  18.353  1.00  0.00     0.004 C 
BRANCH  14  15
ATOM     15  C   UNL     1       4.173   9.702  18.881  1.00  0.00     0.000 C 
BRANCH  15  16
ATOM     16  C   UNL     1       5.249  10.027  17.839  1.00  0.00     0.000 C 
BRANCH  16  17
ATOM     17  C   UNL     1       6.400  10.826  18.469  1.00  0.00    -0.000 C 
BRANCH  17  18
ATOM     18  C   UNL     1       6.133  11.209  19.936  1.00  0.00    -0.000 C 
BRANCH  18  19
ATOM     19  C   UNL     1       6.786  10.281  20.975  1.00  0.00    -0.003 C 
ATOM     20  C   UNL     1       8.303  10.186  20.823  1.00  0.00     0.004 C 
ENDBRANCH  18  19
ENDBRANCH  17  18
ENDBRANCH  16  17
ENDBRANCH  15  16
ENDBRANCH  14  15
ENDBRANCH  13  14
ENDBRANCH   2  13
TORSDOF 15
ENDMDL
MODEL 6
REMARK VINA RESULT:    -4.195      3.980      8.837
REMARK INTER + INTRA:          -9.119
REMARK INTER:                  -8.623
REMARK INTRA:                  -0.496
REMARK UNBOUND:                -1.245
REMARK SMILES CCCCCCCCC=CCCCCCCCC(=O)[O-]
REMARK SMILES IDX 10 1 9 2 11 3 12 4 13 5 14 6 15 7 16 8 17 9 18 10 19 11
REMARK SMILES IDX 20 12 8 13 7 14 6 15 5 16 4 17 3 18 2 19 1 20
REMARK H PARENT
REMARK Flexibility Score: inf
ROOT
ATOM      1  C   UNL     1       4.104  10.870  20.217  1.00  0.00    -0.031 C 
ATOM      2  C   UNL     1       5.183  10.337  20.821  1.00  0.00    -0.031 C 
ENDROOT
BRANCH   1   3
ATOM      3  C   UNL     1       4.070  12.224  19.558  1.00  0.00     0.027 C 
BRANCH   3   4
ATOM      4  C   UNL     1       2.746  12.443  18.814  1.00  0.00     0.004 C 
BRANCH   4   5
ATOM      5  C   UNL     1       2.152  13.819  19.147  1.00  0.00     0.000 C 
BRANCH   5   6
ATOM      6  C   UNL     1       1.734  14.612  17.895  1.00  0.00     0.000 C 
BRANCH   6   7
ATOM      7  C   UNL     1       0.491  15.505  18.073  1.00  0.00     0.000 C 
BRANCH   7   8
ATOM      8  C   UNL     1       0.831  16.909  18.602  1.00  0.00     0.006 C 
BRANCH   8   9
ATOM      9  C   UNL     1      -0.382  17.849  18.570  1.00  0.00     0.053 C 
BRANCH   9  10
ATOM     10  C   UNL     1      -0.597  18.524  19.891  1.00  0.00     0.041 C 
ATOM     11  O   UNL     1       0.235  19.369  20.314  1.00  0.00    -0.550 OA
ATOM     12  O   UNL     1      -1.704  18.198  20.666  1.00  0.00    -0.550 OA
ENDBRANCH   9  10
ENDBRANCH   8   9
ENDBRANCH   7   8
ENDBRANCH   6   7
ENDBRANCH   5   6
ENDBRANCH   4   5
ENDBRANCH   3   4
ENDBRANCH   1   3
BRANCH   2  13
ATOM     13  C   UNL     1       6.548  10.982  20.891  1.00  0.00     0.027 C 
BRANCH  13  14
ATOM     14  C   UNL     1       7.387  10.653  19.650  1.00  0.00     0.004 C 
BRANCH  14  15
ATOM     15  C   UNL     1       6.839  11.332  18.386  1.00  0.00     0.000 C 
BRANCH  15  16
ATOM     16  C   UNL     1       7.219  10.542  17.129  1.00  0.00     0.000 C 
BRANCH  16  17
ATOM     17  C   UNL     1       5.971   9.965  16.444  1.00  0.00    -0.000 C 
BRANCH  17  18
ATOM     18  C   UNL     1       4.849   9.611  17.439  1.00  0.00    -0.000 C 
BRANCH  18  19
ATOM     19  C   UNL     1       3.588   9.005  16.800  1.00  0.00    -0.003 C 
ATOM     20  C   UNL     1       2.418   8.890  17.776  1.00  0.00     0.004 C 
ENDBRANCH  18  19
ENDBRANCH  17  18
ENDBRANCH  16  17
ENDBRANCH  15  16
ENDBRANCH  14  15
ENDBRANCH  13  14
ENDBRANCH   2  13
TORSDOF 15
ENDMDL
MODEL 7
REMARK VINA RESULT:    -4.185      4.018      9.152
REMARK INTER + INTRA:          -9.100
REMARK INTER:                  -7.743
REMARK INTRA:                  -1.357
REMARK UNBOUND:                -1.245
REMARK SMILES CCCCCCCCC=CCCCCCCCC(=O)[O-]
REMARK SMILES IDX 10 1 9 2 11 3 12 4 13 5 14 6 15 7 16 8 17 9 18 10 19 11
REMARK SMILES IDX 20 12 8 13 7 14 6 15 5 16 4 17 3 18 2 19 1 20
REMARK H PARENT
REMARK Flexibility Score: inf
ROOT
ATOM      1  C   UNL     1       2.366  11.653  19.131  1.00  0.00    -0.031 C 
ATOM      2  C   UNL     1       2.643  10.393  18.744  1.00  0.00    -0.031 C 
ENDROOT
BRANCH   1   3
ATOM      3  C   UNL     1       2.772  12.893  18.378  1.00  0.00     0.027 C 
BRANCH   3   4
ATOM      4  C   UNL     1       2.004  14.121  18.882  1.00  0.00     0.004 C 
BRANCH   4   5
ATOM      5  C   UNL     1       1.361  14.882  17.713  1.00  0.00     0.000 C 
BRANCH   5   6
ATOM      6  C   UNL     1       0.571  16.124  18.165  1.00  0.00     0.000 C 
BRANCH   6   7
ATOM      7  C   UNL     1      -0.837  15.836  18.721  1.00  0.00     0.000 C 
BRANCH   7   8
ATOM      8  C   UNL     1      -1.672  17.111  18.932  1.00  0.00     0.006 C 
BRANCH   8   9
ATOM      9  C   UNL     1      -1.216  17.904  20.163  1.00  0.00     0.053 C 
BRANCH   9  10
ATOM     10  C   UNL     1      -0.668  19.248  19.787  1.00  0.00     0.041 C 
ATOM     11  O   UNL     1       0.364  19.693  20.353  1.00  0.00    -0.550 OA
ATOM     12  O   UNL     1      -1.316  20.019  18.829  1.00  0.00    -0.550 OA
ENDBRANCH   9  10
ENDBRANCH   8   9
ENDBRANCH   7   8
ENDBRANCH   6   7
ENDBRANCH   5   6
ENDBRANCH   4   5
ENDBRANCH   3   4
ENDBRANCH   1   3
BRANCH   2  13
ATOM     13  C   UNL     1       3.358  10.013  17.468  1.00  0.00     0.027 C 
BRANCH  13  14
ATOM     14  C   UNL     1       4.765   9.475  17.754  1.00  0.00     0.004 C 
BRANCH  14  15
ATOM     15  C   UNL     1       5.801  10.005  16.751  1.00  0.00     0.000 C 
BRANCH  15  16
ATOM     16  C   UNL     1       6.856  10.866  17.453  1.00  0.00     0.000 C 
BRANCH  16  17
ATOM     17  C   UNL     1       6.414  11.223  18.880  1.00  0.00    -0.000 C 
BRANCH  17  18
ATOM     18  C   UNL     1       7.391  10.716  19.956  1.00  0.00    -0.000 C 
BRANCH  18  19
ATOM     19  C   UNL     1       6.722  10.082  21.188  1.00  0.00    -0.003 C 
ATOM     20  C   UNL     1       5.216  10.328  21.244  1.00  0.00     0.004 C 
ENDBRANCH  18  19
ENDBRANCH  17  18
ENDBRANCH  16  17
ENDBRANCH  15  16
ENDBRANCH  14  15
ENDBRANCH  13  14
ENDBRANCH   2  13
TORSDOF 15
ENDMDL
MODEL 8
REMARK VINA RESULT:    -3.861      3.604      9.294
REMARK INTER + INTRA:          -8.492
REMARK INTER:                  -7.528
REMARK INTRA:                  -0.964
REMARK UNBOUND:                -1.245
REMARK SMILES CCCCCCCCC=CCCCCCCCC(=O)[O-]
REMARK SMILES IDX 10 1 9 2 11 3 12 4 13 5 14 6 15 7 16 8 17 9 18 10 19 11
REMARK SMILES IDX 20 12 8 13 7 14 6 15 5 16 4 17 3 18 2 19 1 20
REMARK H PARENT
REMARK Flexibility Score: inf
ROOT
ATOM      1  C   UNL     1       1.203  15.251  17.960  1.00  0.00    -0.031 C 
ATOM      2  C   UNL     1       2.098  14.246  18.006  1.00  0.00    -0.031 C 
ENDROOT
BRANCH   1   3
ATOM      3  C   UNL     1       0.133  15.497  18.992  1.00  0.00     0.027 C 
BRANCH   3   4
ATOM      4  C   UNL     1      -1.048  16.268  18.390  1.00  0.00     0.004 C 
BRANCH   4   5
ATOM      5  C   UNL     1      -2.125  16.537  19.451  1.00  0.00     0.000 C 
BRANCH   5   6
ATOM      6  C   UNL     1      -1.608  17.374  20.635  1.00  0.00     0.000 C 
BRANCH   6   7
ATOM      7  C   UNL     1      -1.843  18.891  20.516  1.00  0.00     0.000 C 
BRANCH   7   8
ATOM      8  C   UNL     1      -0.572  19.669  20.135  1.00  0.00     0.006 C 
BRANCH   8   9
ATOM      9  C   UNL     1      -0.513  19.985  18.635  1.00  0.00     0.053 C 
BRANCH   9  10
ATOM     10  C   UNL     1       0.764  19.504  18.015  1.00  0.00     0.041 C 
ATOM     11  O   UNL     1       1.069  19.848  16.843  1.00  0.00    -0.550 OA
ATOM     12  O   UNL     1       1.603  18.653  18.724  1.00  0.00    -0.550 OA
ENDBRANCH   9  10
ENDBRANCH   8   9
ENDBRANCH   7   8
ENDBRANCH   6   7
ENDBRANCH   5   6
ENDBRANCH   4   5
ENDBRANCH   3   4
ENDBRANCH   1   3
BRANCH   2  13
ATOM     13  C   UNL     1       2.214  13.235  19.123  1.00  0.00     0.027 C 
BRANCH  13  14
ATOM     14  C   UNL     1       3.186  12.106  18.758  1.00  0.00     0.004 C 
BRANCH  14  15
ATOM     15  C   UNL     1       2.453  10.850  18.264  1.00  0.00     0.000 C 
BRANCH  15  16
ATOM     16  C   UNL     1       3.355   9.615  18.355  1.00  0.00     0.000 C 
BRANCH  16  17
ATOM     17  C   UNL     1       4.836  10.006  18.241  1.00  0.00    -0.000 C 
BRANCH  17  18
ATOM     18  C   UNL     1       5.564  10.005  19.598  1.00  0.00    -0.000 C 
BRANCH  18  19
ATOM     19  C   UNL     1       6.922  10.729  19.603  1.00  0.00    -0.003 C 
ATOM     20  C   UNL     1       7.772  10.398  20.828  1.00  0.00     0.004 C 
ENDBRANCH  18  19
ENDBRANCH  17  18
ENDBRANCH  16  17
ENDBRANCH  15  16
ENDBRANCH  14  15
ENDBRANCH  13  14
ENDBRANCH   2  13
TORSDOF 15
ENDMDL
MODEL 9
REMARK VINA RESULT:    -3.772      3.796      8.800
REMARK INTER + INTRA:          -8.325
REMARK INTER:                  -7.438
REMARK INTRA:                  -0.887
REMARK UNBOUND:                -1.245
REMARK SMILES CCCCCCCCC=CCCCCCCCC(=O)[O-]
REMARK SMILES IDX 10 1 9 2 11 3 12 4 13 5 14 6 15 7 16 8 17 9 18 10 19 11
REMARK SMILES IDX 20 12 8 13 7 14 6 15 5 16 4 17 3 18 2 19 1 20
REMARK H PARENT
REMARK Flexibility Score: inf
ROOT
ATOM      1  C   UNL     1       2.329  11.023  18.337  1.00  0.00    -0.031 C 
ATOM      2  C   UNL     1       2.770   9.774  18.577  1.00  0.00    -0.031 C 
ENDROOT
BRANCH   1   3
ATOM      3  C   UNL     1       3.117  12.279  18.607  1.00  0.00     0.027 C 
BRANCH   3   4
ATOM      4  C   UNL     1       2.203  13.412  19.087  1.00  0.00     0.004 C 
BRANCH   4   5
ATOM      5  C   UNL     1       1.934  14.416  17.956  1.00  0.00     0.000 C 
BRANCH   5   6
ATOM      6  C   UNL     1       1.306  15.730  18.454  1.00  0.00     0.000 C 
BRANCH   6   7
ATOM      7  C   UNL     1      -0.227  15.809  18.333  1.00  0.00     0.000 C 
BRANCH   7   8
ATOM      8  C   UNL     1      -0.863  16.761  19.361  1.00  0.00     0.006 C 
BRANCH   8   9
ATOM      9  C   UNL     1      -1.000  18.190  18.820  1.00  0.00     0.053 C 
BRANCH   9  10
ATOM     10  C   UNL     1       0.188  19.033  19.171  1.00  0.00     0.041 C 
ATOM     11  O   UNL     1       0.249  19.609  20.289  1.00  0.00    -0.550 OA
ATOM     12  O   UNL     1       1.215  19.205  18.250  1.00  0.00    -0.550 OA
ENDBRANCH   9  10
ENDBRANCH   8   9
ENDBRANCH   7   8
ENDBRANCH   6   7
ENDBRANCH   5   6
ENDBRANCH   4   5
ENDBRANCH   3   4
ENDBRANCH   1   3
BRANCH   2  13
ATOM     13  C   UNL     1       4.141   9.420  19.102  1.00  0.00     0.027 C 
BRANCH  13  14
ATOM     14  C   UNL     1       4.252   9.694  20.607  1.00  0.00     0.004 C 
BRANCH  14  15
ATOM     15  C   UNL     1       5.321  10.750  20.925  1.00  0.00     0.000 C 
BRANCH  15  16
ATOM     16  C   UNL     1       6.721  10.128  20.946  1.00  0.00     0.000 C 
BRANCH  16  17
ATOM     17  C   UNL     1       7.623  10.767  19.879  1.00  0.00    -0.000 C 
BRANCH  17  18
ATOM     18  C   UNL     1       6.834  11.322  18.679  1.00  0.00    -0.000 C 
BRANCH  18  19
ATOM     19  C   UNL     1       7.202  10.699  17.321  1.00  0.00    -0.003 C 
ATOM     20  C   UNL     1       6.037   9.956  16.668  1.00  0.00     0.004 C 
ENDBRANCH  18  19
ENDBRANCH  17  18
ENDBRANCH  16  17
ENDBRANCH  15  16
ENDBRANCH  14  15
ENDBRANCH  13  14
ENDBRANCH   2  13
TORSDOF 15
ENDMDL
