MODEL 1
REMARK VINA RESULT:    -3.988      0.000      0.000
REMARK INTER + INTRA:          -9.096
REMARK INTER:                  -7.252
REMARK INTRA:                  -1.844
REMARK UNBOUND:                -1.844
REMARK SMILES CCCCCCCCCCCCCCCC(=O)[O-]
REMARK SMILES IDX 9 1 10 2 11 3 12 4 13 5 14 6 15 7 16 8 17 9 18 10 8 11 7 12
REMARK SMILES IDX 6 13 5 14 4 15 3 16 2 17 1 18
REMARK H PARENT
REMARK Flexibility Score: inf
ROOT
ATOM      1  C   UNL     1      12.044 -19.702  22.336  1.00  0.00     0.000 C 
ENDROOT
BRANCH   1   2
ATOM      2  C   UNL     1      11.582 -21.093  21.870  1.00  0.00     0.000 C 
BRANCH   2   3
ATOM      3  C   UNL     1      12.602 -22.200  22.196  1.00  0.00     0.000 C 
BRANCH   3   4
ATOM      4  C   UNL     1      13.664 -22.448  21.107  1.00  0.00     0.000 C 
BRANCH   4   5
ATOM      5  C   UNL     1      15.115 -22.516  21.614  1.00  0.00     0.000 C 
BRANCH   5   6
ATOM      6  C   UNL     1      15.686 -21.137  21.976  1.00  0.00     0.006 C 
BRANCH   6   7
ATOM      7  C   UNL     1      16.572 -21.222  23.223  1.00  0.00     0.053 C 
BRANCH   7   8
ATOM      8  C   UNL     1      15.739 -21.143  24.463  1.00  0.00     0.041 C 
ATOM      9  O   UNL     1      16.082 -21.773  25.498  1.00  0.00    -0.550 OA
ATOM     10  O   UNL     1      14.608 -20.337  24.491  1.00  0.00    -0.550 OA
ENDBRANCH   7   8
ENDBRANCH   6   7
ENDBRANCH   5   6
ENDBRANCH   4   5
ENDBRANCH   3   4
ENDBRANCH   2   3
ENDBRANCH   1   2
BRANCH   1  11
ATOM     11  C   UNL     1      11.326 -18.568  21.583  1.00  0.00     0.000 C 
BRANCH  11  12
ATOM     12  C   UNL     1      12.191 -17.921  20.477  1.00  0.00    -0.000 C 
BRANCH  12  13
ATOM     13  C   UNL     1      12.475 -18.860  19.289  1.00  0.00    -0.000 C 
BRANCH  13  14
ATOM     14  C   UNL     1      13.935 -19.336  19.182  1.00  0.00    -0.000 C 
BRANCH  14  15
ATOM     15  C   UNL     1      14.961 -18.220  18.895  1.00  0.00    -0.000 C 
BRANCH  15  16
ATOM     16  C   UNL     1      15.870 -17.888  20.098  1.00  0.00    -0.000 C 
BRANCH  16  17
ATOM     17  C   UNL     1      16.251 -16.401  20.146  1.00  0.00    -0.003 C 
ATOM     18  C   UNL     1      15.187 -15.583  20.871  1.00  0.00     0.004 C 
ENDBRANCH  16  17
ENDBRANCH  15  16
ENDBRANCH  14  15
ENDBRANCH  13  14
ENDBRANCH  12  13
ENDBRANCH  11  12
ENDBRANCH   1  11
TORSDOF 14
ENDMDL
MODEL 2
REMARK VINA RESULT:    -3.977      1.396      3.657
REMARK INTER + INTRA:          -9.076
REMARK INTER:                  -6.894
REMARK INTRA:                  -2.183
REMARK UNBOUND:                -1.844
REMARK SMILES CCCCCCCCCCCCCCCC(=O)[O-]
REMARK SMILES IDX 9 1 10 2 11 3 12 4 13 5 14 6 15 7 16 8 17 9 18 10 8 11 7 12
REMARK SMILES IDX 6 13 5 14 4 15 3 16 2 17 1 18
REMARK H PARENT
REMARK Flexibility Score: inf
ROOT
ATOM      1  C   UNL     1      11.846 -16.721  20.811  1.00  0.00     0.000 C 
ENDROOT
BRANCH   1   2
ATOM      2  C   UNL     1      10.836 -17.732  21.384  1.00  0.00     0.000 C 
BRANCH   2   3
ATOM      3  C   UNL     1      11.175 -19.187  21.014  1.00  0.00     0.000 C 
BRANCH   3   4
ATOM      4  C   UNL     1      11.743 -20.038  22.166  1.00  0.00     0.000 C 
BRANCH   4   5
ATOM      5  C   UNL     1      13.136 -19.615  22.665  1.00  0.00     0.000 C 
BRANCH   5   6
ATOM      6  C   UNL     1      13.614 -20.437  23.871  1.00  0.00     0.006 C 
BRANCH   6   7
ATOM      7  C   UNL     1      14.987 -19.956  24.351  1.00  0.00     0.053 C 
BRANCH   7   8
ATOM      8  C   UNL     1      15.938 -21.106  24.455  1.00  0.00     0.041 C 
ATOM      9  O   UNL     1      16.003 -21.781  25.516  1.00  0.00    -0.550 OA
ATOM     10  O   UNL     1      16.720 -21.461  23.363  1.00  0.00    -0.550 OA
ENDBRANCH   7   8
ENDBRANCH   6   7
ENDBRANCH   5   6
ENDBRANCH   4   5
ENDBRANCH   3   4
ENDBRANCH   2   3
ENDBRANCH   1   2
BRANCH   1  11
ATOM     11  C   UNL     1      12.631 -17.296  19.619  1.00  0.00     0.000 C 
BRANCH  11  12
ATOM     12  C   UNL     1      14.143 -16.976  19.668  1.00  0.00    -0.000 C 
BRANCH  12  13
ATOM     13  C   UNL     1      15.021 -18.198  19.996  1.00  0.00    -0.000 C 
BRANCH  13  14
ATOM     14  C   UNL     1      14.663 -19.474  19.211  1.00  0.00    -0.000 C 
BRANCH  14  15
ATOM     15  C   UNL     1      15.132 -20.790  19.866  1.00  0.00    -0.000 C 
BRANCH  15  16
ATOM     16  C   UNL     1      14.067 -21.908  19.842  1.00  0.00    -0.000 C 
BRANCH  16  17
ATOM     17  C   UNL     1      14.482 -23.123  20.684  1.00  0.00    -0.003 C 
ATOM     18  C   UNL     1      13.525 -23.335  21.853  1.00  0.00     0.004 C 
ENDBRANCH  16  17
ENDBRANCH  15  16
ENDBRANCH  14  15
ENDBRANCH  13  14
ENDBRANCH  12  13
ENDBRANCH  11  12
ENDBRANCH   1  11
TORSDOF 14
ENDMDL
MODEL 3
REMARK VINA RESULT:    -3.935      1.396      3.571
REMARK INTER + INTRA:          -9.000
REMARK INTER:                  -7.050
REMARK INTRA:                  -1.950
REMARK UNBOUND:                -1.844
REMARK SMILES CCCCCCCCCCCCCCCC(=O)[O-]
REMARK SMILES IDX 9 1 10 2 11 3 12 4 13 5 14 6 15 7 16 8 17 9 18 10 8 11 7 12
REMARK SMILES IDX 6 13 5 14 4 15 3 16 2 17 1 18
REMARK H PARENT
REMARK Flexibility Score: inf
ROOT
ATOM      1  C   UNL     1      15.875 -20.262  19.761  1.00  0.00     0.000 C 
ENDROOT
BRANCH   1   2
ATOM      2  C   UNL     1      15.015 -21.189  18.884  1.00  0.00     0.000 C 
BRANCH   2   3
ATOM      3  C   UNL     1      14.134 -22.142  19.712  1.00  0.00     0.000 C 
BRANCH   3   4
ATOM      4  C   UNL     1      14.787 -22.683  20.999  1.00  0.00     0.000 C 
BRANCH   4   5
ATOM      5  C   UNL     1      13.887 -22.658  22.247  1.00  0.00     0.000 C 
BRANCH   5   6
ATOM      6  C   UNL     1      13.592 -21.234  22.742  1.00  0.00     0.006 C 
BRANCH   6   7
ATOM      7  C   UNL     1      14.889 -20.443  22.937  1.00  0.00     0.053 C 
BRANCH   7   8
ATOM      8  C   UNL     1      15.768 -21.119  23.942  1.00  0.00     0.041 C 
ATOM      9  O   UNL     1      15.321 -21.403  25.085  1.00  0.00    -0.550 OA
ATOM     10  O   UNL     1      17.066 -21.476  23.602  1.00  0.00    -0.550 OA
ENDBRANCH   7   8
ENDBRANCH   6   7
ENDBRANCH   5   6
ENDBRANCH   4   5
ENDBRANCH   3   4
ENDBRANCH   2   3
ENDBRANCH   1   2
BRANCH   1  11
ATOM     11  C   UNL     1      16.331 -19.003  19.002  1.00  0.00     0.000 C 
BRANCH  11  12
ATOM     12  C   UNL     1      15.409 -17.783  19.228  1.00  0.00    -0.000 C 
BRANCH  12  13
ATOM     13  C   UNL     1      14.622 -17.841  20.551  1.00  0.00    -0.000 C 
BRANCH  13  14
ATOM     14  C   UNL     1      13.098 -17.681  20.399  1.00  0.00    -0.000 C 
BRANCH  14  15
ATOM     15  C   UNL     1      12.347 -18.969  20.006  1.00  0.00    -0.000 C 
BRANCH  15  16
ATOM     16  C   UNL     1      11.147 -19.292  20.922  1.00  0.00    -0.000 C 
BRANCH  16  17
ATOM     17  C   UNL     1      11.111 -18.398  22.170  1.00  0.00    -0.003 C 
ATOM     18  C   UNL     1       9.879 -17.498  22.167  1.00  0.00     0.004 C 
ENDBRANCH  16  17
ENDBRANCH  15  16
ENDBRANCH  14  15
ENDBRANCH  13  14
ENDBRANCH  12  13
ENDBRANCH  11  12
ENDBRANCH   1  11
TORSDOF 14
ENDMDL
MODEL 4
REMARK VINA RESULT:    -3.924      2.996      5.864
REMARK INTER + INTRA:          -8.980
REMARK INTER:                  -6.738
REMARK INTRA:                  -2.242
REMARK UNBOUND:                -1.844
REMARK SMILES CCCCCCCCCCCCCCCC(=O)[O-]
REMARK SMILES IDX 9 1 10 2 11 3 12 4 13 5 14 6 15 7 16 8 17 9 18 10 8 11 7 12
REMARK SMILES IDX 6 13 5 14 4 15 3 16 2 17 1 18
REMARK H PARENT
REMARK Flexibility Score: inf
ROOT
ATOM      1  C   UNL     1      15.300 -20.938  19.197  1.00  0.00     0.000 C 
ENDROOT
BRANCH   1   2
ATOM      2  C   UNL     1      15.055 -19.420  19.142  1.00  0.00     0.000 C 
BRANCH   2   3
ATOM      3  C   UNL     1      13.592 -19.042  19.433  1.00  0.00     0.000 C 
BRANCH   3   4
ATOM      4  C   UNL     1      13.404 -17.839  20.379  1.00  0.00     0.000 C 
BRANCH   4   5
ATOM      5  C   UNL     1      14.704 -17.130  20.798  1.00  0.00     0.000 C 
BRANCH   5   6
ATOM      6  C   UNL     1      14.817 -15.708  20.230  1.00  0.00     0.006 C 
BRANCH   6   7
ATOM      7  C   UNL     1      13.569 -14.885  20.565  1.00  0.00     0.053 C 
BRANCH   7   8
ATOM      8  C   UNL     1      13.908 -13.781  21.515  1.00  0.00     0.041 C 
ATOM      9  O   UNL     1      15.099 -13.611  21.890  1.00  0.00    -0.550 OA
ATOM     10  O   UNL     1      12.918 -12.909  21.950  1.00  0.00    -0.550 OA
ENDBRANCH   7   8
ENDBRANCH   6   7
ENDBRANCH   5   6
ENDBRANCH   4   5
ENDBRANCH   3   4
ENDBRANCH   2   3
ENDBRANCH   1   2
BRANCH   1  11
ATOM     11  C   UNL     1      14.009 -21.726  19.482  1.00  0.00     0.000 C 
BRANCH  11  12
ATOM     12  C   UNL     1      14.237 -22.983  20.352  1.00  0.00    -0.000 C 
BRANCH  12  13
ATOM     13  C   UNL     1      13.496 -22.941  21.702  1.00  0.00    -0.000 C 
BRANCH  13  14
ATOM     14  C   UNL     1      12.761 -21.619  21.989  1.00  0.00    -0.000 C 
BRANCH  14  15
ATOM     15  C   UNL     1      13.328 -20.805  23.169  1.00  0.00    -0.000 C 
BRANCH  15  16
ATOM     16  C   UNL     1      14.719 -20.195  22.891  1.00  0.00    -0.000 C 
BRANCH  16  17
ATOM     17  C   UNL     1      15.849 -20.993  23.559  1.00  0.00    -0.003 C 
ATOM     18  C   UNL     1      16.940 -21.349  22.554  1.00  0.00     0.004 C 
ENDBRANCH  16  17
ENDBRANCH  15  16
ENDBRANCH  14  15
ENDBRANCH  13  14
ENDBRANCH  12  13
ENDBRANCH  11  12
ENDBRANCH   1  11
TORSDOF 14
ENDMDL
MODEL 5
REMARK VINA RESULT:    -3.892      2.299      5.492
REMARK INTER + INTRA:          -8.921
REMARK INTER:                  -6.760
REMARK INTRA:                  -2.161
REMARK UNBOUND:                -1.844
REMARK SMILES CCCCCCCCCCCCCCCC(=O)[O-]
REMARK SMILES IDX 9 1 10 2 11 3 12 4 13 5 14 6 15 7 16 8 17 9 18 10 8 11 7 12
REMARK SMILES IDX 6 13 5 14 4 15 3 16 2 17 1 18
REMARK H PARENT
REMARK Flexibility Score: inf
ROOT
ATOM      1  C   UNL     1      16.149 -19.800  20.270  1.00  0.00     0.000 C 
ENDROOT
BRANCH   1   2
ATOM      2  C   UNL     1      16.743 -18.422  19.930  1.00  0.00     0.000 C 
BRANCH   2   3
ATOM      3  C   UNL     1      15.756 -17.269  20.188  1.00  0.00     0.000 C 
BRANCH   3   4
ATOM      4  C   UNL     1      14.430 -17.682  20.857  1.00  0.00     0.000 C 
BRANCH   4   5
ATOM      5  C   UNL     1      13.175 -17.500  19.984  1.00  0.00     0.000 C 
BRANCH   5   6
ATOM      6  C   UNL     1      11.989 -16.910  20.761  1.00  0.00     0.006 C 
BRANCH   6   7
ATOM      7  C   UNL     1      10.745 -17.792  20.610  1.00  0.00     0.053 C 
BRANCH   7   8
ATOM      8  C   UNL     1      10.574 -18.665  21.812  1.00  0.00     0.041 C 
ATOM      9  O   UNL     1      11.024 -18.301  22.931  1.00  0.00    -0.550 OA
ATOM     10  O   UNL     1       9.877 -19.862  21.708  1.00  0.00    -0.550 OA
ENDBRANCH   7   8
ENDBRANCH   6   7
ENDBRANCH   5   6
ENDBRANCH   4   5
ENDBRANCH   3   4
ENDBRANCH   2   3
ENDBRANCH   1   2
BRANCH   1  11
ATOM     11  C   UNL     1      15.625 -20.531  19.021  1.00  0.00     0.000 C 
BRANCH  11  12
ATOM     12  C   UNL     1      14.571 -21.616  19.343  1.00  0.00    -0.000 C 
BRANCH  12  13
ATOM     13  C   UNL     1      13.242 -21.046  19.873  1.00  0.00    -0.000 C 
BRANCH  13  14
ATOM     14  C   UNL     1      12.795 -21.618  21.231  1.00  0.00    -0.000 C 
BRANCH  14  15
ATOM     15  C   UNL     1      13.455 -20.961  22.460  1.00  0.00    -0.000 C 
BRANCH  15  16
ATOM     16  C   UNL     1      14.619 -21.783  23.054  1.00  0.00    -0.000 C 
BRANCH  16  17
ATOM     17  C   UNL     1      15.606 -20.909  23.842  1.00  0.00    -0.003 C 
ATOM     18  C   UNL     1      17.050 -21.265  23.502  1.00  0.00     0.004 C 
ENDBRANCH  16  17
ENDBRANCH  15  16
ENDBRANCH  14  15
ENDBRANCH  13  14
ENDBRANCH  12  13
ENDBRANCH  11  12
ENDBRANCH   1  11
TORSDOF 14
ENDMDL
MODEL 6
REMARK VINA RESULT:    -3.838      1.940      5.304
REMARK INTER + INTRA:          -8.824
REMARK INTER:                  -7.051
REMARK INTRA:                  -1.773
REMARK UNBOUND:                -1.844
REMARK SMILES CCCCCCCCCCCCCCCC(=O)[O-]
REMARK SMILES IDX 9 1 10 2 11 3 12 4 13 5 14 6 15 7 16 8 17 9 18 10 8 11 7 12
REMARK SMILES IDX 6 13 5 14 4 15 3 16 2 17 1 18
REMARK H PARENT
REMARK Flexibility Score: inf
ROOT
ATOM      1  C   UNL     1      15.469 -17.862  19.093  1.00  0.00     0.000 C 
ENDROOT
BRANCH   1   2
ATOM      2  C   UNL     1      14.641 -17.496  20.337  1.00  0.00     0.000 C 
BRANCH   2   3
ATOM      3  C   UNL     1      13.568 -16.431  20.044  1.00  0.00     0.000 C 
BRANCH   3   4
ATOM      4  C   UNL     1      12.198 -16.686  20.706  1.00  0.00     0.000 C 
BRANCH   4   5
ATOM      5  C   UNL     1      11.515 -18.005  20.304  1.00  0.00     0.000 C 
BRANCH   5   6
ATOM      6  C   UNL     1      11.436 -19.012  21.461  1.00  0.00     0.006 C 
BRANCH   6   7
ATOM      7  C   UNL     1      12.402 -20.180  21.235  1.00  0.00     0.053 C 
BRANCH   7   8
ATOM      8  C   UNL     1      11.809 -21.456  21.744  1.00  0.00     0.041 C 
ATOM      9  O   UNL     1      10.564 -21.559  21.897  1.00  0.00    -0.550 OA
ATOM     10  O   UNL     1      12.628 -22.547  22.006  1.00  0.00    -0.550 OA
ENDBRANCH   7   8
ENDBRANCH   6   7
ENDBRANCH   5   6
ENDBRANCH   4   5
ENDBRANCH   3   4
ENDBRANCH   2   3
ENDBRANCH   1   2
BRANCH   1  11
ATOM     11  C   UNL     1      16.508 -18.959  19.389  1.00  0.00     0.000 C 
BRANCH  11  12
ATOM     12  C   UNL     1      16.341 -19.601  20.786  1.00  0.00    -0.000 C 
BRANCH  12  13
ATOM     13  C   UNL     1      15.780 -21.034  20.743  1.00  0.00    -0.000 C 
BRANCH  13  14
ATOM     14  C   UNL     1      16.084 -21.880  21.993  1.00  0.00    -0.000 C 
BRANCH  14  15
ATOM     15  C   UNL     1      16.905 -21.158  23.080  1.00  0.00    -0.000 C 
BRANCH  15  16
ATOM     16  C   UNL     1      16.301 -21.277  24.496  1.00  0.00    -0.000 C 
BRANCH  16  17
ATOM     17  C   UNL     1      14.782 -21.050  24.500  1.00  0.00    -0.003 C 
ATOM     18  C   UNL     1      14.442 -19.592  24.207  1.00  0.00     0.004 C 
ENDBRANCH  16  17
ENDBRANCH  15  16
ENDBRANCH  14  15
ENDBRANCH  13  14
ENDBRANCH  12  13
ENDBRANCH  11  12
ENDBRANCH   1  11
TORSDOF 14
ENDMDL
MODEL 7
REMARK VINA RESULT:    -3.759      1.323      2.097
REMARK INTER + INTRA:          -8.679
REMARK INTER:                  -6.750
REMARK INTRA:                  -1.930
REMARK UNBOUND:                -1.844
REMARK SMILES CCCCCCCCCCCCCCCC(=O)[O-]
REMARK SMILES IDX 9 1 10 2 11 3 12 4 13 5 14 6 15 7 16 8 17 9 18 10 8 11 7 12
REMARK SMILES IDX 6 13 5 14 4 15 3 16 2 17 1 18
REMARK H PARENT
REMARK Flexibility Score: inf
ROOT
ATOM      1  C   UNL     1      12.111 -19.730  22.221  1.00  0.00     0.000 C 
ENDROOT
BRANCH   1   2
ATOM      2  C   UNL     1      11.563 -21.119  21.849  1.00  0.00     0.000 C 
BRANCH   2   3
ATOM      3  C   UNL     1      12.611 -22.234  22.009  1.00  0.00     0.000 C 
BRANCH   3   4
ATOM      4  C   UNL     1      13.753 -22.210  20.973  1.00  0.00     0.000 C 
BRANCH   4   5
ATOM      5  C   UNL     1      15.168 -22.361  21.559  1.00  0.00     0.000 C 
BRANCH   5   6
ATOM      6  C   UNL     1      15.754 -21.031  22.056  1.00  0.00     0.006 C 
BRANCH   6   7
ATOM      7  C   UNL     1      16.544 -21.232  23.352  1.00  0.00     0.053 C 
BRANCH   7   8
ATOM      8  C   UNL     1      15.633 -21.169  24.537  1.00  0.00     0.041 C 
ATOM      9  O   UNL     1      14.586 -20.470  24.494  1.00  0.00    -0.550 OA
ATOM     10  O   UNL     1      15.915 -21.919  25.671  1.00  0.00    -0.550 OA
ENDBRANCH   7   8
ENDBRANCH   6   7
ENDBRANCH   5   6
ENDBRANCH   4   5
ENDBRANCH   3   4
ENDBRANCH   2   3
ENDBRANCH   1   2
BRANCH   1  11
ATOM     11  C   UNL     1      11.630 -18.636  21.251  1.00  0.00     0.000 C 
BRANCH  11  12
ATOM     12  C   UNL     1      12.276 -18.732  19.849  1.00  0.00    -0.000 C 
BRANCH  12  13
ATOM     13  C   UNL     1      13.816 -18.715  19.878  1.00  0.00    -0.000 C 
BRANCH  13  14
ATOM     14  C   UNL     1      14.432 -17.435  20.471  1.00  0.00    -0.000 C 
BRANCH  14  15
ATOM     15  C   UNL     1      14.009 -16.128  19.771  1.00  0.00    -0.000 C 
BRANCH  15  16
ATOM     16  C   UNL     1      13.312 -15.119  20.709  1.00  0.00    -0.000 C 
BRANCH  16  17
ATOM     17  C   UNL     1      12.191 -14.344  20.001  1.00  0.00    -0.003 C 
ATOM     18  C   UNL     1      11.294 -15.284  19.200  1.00  0.00     0.004 C 
ENDBRANCH  16  17
ENDBRANCH  15  16
ENDBRANCH  14  15
ENDBRANCH  13  14
ENDBRANCH  12  13
ENDBRANCH  11  12
ENDBRANCH   1  11
TORSDOF 14
ENDMDL
MODEL 8
REMARK VINA RESULT:    -3.700      1.351      2.122
REMARK INTER + INTRA:          -8.572
REMARK INTER:                  -6.515
REMARK INTRA:                  -2.057
REMARK UNBOUND:                -1.844
REMARK SMILES CCCCCCCCCCCCCCCC(=O)[O-]
REMARK SMILES IDX 9 1 10 2 11 3 12 4 13 5 14 6 15 7 16 8 17 9 18 10 8 11 7 12
REMARK SMILES IDX 6 13 5 14 4 15 3 16 2 17 1 18
REMARK H PARENT
REMARK Flexibility Score: inf
ROOT
ATOM      1  C   UNL     1      11.735 -19.233  22.520  1.00  0.00     0.000 C 
ENDROOT
BRANCH   1   2
ATOM      2  C   UNL     1      11.852 -20.141  21.284  1.00  0.00     0.000 C 
BRANCH   2   3
ATOM      3  C   UNL     1      12.084 -21.619  21.650  1.00  0.00     0.000 C 
BRANCH   3   4
ATOM      4  C   UNL     1      13.356 -22.249  21.048  1.00  0.00     0.000 C 
BRANCH   4   5
ATOM      5  C   UNL     1      14.390 -22.739  22.077  1.00  0.00     0.000 C 
BRANCH   5   6
ATOM      6  C   UNL     1      15.745 -22.027  21.947  1.00  0.00     0.006 C 
BRANCH   6   7
ATOM      7  C   UNL     1      15.744 -20.705  22.720  1.00  0.00     0.053 C 
BRANCH   7   8
ATOM      8  C   UNL     1      15.321 -20.927  24.138  1.00  0.00     0.041 C 
ATOM      9  O   UNL     1      16.092 -21.511  24.945  1.00  0.00    -0.550 OA
ATOM     10  O   UNL     1      14.094 -20.450  24.580  1.00  0.00    -0.550 OA
ENDBRANCH   7   8
ENDBRANCH   6   7
ENDBRANCH   5   6
ENDBRANCH   4   5
ENDBRANCH   3   4
ENDBRANCH   2   3
ENDBRANCH   1   2
BRANCH   1  11
ATOM     11  C   UNL     1      10.667 -18.140  22.339  1.00  0.00     0.000 C 
BRANCH  11  12
ATOM     12  C   UNL     1      10.160 -18.013  20.884  1.00  0.00    -0.000 C 
BRANCH  12  13
ATOM     13  C   UNL     1      10.693 -16.766  20.152  1.00  0.00    -0.000 C 
BRANCH  13  14
ATOM     14  C   UNL     1      11.455 -15.773  21.048  1.00  0.00    -0.000 C 
BRANCH  14  15
ATOM     15  C   UNL     1      12.795 -15.275  20.469  1.00  0.00    -0.000 C 
BRANCH  15  16
ATOM     16  C   UNL     1      13.577 -16.357  19.693  1.00  0.00    -0.000 C 
BRANCH  16  17
ATOM     17  C   UNL     1      14.328 -17.315  20.630  1.00  0.00    -0.003 C 
ATOM     18  C   UNL     1      14.784 -18.566  19.886  1.00  0.00     0.004 C 
ENDBRANCH  16  17
ENDBRANCH  15  16
ENDBRANCH  14  15
ENDBRANCH  13  14
ENDBRANCH  12  13
ENDBRANCH  11  12
ENDBRANCH   1  11
TORSDOF 14
ENDMDL
MODEL 9
REMARK VINA RESULT:    -3.693      3.311      5.648
REMARK INTER + INTRA:          -8.559
REMARK INTER:                  -6.357
REMARK INTRA:                  -2.202
REMARK UNBOUND:                -1.844
REMARK SMILES CCCCCCCCCCCCCCCC(=O)[O-]
REMARK SMILES IDX 9 1 10 2 11 3 12 4 13 5 14 6 15 7 16 8 17 9 18 10 8 11 7 12
REMARK SMILES IDX 6 13 5 14 4 15 3 16 2 17 1 18
REMARK H PARENT
REMARK Flexibility Score: inf
ROOT
ATOM      1  C   UNL     1      12.629 -19.444  22.147  1.00  0.00     0.000 C 
ENDROOT
BRANCH   1   2
ATOM      2  C   UNL     1      11.477 -20.288  21.575  1.00  0.00     0.000 C 
BRANCH   2   3
ATOM      3  C   UNL     1      10.093 -19.671  21.848  1.00  0.00     0.000 C 
BRANCH   3   4
ATOM      4  C   UNL     1       9.931 -18.206  21.396  1.00  0.00     0.000 C 
BRANCH   4   5
ATOM      5  C   UNL     1      10.172 -17.956  19.896  1.00  0.00     0.000 C 
BRANCH   5   6
ATOM      6  C   UNL     1      11.072 -16.740  19.631  1.00  0.00     0.006 C 
BRANCH   6   7
ATOM      7  C   UNL     1      11.477 -16.063  20.945  1.00  0.00     0.053 C 
BRANCH   7   8
ATOM      8  C   UNL     1      12.171 -14.766  20.673  1.00  0.00     0.041 C 
ATOM      9  O   UNL     1      12.450 -13.986  21.622  1.00  0.00    -0.550 OA
ATOM     10  O   UNL     1      12.551 -14.439  19.378  1.00  0.00    -0.550 OA
ENDBRANCH   7   8
ENDBRANCH   6   7
ENDBRANCH   5   6
ENDBRANCH   4   5
ENDBRANCH   3   4
ENDBRANCH   2   3
ENDBRANCH   1   2
BRANCH   1  11
ATOM     11  C   UNL     1      13.669 -19.076  21.074  1.00  0.00     0.000 C 
BRANCH  11  12
ATOM     12  C   UNL     1      13.561 -19.937  19.794  1.00  0.00    -0.000 C 
BRANCH  12  13
ATOM     13  C   UNL     1      14.664 -21.005  19.675  1.00  0.00    -0.000 C 
BRANCH  13  14
ATOM     14  C   UNL     1      14.350 -22.334  20.387  1.00  0.00    -0.000 C 
BRANCH  14  15
ATOM     15  C   UNL     1      14.895 -22.442  21.825  1.00  0.00    -0.000 C 
BRANCH  15  16
ATOM     16  C   UNL     1      16.294 -21.815  22.008  1.00  0.00    -0.000 C 
BRANCH  16  17
ATOM     17  C   UNL     1      16.471 -21.185  23.398  1.00  0.00    -0.003 C 
ATOM     18  C   UNL     1      15.164 -21.209  24.184  1.00  0.00     0.004 C 
ENDBRANCH  16  17
ENDBRANCH  15  16
ENDBRANCH  14  15
ENDBRANCH  13  14
ENDBRANCH  12  13
ENDBRANCH  11  12
ENDBRANCH   1  11
TORSDOF 14
ENDMDL
