MODEL 1
REMARK VINA RESULT:    -5.226      0.000      0.000
REMARK INTER + INTRA:          -9.420
REMARK INTER:                  -8.281
REMARK INTRA:                  -1.139
REMARK UNBOUND:                -1.139
REMARK SMILES CCCCCCCCCCCC(=O)[O-]
REMARK SMILES IDX 7 1 8 2 9 3 10 4 11 5 12 6 13 7 14 8 6 9 5 10 4 11 3 12 2 13
REMARK SMILES IDX 1 14
REMARK H PARENT
REMARK Flexibility Score: inf
ROOT
ATOM      1  C   UNL     1      85.881 325.373 193.335  1.00  0.00     0.000 C 
ENDROOT
BRANCH   1   2
ATOM      2  C   UNL     1      86.766 324.337 192.623  1.00  0.00     0.000 C 
BRANCH   2   3
ATOM      3  C   UNL     1      88.109 324.958 192.210  1.00  0.00     0.000 C 
BRANCH   3   4
ATOM      4  C   UNL     1      88.793 324.186 191.070  1.00  0.00     0.006 C 
BRANCH   4   5
ATOM      5  C   UNL     1      87.797 323.385 190.220  1.00  0.00     0.053 C 
BRANCH   5   6
ATOM      6  C   UNL     1      88.393 323.061 188.887  1.00  0.00     0.041 C 
ATOM      7  O   UNL     1      87.865 322.184 188.153  1.00  0.00    -0.550 OA
ATOM      8  O   UNL     1      89.559 323.692 188.474  1.00  0.00    -0.550 OA
ENDBRANCH   5   6
ENDBRANCH   4   5
ENDBRANCH   3   4
ENDBRANCH   2   3
ENDBRANCH   1   2
BRANCH   1   9
ATOM      9  C   UNL     1      86.697 326.490 194.006  1.00  0.00     0.000 C 
BRANCH   9  10
ATOM     10  C   UNL     1      86.337 326.672 195.491  1.00  0.00    -0.000 C 
BRANCH  10  11
ATOM     11  C   UNL     1      87.548 326.495 196.423  1.00  0.00    -0.000 C 
BRANCH  11  12
ATOM     12  C   UNL     1      88.636 325.560 195.855  1.00  0.00    -0.000 C 
BRANCH  12  13
ATOM     13  C   UNL     1      88.497 324.123 196.382  1.00  0.00    -0.003 C 
ATOM     14  C   UNL     1      88.932 323.107 195.331  1.00  0.00     0.004 C 
ENDBRANCH  12  13
ENDBRANCH  11  12
ENDBRANCH  10  11
ENDBRANCH   9  10
ENDBRANCH   1   9
TORSDOF 10
ENDMDL
MODEL 2
REMARK VINA RESULT:    -5.123      4.201      6.401
REMARK INTER + INTRA:          -9.256
REMARK INTER:                  -8.228
REMARK INTRA:                  -1.029
REMARK UNBOUND:                -1.139
REMARK SMILES CCCCCCCCCCCC(=O)[O-]
REMARK SMILES IDX 7 1 8 2 9 3 10 4 11 5 12 6 13 7 14 8 6 9 5 10 4 11 3 12 2 13
REMARK SMILES IDX 1 14
REMARK H PARENT
REMARK Flexibility Score: inf
ROOT
ATOM      1  C   UNL     1      86.251 326.070 194.316  1.00  0.00     0.000 C 
ENDROOT
BRANCH   1   2
ATOM      2  C   UNL     1      87.380 327.093 194.114  1.00  0.00     0.000 C 
BRANCH   2   3
ATOM      3  C   UNL     1      88.540 326.826 195.086  1.00  0.00     0.000 C 
BRANCH   3   4
ATOM      4  C   UNL     1      88.059 326.326 196.458  1.00  0.00     0.006 C 
BRANCH   4   5
ATOM      5  C   UNL     1      88.741 325.018 196.881  1.00  0.00     0.053 C 
BRANCH   5   6
ATOM      6  C   UNL     1      89.205 325.108 198.301  1.00  0.00     0.041 C 
ATOM      7  O   UNL     1      89.042 326.171 198.955  1.00  0.00    -0.550 OA
ATOM      8  O   UNL     1      89.862 324.033 198.886  1.00  0.00    -0.550 OA
ENDBRANCH   5   6
ENDBRANCH   4   5
ENDBRANCH   3   4
ENDBRANCH   2   3
ENDBRANCH   1   2
BRANCH   1   9
ATOM      9  C   UNL     1      86.235 324.981 193.231  1.00  0.00     0.000 C 
BRANCH   9  10
ATOM     10  C   UNL     1      87.147 323.792 193.574  1.00  0.00    -0.000 C 
BRANCH  10  11
ATOM     11  C   UNL     1      88.493 323.839 192.829  1.00  0.00    -0.000 C 
BRANCH  11  12
ATOM     12  C   UNL     1      88.433 324.598 191.487  1.00  0.00    -0.000 C 
BRANCH  12  13
ATOM     13  C   UNL     1      88.309 323.645 190.288  1.00  0.00    -0.003 C 
ATOM     14  C   UNL     1      89.399 323.914 189.256  1.00  0.00     0.004 C 
ENDBRANCH  12  13
ENDBRANCH  11  12
ENDBRANCH  10  11
ENDBRANCH   9  10
ENDBRANCH   1   9
TORSDOF 10
ENDMDL
MODEL 3
REMARK VINA RESULT:    -5.094      1.466      2.234
REMARK INTER + INTRA:          -9.211
REMARK INTER:                  -8.589
REMARK INTRA:                  -0.622
REMARK UNBOUND:                -1.139
REMARK SMILES CCCCCCCCCCCC(=O)[O-]
REMARK SMILES IDX 7 1 8 2 9 3 10 4 11 5 12 6 13 7 14 8 6 9 5 10 4 11 3 12 2 13
REMARK SMILES IDX 1 14
REMARK H PARENT
REMARK Flexibility Score: inf
ROOT
ATOM      1  C   UNL     1      86.896 324.613 192.727  1.00  0.00     0.000 C 
ENDROOT
BRANCH   1   2
ATOM      2  C   UNL     1      87.079 323.859 191.400  1.00  0.00     0.000 C 
BRANCH   2   3
ATOM      3  C   UNL     1      88.483 324.102 190.824  1.00  0.00     0.000 C 
BRANCH   3   4
ATOM      4  C   UNL     1      88.658 323.501 189.419  1.00  0.00     0.006 C 
BRANCH   4   5
ATOM      5  C   UNL     1      89.938 323.986 188.726  1.00  0.00     0.053 C 
BRANCH   5   6
ATOM      6  C   UNL     1      90.750 322.820 188.257  1.00  0.00     0.041 C 
ATOM      7  O   UNL     1      90.282 321.653 188.325  1.00  0.00    -0.550 OA
ATOM      8  O   UNL     1      92.043 323.016 187.790  1.00  0.00    -0.550 OA
ENDBRANCH   5   6
ENDBRANCH   4   5
ENDBRANCH   3   4
ENDBRANCH   2   3
ENDBRANCH   1   2
BRANCH   1   9
ATOM      9  C   UNL     1      88.221 325.144 193.297  1.00  0.00     0.000 C 
BRANCH   9  10
ATOM     10  C   UNL     1      88.131 326.619 193.723  1.00  0.00    -0.000 C 
BRANCH  10  11
ATOM     11  C   UNL     1      86.821 326.947 194.461  1.00  0.00    -0.000 C 
BRANCH  11  12
ATOM     12  C   UNL     1      86.793 326.456 195.924  1.00  0.00    -0.000 C 
BRANCH  12  13
ATOM     13  C   UNL     1      88.169 326.572 196.599  1.00  0.00    -0.003 C 
ATOM     14  C   UNL     1      88.646 325.217 197.113  1.00  0.00     0.004 C 
ENDBRANCH  12  13
ENDBRANCH  11  12
ENDBRANCH  10  11
ENDBRANCH   9  10
ENDBRANCH   1   9
TORSDOF 10
ENDMDL
MODEL 4
REMARK VINA RESULT:    -5.023      3.065      5.920
REMARK INTER + INTRA:          -9.097
REMARK INTER:                  -8.274
REMARK INTRA:                  -0.823
REMARK UNBOUND:                -1.139
REMARK SMILES CCCCCCCCCCCC(=O)[O-]
REMARK SMILES IDX 7 1 8 2 9 3 10 4 11 5 12 6 13 7 14 8 6 9 5 10 4 11 3 12 2 13
REMARK SMILES IDX 1 14
REMARK H PARENT
REMARK Flexibility Score: inf
ROOT
ATOM      1  C   UNL     1      85.878 325.380 193.391  1.00  0.00     0.000 C 
ENDROOT
BRANCH   1   2
ATOM      2  C   UNL     1      86.838 326.397 194.029  1.00  0.00     0.000 C 
BRANCH   2   3
ATOM      3  C   UNL     1      86.413 326.720 195.469  1.00  0.00     0.000 C 
BRANCH   3   4
ATOM      4  C   UNL     1      87.538 326.471 196.488  1.00  0.00     0.006 C 
BRANCH   4   5
ATOM      5  C   UNL     1      88.729 325.719 195.879  1.00  0.00     0.053 C 
BRANCH   5   6
ATOM      6  C   UNL     1      88.664 324.267 196.233  1.00  0.00     0.041 C 
ATOM      7  O   UNL     1      88.530 323.912 197.434  1.00  0.00    -0.550 OA
ATOM      8  O   UNL     1      88.802 323.303 195.242  1.00  0.00    -0.550 OA
ENDBRANCH   5   6
ENDBRANCH   4   5
ENDBRANCH   3   4
ENDBRANCH   2   3
ENDBRANCH   1   2
BRANCH   1   9
ATOM      9  C   UNL     1      86.593 324.401 192.444  1.00  0.00     0.000 C 
BRANCH   9  10
ATOM     10  C   UNL     1      88.052 324.804 192.171  1.00  0.00    -0.000 C 
BRANCH  10  11
ATOM     11  C   UNL     1      88.830 323.729 191.392  1.00  0.00    -0.000 C 
BRANCH  11  12
ATOM     12  C   UNL     1      88.993 324.047 189.891  1.00  0.00    -0.000 C 
BRANCH  12  13
ATOM     13  C   UNL     1      88.928 322.782 189.021  1.00  0.00    -0.003 C 
ATOM     14  C   UNL     1      87.508 322.525 188.528  1.00  0.00     0.004 C 
ENDBRANCH  12  13
ENDBRANCH  11  12
ENDBRANCH  10  11
ENDBRANCH   9  10
ENDBRANCH   1   9
TORSDOF 10
ENDMDL
MODEL 5
REMARK VINA RESULT:    -4.995     20.512     22.397
REMARK INTER + INTRA:          -9.054
REMARK INTER:                  -8.720
REMARK INTRA:                  -0.333
REMARK UNBOUND:                -1.139
REMARK SMILES CCCCCCCCCCCC(=O)[O-]
REMARK SMILES IDX 7 1 8 2 9 3 10 4 11 5 12 6 13 7 14 8 6 9 5 10 4 11 3 12 2 13
REMARK SMILES IDX 1 14
REMARK H PARENT
REMARK Flexibility Score: inf
ROOT
ATOM      1  C   UNL     1     104.258 312.578 196.500  1.00  0.00     0.000 C 
ENDROOT
BRANCH   1   2
ATOM      2  C   UNL     1     103.903 311.638 197.663  1.00  0.00     0.000 C 
BRANCH   2   3
ATOM      3  C   UNL     1     103.918 312.394 199.000  1.00  0.00     0.000 C 
BRANCH   3   4
ATOM      4  C   UNL     1     103.448 311.524 200.177  1.00  0.00     0.006 C 
BRANCH   4   5
ATOM      5  C   UNL     1     104.352 311.659 201.409  1.00  0.00     0.053 C 
BRANCH   5   6
ATOM      6  C   UNL     1     103.739 310.965 202.585  1.00  0.00     0.041 C 
ATOM      7  O   UNL     1     104.445 310.670 203.585  1.00  0.00    -0.550 OA
ATOM      8  O   UNL     1     102.400 310.599 202.555  1.00  0.00    -0.550 OA
ENDBRANCH   5   6
ENDBRANCH   4   5
ENDBRANCH   3   4
ENDBRANCH   2   3
ENDBRANCH   1   2
BRANCH   1   9
ATOM      9  C   UNL     1     104.462 311.830 195.172  1.00  0.00     0.000 C 
BRANCH   9  10
ATOM     10  C   UNL     1     105.902 311.946 194.645  1.00  0.00    -0.000 C 
BRANCH  10  11
ATOM     11  C   UNL     1     105.962 312.295 193.148  1.00  0.00    -0.000 C 
BRANCH  11  12
ATOM     12  C   UNL     1     104.578 312.345 192.467  1.00  0.00    -0.000 C 
BRANCH  12  13
ATOM     13  C   UNL     1     104.227 313.756 191.973  1.00  0.00    -0.003 C 
ATOM     14  C   UNL     1     103.870 313.749 190.490  1.00  0.00     0.004 C 
ENDBRANCH  12  13
ENDBRANCH  11  12
ENDBRANCH  10  11
ENDBRANCH   9  10
ENDBRANCH   1   9
TORSDOF 10
ENDMDL
MODEL 6
REMARK VINA RESULT:    -4.991     19.365     21.290
REMARK INTER + INTRA:          -9.048
REMARK INTER:                  -8.657
REMARK INTRA:                  -0.391
REMARK UNBOUND:                -1.139
REMARK SMILES CCCCCCCCCCCC(=O)[O-]
REMARK SMILES IDX 7 1 8 2 9 3 10 4 11 5 12 6 13 7 14 8 6 9 5 10 4 11 3 12 2 13
REMARK SMILES IDX 1 14
REMARK H PARENT
REMARK Flexibility Score: inf
ROOT
ATOM      1  C   UNL     1     105.925 312.286 193.253  1.00  0.00     0.000 C 
ENDROOT
BRANCH   1   2
ATOM      2  C   UNL     1     105.767 311.866 194.723  1.00  0.00     0.000 C 
BRANCH   2   3
ATOM      3  C   UNL     1     104.309 312.023 195.182  1.00  0.00     0.000 C 
BRANCH   3   4
ATOM      4  C   UNL     1     104.193 312.633 196.588  1.00  0.00     0.006 C 
BRANCH   4   5
ATOM      5  C   UNL     1     104.036 311.567 197.681  1.00  0.00     0.053 C 
BRANCH   5   6
ATOM      6  C   UNL     1     103.684 312.208 198.987  1.00  0.00     0.041 C 
ATOM      7  O   UNL     1     104.093 313.369 199.254  1.00  0.00    -0.550 OA
ATOM      8  O   UNL     1     102.946 311.504 199.930  1.00  0.00    -0.550 OA
ENDBRANCH   5   6
ENDBRANCH   4   5
ENDBRANCH   3   4
ENDBRANCH   2   3
ENDBRANCH   1   2
BRANCH   1   9
ATOM      9  C   UNL     1     104.586 312.330 192.500  1.00  0.00     0.000 C 
BRANCH   9  10
ATOM     10  C   UNL     1     104.263 313.731 191.953  1.00  0.00    -0.000 C 
BRANCH  10  11
ATOM     11  C   UNL     1     103.836 313.709 190.475  1.00  0.00    -0.000 C 
BRANCH  11  12
ATOM     12  C   UNL     1     104.428 314.864 189.641  1.00  0.00    -0.000 C 
BRANCH  12  13
ATOM     13  C   UNL     1     103.661 315.083 188.328  1.00  0.00    -0.003 C 
ATOM     14  C   UNL     1     102.384 314.250 188.290  1.00  0.00     0.004 C 
ENDBRANCH  12  13
ENDBRANCH  11  12
ENDBRANCH  10  11
ENDBRANCH   9  10
ENDBRANCH   1   9
TORSDOF 10
ENDMDL
MODEL 7
REMARK VINA RESULT:    -4.975      5.496      7.867
REMARK INTER + INTRA:          -9.022
REMARK INTER:                  -8.508
REMARK INTRA:                  -0.515
REMARK UNBOUND:                -1.139
REMARK SMILES CCCCCCCCCCCC(=O)[O-]
REMARK SMILES IDX 7 1 8 2 9 3 10 4 11 5 12 6 13 7 14 8 6 9 5 10 4 11 3 12 2 13
REMARK SMILES IDX 1 14
REMARK H PARENT
REMARK Flexibility Score: inf
ROOT
ATOM      1  C   UNL     1      88.050 326.441 196.645  1.00  0.00     0.000 C 
ENDROOT
BRANCH   1   2
ATOM      2  C   UNL     1      88.482 325.016 197.025  1.00  0.00     0.000 C 
BRANCH   2   3
ATOM      3  C   UNL     1      89.175 325.002 198.396  1.00  0.00     0.000 C 
BRANCH   3   4
ATOM      4  C   UNL     1      89.193 326.387 199.065  1.00  0.00     0.006 C 
BRANCH   4   5
ATOM      5  C   UNL     1      89.225 326.302 200.596  1.00  0.00     0.053 C 
BRANCH   5   6
ATOM      6  C   UNL     1      90.635 326.169 201.081  1.00  0.00     0.041 C 
ATOM      7  O   UNL     1      91.086 325.042 201.417  1.00  0.00    -0.550 OA
ATOM      8  O   UNL     1      91.435 327.297 201.209  1.00  0.00    -0.550 OA
ENDBRANCH   5   6
ENDBRANCH   4   5
ENDBRANCH   3   4
ENDBRANCH   2   3
ENDBRANCH   1   2
BRANCH   1   9
ATOM      9  C   UNL     1      86.777 326.467 195.784  1.00  0.00     0.000 C 
BRANCH   9  10
ATOM     10  C   UNL     1      87.035 327.004 194.366  1.00  0.00    -0.000 C 
BRANCH  10  11
ATOM     11  C   UNL     1      88.086 326.182 193.600  1.00  0.00    -0.000 C 
BRANCH  11  12
ATOM     12  C   UNL     1      87.491 325.001 192.804  1.00  0.00    -0.000 C 
BRANCH  12  13
ATOM     13  C   UNL     1      88.580 324.070 192.249  1.00  0.00    -0.003 C 
ATOM     14  C   UNL     1      88.604 324.098 190.724  1.00  0.00     0.004 C 
ENDBRANCH  12  13
ENDBRANCH  11  12
ENDBRANCH  10  11
ENDBRANCH   9  10
ENDBRANCH   1   9
TORSDOF 10
ENDMDL
MODEL 8
REMARK VINA RESULT:    -4.975     17.583     19.335
REMARK INTER + INTRA:          -9.022
REMARK INTER:                  -8.322
REMARK INTRA:                  -0.700
REMARK UNBOUND:                -1.139
REMARK SMILES CCCCCCCCCCCC(=O)[O-]
REMARK SMILES IDX 7 1 8 2 9 3 10 4 11 5 12 6 13 7 14 8 6 9 5 10 4 11 3 12 2 13
REMARK SMILES IDX 1 14
REMARK H PARENT
REMARK Flexibility Score: inf
ROOT
ATOM      1  C   UNL     1     103.889 314.448 192.284  1.00  0.00     0.000 C 
ENDROOT
BRANCH   1   2
ATOM      2  C   UNL     1     103.546 315.177 190.975  1.00  0.00     0.000 C 
BRANCH   2   3
ATOM      3  C   UNL     1     103.864 314.293 189.759  1.00  0.00     0.000 C 
BRANCH   3   4
ATOM      4  C   UNL     1     103.304 314.867 188.448  1.00  0.00     0.006 C 
BRANCH   4   5
ATOM      5  C   UNL     1     101.981 314.208 188.033  1.00  0.00     0.053 C 
BRANCH   5   6
ATOM      6  C   UNL     1     100.972 315.249 187.665  1.00  0.00     0.041 C 
ATOM      7  O   UNL     1     101.344 316.416 187.371  1.00  0.00    -0.550 OA
ATOM      8  O   UNL     1      99.617 314.946 187.696  1.00  0.00    -0.550 OA
ENDBRANCH   5   6
ENDBRANCH   4   5
ENDBRANCH   3   4
ENDBRANCH   2   3
ENDBRANCH   1   2
BRANCH   1   9
ATOM      9  C   UNL     1     104.339 312.996 192.056  1.00  0.00     0.000 C 
BRANCH   9  10
ATOM     10  C   UNL     1     105.747 312.720 192.611  1.00  0.00    -0.000 C 
BRANCH  10  11
ATOM     11  C   UNL     1     105.785 311.514 193.565  1.00  0.00    -0.000 C 
BRANCH  11  12
ATOM     12  C   UNL     1     105.754 311.904 195.058  1.00  0.00    -0.000 C 
BRANCH  12  13
ATOM     13  C   UNL     1     104.326 311.915 195.625  1.00  0.00    -0.003 C 
ATOM     14  C   UNL     1     103.935 313.309 196.105  1.00  0.00     0.004 C 
ENDBRANCH  12  13
ENDBRANCH  11  12
ENDBRANCH  10  11
ENDBRANCH   9  10
ENDBRANCH   1   9
TORSDOF 10
ENDMDL
MODEL 9
REMARK VINA RESULT:    -4.953     18.553     20.759
REMARK INTER + INTRA:          -8.987
REMARK INTER:                  -8.341
REMARK INTRA:                  -0.646
REMARK UNBOUND:                -1.139
REMARK SMILES CCCCCCCCCCCC(=O)[O-]
REMARK SMILES IDX 7 1 8 2 9 3 10 4 11 5 12 6 13 7 14 8 6 9 5 10 4 11 3 12 2 13
REMARK SMILES IDX 1 14
REMARK H PARENT
REMARK Flexibility Score: inf
ROOT
ATOM      1  C   UNL     1     104.260 312.759 192.169  1.00  0.00     0.000 C 
ENDROOT
BRANCH   1   2
ATOM      2  C   UNL     1     104.766 311.528 192.937  1.00  0.00     0.000 C 
BRANCH   2   3
ATOM      3  C   UNL     1     106.017 311.873 193.759  1.00  0.00     0.000 C 
BRANCH   3   4
ATOM      4  C   UNL     1     105.792 311.723 195.272  1.00  0.00     0.006 C 
BRANCH   4   5
ATOM      5  C   UNL     1     104.326 311.936 195.674  1.00  0.00     0.053 C 
BRANCH   5   6
ATOM      6  C   UNL     1     104.120 313.330 196.177  1.00  0.00     0.041 C 
ATOM      7  O   UNL     1     103.938 314.276 195.366  1.00  0.00    -0.550 OA
ATOM      8  O   UNL     1     104.179 313.593 197.539  1.00  0.00    -0.550 OA
ENDBRANCH   5   6
ENDBRANCH   4   5
ENDBRANCH   3   4
ENDBRANCH   2   3
ENDBRANCH   1   2
BRANCH   1   9
ATOM      9  C   UNL     1     105.396 313.709 191.756  1.00  0.00     0.000 C 
BRANCH   9  10
ATOM     10  C   UNL     1     105.082 314.475 190.459  1.00  0.00    -0.000 C 
BRANCH  10  11
ATOM     11  C   UNL     1     103.688 314.147 189.896  1.00  0.00    -0.000 C 
BRANCH  11  12
ATOM     12  C   UNL     1     103.397 314.811 188.534  1.00  0.00    -0.000 C 
BRANCH  12  13
ATOM     13  C   UNL     1     102.022 314.413 187.977  1.00  0.00    -0.003 C 
ATOM     14  C   UNL     1     101.037 315.575 188.057  1.00  0.00     0.004 C 
ENDBRANCH  12  13
ENDBRANCH  11  12
ENDBRANCH  10  11
ENDBRANCH   9  10
ENDBRANCH   1   9
TORSDOF 10
ENDMDL
