MODEL 1
REMARK VINA RESULT:    -4.104      0.000      0.000
REMARK INTER + INTRA:         -14.673
REMARK INTER:                 -10.342
REMARK INTRA:                  -4.330
REMARK UNBOUND:                -4.330
REMARK SMILES CCCCCCCCCCCCCCCCCCCCCCCCCCCC(=O)[O-]
REMARK SMILES IDX 15 1 16 2 17 3 18 4 19 5 20 6 21 7 22 8 23 9 24 10 25 11
REMARK SMILES IDX 26 12 27 13 28 14 29 15 30 16 14 17 13 18 12 19 11 20 10 21
REMARK SMILES IDX 9 22 8 23 7 24 6 25 5 26 4 27 3 28 2 29 1 30
REMARK H PARENT
REMARK Flexibility Score: inf
ROOT
ATOM      1  C   UNL     1     184.988 187.183 170.531  1.00  0.00     0.000 C 
ENDROOT
BRANCH   1   2
ATOM      2  C   UNL     1     183.458 187.310 170.625  1.00  0.00     0.000 C 
BRANCH   2   3
ATOM      3  C   UNL     1     182.846 188.043 169.417  1.00  0.00     0.000 C 
BRANCH   3   4
ATOM      4  C   UNL     1     181.902 189.212 169.771  1.00  0.00     0.000 C 
BRANCH   4   5
ATOM      5  C   UNL     1     180.582 188.805 170.460  1.00  0.00     0.000 C 
BRANCH   5   6
ATOM      6  C   UNL     1     179.305 189.259 169.729  1.00  0.00     0.000 C 
BRANCH   6   7
ATOM      7  C   UNL     1     179.271 188.807 168.259  1.00  0.00     0.000 C 
BRANCH   7   8
ATOM      8  C   UNL     1     179.304 189.988 167.271  1.00  0.00     0.000 C 
BRANCH   8   9
ATOM      9  C   UNL     1     179.214 191.381 167.922  1.00  0.00     0.000 C 
BRANCH   9  10
ATOM     10  C   UNL     1     180.506 192.201 167.773  1.00  0.00     0.000 C 
BRANCH  10  11
ATOM     11  C   UNL     1     181.047 192.628 169.146  1.00  0.00     0.000 C 
BRANCH  11  12
ATOM     12  C   UNL     1     179.929 192.939 170.154  1.00  0.00     0.006 C 
BRANCH  12  13
ATOM     13  C   UNL     1     180.047 194.347 170.752  1.00  0.00     0.053 C 
BRANCH  13  14
ATOM     14  C   UNL     1     180.382 194.266 172.209  1.00  0.00     0.041 C 
ATOM     15  O   UNL     1     181.346 193.555 172.599  1.00  0.00    -0.550 OA
ATOM     16  O   UNL     1     179.668 195.022 173.130  1.00  0.00    -0.550 OA
ENDBRANCH  13  14
ENDBRANCH  12  13
ENDBRANCH  11  12
ENDBRANCH  10  11
ENDBRANCH   9  10
ENDBRANCH   8   9
ENDBRANCH   7   8
ENDBRANCH   6   7
ENDBRANCH   5   6
ENDBRANCH   4   5
ENDBRANCH   3   4
ENDBRANCH   2   3
ENDBRANCH   1   2
BRANCH   1  17
ATOM     17  C   UNL     1     185.564 187.919 169.299  1.00  0.00     0.000 C 
BRANCH  17  18
ATOM     18  C   UNL     1     186.149 186.974 168.236  1.00  0.00     0.000 C 
BRANCH  18  19
ATOM     19  C   UNL     1     185.978 185.492 168.605  1.00  0.00     0.000 C 
BRANCH  19  20
ATOM     20  C   UNL     1     187.248 184.662 168.345  1.00  0.00     0.000 C 
BRANCH  20  21
ATOM     21  C   UNL     1     188.300 185.342 167.447  1.00  0.00     0.000 C 
BRANCH  21  22
ATOM     22  C   UNL     1     189.749 185.188 167.954  1.00  0.00    -0.000 C 
BRANCH  22  23
ATOM     23  C   UNL     1     190.530 186.513 167.898  1.00  0.00    -0.000 C 
BRANCH  23  24
ATOM     24  C   UNL     1     189.659 187.692 167.436  1.00  0.00    -0.000 C 
BRANCH  24  25
ATOM     25  C   UNL     1     189.409 188.715 168.558  1.00  0.00    -0.000 C 
BRANCH  25  26
ATOM     26  C   UNL     1     189.830 188.196 169.944  1.00  0.00    -0.000 C 
BRANCH  26  27
ATOM     27  C   UNL     1     188.664 187.842 170.890  1.00  0.00    -0.000 C 
BRANCH  27  28
ATOM     28  C   UNL     1     188.610 186.372 171.340  1.00  0.00    -0.000 C 
BRANCH  28  29
ATOM     29  C   UNL     1     189.962 185.854 171.851  1.00  0.00    -0.003 C 
ATOM     30  C   UNL     1     190.151 184.378 171.506  1.00  0.00     0.004 C 
ENDBRANCH  28  29
ENDBRANCH  27  28
ENDBRANCH  26  27
ENDBRANCH  25  26
ENDBRANCH  24  25
ENDBRANCH  23  24
ENDBRANCH  22  23
ENDBRANCH  21  22
ENDBRANCH  20  21
ENDBRANCH  19  20
ENDBRANCH  18  19
ENDBRANCH  17  18
ENDBRANCH   1  17
TORSDOF 26
ENDMDL
MODEL 2
REMARK VINA RESULT:    -3.963      2.359      5.611
REMARK INTER + INTRA:         -14.317
REMARK INTER:                  -9.268
REMARK INTRA:                  -5.049
REMARK UNBOUND:                -4.330
REMARK SMILES CCCCCCCCCCCCCCCCCCCCCCCCCCCC(=O)[O-]
REMARK SMILES IDX 15 1 16 2 17 3 18 4 19 5 20 6 21 7 22 8 23 9 24 10 25 11
REMARK SMILES IDX 26 12 27 13 28 14 29 15 30 16 14 17 13 18 12 19 11 20 10 21
REMARK SMILES IDX 9 22 8 23 7 24 6 25 5 26 4 27 3 28 2 29 1 30
REMARK H PARENT
REMARK Flexibility Score: inf
ROOT
ATOM      1  C   UNL     1     187.962 188.692 170.426  1.00  0.00     0.000 C 
ENDROOT
BRANCH   1   2
ATOM      2  C   UNL     1     188.084 189.033 168.930  1.00  0.00     0.000 C 
BRANCH   2   3
ATOM      3  C   UNL     1     189.386 188.504 168.303  1.00  0.00     0.000 C 
BRANCH   3   4
ATOM      4  C   UNL     1     189.196 187.580 167.082  1.00  0.00     0.000 C 
BRANCH   4   5
ATOM      5  C   UNL     1     187.872 186.787 167.057  1.00  0.00     0.000 C 
BRANCH   5   6
ATOM      6  C   UNL     1     187.888 185.479 167.869  1.00  0.00     0.000 C 
BRANCH   6   7
ATOM      7  C   UNL     1     186.586 185.255 168.657  1.00  0.00     0.000 C 
BRANCH   7   8
ATOM      8  C   UNL     1     185.579 186.408 168.488  1.00  0.00     0.000 C 
BRANCH   8   9
ATOM      9  C   UNL     1     184.948 186.915 169.799  1.00  0.00     0.000 C 
BRANCH   9  10
ATOM     10  C   UNL     1     183.763 187.866 169.568  1.00  0.00     0.000 C 
BRANCH  10  11
ATOM     11  C   UNL     1     182.632 187.590 170.571  1.00  0.00     0.000 C 
BRANCH  11  12
ATOM     12  C   UNL     1     181.373 188.424 170.288  1.00  0.00     0.006 C 
BRANCH  12  13
ATOM     13  C   UNL     1     181.683 189.912 170.078  1.00  0.00     0.053 C 
BRANCH  13  14
ATOM     14  C   UNL     1     181.078 190.393 168.796  1.00  0.00     0.041 C 
ATOM     15  O   UNL     1     180.210 189.697 168.204  1.00  0.00    -0.550 OA
ATOM     16  O   UNL     1     181.428 191.637 168.285  1.00  0.00    -0.550 OA
ENDBRANCH  13  14
ENDBRANCH  12  13
ENDBRANCH  11  12
ENDBRANCH  10  11
ENDBRANCH   9  10
ENDBRANCH   8   9
ENDBRANCH   7   8
ENDBRANCH   6   7
ENDBRANCH   5   6
ENDBRANCH   4   5
ENDBRANCH   3   4
ENDBRANCH   2   3
ENDBRANCH   1   2
BRANCH   1  17
ATOM     17  C   UNL     1     188.969 187.605 170.864  1.00  0.00     0.000 C 
BRANCH  17  18
ATOM     18  C   UNL     1     188.334 186.478 171.697  1.00  0.00     0.000 C 
BRANCH  18  19
ATOM     19  C   UNL     1     189.328 185.835 172.678  1.00  0.00     0.000 C 
BRANCH  19  20
ATOM     20  C   UNL     1     189.821 184.456 172.208  1.00  0.00     0.000 C 
BRANCH  20  21
ATOM     21  C   UNL     1     191.342 184.235 172.312  1.00  0.00     0.000 C 
BRANCH  21  22
ATOM     22  C   UNL     1     192.001 183.779 170.994  1.00  0.00    -0.000 C 
BRANCH  22  23
ATOM     23  C   UNL     1     191.043 183.887 169.795  1.00  0.00    -0.000 C 
BRANCH  23  24
ATOM     24  C   UNL     1     191.360 185.091 168.894  1.00  0.00    -0.000 C 
BRANCH  24  25
ATOM     25  C   UNL     1     192.658 185.808 169.306  1.00  0.00    -0.000 C 
BRANCH  25  26
ATOM     26  C   UNL     1     192.402 187.189 169.936  1.00  0.00    -0.000 C 
BRANCH  26  27
ATOM     27  C   UNL     1     193.023 187.392 171.334  1.00  0.00    -0.000 C 
BRANCH  27  28
ATOM     28  C   UNL     1     192.303 188.419 172.226  1.00  0.00    -0.000 C 
BRANCH  28  29
ATOM     29  C   UNL     1     192.319 188.035 173.712  1.00  0.00    -0.003 C 
ATOM     30  C   UNL     1     193.202 186.813 173.955  1.00  0.00     0.004 C 
ENDBRANCH  28  29
ENDBRANCH  27  28
ENDBRANCH  26  27
ENDBRANCH  25  26
ENDBRANCH  24  25
ENDBRANCH  23  24
ENDBRANCH  22  23
ENDBRANCH  21  22
ENDBRANCH  20  21
ENDBRANCH  19  20
ENDBRANCH  18  19
ENDBRANCH  17  18
ENDBRANCH   1  17
TORSDOF 26
ENDMDL
MODEL 3
REMARK VINA RESULT:    -3.896      6.079      9.944
REMARK INTER + INTRA:         -14.147
REMARK INTER:                  -8.451
REMARK INTRA:                  -5.696
REMARK UNBOUND:                -4.330
REMARK SMILES CCCCCCCCCCCCCCCCCCCCCCCCCCCC(=O)[O-]
REMARK SMILES IDX 15 1 16 2 17 3 18 4 19 5 20 6 21 7 22 8 23 9 24 10 25 11
REMARK SMILES IDX 26 12 27 13 28 14 29 15 30 16 14 17 13 18 12 19 11 20 10 21
REMARK SMILES IDX 9 22 8 23 7 24 6 25 5 26 4 27 3 28 2 29 1 30
REMARK H PARENT
REMARK Flexibility Score: inf
ROOT
ATOM      1  C   UNL     1     185.552 187.850 169.597  1.00  0.00     0.000 C 
ENDROOT
BRANCH   1   2
ATOM      2  C   UNL     1     186.826 187.550 170.407  1.00  0.00     0.000 C 
BRANCH   2   3
ATOM      3  C   UNL     1     187.793 188.747 170.462  1.00  0.00     0.000 C 
BRANCH   3   4
ATOM      4  C   UNL     1     188.964 188.690 169.459  1.00  0.00     0.000 C 
BRANCH   4   5
ATOM      5  C   UNL     1     190.372 188.725 170.091  1.00  0.00     0.000 C 
BRANCH   5   6
ATOM      6  C   UNL     1     191.528 188.855 169.083  1.00  0.00     0.000 C 
BRANCH   6   7
ATOM      7  C   UNL     1     192.536 187.697 169.184  1.00  0.00     0.000 C 
BRANCH   7   8
ATOM      8  C   UNL     1     192.516 187.006 170.560  1.00  0.00     0.000 C 
BRANCH   8   9
ATOM      9  C   UNL     1     193.446 185.783 170.685  1.00  0.00     0.000 C 
BRANCH   9  10
ATOM     10  C   UNL     1     193.468 185.186 172.101  1.00  0.00     0.000 C 
BRANCH  10  11
ATOM     11  C   UNL     1     192.890 183.762 172.106  1.00  0.00     0.000 C 
BRANCH  11  12
ATOM     12  C   UNL     1     193.433 182.907 173.262  1.00  0.00     0.006 C 
BRANCH  12  13
ATOM     13  C   UNL     1     192.440 182.788 174.426  1.00  0.00     0.053 C 
BRANCH  13  14
ATOM     14  C   UNL     1     192.967 183.499 175.634  1.00  0.00     0.041 C 
ATOM     15  O   UNL     1     192.393 183.367 176.748  1.00  0.00    -0.550 OA
ATOM     16  O   UNL     1     194.126 184.260 175.542  1.00  0.00    -0.550 OA
ENDBRANCH  13  14
ENDBRANCH  12  13
ENDBRANCH  11  12
ENDBRANCH  10  11
ENDBRANCH   9  10
ENDBRANCH   8   9
ENDBRANCH   7   8
ENDBRANCH   6   7
ENDBRANCH   5   6
ENDBRANCH   4   5
ENDBRANCH   3   4
ENDBRANCH   2   3
ENDBRANCH   1   2
BRANCH   1  17
ATOM     17  C   UNL     1     185.365 186.875 168.413  1.00  0.00     0.000 C 
BRANCH  17  18
ATOM     18  C   UNL     1     186.045 185.512 168.625  1.00  0.00     0.000 C 
BRANCH  18  19
ATOM     19  C   UNL     1     186.738 184.993 167.355  1.00  0.00     0.000 C 
BRANCH  19  20
ATOM     20  C   UNL     1     187.088 186.117 166.365  1.00  0.00     0.000 C 
BRANCH  20  21
ATOM     21  C   UNL     1     188.585 186.241 166.021  1.00  0.00     0.000 C 
BRANCH  21  22
ATOM     22  C   UNL     1     189.515 186.227 167.252  1.00  0.00    -0.000 C 
BRANCH  22  23
ATOM     23  C   UNL     1     190.354 184.939 167.335  1.00  0.00    -0.000 C 
BRANCH  23  24
ATOM     24  C   UNL     1     190.602 184.491 168.784  1.00  0.00    -0.000 C 
BRANCH  24  25
ATOM     25  C   UNL     1     189.532 185.020 169.756  1.00  0.00    -0.000 C 
BRANCH  25  26
ATOM     26  C   UNL     1     189.755 184.548 171.203  1.00  0.00    -0.000 C 
BRANCH  26  27
ATOM     27  C   UNL     1     189.039 185.389 172.281  1.00  0.00    -0.000 C 
BRANCH  27  28
ATOM     28  C   UNL     1     189.914 186.451 172.970  1.00  0.00    -0.000 C 
BRANCH  28  29
ATOM     29  C   UNL     1     190.506 185.966 174.300  1.00  0.00    -0.003 C 
ATOM     30  C   UNL     1     191.638 186.879 174.765  1.00  0.00     0.004 C 
ENDBRANCH  28  29
ENDBRANCH  27  28
ENDBRANCH  26  27
ENDBRANCH  25  26
ENDBRANCH  24  25
ENDBRANCH  23  24
ENDBRANCH  22  23
ENDBRANCH  21  22
ENDBRANCH  20  21
ENDBRANCH  19  20
ENDBRANCH  18  19
ENDBRANCH  17  18
ENDBRANCH   1  17
TORSDOF 26
ENDMDL
MODEL 4
REMARK VINA RESULT:    -3.879      3.140      6.863
REMARK INTER + INTRA:         -14.104
REMARK INTER:                  -9.218
REMARK INTRA:                  -4.886
REMARK UNBOUND:                -4.330
REMARK SMILES CCCCCCCCCCCCCCCCCCCCCCCCCCCC(=O)[O-]
REMARK SMILES IDX 15 1 16 2 17 3 18 4 19 5 20 6 21 7 22 8 23 9 24 10 25 11
REMARK SMILES IDX 26 12 27 13 28 14 29 15 30 16 14 17 13 18 12 19 11 20 10 21
REMARK SMILES IDX 9 22 8 23 7 24 6 25 5 26 4 27 3 28 2 29 1 30
REMARK H PARENT
REMARK Flexibility Score: inf
ROOT
ATOM      1  C   UNL     1     187.100 185.277 166.860  1.00  0.00     0.000 C 
ENDROOT
BRANCH   1   2
ATOM      2  C   UNL     1     187.243 186.502 165.939  1.00  0.00     0.000 C 
BRANCH   2   3
ATOM      3  C   UNL     1     188.645 186.614 165.312  1.00  0.00     0.000 C 
BRANCH   3   4
ATOM      4  C   UNL     1     189.394 187.929 165.614  1.00  0.00     0.000 C 
BRANCH   4   5
ATOM      5  C   UNL     1     190.619 187.790 166.543  1.00  0.00     0.000 C 
BRANCH   5   6
ATOM      6  C   UNL     1     190.323 188.006 168.038  1.00  0.00     0.000 C 
BRANCH   6   7
ATOM      7  C   UNL     1     188.990 188.734 168.281  1.00  0.00     0.000 C 
BRANCH   7   8
ATOM      8  C   UNL     1     188.702 188.970 169.775  1.00  0.00     0.000 C 
BRANCH   8   9
ATOM      9  C   UNL     1     187.209 188.955 170.157  1.00  0.00     0.000 C 
BRANCH   9  10
ATOM     10  C   UNL     1     186.375 188.001 169.287  1.00  0.00     0.000 C 
BRANCH  10  11
ATOM     11  C   UNL     1     185.592 187.006 170.157  1.00  0.00     0.000 C 
BRANCH  11  12
ATOM     12  C   UNL     1     184.091 187.330 170.222  1.00  0.00     0.006 C 
BRANCH  12  13
ATOM     13  C   UNL     1     183.588 188.065 168.972  1.00  0.00     0.053 C 
BRANCH  13  14
ATOM     14  C   UNL     1     182.362 188.860 169.294  1.00  0.00     0.041 C 
ATOM     15  O   UNL     1     181.886 188.847 170.461  1.00  0.00    -0.550 OA
ATOM     16  O   UNL     1     181.778 189.663 168.322  1.00  0.00    -0.550 OA
ENDBRANCH  13  14
ENDBRANCH  12  13
ENDBRANCH  11  12
ENDBRANCH  10  11
ENDBRANCH   9  10
ENDBRANCH   8   9
ENDBRANCH   7   8
ENDBRANCH   6   7
ENDBRANCH   5   6
ENDBRANCH   4   5
ENDBRANCH   3   4
ENDBRANCH   2   3
ENDBRANCH   1   2
BRANCH   1  17
ATOM     17  C   UNL     1     188.406 184.961 167.625  1.00  0.00     0.000 C 
BRANCH  17  18
ATOM     18  C   UNL     1     188.235 184.946 169.153  1.00  0.00     0.000 C 
BRANCH  18  19
ATOM     19  C   UNL     1     189.569 184.765 169.895  1.00  0.00     0.000 C 
BRANCH  19  20
ATOM     20  C   UNL     1     189.842 185.885 170.914  1.00  0.00     0.000 C 
BRANCH  20  21
ATOM     21  C   UNL     1     188.761 186.058 171.999  1.00  0.00     0.000 C 
BRANCH  21  22
ATOM     22  C   UNL     1     188.949 185.139 173.224  1.00  0.00    -0.000 C 
BRANCH  22  23
ATOM     23  C   UNL     1     190.243 185.453 173.996  1.00  0.00    -0.000 C 
BRANCH  23  24
ATOM     24  C   UNL     1     191.124 184.209 174.198  1.00  0.00    -0.000 C 
BRANCH  24  25
ATOM     25  C   UNL     1     192.025 183.922 172.984  1.00  0.00    -0.000 C 
BRANCH  25  26
ATOM     26  C   UNL     1     193.326 184.745 172.998  1.00  0.00    -0.000 C 
BRANCH  26  27
ATOM     27  C   UNL     1     193.471 185.754 171.840  1.00  0.00    -0.000 C 
BRANCH  27  28
ATOM     28  C   UNL     1     193.894 187.173 172.259  1.00  0.00    -0.000 C 
BRANCH  28  29
ATOM     29  C   UNL     1     192.699 188.082 172.582  1.00  0.00    -0.003 C 
ATOM     30  C   UNL     1     192.078 188.649 171.308  1.00  0.00     0.004 C 
ENDBRANCH  28  29
ENDBRANCH  27  28
ENDBRANCH  26  27
ENDBRANCH  25  26
ENDBRANCH  24  25
ENDBRANCH  23  24
ENDBRANCH  22  23
ENDBRANCH  21  22
ENDBRANCH  20  21
ENDBRANCH  19  20
ENDBRANCH  18  19
ENDBRANCH  17  18
ENDBRANCH   1  17
TORSDOF 26
ENDMDL
MODEL 5
REMARK VINA RESULT:    -3.849      5.636      8.181
REMARK INTER + INTRA:         -14.029
REMARK INTER:                  -8.012
REMARK INTRA:                  -6.016
REMARK UNBOUND:                -4.330
REMARK SMILES CCCCCCCCCCCCCCCCCCCCCCCCCCCC(=O)[O-]
REMARK SMILES IDX 15 1 16 2 17 3 18 4 19 5 20 6 21 7 22 8 23 9 24 10 25 11
REMARK SMILES IDX 26 12 27 13 28 14 29 15 30 16 14 17 13 18 12 19 11 20 10 21
REMARK SMILES IDX 9 22 8 23 7 24 6 25 5 26 4 27 3 28 2 29 1 30
REMARK H PARENT
REMARK Flexibility Score: inf
ROOT
ATOM      1  C   UNL     1     189.029 186.138 171.347  1.00  0.00     0.000 C 
ENDROOT
BRANCH   1   2
ATOM      2  C   UNL     1     188.798 187.563 170.815  1.00  0.00     0.000 C 
BRANCH   2   3
ATOM      3  C   UNL     1     187.306 187.942 170.757  1.00  0.00     0.000 C 
BRANCH   3   4
ATOM      4  C   UNL     1     186.810 188.437 169.382  1.00  0.00     0.000 C 
BRANCH   4   5
ATOM      5  C   UNL     1     185.908 187.448 168.614  1.00  0.00     0.000 C 
BRANCH   5   6
ATOM      6  C   UNL     1     185.856 186.028 169.206  1.00  0.00     0.000 C 
BRANCH   6   7
ATOM      7  C   UNL     1     186.392 184.961 168.236  1.00  0.00     0.000 C 
BRANCH   7   8
ATOM      8  C   UNL     1     187.926 184.992 168.102  1.00  0.00     0.000 C 
BRANCH   8   9
ATOM      9  C   UNL     1     188.445 185.276 166.679  1.00  0.00     0.000 C 
BRANCH   9  10
ATOM     10  C   UNL     1     188.893 186.733 166.482  1.00  0.00     0.000 C 
BRANCH  10  11
ATOM     11  C   UNL     1     189.771 187.202 167.652  1.00  0.00     0.000 C 
BRANCH  11  12
ATOM     12  C   UNL     1     190.827 188.234 167.225  1.00  0.00     0.006 C 
BRANCH  12  13
ATOM     13  C   UNL     1     192.065 188.225 168.131  1.00  0.00     0.053 C 
BRANCH  13  14
ATOM     14  C   UNL     1     192.104 189.465 168.969  1.00  0.00     0.041 C 
ATOM     15  O   UNL     1     191.641 189.453 170.141  1.00  0.00    -0.550 OA
ATOM     16  O   UNL     1     192.705 190.618 168.479  1.00  0.00    -0.550 OA
ENDBRANCH  13  14
ENDBRANCH  12  13
ENDBRANCH  11  12
ENDBRANCH  10  11
ENDBRANCH   9  10
ENDBRANCH   8   9
ENDBRANCH   7   8
ENDBRANCH   6   7
ENDBRANCH   5   6
ENDBRANCH   4   5
ENDBRANCH   3   4
ENDBRANCH   2   3
ENDBRANCH   1   2
BRANCH   1  17
ATOM     17  C   UNL     1     188.014 185.749 172.446  1.00  0.00     0.000 C 
BRANCH  17  18
ATOM     18  C   UNL     1     188.671 185.365 173.782  1.00  0.00     0.000 C 
BRANCH  18  19
ATOM     19  C   UNL     1     189.993 184.604 173.594  1.00  0.00     0.000 C 
BRANCH  19  20
ATOM     20  C   UNL     1     191.169 185.256 174.341  1.00  0.00     0.000 C 
BRANCH  20  21
ATOM     21  C   UNL     1     191.144 186.797 174.381  1.00  0.00     0.000 C 
BRANCH  21  22
ATOM     22  C   UNL     1     191.881 187.466 173.202  1.00  0.00    -0.000 C 
BRANCH  22  23
ATOM     23  C   UNL     1     192.990 186.570 172.622  1.00  0.00    -0.000 C 
BRANCH  23  24
ATOM     24  C   UNL     1     192.748 186.216 171.146  1.00  0.00    -0.000 C 
BRANCH  24  25
ATOM     25  C   UNL     1     193.156 184.770 170.813  1.00  0.00    -0.000 C 
BRANCH  25  26
ATOM     26  C   UNL     1     191.958 183.805 170.778  1.00  0.00    -0.000 C 
BRANCH  26  27
ATOM     27  C   UNL     1     191.186 183.773 169.442  1.00  0.00    -0.000 C 
BRANCH  27  28
ATOM     28  C   UNL     1     192.002 183.297 168.228  1.00  0.00    -0.000 C 
BRANCH  28  29
ATOM     29  C   UNL     1     192.011 184.315 167.078  1.00  0.00    -0.003 C 
ATOM     30  C   UNL     1     193.377 184.984 166.948  1.00  0.00     0.004 C 
ENDBRANCH  28  29
ENDBRANCH  27  28
ENDBRANCH  26  27
ENDBRANCH  25  26
ENDBRANCH  24  25
ENDBRANCH  23  24
ENDBRANCH  22  23
ENDBRANCH  21  22
ENDBRANCH  20  21
ENDBRANCH  19  20
ENDBRANCH  18  19
ENDBRANCH  17  18
ENDBRANCH   1  17
TORSDOF 26
ENDMDL
MODEL 6
REMARK VINA RESULT:    -3.805      5.330      8.168
REMARK INTER + INTRA:         -13.919
REMARK INTER:                  -8.057
REMARK INTRA:                  -5.862
REMARK UNBOUND:                -4.330
REMARK SMILES CCCCCCCCCCCCCCCCCCCCCCCCCCCC(=O)[O-]
REMARK SMILES IDX 15 1 16 2 17 3 18 4 19 5 20 6 21 7 22 8 23 9 24 10 25 11
REMARK SMILES IDX 26 12 27 13 28 14 29 15 30 16 14 17 13 18 12 19 11 20 10 21
REMARK SMILES IDX 9 22 8 23 7 24 6 25 5 26 4 27 3 28 2 29 1 30
REMARK H PARENT
REMARK Flexibility Score: inf
ROOT
ATOM      1  C   UNL     1     189.388 186.752 167.038  1.00  0.00     0.000 C 
ENDROOT
BRANCH   1   2
ATOM      2  C   UNL     1     187.878 186.477 166.920  1.00  0.00     0.000 C 
BRANCH   2   3
ATOM      3  C   UNL     1     187.427 185.267 167.760  1.00  0.00     0.000 C 
BRANCH   3   4
ATOM      4  C   UNL     1     186.045 185.415 168.430  1.00  0.00     0.000 C 
BRANCH   4   5
ATOM      5  C   UNL     1     185.376 186.796 168.259  1.00  0.00     0.000 C 
BRANCH   5   6
ATOM      6  C   UNL     1     184.898 187.448 169.569  1.00  0.00     0.000 C 
BRANCH   6   7
ATOM      7  C   UNL     1     186.027 187.604 170.602  1.00  0.00     0.000 C 
BRANCH   7   8
ATOM      8  C   UNL     1     187.181 188.490 170.095  1.00  0.00     0.000 C 
BRANCH   8   9
ATOM      9  C   UNL     1     188.592 187.952 170.399  1.00  0.00     0.000 C 
BRANCH   9  10
ATOM     10  C   UNL     1     188.607 186.900 171.520  1.00  0.00     0.000 C 
BRANCH  10  11
ATOM     11  C   UNL     1     189.080 185.538 170.989  1.00  0.00     0.000 C 
BRANCH  11  12
ATOM     12  C   UNL     1     189.797 184.701 172.061  1.00  0.00     0.006 C 
BRANCH  12  13
ATOM     13  C   UNL     1     189.511 185.193 173.486  1.00  0.00     0.053 C 
BRANCH  13  14
ATOM     14  C   UNL     1     190.787 185.567 174.173  1.00  0.00     0.041 C 
ATOM     15  O   UNL     1     190.892 186.681 174.752  1.00  0.00    -0.550 OA
ATOM     16  O   UNL     1     191.840 184.662 174.226  1.00  0.00    -0.550 OA
ENDBRANCH  13  14
ENDBRANCH  12  13
ENDBRANCH  11  12
ENDBRANCH  10  11
ENDBRANCH   9  10
ENDBRANCH   8   9
ENDBRANCH   7   8
ENDBRANCH   6   7
ENDBRANCH   5   6
ENDBRANCH   4   5
ENDBRANCH   3   4
ENDBRANCH   2   3
ENDBRANCH   1   2
BRANCH   1  17
ATOM     17  C   UNL     1     189.818 188.013 166.255  1.00  0.00     0.000 C 
BRANCH  17  18
ATOM     18  C   UNL     1     190.372 189.134 167.150  1.00  0.00     0.000 C 
BRANCH  18  19
ATOM     19  C   UNL     1     191.827 189.497 166.810  1.00  0.00     0.000 C 
BRANCH  19  20
ATOM     20  C   UNL     1     192.415 190.556 167.757  1.00  0.00     0.000 C 
BRANCH  20  21
ATOM     21  C   UNL     1     193.576 190.068 168.644  1.00  0.00     0.000 C 
BRANCH  21  22
ATOM     22  C   UNL     1     193.284 190.143 170.158  1.00  0.00    -0.000 C 
BRANCH  22  23
ATOM     23  C   UNL     1     191.973 189.431 170.535  1.00  0.00    -0.000 C 
BRANCH  23  24
ATOM     24  C   UNL     1     192.181 188.345 171.603  1.00  0.00    -0.000 C 
BRANCH  24  25
ATOM     25  C   UNL     1     192.521 186.974 170.990  1.00  0.00    -0.000 C 
BRANCH  25  26
ATOM     26  C   UNL     1     192.026 186.829 169.540  1.00  0.00    -0.000 C 
BRANCH  26  27
ATOM     27  C   UNL     1     193.061 186.252 168.553  1.00  0.00    -0.000 C 
BRANCH  27  28
ATOM     28  C   UNL     1     192.593 185.017 167.764  1.00  0.00    -0.000 C 
BRANCH  28  29
ATOM     29  C   UNL     1     191.436 184.274 168.447  1.00  0.00    -0.003 C 
ATOM     30  C   UNL     1     191.954 183.148 169.339  1.00  0.00     0.004 C 
ENDBRANCH  28  29
ENDBRANCH  27  28
ENDBRANCH  26  27
ENDBRANCH  25  26
ENDBRANCH  24  25
ENDBRANCH  23  24
ENDBRANCH  22  23
ENDBRANCH  21  22
ENDBRANCH  20  21
ENDBRANCH  19  20
ENDBRANCH  18  19
ENDBRANCH  17  18
ENDBRANCH   1  17
TORSDOF 26
ENDMDL
MODEL 7
REMARK VINA RESULT:    -3.803      1.233      2.282
REMARK INTER + INTRA:         -13.914
REMARK INTER:                 -10.520
REMARK INTRA:                  -3.394
REMARK UNBOUND:                -4.330
REMARK SMILES CCCCCCCCCCCCCCCCCCCCCCCCCCCC(=O)[O-]
REMARK SMILES IDX 15 1 16 2 17 3 18 4 19 5 20 6 21 7 22 8 23 9 24 10 25 11
REMARK SMILES IDX 26 12 27 13 28 14 29 15 30 16 14 17 13 18 12 19 11 20 10 21
REMARK SMILES IDX 9 22 8 23 7 24 6 25 5 26 4 27 3 28 2 29 1 30
REMARK H PARENT
REMARK Flexibility Score: inf
ROOT
ATOM      1  C   UNL     1     182.866 188.055 169.727  1.00  0.00     0.000 C 
ENDROOT
BRANCH   1   2
ATOM      2  C   UNL     1     182.611 188.057 168.210  1.00  0.00     0.000 C 
BRANCH   2   3
ATOM      3  C   UNL     1     181.124 187.872 167.855  1.00  0.00     0.000 C 
BRANCH   3   4
ATOM      4  C   UNL     1     180.774 188.090 166.368  1.00  0.00     0.000 C 
BRANCH   4   5
ATOM      5  C   UNL     1     180.098 189.438 166.043  1.00  0.00     0.000 C 
BRANCH   5   6
ATOM      6  C   UNL     1     181.060 190.636 165.947  1.00  0.00     0.000 C 
BRANCH   6   7
ATOM      7  C   UNL     1     180.645 191.805 166.857  1.00  0.00     0.000 C 
BRANCH   7   8
ATOM      8  C   UNL     1     181.096 191.614 168.317  1.00  0.00     0.000 C 
BRANCH   8   9
ATOM      9  C   UNL     1     179.965 191.268 169.304  1.00  0.00     0.000 C 
BRANCH   9  10
ATOM     10  C   UNL     1     179.189 192.503 169.788  1.00  0.00     0.000 C 
BRANCH  10  11
ATOM     11  C   UNL     1     180.147 193.654 170.132  1.00  0.00     0.000 C 
BRANCH  11  12
ATOM     12  C   UNL     1     179.445 194.811 170.861  1.00  0.00     0.006 C 
BRANCH  12  13
ATOM     13  C   UNL     1     180.277 195.369 172.024  1.00  0.00     0.053 C 
BRANCH  13  14
ATOM     14  C   UNL     1     179.732 194.885 173.332  1.00  0.00     0.041 C 
ATOM     15  O   UNL     1     179.558 193.653 173.529  1.00  0.00    -0.550 OA
ATOM     16  O   UNL     1     179.471 195.789 174.354  1.00  0.00    -0.550 OA
ENDBRANCH  13  14
ENDBRANCH  12  13
ENDBRANCH  11  12
ENDBRANCH  10  11
ENDBRANCH   9  10
ENDBRANCH   8   9
ENDBRANCH   7   8
ENDBRANCH   6   7
ENDBRANCH   5   6
ENDBRANCH   4   5
ENDBRANCH   3   4
ENDBRANCH   2   3
ENDBRANCH   1   2
BRANCH   1  17
ATOM     17  C   UNL     1     184.135 187.261 170.109  1.00  0.00     0.000 C 
BRANCH  17  18
ATOM     18  C   UNL     1     185.440 187.916 169.625  1.00  0.00     0.000 C 
BRANCH  18  19
ATOM     19  C   UNL     1     186.125 187.114 168.507  1.00  0.00     0.000 C 
BRANCH  19  20
ATOM     20  C   UNL     1     185.979 185.593 168.689  1.00  0.00     0.000 C 
BRANCH  20  21
ATOM     21  C   UNL     1     187.193 184.761 168.233  1.00  0.00     0.000 C 
BRANCH  21  22
ATOM     22  C   UNL     1     187.732 185.149 166.841  1.00  0.00    -0.000 C 
BRANCH  22  23
ATOM     23  C   UNL     1     189.210 185.577 166.885  1.00  0.00    -0.000 C 
BRANCH  23  24
ATOM     24  C   UNL     1     189.398 187.074 166.590  1.00  0.00    -0.000 C 
BRANCH  24  25
ATOM     25  C   UNL     1     190.029 187.832 167.772  1.00  0.00    -0.000 C 
BRANCH  25  26
ATOM     26  C   UNL     1     189.044 188.799 168.454  1.00  0.00    -0.000 C 
BRANCH  26  27
ATOM     27  C   UNL     1     189.106 188.813 169.995  1.00  0.00    -0.000 C 
BRANCH  27  28
ATOM     28  C   UNL     1     189.773 187.582 170.634  1.00  0.00    -0.000 C 
BRANCH  28  29
ATOM     29  C   UNL     1     188.758 186.550 171.144  1.00  0.00    -0.003 C 
ATOM     30  C   UNL     1     189.357 185.145 171.149  1.00  0.00     0.004 C 
ENDBRANCH  28  29
ENDBRANCH  27  28
ENDBRANCH  26  27
ENDBRANCH  25  26
ENDBRANCH  24  25
ENDBRANCH  23  24
ENDBRANCH  22  23
ENDBRANCH  21  22
ENDBRANCH  20  21
ENDBRANCH  19  20
ENDBRANCH  18  19
ENDBRANCH  17  18
ENDBRANCH   1  17
TORSDOF 26
ENDMDL
MODEL 8
REMARK VINA RESULT:    -3.751      1.435      2.539
REMARK INTER + INTRA:         -13.784
REMARK INTER:                 -10.762
REMARK INTRA:                  -3.022
REMARK UNBOUND:                -4.330
REMARK SMILES CCCCCCCCCCCCCCCCCCCCCCCCCCCC(=O)[O-]
REMARK SMILES IDX 15 1 16 2 17 3 18 4 19 5 20 6 21 7 22 8 23 9 24 10 25 11
REMARK SMILES IDX 26 12 27 13 28 14 29 15 30 16 14 17 13 18 12 19 11 20 10 21
REMARK SMILES IDX 9 22 8 23 7 24 6 25 5 26 4 27 3 28 2 29 1 30
REMARK H PARENT
REMARK Flexibility Score: inf
ROOT
ATOM      1  C   UNL     1     185.407 186.895 169.960  1.00  0.00     0.000 C 
ENDROOT
BRANCH   1   2
ATOM      2  C   UNL     1     183.977 187.443 170.101  1.00  0.00     0.000 C 
BRANCH   2   3
ATOM      3  C   UNL     1     183.434 188.037 168.788  1.00  0.00     0.000 C 
BRANCH   3   4
ATOM      4  C   UNL     1     181.937 188.411 168.808  1.00  0.00     0.000 C 
BRANCH   4   5
ATOM      5  C   UNL     1     181.363 188.750 170.200  1.00  0.00     0.000 C 
BRANCH   5   6
ATOM      6  C   UNL     1     180.085 189.608 170.180  1.00  0.00     0.000 C 
BRANCH   6   7
ATOM      7  C   UNL     1     180.184 190.842 171.093  1.00  0.00     0.000 C 
BRANCH   7   8
ATOM      8  C   UNL     1     181.315 191.802 170.679  1.00  0.00     0.000 C 
BRANCH   8   9
ATOM      9  C   UNL     1     180.927 192.835 169.604  1.00  0.00     0.000 C 
BRANCH   9  10
ATOM     10  C   UNL     1     179.818 193.795 170.065  1.00  0.00     0.000 C 
BRANCH  10  11
ATOM     11  C   UNL     1     180.222 194.522 171.357  1.00  0.00     0.000 C 
BRANCH  11  12
ATOM     12  C   UNL     1     179.177 194.371 172.474  1.00  0.00     0.006 C 
BRANCH  12  13
ATOM     13  C   UNL     1     179.694 193.546 173.660  1.00  0.00     0.053 C 
BRANCH  13  14
ATOM     14  C   UNL     1     180.113 194.450 174.778  1.00  0.00     0.041 C 
ATOM     15  O   UNL     1     180.824 194.006 175.719  1.00  0.00    -0.550 OA
ATOM     16  O   UNL     1     179.768 195.795 174.751  1.00  0.00    -0.550 OA
ENDBRANCH  13  14
ENDBRANCH  12  13
ENDBRANCH  11  12
ENDBRANCH  10  11
ENDBRANCH   9  10
ENDBRANCH   8   9
ENDBRANCH   7   8
ENDBRANCH   6   7
ENDBRANCH   5   6
ENDBRANCH   4   5
ENDBRANCH   3   4
ENDBRANCH   2   3
ENDBRANCH   1   2
BRANCH   1  17
ATOM     17  C   UNL     1     185.715 186.420 168.522  1.00  0.00     0.000 C 
BRANCH  17  18
ATOM     18  C   UNL     1     186.415 185.052 168.463  1.00  0.00     0.000 C 
BRANCH  18  19
ATOM     19  C   UNL     1     187.724 185.092 167.659  1.00  0.00     0.000 C 
BRANCH  19  20
ATOM     20  C   UNL     1     187.732 186.193 166.585  1.00  0.00     0.000 C 
BRANCH  20  21
ATOM     21  C   UNL     1     188.945 187.142 166.630  1.00  0.00     0.000 C 
BRANCH  21  22
ATOM     22  C   UNL     1     189.479 187.410 168.053  1.00  0.00    -0.000 C 
BRANCH  22  23
ATOM     23  C   UNL     1     188.787 188.612 168.718  1.00  0.00    -0.000 C 
BRANCH  23  24
ATOM     24  C   UNL     1     188.594 188.417 170.231  1.00  0.00    -0.000 C 
BRANCH  24  25
ATOM     25  C   UNL     1     189.164 187.077 170.729  1.00  0.00    -0.000 C 
BRANCH  25  26
ATOM     26  C   UNL     1     188.277 186.411 171.796  1.00  0.00    -0.000 C 
BRANCH  26  27
ATOM     27  C   UNL     1     188.970 185.311 172.626  1.00  0.00    -0.000 C 
BRANCH  27  28
ATOM     28  C   UNL     1     190.457 185.087 172.302  1.00  0.00    -0.000 C 
BRANCH  28  29
ATOM     29  C   UNL     1     191.365 185.232 173.532  1.00  0.00    -0.003 C 
ATOM     30  C   UNL     1     190.860 186.332 174.462  1.00  0.00     0.004 C 
ENDBRANCH  28  29
ENDBRANCH  27  28
ENDBRANCH  26  27
ENDBRANCH  25  26
ENDBRANCH  24  25
ENDBRANCH  23  24
ENDBRANCH  22  23
ENDBRANCH  21  22
ENDBRANCH  20  21
ENDBRANCH  19  20
ENDBRANCH  18  19
ENDBRANCH  17  18
ENDBRANCH   1  17
TORSDOF 26
ENDMDL
MODEL 9
REMARK VINA RESULT:    -3.723      6.165      9.519
REMARK INTER + INTRA:         -13.713
REMARK INTER:                  -7.513
REMARK INTRA:                  -6.201
REMARK UNBOUND:                -4.330
REMARK SMILES CCCCCCCCCCCCCCCCCCCCCCCCCCCC(=O)[O-]
REMARK SMILES IDX 15 1 16 2 17 3 18 4 19 5 20 6 21 7 22 8 23 9 24 10 25 11
REMARK SMILES IDX 26 12 27 13 28 14 29 15 30 16 14 17 13 18 12 19 11 20 10 21
REMARK SMILES IDX 9 22 8 23 7 24 6 25 5 26 4 27 3 28 2 29 1 30
REMARK H PARENT
REMARK Flexibility Score: inf
ROOT
ATOM      1  C   UNL     1     185.954 187.773 169.472  1.00  0.00     0.000 C 
ENDROOT
BRANCH   1   2
ATOM      2  C   UNL     1     186.180 186.289 169.807  1.00  0.00     0.000 C 
BRANCH   2   3
ATOM      3  C   UNL     1     186.649 185.469 168.591  1.00  0.00     0.000 C 
BRANCH   3   4
ATOM      4  C   UNL     1     186.494 186.173 167.227  1.00  0.00     0.000 C 
BRANCH   4   5
ATOM      5  C   UNL     1     187.774 186.233 166.368  1.00  0.00     0.000 C 
BRANCH   5   6
ATOM      6  C   UNL     1     188.781 185.098 166.632  1.00  0.00     0.000 C 
BRANCH   6   7
ATOM      7  C   UNL     1     190.151 185.618 167.102  1.00  0.00     0.000 C 
BRANCH   7   8
ATOM      8  C   UNL     1     190.567 186.924 166.401  1.00  0.00     0.000 C 
BRANCH   8   9
ATOM      9  C   UNL     1     191.937 187.483 166.832  1.00  0.00     0.000 C 
BRANCH   9  10
ATOM     10  C   UNL     1     192.835 186.428 167.498  1.00  0.00     0.000 C 
BRANCH  10  11
ATOM     11  C   UNL     1     193.416 186.954 168.819  1.00  0.00     0.000 C 
BRANCH  11  12
ATOM     12  C   UNL     1     193.641 185.840 169.853  1.00  0.00     0.006 C 
BRANCH  12  13
ATOM     13  C   UNL     1     193.548 184.436 169.241  1.00  0.00     0.053 C 
BRANCH  13  14
ATOM     14  C   UNL     1     192.549 183.608 169.988  1.00  0.00     0.041 C 
ATOM     15  O   UNL     1     191.574 183.092 169.380  1.00  0.00    -0.550 OA
ATOM     16  O   UNL     1     192.727 183.358 171.343  1.00  0.00    -0.550 OA
ENDBRANCH  13  14
ENDBRANCH  12  13
ENDBRANCH  11  12
ENDBRANCH  10  11
ENDBRANCH   9  10
ENDBRANCH   8   9
ENDBRANCH   7   8
ENDBRANCH   6   7
ENDBRANCH   5   6
ENDBRANCH   4   5
ENDBRANCH   3   4
ENDBRANCH   2   3
ENDBRANCH   1   2
BRANCH   1  17
ATOM     17  C   UNL     1     187.057 188.683 170.059  1.00  0.00     0.000 C 
BRANCH  17  18
ATOM     18  C   UNL     1     188.099 189.134 169.022  1.00  0.00     0.000 C 
BRANCH  18  19
ATOM     19  C   UNL     1     189.528 188.706 169.395  1.00  0.00     0.000 C 
BRANCH  19  20
ATOM     20  C   UNL     1     189.573 187.795 170.633  1.00  0.00     0.000 C 
BRANCH  20  21
ATOM     21  C   UNL     1     190.149 186.387 170.388  1.00  0.00     0.000 C 
BRANCH  21  22
ATOM     22  C   UNL     1     189.394 185.264 171.128  1.00  0.00    -0.000 C 
BRANCH  22  23
ATOM     23  C   UNL     1     188.788 185.745 172.458  1.00  0.00    -0.000 C 
BRANCH  23  24
ATOM     24  C   UNL     1     188.961 184.720 173.590  1.00  0.00    -0.000 C 
BRANCH  24  25
ATOM     25  C   UNL     1     190.438 184.366 173.842  1.00  0.00    -0.000 C 
BRANCH  25  26
ATOM     26  C   UNL     1     191.239 185.538 174.437  1.00  0.00    -0.000 C 
BRANCH  26  27
ATOM     27  C   UNL     1     192.248 186.194 173.471  1.00  0.00    -0.000 C 
BRANCH  27  28
ATOM     28  C   UNL     1     192.096 187.716 173.302  1.00  0.00    -0.000 C 
BRANCH  28  29
ATOM     29  C   UNL     1     193.270 188.353 172.543  1.00  0.00    -0.003 C 
ATOM     30  C   UNL     1     192.779 189.417 171.564  1.00  0.00     0.004 C 
ENDBRANCH  28  29
ENDBRANCH  27  28
ENDBRANCH  26  27
ENDBRANCH  25  26
ENDBRANCH  24  25
ENDBRANCH  23  24
ENDBRANCH  22  23
ENDBRANCH  21  22
ENDBRANCH  20  21
ENDBRANCH  19  20
ENDBRANCH  18  19
ENDBRANCH  17  18
ENDBRANCH   1  17
TORSDOF 26
ENDMDL
