MODEL 1
REMARK VINA RESULT:    -8.600      0.000      0.000
REMARK INTER + INTRA:         -13.062
REMARK INTER:                 -11.868
REMARK INTRA:                  -1.195
REMARK UNBOUND:                -1.195
REMARK SMILES CC[C@@H](CC[C@@H](C)[C@H]1CC[C@H]2[C@H]3CC=C4C[C@H](O)CC[C@@]4(C)[C@@H]3CC[C@]12C)C(C)C
REMARK SMILES IDX 5 1 4 2 3 3 2 4 1 5 28 6 29 7 30 8 6 9 7 10 8 11 9 12 26 13
REMARK SMILES IDX 10 14 11 15 25 16 27 17 12 18 24 19 23 20 13 21 21 22 14 23
REMARK SMILES IDX 15 24 20 25 22 26 16 27 19 28 17 29 18 30
REMARK H PARENT 18 31
REMARK Flexibility Score: inf
ROOT
ATOM      1  C   UNL     1     -23.403 -13.559 -12.445  1.00  0.00     0.004 C 
ENDROOT
BRANCH   1   2
ATOM      2  C   UNL     1     -21.882 -13.298 -12.345  1.00  0.00     0.004 C 
BRANCH   2   3
ATOM      3  C   UNL     1     -21.011 -14.515 -11.925  1.00  0.00    -0.009 C 
BRANCH   3   4
ATOM      4  C   UNL     1     -20.768 -14.612 -10.390  1.00  0.00     0.000 C 
ATOM      5  C   UNL     1     -20.904 -13.300  -9.616  1.00  0.00     0.004 C 
ENDBRANCH   3   4
BRANCH   3   6
ATOM      6  C   UNL     1     -19.682 -14.639 -12.751  1.00  0.00    -0.014 C 
ATOM      7  C   UNL     1     -18.403 -14.749 -11.894  1.00  0.00     0.007 C 
ATOM      8  C   UNL     1     -19.531 -13.468 -13.736  1.00  0.00     0.007 C 
ENDBRANCH   3   6
ENDBRANCH   2   3
ENDBRANCH   1   2
BRANCH   1   9
ATOM      9  C   UNL     1     -23.932 -13.724 -13.901  1.00  0.00    -0.011 C 
ATOM     10  C   UNL     1     -22.794 -13.554 -14.936  1.00  0.00     0.008 C 
BRANCH   9  11
ATOM     11  C   UNL     1     -24.868 -14.982 -14.104  1.00  0.00    -0.002 C 
ATOM     12  C   UNL     1     -25.353 -15.166 -15.573  1.00  0.00     0.005 C 
ATOM     13  C   UNL     1     -24.452 -16.425 -13.632  1.00  0.00    -0.026 C 
ATOM     14  C   UNL     1     -25.569 -16.668 -15.801  1.00  0.00     0.005 C 
ATOM     15  C   UNL     1     -25.486 -17.263 -14.408  1.00  0.00    -0.001 C 
ATOM     16  C   UNL     1     -24.653 -16.724 -12.100  1.00  0.00     0.007 C 
ATOM     17  C   UNL     1     -22.988 -16.721 -14.063  1.00  0.00     0.012 C 
ATOM     18  C   UNL     1     -25.411 -18.805 -14.229  1.00  0.00     0.000 C 
ATOM     19  C   UNL     1     -25.250 -18.129 -11.770  1.00  0.00     0.005 C 
ATOM     20  C   UNL     1     -24.864 -19.193 -12.828  1.00  0.00     0.003 C 
ATOM     21  C   UNL     1     -24.641 -19.593 -15.289  1.00  0.00     0.031 C 
ATOM     22  C   UNL     1     -25.206 -20.688 -12.495  1.00  0.00    -0.008 C 
ATOM     23  C   UNL     1     -24.644 -21.071 -14.958  1.00  0.00    -0.027 C 
ATOM     24  C   UNL     1     -24.843 -21.572 -13.709  1.00  0.00    -0.065 C 
ATOM     25  C   UNL     1     -24.352 -21.151 -11.270  1.00  0.00     0.014 C 
ATOM     26  C   UNL     1     -26.711 -20.867 -12.158  1.00  0.00     0.016 C 
ATOM     27  C   UNL     1     -24.779 -23.072 -13.506  1.00  0.00     0.063 C 
ATOM     28  C   UNL     1     -24.344 -22.674 -11.055  1.00  0.00     0.033 C 
ATOM     29  C   UNL     1     -23.874 -23.411 -12.314  1.00  0.00     0.118 C 
BRANCH  29  30
ATOM     30  O   UNL     1     -23.902 -24.793 -12.071  1.00  0.00    -0.393 OA
ATOM     31  H   UNL     1     -24.208 -24.914 -11.135  1.00  0.00     0.210 HD
ENDBRANCH  29  30
ENDBRANCH   9  11
ENDBRANCH   1   9
TORSDOF 7
ENDMDL
MODEL 2
REMARK VINA RESULT:    -7.693      1.891      3.233
REMARK INTER + INTRA:         -11.811
REMARK INTER:                 -11.104
REMARK INTRA:                  -0.707
REMARK UNBOUND:                -1.195
REMARK SMILES CC[C@@H](CC[C@@H](C)[C@H]1CC[C@H]2[C@H]3CC=C4C[C@H](O)CC[C@@]4(C)[C@@H]3CC[C@]12C)C(C)C
REMARK SMILES IDX 5 1 4 2 3 3 2 4 1 5 28 6 29 7 30 8 6 9 7 10 8 11 9 12 26 13
REMARK SMILES IDX 10 14 11 15 25 16 27 17 12 18 24 19 23 20 13 21 21 22 14 23
REMARK SMILES IDX 15 24 20 25 22 26 16 27 19 28 17 29 18 30
REMARK H PARENT 18 31
REMARK Flexibility Score: inf
ROOT
ATOM      1  C   UNL     1     -24.027 -15.605 -13.972  1.00  0.00     0.004 C 
ENDROOT
BRANCH   1   2
ATOM      2  C   UNL     1     -23.804 -14.971 -12.580  1.00  0.00     0.004 C 
BRANCH   2   3
ATOM      3  C   UNL     1     -22.339 -14.973 -12.059  1.00  0.00    -0.009 C 
BRANCH   3   4
ATOM      4  C   UNL     1     -22.113 -14.059 -10.820  1.00  0.00     0.000 C 
ATOM      5  C   UNL     1     -20.950 -14.456  -9.909  1.00  0.00     0.004 C 
ENDBRANCH   3   4
BRANCH   3   6
ATOM      6  C   UNL     1     -21.280 -14.724 -13.190  1.00  0.00    -0.014 C 
ATOM      7  C   UNL     1     -19.842 -15.149 -12.826  1.00  0.00     0.007 C 
ATOM      8  C   UNL     1     -21.275 -13.250 -13.629  1.00  0.00     0.007 C 
ENDBRANCH   3   6
ENDBRANCH   2   3
ENDBRANCH   1   2
BRANCH   1   9
ATOM      9  C   UNL     1     -25.400 -16.321 -14.140  1.00  0.00    -0.011 C 
ATOM     10  C   UNL     1     -26.265 -15.631 -15.223  1.00  0.00     0.008 C 
BRANCH   9  11
ATOM     11  C   UNL     1     -25.295 -17.896 -14.241  1.00  0.00    -0.002 C 
ATOM     12  C   UNL     1     -23.980 -18.389 -14.915  1.00  0.00     0.005 C 
ATOM     13  C   UNL     1     -25.485 -18.833 -12.991  1.00  0.00    -0.026 C 
ATOM     14  C   UNL     1     -23.647 -19.764 -14.319  1.00  0.00     0.005 C 
ATOM     15  C   UNL     1     -24.901 -20.142 -13.554  1.00  0.00    -0.001 C 
ATOM     16  C   UNL     1     -26.976 -19.119 -12.576  1.00  0.00     0.007 C 
ATOM     17  C   UNL     1     -24.676 -18.279 -11.785  1.00  0.00     0.012 C 
ATOM     18  C   UNL     1     -24.883 -21.367 -12.598  1.00  0.00     0.000 C 
ATOM     19  C   UNL     1     -27.284 -20.601 -12.186  1.00  0.00     0.005 C 
ATOM     20  C   UNL     1     -26.053 -21.315 -11.578  1.00  0.00     0.003 C 
ATOM     21  C   UNL     1     -23.584 -21.639 -11.837  1.00  0.00     0.031 C 
ATOM     22  C   UNL     1     -26.291 -22.728 -10.936  1.00  0.00    -0.008 C 
ATOM     23  C   UNL     1     -23.739 -22.847 -10.938  1.00  0.00    -0.027 C 
ATOM     24  C   UNL     1     -24.934 -23.314 -10.486  1.00  0.00    -0.065 C 
ATOM     25  C   UNL     1     -27.207 -22.574  -9.678  1.00  0.00     0.014 C 
ATOM     26  C   UNL     1     -26.967 -23.701 -11.938  1.00  0.00     0.016 C 
ATOM     27  C   UNL     1     -24.946 -24.509  -9.554  1.00  0.00     0.063 C 
ATOM     28  C   UNL     1     -27.243 -23.819  -8.776  1.00  0.00     0.033 C 
ATOM     29  C   UNL     1     -25.832 -24.225  -8.334  1.00  0.00     0.118 C 
BRANCH  29  30
ATOM     30  O   UNL     1     -25.918 -25.372  -7.530  1.00  0.00    -0.393 OA
ATOM     31  H   UNL     1     -25.290 -26.038  -7.912  1.00  0.00     0.210 HD
ENDBRANCH  29  30
ENDBRANCH   9  11
ENDBRANCH   1   9
TORSDOF 7
ENDMDL
MODEL 3
REMARK VINA RESULT:    -7.503      2.473      4.242
REMARK INTER + INTRA:         -11.549
REMARK INTER:                 -10.644
REMARK INTRA:                  -0.905
REMARK UNBOUND:                -1.195
REMARK SMILES CC[C@@H](CC[C@@H](C)[C@H]1CC[C@H]2[C@H]3CC=C4C[C@H](O)CC[C@@]4(C)[C@@H]3CC[C@]12C)C(C)C
REMARK SMILES IDX 5 1 4 2 3 3 2 4 1 5 28 6 29 7 30 8 6 9 7 10 8 11 9 12 26 13
REMARK SMILES IDX 10 14 11 15 25 16 27 17 12 18 24 19 23 20 13 21 21 22 14 23
REMARK SMILES IDX 15 24 20 25 22 26 16 27 19 28 17 29 18 30
REMARK H PARENT 18 31
REMARK Flexibility Score: inf
ROOT
ATOM      1  C   UNL     1     -23.749 -16.531 -13.404  1.00  0.00     0.004 C 
ENDROOT
BRANCH   1   2
ATOM      2  C   UNL     1     -23.761 -15.527 -12.227  1.00  0.00     0.004 C 
BRANCH   2   3
ATOM      3  C   UNL     1     -22.645 -14.444 -12.247  1.00  0.00    -0.009 C 
BRANCH   3   4
ATOM      4  C   UNL     1     -22.710 -13.499 -13.482  1.00  0.00     0.000 C 
ATOM      5  C   UNL     1     -24.116 -13.164 -13.984  1.00  0.00     0.004 C 
ENDBRANCH   3   4
BRANCH   3   6
ATOM      6  C   UNL     1     -21.209 -15.033 -12.016  1.00  0.00    -0.014 C 
ATOM      7  C   UNL     1     -20.616 -14.747 -10.620  1.00  0.00     0.007 C 
ATOM      8  C   UNL     1     -20.228 -14.537 -13.092  1.00  0.00     0.007 C 
ENDBRANCH   3   6
ENDBRANCH   2   3
ENDBRANCH   1   2
BRANCH   1   9
ATOM      9  C   UNL     1     -25.162 -16.993 -13.868  1.00  0.00    -0.011 C 
ATOM     10  C   UNL     1     -25.585 -16.282 -15.177  1.00  0.00     0.008 C 
BRANCH   9  11
ATOM     11  C   UNL     1     -25.365 -18.562 -13.839  1.00  0.00    -0.002 C 
ATOM     12  C   UNL     1     -24.104 -19.360 -14.284  1.00  0.00     0.005 C 
ATOM     13  C   UNL     1     -25.892 -19.317 -12.563  1.00  0.00    -0.026 C 
ATOM     14  C   UNL     1     -24.131 -20.708 -13.550  1.00  0.00     0.005 C 
ATOM     15  C   UNL     1     -25.520 -20.763 -12.942  1.00  0.00    -0.001 C 
ATOM     16  C   UNL     1     -27.450 -19.272 -12.341  1.00  0.00     0.007 C 
ATOM     17  C   UNL     1     -25.142 -18.811 -11.299  1.00  0.00     0.012 C 
ATOM     18  C   UNL     1     -25.867 -21.868 -11.906  1.00  0.00     0.000 C 
ATOM     19  C   UNL     1     -28.096 -20.622 -11.891  1.00  0.00     0.005 C 
ATOM     20  C   UNL     1     -27.118 -21.494 -11.066  1.00  0.00     0.003 C 
ATOM     21  C   UNL     1     -24.753 -22.305 -10.953  1.00  0.00     0.031 C 
ATOM     22  C   UNL     1     -27.713 -22.765 -10.363  1.00  0.00    -0.008 C 
ATOM     23  C   UNL     1     -25.258 -23.367  -9.999  1.00  0.00    -0.027 C 
ATOM     24  C   UNL     1     -26.569 -23.551  -9.686  1.00  0.00    -0.065 C 
ATOM     25  C   UNL     1     -28.728 -22.315  -9.260  1.00  0.00     0.014 C 
ATOM     26  C   UNL     1     -28.444 -23.686 -11.376  1.00  0.00     0.016 C 
ATOM     27  C   UNL     1     -26.936 -24.623  -8.681  1.00  0.00     0.063 C 
ATOM     28  C   UNL     1     -29.124 -23.435  -8.284  1.00  0.00     0.033 C 
ATOM     29  C   UNL     1     -27.890 -24.057  -7.621  1.00  0.00     0.118 C 
BRANCH  29  30
ATOM     30  O   UNL     1     -28.304 -25.081  -6.755  1.00  0.00    -0.393 OA
ATOM     31  H   UNL     1     -28.413 -24.671  -5.858  1.00  0.00     0.210 HD
ENDBRANCH  29  30
ENDBRANCH   9  11
ENDBRANCH   1   9
TORSDOF 7
ENDMDL
MODEL 4
REMARK VINA RESULT:    -6.980      3.135      5.644
REMARK INTER + INTRA:         -10.827
REMARK INTER:                 -10.382
REMARK INTRA:                  -0.445
REMARK UNBOUND:                -1.195
REMARK SMILES CC[C@@H](CC[C@@H](C)[C@H]1CC[C@H]2[C@H]3CC=C4C[C@H](O)CC[C@@]4(C)[C@@H]3CC[C@]12C)C(C)C
REMARK SMILES IDX 5 1 4 2 3 3 2 4 1 5 28 6 29 7 30 8 6 9 7 10 8 11 9 12 26 13
REMARK SMILES IDX 10 14 11 15 25 16 27 17 12 18 24 19 23 20 13 21 21 22 14 23
REMARK SMILES IDX 15 24 20 25 22 26 16 27 19 28 17 29 18 30
REMARK H PARENT 18 31
REMARK Flexibility Score: inf
ROOT
ATOM      1  C   UNL     1     -23.817 -18.147 -14.314  1.00  0.00     0.004 C 
ENDROOT
BRANCH   1   2
ATOM      2  C   UNL     1     -24.749 -16.976 -14.703  1.00  0.00     0.004 C 
BRANCH   2   3
ATOM      3  C   UNL     1     -24.377 -15.588 -14.111  1.00  0.00    -0.009 C 
BRANCH   3   4
ATOM      4  C   UNL     1     -24.201 -14.475 -15.185  1.00  0.00     0.000 C 
ATOM      5  C   UNL     1     -24.340 -14.932 -16.638  1.00  0.00     0.004 C 
ENDBRANCH   3   4
BRANCH   3   6
ATOM      6  C   UNL     1     -23.174 -15.646 -13.105  1.00  0.00    -0.014 C 
ATOM      7  C   UNL     1     -23.436 -14.952 -11.752  1.00  0.00     0.007 C 
ATOM      8  C   UNL     1     -21.898 -15.063 -13.732  1.00  0.00     0.007 C 
ENDBRANCH   3   6
ENDBRANCH   2   3
ENDBRANCH   1   2
BRANCH   1   9
ATOM      9  C   UNL     1     -24.548 -19.506 -14.097  1.00  0.00    -0.011 C 
ATOM     10  C   UNL     1     -23.600 -20.703 -14.356  1.00  0.00     0.008 C 
BRANCH   9  11
ATOM     11  C   UNL     1     -25.395 -19.572 -12.763  1.00  0.00    -0.002 C 
ATOM     12  C   UNL     1     -26.789 -18.887 -12.877  1.00  0.00     0.005 C 
ATOM     13  C   UNL     1     -25.670 -20.926 -12.009  1.00  0.00    -0.026 C 
ATOM     14  C   UNL     1     -27.737 -19.610 -11.911  1.00  0.00     0.005 C 
ATOM     15  C   UNL     1     -26.813 -20.479 -11.078  1.00  0.00    -0.001 C 
ATOM     16  C   UNL     1     -24.496 -21.449 -11.100  1.00  0.00     0.007 C 
ATOM     17  C   UNL     1     -26.109 -22.018 -13.024  1.00  0.00     0.012 C 
ATOM     18  C   UNL     1     -27.411 -21.561 -10.136  1.00  0.00     0.000 C 
ATOM     19  C   UNL     1     -24.933 -22.015  -9.711  1.00  0.00     0.005 C 
ATOM     20  C   UNL     1     -26.354 -22.631  -9.749  1.00  0.00     0.003 C 
ATOM     21  C   UNL     1     -28.677 -22.276 -10.611  1.00  0.00     0.031 C 
ATOM     22  C   UNL     1     -26.818 -23.436  -8.484  1.00  0.00    -0.008 C 
ATOM     23  C   UNL     1     -29.115 -23.309  -9.594  1.00  0.00    -0.027 C 
ATOM     24  C   UNL     1     -28.287 -23.873  -8.674  1.00  0.00    -0.065 C 
ATOM     25  C   UNL     1     -25.932 -24.716  -8.335  1.00  0.00     0.014 C 
ATOM     26  C   UNL     1     -26.696 -22.584  -7.192  1.00  0.00     0.016 C 
ATOM     27  C   UNL     1     -28.844 -24.930  -7.741  1.00  0.00     0.063 C 
ATOM     28  C   UNL     1     -26.493 -25.750  -7.344  1.00  0.00     0.033 C 
ATOM     29  C   UNL     1     -27.923 -26.157  -7.715  1.00  0.00     0.118 C 
BRANCH  29  30
ATOM     30  O   UNL     1     -28.393 -27.085  -6.773  1.00  0.00    -0.393 OA
ATOM     31  H   UNL     1     -29.068 -26.615  -6.218  1.00  0.00     0.210 HD
ENDBRANCH  29  30
ENDBRANCH   9  11
ENDBRANCH   1   9
TORSDOF 7
ENDMDL
MODEL 5
REMARK VINA RESULT:    -6.633      3.086      8.473
REMARK INTER + INTRA:         -10.349
REMARK INTER:                  -9.068
REMARK INTRA:                  -1.281
REMARK UNBOUND:                -1.195
REMARK SMILES CC[C@@H](CC[C@@H](C)[C@H]1CC[C@H]2[C@H]3CC=C4C[C@H](O)CC[C@@]4(C)[C@@H]3CC[C@]12C)C(C)C
REMARK SMILES IDX 5 1 4 2 3 3 2 4 1 5 28 6 29 7 30 8 6 9 7 10 8 11 9 12 26 13
REMARK SMILES IDX 10 14 11 15 25 16 27 17 12 18 24 19 23 20 13 21 21 22 14 23
REMARK SMILES IDX 15 24 20 25 22 26 16 27 19 28 17 29 18 30
REMARK H PARENT 18 31
REMARK Flexibility Score: inf
ROOT
ATOM      1  C   UNL     1     -26.613 -23.770 -11.436  1.00  0.00     0.004 C 
ENDROOT
BRANCH   1   2
ATOM      2  C   UNL     1     -25.954 -24.153 -10.090  1.00  0.00     0.004 C 
BRANCH   2   3
ATOM      3  C   UNL     1     -26.089 -23.109  -8.946  1.00  0.00    -0.009 C 
BRANCH   3   4
ATOM      4  C   UNL     1     -24.769 -22.867  -8.158  1.00  0.00     0.000 C 
ATOM      5  C   UNL     1     -23.505 -23.445  -8.795  1.00  0.00     0.004 C 
ENDBRANCH   3   4
BRANCH   3   6
ATOM      6  C   UNL     1     -27.311 -23.384  -8.000  1.00  0.00    -0.014 C 
ATOM      7  C   UNL     1     -27.910 -24.800  -8.123  1.00  0.00     0.007 C 
ATOM      8  C   UNL     1     -28.424 -22.345  -8.216  1.00  0.00     0.007 C 
ENDBRANCH   3   6
ENDBRANCH   2   3
ENDBRANCH   1   2
BRANCH   1   9
ATOM      9  C   UNL     1     -25.712 -22.909 -12.371  1.00  0.00    -0.011 C 
ATOM     10  C   UNL     1     -25.427 -23.639 -13.706  1.00  0.00     0.008 C 
BRANCH   9  11
ATOM     11  C   UNL     1     -26.173 -21.401 -12.494  1.00  0.00    -0.002 C 
ATOM     12  C   UNL     1     -26.822 -20.840 -11.194  1.00  0.00     0.005 C 
ATOM     13  C   UNL     1     -25.202 -20.263 -12.984  1.00  0.00    -0.026 C 
ATOM     14  C   UNL     1     -26.541 -19.332 -11.153  1.00  0.00     0.005 C 
ATOM     15  C   UNL     1     -26.003 -19.025 -12.538  1.00  0.00    -0.001 C 
ATOM     16  C   UNL     1     -25.004 -20.162 -14.542  1.00  0.00     0.007 C 
ATOM     17  C   UNL     1     -23.831 -20.388 -12.262  1.00  0.00     0.012 C 
ATOM     18  C   UNL     1     -25.366 -17.638 -12.830  1.00  0.00     0.000 C 
ATOM     19  C   UNL     1     -25.004 -18.710 -15.120  1.00  0.00     0.005 C 
ATOM     20  C   UNL     1     -24.473 -17.673 -14.100  1.00  0.00     0.003 C 
ATOM     21  C   UNL     1     -24.577 -16.981 -11.697  1.00  0.00     0.031 C 
ATOM     22  C   UNL     1     -24.207 -16.220 -14.630  1.00  0.00    -0.008 C 
ATOM     23  C   UNL     1     -24.006 -15.653 -12.148  1.00  0.00    -0.027 C 
ATOM     24  C   UNL     1     -23.787 -15.319 -13.448  1.00  0.00    -0.065 C 
ATOM     25  C   UNL     1     -23.037 -16.257 -15.667  1.00  0.00     0.014 C 
ATOM     26  C   UNL     1     -25.467 -15.624 -15.312  1.00  0.00     0.016 C 
ATOM     27  C   UNL     1     -23.170 -13.972 -13.762  1.00  0.00     0.063 C 
ATOM     28  C   UNL     1     -22.461 -14.872 -16.007  1.00  0.00     0.033 C 
ATOM     29  C   UNL     1     -22.003 -14.135 -14.744  1.00  0.00     0.118 C 
BRANCH  29  30
ATOM     30  O   UNL     1     -21.503 -12.875 -15.106  1.00  0.00    -0.393 OA
ATOM     31  H   UNL     1     -20.525 -12.981 -15.240  1.00  0.00     0.210 HD
ENDBRANCH  29  30
ENDBRANCH   9  11
ENDBRANCH   1   9
TORSDOF 7
ENDMDL
MODEL 6
REMARK VINA RESULT:    -6.457      4.384     10.094
REMARK INTER + INTRA:         -10.106
REMARK INTER:                  -9.396
REMARK INTRA:                  -0.710
REMARK UNBOUND:                -1.195
REMARK SMILES CC[C@@H](CC[C@@H](C)[C@H]1CC[C@H]2[C@H]3CC=C4C[C@H](O)CC[C@@]4(C)[C@@H]3CC[C@]12C)C(C)C
REMARK SMILES IDX 5 1 4 2 3 3 2 4 1 5 28 6 29 7 30 8 6 9 7 10 8 11 9 12 26 13
REMARK SMILES IDX 10 14 11 15 25 16 27 17 12 18 24 19 23 20 13 21 21 22 14 23
REMARK SMILES IDX 15 24 20 25 22 26 16 27 19 28 17 29 18 30
REMARK H PARENT 18 31
REMARK Flexibility Score: inf
ROOT
ATOM      1  C   UNL     1     -25.721 -25.427  -8.064  1.00  0.00     0.004 C 
ENDROOT
BRANCH   1   2
ATOM      2  C   UNL     1     -27.028 -25.496  -7.239  1.00  0.00     0.004 C 
BRANCH   2   3
ATOM      3  C   UNL     1     -27.622 -26.916  -7.025  1.00  0.00    -0.009 C 
BRANCH   3   4
ATOM      4  C   UNL     1     -29.017 -27.119  -7.684  1.00  0.00     0.000 C 
ATOM      5  C   UNL     1     -29.125 -26.685  -9.147  1.00  0.00     0.004 C 
ENDBRANCH   3   4
BRANCH   3   6
ATOM      6  C   UNL     1     -27.595 -27.378  -5.524  1.00  0.00    -0.014 C 
ATOM      7  C   UNL     1     -26.298 -28.098  -5.099  1.00  0.00     0.007 C 
ATOM      8  C   UNL     1     -28.800 -28.275  -5.199  1.00  0.00     0.007 C 
ENDBRANCH   3   6
ENDBRANCH   2   3
ENDBRANCH   1   2
BRANCH   1   9
ATOM      9  C   UNL     1     -25.295 -23.986  -8.473  1.00  0.00    -0.011 C 
ATOM     10  C   UNL     1     -23.794 -23.740  -8.184  1.00  0.00     0.008 C 
BRANCH   9  11
ATOM     11  C   UNL     1     -25.802 -23.550  -9.907  1.00  0.00    -0.002 C 
ATOM     12  C   UNL     1     -27.340 -23.707 -10.097  1.00  0.00     0.005 C 
ATOM     13  C   UNL     1     -25.459 -22.145 -10.528  1.00  0.00    -0.026 C 
ATOM     14  C   UNL     1     -27.789 -22.642 -11.107  1.00  0.00     0.005 C 
ATOM     15  C   UNL     1     -26.487 -22.108 -11.674  1.00  0.00    -0.001 C 
ATOM     16  C   UNL     1     -24.028 -22.016 -11.170  1.00  0.00     0.007 C 
ATOM     17  C   UNL     1     -25.690 -21.028  -9.472  1.00  0.00     0.012 C 
ATOM     18  C   UNL     1     -26.497 -20.832 -12.562  1.00  0.00     0.000 C 
ATOM     19  C   UNL     1     -23.978 -21.254 -12.534  1.00  0.00     0.005 C 
ATOM     20  C   UNL     1     -25.090 -20.182 -12.647  1.00  0.00     0.003 C 
ATOM     21  C   UNL     1     -27.516 -19.746 -12.211  1.00  0.00     0.031 C 
ATOM     22  C   UNL     1     -25.009 -19.194 -13.864  1.00  0.00    -0.008 C 
ATOM     23  C   UNL     1     -27.381 -18.569 -13.153  1.00  0.00    -0.027 C 
ATOM     24  C   UNL     1     -26.253 -18.280 -13.857  1.00  0.00    -0.065 C 
ATOM     25  C   UNL     1     -23.734 -18.300 -13.717  1.00  0.00     0.014 C 
ATOM     26  C   UNL     1     -24.937 -19.958 -15.213  1.00  0.00     0.016 C 
ATOM     27  C   UNL     1     -26.236 -17.044 -14.733  1.00  0.00     0.063 C 
ATOM     28  C   UNL     1     -23.717 -17.080 -14.654  1.00  0.00     0.033 C 
ATOM     29  C   UNL     1     -24.971 -16.218 -14.467  1.00  0.00     0.118 C 
BRANCH  29  30
ATOM     30  O   UNL     1     -24.914 -15.132 -15.353  1.00  0.00    -0.393 OA
ATOM     31  H   UNL     1     -24.303 -15.393 -16.090  1.00  0.00     0.210 HD
ENDBRANCH  29  30
ENDBRANCH   9  11
ENDBRANCH   1   9
TORSDOF 7
ENDMDL
MODEL 7
REMARK VINA RESULT:    -6.450      1.283      2.301
REMARK INTER + INTRA:         -10.096
REMARK INTER:                  -9.089
REMARK INTRA:                  -1.006
REMARK UNBOUND:                -1.195
REMARK SMILES CC[C@@H](CC[C@@H](C)[C@H]1CC[C@H]2[C@H]3CC=C4C[C@H](O)CC[C@@]4(C)[C@@H]3CC[C@]12C)C(C)C
REMARK SMILES IDX 5 1 4 2 3 3 2 4 1 5 28 6 29 7 30 8 6 9 7 10 8 11 9 12 26 13
REMARK SMILES IDX 10 14 11 15 25 16 27 17 12 18 24 19 23 20 13 21 21 22 14 23
REMARK SMILES IDX 15 24 20 25 22 26 16 27 19 28 17 29 18 30
REMARK H PARENT 18 31
REMARK Flexibility Score: inf
ROOT
ATOM      1  C   UNL     1     -23.129 -14.772 -14.217  1.00  0.00     0.004 C 
ENDROOT
BRANCH   1   2
ATOM      2  C   UNL     1     -22.493 -13.681 -13.325  1.00  0.00     0.004 C 
BRANCH   2   3
ATOM      3  C   UNL     1     -21.358 -14.156 -12.376  1.00  0.00    -0.009 C 
BRANCH   3   4
ATOM      4  C   UNL     1     -20.356 -15.143 -13.042  1.00  0.00     0.000 C 
ATOM      5  C   UNL     1     -18.883 -14.923 -12.696  1.00  0.00     0.004 C 
ENDBRANCH   3   4
BRANCH   3   6
ATOM      6  C   UNL     1     -21.887 -14.679 -10.993  1.00  0.00    -0.014 C 
ATOM      7  C   UNL     1     -23.300 -14.185 -10.620  1.00  0.00     0.007 C 
ATOM      8  C   UNL     1     -20.912 -14.325  -9.858  1.00  0.00     0.007 C 
ENDBRANCH   3   6
ENDBRANCH   2   3
ENDBRANCH   1   2
BRANCH   1   9
ATOM      9  C   UNL     1     -24.672 -14.915 -14.057  1.00  0.00    -0.011 C 
ATOM     10  C   UNL     1     -25.425 -13.835 -14.871  1.00  0.00     0.008 C 
BRANCH   9  11
ATOM     11  C   UNL     1     -25.200 -16.397 -14.223  1.00  0.00    -0.002 C 
ATOM     12  C   UNL     1     -24.979 -16.979 -15.651  1.00  0.00     0.005 C 
ATOM     13  C   UNL     1     -24.779 -17.554 -13.244  1.00  0.00    -0.026 C 
ATOM     14  C   UNL     1     -24.814 -18.498 -15.506  1.00  0.00     0.005 C 
ATOM     15  C   UNL     1     -25.226 -18.773 -14.072  1.00  0.00    -0.001 C 
ATOM     16  C   UNL     1     -25.553 -17.602 -11.874  1.00  0.00     0.007 C 
ATOM     17  C   UNL     1     -23.243 -17.515 -13.006  1.00  0.00     0.012 C 
ATOM     18  C   UNL     1     -24.967 -20.174 -13.449  1.00  0.00     0.000 C 
ATOM     19  C   UNL     1     -25.980 -19.029 -11.402  1.00  0.00     0.005 C 
ATOM     20  C   UNL     1     -25.006 -20.127 -11.897  1.00  0.00     0.003 C 
ATOM     21  C   UNL     1     -23.697 -20.907 -13.884  1.00  0.00     0.031 C 
ATOM     22  C   UNL     1     -25.191 -21.568 -11.304  1.00  0.00    -0.008 C 
ATOM     23  C   UNL     1     -23.584 -22.239 -13.173  1.00  0.00    -0.027 C 
ATOM     24  C   UNL     1     -24.202 -22.531 -11.997  1.00  0.00    -0.065 C 
ATOM     25  C   UNL     1     -24.868 -21.540  -9.774  1.00  0.00     0.014 C 
ATOM     26  C   UNL     1     -26.641 -22.084 -11.505  1.00  0.00     0.016 C 
ATOM     27  C   UNL     1     -23.970 -23.890 -11.368  1.00  0.00     0.063 C 
ATOM     28  C   UNL     1     -24.688 -22.934  -9.149  1.00  0.00     0.033 C 
ATOM     29  C   UNL     1     -23.610 -23.738  -9.885  1.00  0.00     0.118 C 
BRANCH  29  30
ATOM     30  O   UNL     1     -23.497 -25.003  -9.288  1.00  0.00    -0.393 OA
ATOM     31  H   UNL     1     -22.568 -25.078  -8.948  1.00  0.00     0.210 HD
ENDBRANCH  29  30
ENDBRANCH   9  11
ENDBRANCH   1   9
TORSDOF 7
ENDMDL
MODEL 8
REMARK VINA RESULT:    -6.008      3.626      8.989
REMARK INTER + INTRA:          -9.486
REMARK INTER:                  -8.209
REMARK INTRA:                  -1.277
REMARK UNBOUND:                -1.195
REMARK SMILES CC[C@@H](CC[C@@H](C)[C@H]1CC[C@H]2[C@H]3CC=C4C[C@H](O)CC[C@@]4(C)[C@@H]3CC[C@]12C)C(C)C
REMARK SMILES IDX 5 1 4 2 3 3 2 4 1 5 28 6 29 7 30 8 6 9 7 10 8 11 9 12 26 13
REMARK SMILES IDX 10 14 11 15 25 16 27 17 12 18 24 19 23 20 13 21 21 22 14 23
REMARK SMILES IDX 15 24 20 25 22 26 16 27 19 28 17 29 18 30
REMARK H PARENT 18 31
REMARK Flexibility Score: inf
ROOT
ATOM      1  C   UNL     1     -25.207 -24.529  -8.567  1.00  0.00     0.004 C 
ENDROOT
BRANCH   1   2
ATOM      2  C   UNL     1     -26.154 -23.447  -7.994  1.00  0.00     0.004 C 
BRANCH   2   3
ATOM      3  C   UNL     1     -27.573 -23.933  -7.587  1.00  0.00    -0.009 C 
BRANCH   3   4
ATOM      4  C   UNL     1     -27.982 -25.287  -8.237  1.00  0.00     0.000 C 
ATOM      5  C   UNL     1     -28.620 -26.307  -7.292  1.00  0.00     0.004 C 
ENDBRANCH   3   4
BRANCH   3   6
ATOM      6  C   UNL     1     -28.676 -22.830  -7.754  1.00  0.00    -0.014 C 
ATOM      7  C   UNL     1     -28.271 -21.652  -8.666  1.00  0.00     0.007 C 
ATOM      8  C   UNL     1     -29.121 -22.280  -6.389  1.00  0.00     0.007 C 
ENDBRANCH   3   6
ENDBRANCH   2   3
ENDBRANCH   1   2
BRANCH   1   9
ATOM      9  C   UNL     1     -24.179 -23.996  -9.608  1.00  0.00    -0.011 C 
ATOM     10  C   UNL     1     -22.999 -24.983  -9.789  1.00  0.00     0.008 C 
BRANCH   9  11
ATOM     11  C   UNL     1     -24.837 -23.457 -10.942  1.00  0.00    -0.002 C 
ATOM     12  C   UNL     1     -26.362 -23.754 -11.046  1.00  0.00     0.005 C 
ATOM     13  C   UNL     1     -24.682 -21.963 -11.411  1.00  0.00    -0.026 C 
ATOM     14  C   UNL     1     -26.991 -22.636 -11.889  1.00  0.00     0.005 C 
ATOM     15  C   UNL     1     -25.796 -21.906 -12.473  1.00  0.00    -0.001 C 
ATOM     16  C   UNL     1     -23.326 -21.612 -12.128  1.00  0.00     0.007 C 
ATOM     17  C   UNL     1     -24.936 -21.003 -10.215  1.00  0.00     0.012 C 
ATOM     18  C   UNL     1     -26.000 -20.547 -13.199  1.00  0.00     0.000 C 
ATOM     19  C   UNL     1     -23.457 -20.700 -13.390  1.00  0.00     0.005 C 
ATOM     20  C   UNL     1     -24.673 -19.746 -13.299  1.00  0.00     0.003 C 
ATOM     21  C   UNL     1     -27.088 -19.621 -12.653  1.00  0.00     0.031 C 
ATOM     22  C   UNL     1     -24.784 -18.624 -14.391  1.00  0.00    -0.008 C 
ATOM     23  C   UNL     1     -27.143 -18.337 -13.453  1.00  0.00    -0.027 C 
ATOM     24  C   UNL     1     -26.108 -17.853 -14.191  1.00  0.00    -0.065 C 
ATOM     25  C   UNL     1     -23.595 -17.623 -14.223  1.00  0.00     0.014 C 
ATOM     26  C   UNL     1     -24.745 -19.219 -15.824  1.00  0.00     0.016 C 
ATOM     27  C   UNL     1     -26.280 -16.531 -14.912  1.00  0.00     0.063 C 
ATOM     28  C   UNL     1     -23.770 -16.310 -15.006  1.00  0.00     0.033 C 
ATOM     29  C   UNL     1     -25.083 -15.612 -14.634  1.00  0.00     0.118 C 
BRANCH  29  30
ATOM     30  O   UNL     1     -25.203 -14.433 -15.384  1.00  0.00    -0.393 OA
ATOM     31  H   UNL     1     -25.971 -14.560 -15.999  1.00  0.00     0.210 HD
ENDBRANCH  29  30
ENDBRANCH   9  11
ENDBRANCH   1   9
TORSDOF 7
ENDMDL
MODEL 9
REMARK VINA RESULT:    -5.690      5.057     10.725
REMARK INTER + INTRA:          -9.047
REMARK INTER:                  -8.357
REMARK INTRA:                  -0.691
REMARK UNBOUND:                -1.195
REMARK SMILES CC[C@@H](CC[C@@H](C)[C@H]1CC[C@H]2[C@H]3CC=C4C[C@H](O)CC[C@@]4(C)[C@@H]3CC[C@]12C)C(C)C
REMARK SMILES IDX 5 1 4 2 3 3 2 4 1 5 28 6 29 7 30 8 6 9 7 10 8 11 9 12 26 13
REMARK SMILES IDX 10 14 11 15 25 16 27 17 12 18 24 19 23 20 13 21 21 22 14 23
REMARK SMILES IDX 15 24 20 25 22 26 16 27 19 28 17 29 18 30
REMARK H PARENT 18 31
REMARK Flexibility Score: inf
ROOT
ATOM      1  C   UNL     1     -26.663 -25.859  -6.919  1.00  0.00     0.004 C 
ENDROOT
BRANCH   1   2
ATOM      2  C   UNL     1     -27.135 -27.332  -6.923  1.00  0.00     0.004 C 
BRANCH   2   3
ATOM      3  C   UNL     1     -28.265 -27.685  -5.916  1.00  0.00    -0.009 C 
BRANCH   3   4
ATOM      4  C   UNL     1     -29.120 -26.461  -5.477  1.00  0.00     0.000 C 
ATOM      5  C   UNL     1     -29.125 -26.162  -3.978  1.00  0.00     0.004 C 
ENDBRANCH   3   4
BRANCH   3   6
ATOM      6  C   UNL     1     -27.761 -28.533  -4.695  1.00  0.00    -0.014 C 
ATOM      7  C   UNL     1     -26.228 -28.686  -4.610  1.00  0.00     0.007 C 
ATOM      8  C   UNL     1     -28.408 -29.928  -4.685  1.00  0.00     0.007 C 
ENDBRANCH   3   6
ENDBRANCH   2   3
ENDBRANCH   1   2
BRANCH   1   9
ATOM      9  C   UNL     1     -27.075 -25.048  -8.184  1.00  0.00    -0.011 C 
ATOM     10  C   UNL     1     -28.572 -24.654  -8.136  1.00  0.00     0.008 C 
BRANCH   9  11
ATOM     11  C   UNL     1     -26.068 -23.888  -8.559  1.00  0.00    -0.002 C 
ATOM     12  C   UNL     1     -24.588 -24.360  -8.668  1.00  0.00     0.005 C 
ATOM     13  C   UNL     1     -26.288 -22.954  -9.806  1.00  0.00    -0.026 C 
ATOM     14  C   UNL     1     -23.890 -23.452  -9.689  1.00  0.00     0.005 C 
ATOM     15  C   UNL     1     -24.885 -22.329  -9.916  1.00  0.00    -0.001 C 
ATOM     16  C   UNL     1     -27.316 -21.780  -9.604  1.00  0.00     0.007 C 
ATOM     17  C   UNL     1     -26.668 -23.809 -11.048  1.00  0.00     0.012 C 
ATOM     18  C   UNL     1     -24.659 -21.319 -11.075  1.00  0.00     0.000 C 
ATOM     19  C   UNL     1     -26.879 -20.404 -10.202  1.00  0.00     0.005 C 
ATOM     20  C   UNL     1     -25.967 -20.567 -11.444  1.00  0.00     0.003 C 
ATOM     21  C   UNL     1     -24.029 -21.860 -12.359  1.00  0.00     0.031 C 
ATOM     22  C   UNL     1     -25.648 -19.272 -12.271  1.00  0.00    -0.008 C 
ATOM     23  C   UNL     1     -23.898 -20.760 -13.391  1.00  0.00    -0.027 C 
ATOM     24  C   UNL     1     -24.648 -19.624 -13.395  1.00  0.00    -0.065 C 
ATOM     25  C   UNL     1     -26.966 -18.743 -12.926  1.00  0.00     0.014 C 
ATOM     26  C   UNL     1     -25.046 -18.158 -11.375  1.00  0.00     0.016 C 
ATOM     27  C   UNL     1     -24.447 -18.621 -14.512  1.00  0.00     0.063 C 
ATOM     28  C   UNL     1     -26.737 -17.687 -14.021  1.00  0.00     0.033 C 
ATOM     29  C   UNL     1     -25.798 -18.213 -15.113  1.00  0.00     0.118 C 
BRANCH  29  30
ATOM     30  O   UNL     1     -25.610 -17.210 -16.076  1.00  0.00    -0.393 OA
ATOM     31  H   UNL     1     -26.500 -16.806 -16.248  1.00  0.00     0.210 HD
ENDBRANCH  29  30
ENDBRANCH   9  11
ENDBRANCH   1   9
TORSDOF 7
ENDMDL
