MODEL 1
REMARK VINA RESULT:    -4.951      0.000      0.000
REMARK INTER + INTRA:          -9.594
REMARK INTER:                  -8.424
REMARK INTRA:                  -1.170
REMARK UNBOUND:                -1.170
REMARK SMILES CCCCCCCCCCCCCC(=O)[O-]
REMARK SMILES IDX 8 1 9 2 10 3 11 4 12 5 13 6 14 7 15 8 16 9 7 10 6 11 5 12
REMARK SMILES IDX 4 13 3 14 2 15 1 16
REMARK H PARENT
REMARK Flexibility Score: inf
ROOT
ATOM      1  C   UNL     1      27.274  -5.713  29.966  1.00  0.00     0.000 C 
ENDROOT
BRANCH   1   2
ATOM      2  C   UNL     1      26.561  -4.423  30.403  1.00  0.00     0.000 C 
BRANCH   2   3
ATOM      3  C   UNL     1      27.542  -3.276  30.698  1.00  0.00     0.000 C 
BRANCH   3   4
ATOM      4  C   UNL     1      26.909  -1.889  30.450  1.00  0.00     0.000 C 
BRANCH   4   5
ATOM      5  C   UNL     1      27.382  -1.224  29.144  1.00  0.00     0.006 C 
BRANCH   5   6
ATOM      6  C   UNL     1      28.907  -1.098  29.023  1.00  0.00     0.053 C 
BRANCH   6   7
ATOM      7  C   UNL     1      29.434   0.057  29.818  1.00  0.00     0.041 C 
ATOM      8  O   UNL     1      30.608   0.034  30.274  1.00  0.00    -0.550 OA
ATOM      9  O   UNL     1      28.633   1.169  30.043  1.00  0.00    -0.550 OA
ENDBRANCH   6   7
ENDBRANCH   5   6
ENDBRANCH   4   5
ENDBRANCH   3   4
ENDBRANCH   2   3
ENDBRANCH   1   2
BRANCH   1  10
ATOM     10  C   UNL     1      28.798  -5.537  29.849  1.00  0.00     0.000 C 
BRANCH  10  11
ATOM     11  C   UNL     1      29.574  -6.486  30.775  1.00  0.00    -0.000 C 
BRANCH  11  12
ATOM     12  C   UNL     1      28.660  -7.211  31.777  1.00  0.00    -0.000 C 
BRANCH  12  13
ATOM     13  C   UNL     1      28.876  -8.740  31.763  1.00  0.00    -0.000 C 
BRANCH  13  14
ATOM     14  C   UNL     1      29.700  -9.238  30.560  1.00  0.00    -0.000 C 
BRANCH  14  15
ATOM     15  C   UNL     1      28.865  -9.642  29.333  1.00  0.00    -0.003 C 
ATOM     16  C   UNL     1      29.258  -8.877  28.070  1.00  0.00     0.004 C 
ENDBRANCH  14  15
ENDBRANCH  13  14
ENDBRANCH  12  13
ENDBRANCH  11  12
ENDBRANCH  10  11
ENDBRANCH   1  10
TORSDOF 12
ENDMDL
MODEL 2
REMARK VINA RESULT:    -4.933      1.888      2.903
REMARK INTER + INTRA:          -9.563
REMARK INTER:                  -8.468
REMARK INTRA:                  -1.095
REMARK UNBOUND:                -1.170
REMARK SMILES CCCCCCCCCCCCCC(=O)[O-]
REMARK SMILES IDX 8 1 9 2 10 3 11 4 12 5 13 6 14 7 15 8 16 9 7 10 6 11 5 12
REMARK SMILES IDX 4 13 3 14 2 15 1 16
REMARK H PARENT
REMARK Flexibility Score: inf
ROOT
ATOM      1  C   UNL     1      29.840  -5.484  30.675  1.00  0.00     0.000 C 
ENDROOT
BRANCH   1   2
ATOM      2  C   UNL     1      29.963  -4.141  29.937  1.00  0.00     0.000 C 
BRANCH   2   3
ATOM      3  C   UNL     1      28.750  -3.224  30.171  1.00  0.00     0.000 C 
BRANCH   3   4
ATOM      4  C   UNL     1      29.167  -1.818  30.657  1.00  0.00     0.000 C 
BRANCH   4   5
ATOM      5  C   UNL     1      28.140  -1.167  31.603  1.00  0.00     0.006 C 
BRANCH   5   6
ATOM      6  C   UNL     1      27.392   0.024  30.989  1.00  0.00     0.053 C 
BRANCH   6   7
ATOM      7  C   UNL     1      26.343  -0.419  30.017  1.00  0.00     0.041 C 
ATOM      8  O   UNL     1      25.247  -0.882  30.430  1.00  0.00    -0.550 OA
ATOM      9  O   UNL     1      26.568  -0.305  28.651  1.00  0.00    -0.550 OA
ENDBRANCH   6   7
ENDBRANCH   5   6
ENDBRANCH   4   5
ENDBRANCH   3   4
ENDBRANCH   2   3
ENDBRANCH   1   2
BRANCH   1  10
ATOM     10  C   UNL     1      28.378  -5.922  30.868  1.00  0.00     0.000 C 
BRANCH  10  11
ATOM     11  C   UNL     1      27.854  -6.759  29.691  1.00  0.00    -0.000 C 
BRANCH  11  12
ATOM     12  C   UNL     1      28.978  -7.495  28.942  1.00  0.00    -0.000 C 
BRANCH  12  13
ATOM     13  C   UNL     1      28.973  -9.012  29.226  1.00  0.00    -0.000 C 
BRANCH  13  14
ATOM     14  C   UNL     1      29.828  -9.417  30.442  1.00  0.00    -0.000 C 
BRANCH  14  15
ATOM     15  C   UNL     1      29.041 -10.067  31.593  1.00  0.00    -0.003 C 
ATOM     16  C   UNL     1      28.573  -9.054  32.638  1.00  0.00     0.004 C 
ENDBRANCH  14  15
ENDBRANCH  13  14
ENDBRANCH  12  13
ENDBRANCH  11  12
ENDBRANCH  10  11
ENDBRANCH   1  10
TORSDOF 12
ENDMDL
MODEL 3
REMARK VINA RESULT:    -4.888      3.644      7.596
REMARK INTER + INTRA:          -9.488
REMARK INTER:                  -8.255
REMARK INTRA:                  -1.233
REMARK UNBOUND:                -1.170
REMARK SMILES CCCCCCCCCCCCCC(=O)[O-]
REMARK SMILES IDX 8 1 9 2 10 3 11 4 12 5 13 6 14 7 15 8 16 9 7 10 6 11 5 12
REMARK SMILES IDX 4 13 3 14 2 15 1 16
REMARK H PARENT
REMARK Flexibility Score: inf
ROOT
ATOM      1  C   UNL     1      28.015  -3.046  30.736  1.00  0.00     0.000 C 
ENDROOT
BRANCH   1   2
ATOM      2  C   UNL     1      29.117  -3.185  29.673  1.00  0.00     0.000 C 
BRANCH   2   3
ATOM      3  C   UNL     1      30.100  -4.327  29.986  1.00  0.00     0.000 C 
BRANCH   3   4
ATOM      4  C   UNL     1      29.377  -5.599  30.483  1.00  0.00     0.000 C 
BRANCH   4   5
ATOM      5  C   UNL     1      28.772  -6.444  29.345  1.00  0.00     0.006 C 
BRANCH   5   6
ATOM      6  C   UNL     1      28.358  -7.859  29.772  1.00  0.00     0.053 C 
BRANCH   6   7
ATOM      7  C   UNL     1      29.085  -8.910  28.990  1.00  0.00     0.041 C 
ATOM      8  O   UNL     1      29.302 -10.043  29.495  1.00  0.00    -0.550 OA
ATOM      9  O   UNL     1      29.508  -8.644  27.694  1.00  0.00    -0.550 OA
ENDBRANCH   6   7
ENDBRANCH   5   6
ENDBRANCH   4   5
ENDBRANCH   3   4
ENDBRANCH   2   3
ENDBRANCH   1   2
BRANCH   1  10
ATOM     10  C   UNL     1      26.858  -2.143  30.273  1.00  0.00     0.000 C 
BRANCH  10  11
ATOM     11  C   UNL     1      27.271  -1.189  29.141  1.00  0.00    -0.000 C 
BRANCH  11  12
ATOM     12  C   UNL     1      26.846   0.264  29.408  1.00  0.00    -0.000 C 
BRANCH  12  13
ATOM     13  C   UNL     1      28.047   1.168  29.761  1.00  0.00    -0.000 C 
BRANCH  13  14
ATOM     14  C   UNL     1      29.406   0.596  29.310  1.00  0.00    -0.000 C 
BRANCH  14  15
ATOM     15  C   UNL     1      30.288   0.064  30.452  1.00  0.00    -0.003 C 
ATOM     16  C   UNL     1      29.715   0.366  31.836  1.00  0.00     0.004 C 
ENDBRANCH  14  15
ENDBRANCH  13  14
ENDBRANCH  12  13
ENDBRANCH  11  12
ENDBRANCH  10  11
ENDBRANCH   1  10
TORSDOF 12
ENDMDL
MODEL 4
REMARK VINA RESULT:    -4.858      1.505      2.491
REMARK INTER + INTRA:          -9.437
REMARK INTER:                  -8.315
REMARK INTRA:                  -1.121
REMARK UNBOUND:                -1.170
REMARK SMILES CCCCCCCCCCCCCC(=O)[O-]
REMARK SMILES IDX 8 1 9 2 10 3 11 4 12 5 13 6 14 7 15 8 16 9 7 10 6 11 5 12
REMARK SMILES IDX 4 13 3 14 2 15 1 16
REMARK H PARENT
REMARK Flexibility Score: inf
ROOT
ATOM      1  C   UNL     1      30.199  -4.363  29.631  1.00  0.00     0.000 C 
ENDROOT
BRANCH   1   2
ATOM      2  C   UNL     1      29.918  -2.978  30.235  1.00  0.00     0.000 C 
BRANCH   2   3
ATOM      3  C   UNL     1      28.621  -2.350  29.699  1.00  0.00     0.000 C 
BRANCH   3   4
ATOM      4  C   UNL     1      27.554  -2.181  30.804  1.00  0.00     0.000 C 
BRANCH   4   5
ATOM      5  C   UNL     1      27.816  -0.977  31.730  1.00  0.00     0.006 C 
BRANCH   5   6
ATOM      6  C   UNL     1      27.163   0.329  31.255  1.00  0.00     0.053 C 
BRANCH   6   7
ATOM      7  C   UNL     1      28.160   1.254  30.628  1.00  0.00     0.041 C 
ATOM      8  O   UNL     1      28.385   1.204  29.391  1.00  0.00    -0.550 OA
ATOM      9  O   UNL     1      28.831   2.185  31.411  1.00  0.00    -0.550 OA
ENDBRANCH   6   7
ENDBRANCH   5   6
ENDBRANCH   4   5
ENDBRANCH   3   4
ENDBRANCH   2   3
ENDBRANCH   1   2
BRANCH   1  10
ATOM     10  C   UNL     1      29.976  -5.505  30.638  1.00  0.00     0.000 C 
BRANCH  10  11
ATOM     11  C   UNL     1      28.486  -5.773  30.904  1.00  0.00    -0.000 C 
BRANCH  11  12
ATOM     12  C   UNL     1      27.805  -6.521  29.746  1.00  0.00    -0.000 C 
BRANCH  12  13
ATOM     13  C   UNL     1      28.697  -7.642  29.170  1.00  0.00    -0.000 C 
BRANCH  13  14
ATOM     14  C   UNL     1      28.471  -9.016  29.832  1.00  0.00    -0.000 C 
BRANCH  14  15
ATOM     15  C   UNL     1      29.435  -9.339  30.985  1.00  0.00    -0.003 C 
ATOM     16  C   UNL     1      28.775  -9.229  32.359  1.00  0.00     0.004 C 
ENDBRANCH  14  15
ENDBRANCH  13  14
ENDBRANCH  12  13
ENDBRANCH  11  12
ENDBRANCH  10  11
ENDBRANCH   1  10
TORSDOF 12
ENDMDL
MODEL 5
REMARK VINA RESULT:    -4.830      3.624      7.657
REMARK INTER + INTRA:          -9.389
REMARK INTER:                  -8.403
REMARK INTRA:                  -0.986
REMARK UNBOUND:                -1.170
REMARK SMILES CCCCCCCCCCCCCC(=O)[O-]
REMARK SMILES IDX 8 1 9 2 10 3 11 4 12 5 13 6 14 7 15 8 16 9 7 10 6 11 5 12
REMARK SMILES IDX 4 13 3 14 2 15 1 16
REMARK H PARENT
REMARK Flexibility Score: inf
ROOT
ATOM      1  C   UNL     1      28.886  -3.224  30.250  1.00  0.00     0.000 C 
ENDROOT
BRANCH   1   2
ATOM      2  C   UNL     1      29.746  -4.367  29.689  1.00  0.00     0.000 C 
BRANCH   2   3
ATOM      3  C   UNL     1      29.882  -5.543  30.671  1.00  0.00     0.000 C 
BRANCH   3   4
ATOM      4  C   UNL     1      28.578  -6.365  30.780  1.00  0.00     0.000 C 
BRANCH   4   5
ATOM      5  C   UNL     1      28.778  -7.749  31.426  1.00  0.00     0.006 C 
BRANCH   5   6
ATOM      6  C   UNL     1      29.575  -8.734  30.558  1.00  0.00     0.053 C 
BRANCH   6   7
ATOM      7  C   UNL     1      28.867  -9.044  29.275  1.00  0.00     0.041 C 
ATOM      8  O   UNL     1      27.840  -9.772  29.274  1.00  0.00    -0.550 OA
ATOM      9  O   UNL     1      29.332  -8.513  28.078  1.00  0.00    -0.550 OA
ENDBRANCH   6   7
ENDBRANCH   5   6
ENDBRANCH   4   5
ENDBRANCH   3   4
ENDBRANCH   2   3
ENDBRANCH   1   2
BRANCH   1  10
ATOM     10  C   UNL     1      29.575  -1.853  30.134  1.00  0.00     0.000 C 
BRANCH  10  11
ATOM     11  C   UNL     1      29.448  -1.019  31.419  1.00  0.00    -0.000 C 
BRANCH  11  12
ATOM     12  C   UNL     1      29.092   0.451  31.137  1.00  0.00    -0.000 C 
BRANCH  12  13
ATOM     13  C   UNL     1      28.813   0.706  29.640  1.00  0.00    -0.000 C 
BRANCH  13  14
ATOM     14  C   UNL     1      27.337   1.027  29.332  1.00  0.00    -0.000 C 
BRANCH  14  15
ATOM     15  C   UNL     1      26.464  -0.201  29.022  1.00  0.00    -0.003 C 
ATOM     16  C   UNL     1      25.770  -0.764  30.262  1.00  0.00     0.004 C 
ENDBRANCH  14  15
ENDBRANCH  13  14
ENDBRANCH  12  13
ENDBRANCH  11  12
ENDBRANCH  10  11
ENDBRANCH   1  10
TORSDOF 12
ENDMDL
MODEL 6
REMARK VINA RESULT:    -4.809      1.607      2.103
REMARK INTER + INTRA:          -9.353
REMARK INTER:                  -8.239
REMARK INTRA:                  -1.114
REMARK UNBOUND:                -1.170
REMARK SMILES CCCCCCCCCCCCCC(=O)[O-]
REMARK SMILES IDX 8 1 9 2 10 3 11 4 12 5 13 6 14 7 15 8 16 9 7 10 6 11 5 12
REMARK SMILES IDX 4 13 3 14 2 15 1 16
REMARK H PARENT
REMARK Flexibility Score: inf
ROOT
ATOM      1  C   UNL     1      27.491  -4.953  30.573  1.00  0.00     0.000 C 
ENDROOT
BRANCH   1   2
ATOM      2  C   UNL     1      27.606  -3.434  30.780  1.00  0.00     0.000 C 
BRANCH   2   3
ATOM      3  C   UNL     1      28.881  -2.845  30.151  1.00  0.00     0.000 C 
BRANCH   3   4
ATOM      4  C   UNL     1      29.216  -1.446  30.714  1.00  0.00     0.000 C 
BRANCH   4   5
ATOM      5  C   UNL     1      28.206  -0.950  31.765  1.00  0.00     0.006 C 
BRANCH   5   6
ATOM      6  C   UNL     1      27.411   0.290  31.332  1.00  0.00     0.053 C 
BRANCH   6   7
ATOM      7  C   UNL     1      26.484  -0.013  30.195  1.00  0.00     0.041 C 
ATOM      8  O   UNL     1      26.768   0.356  29.026  1.00  0.00    -0.550 OA
ATOM      9  O   UNL     1      25.310  -0.719  30.426  1.00  0.00    -0.550 OA
ENDBRANCH   6   7
ENDBRANCH   5   6
ENDBRANCH   4   5
ENDBRANCH   3   4
ENDBRANCH   2   3
ENDBRANCH   1   2
BRANCH   1  10
ATOM     10  C   UNL     1      28.730  -5.551  29.883  1.00  0.00     0.000 C 
BRANCH  10  11
ATOM     11  C   UNL     1      29.550  -6.449  30.822  1.00  0.00    -0.000 C 
BRANCH  11  12
ATOM     12  C   UNL     1      28.666  -7.285  31.763  1.00  0.00    -0.000 C 
BRANCH  12  13
ATOM     13  C   UNL     1      28.848  -8.802  31.540  1.00  0.00    -0.000 C 
BRANCH  13  14
ATOM     14  C   UNL     1      28.266  -9.307  30.205  1.00  0.00    -0.000 C 
BRANCH  14  15
ATOM     15  C   UNL     1      29.318  -9.729  29.166  1.00  0.00    -0.003 C 
ATOM     16  C   UNL     1      29.370  -8.793  27.959  1.00  0.00     0.004 C 
ENDBRANCH  14  15
ENDBRANCH  13  14
ENDBRANCH  12  13
ENDBRANCH  11  12
ENDBRANCH  10  11
ENDBRANCH   1  10
TORSDOF 12
ENDMDL
MODEL 7
REMARK VINA RESULT:    -4.803      3.428      7.508
REMARK INTER + INTRA:          -9.342
REMARK INTER:                  -7.987
REMARK INTRA:                  -1.355
REMARK UNBOUND:                -1.170
REMARK SMILES CCCCCCCCCCCCCC(=O)[O-]
REMARK SMILES IDX 8 1 9 2 10 3 11 4 12 5 13 6 14 7 15 8 16 9 7 10 6 11 5 12
REMARK SMILES IDX 4 13 3 14 2 15 1 16
REMARK H PARENT
REMARK Flexibility Score: inf
ROOT
ATOM      1  C   UNL     1      27.985  -2.779  30.846  1.00  0.00     0.000 C 
ENDROOT
BRANCH   1   2
ATOM      2  C   UNL     1      28.986  -3.306  29.805  1.00  0.00     0.000 C 
BRANCH   2   3
ATOM      3  C   UNL     1      29.577  -4.673  30.190  1.00  0.00     0.000 C 
BRANCH   3   4
ATOM      4  C   UNL     1      29.165  -5.786  29.201  1.00  0.00     0.000 C 
BRANCH   4   5
ATOM      5  C   UNL     1      27.992  -6.649  29.703  1.00  0.00     0.006 C 
BRANCH   5   6
ATOM      6  C   UNL     1      28.331  -8.139  29.851  1.00  0.00     0.053 C 
BRANCH   6   7
ATOM      7  C   UNL     1      28.723  -8.483  31.255  1.00  0.00     0.041 C 
ATOM      8  O   UNL     1      28.587  -7.639  32.179  1.00  0.00    -0.550 OA
ATOM      9  O   UNL     1      29.224  -9.745  31.547  1.00  0.00    -0.550 OA
ENDBRANCH   6   7
ENDBRANCH   5   6
ENDBRANCH   4   5
ENDBRANCH   3   4
ENDBRANCH   2   3
ENDBRANCH   1   2
BRANCH   1  10
ATOM     10  C   UNL     1      26.759  -2.109  30.202  1.00  0.00     0.000 C 
BRANCH  10  11
ATOM     11  C   UNL     1      27.146  -1.093  29.115  1.00  0.00    -0.000 C 
BRANCH  11  12
ATOM     12  C   UNL     1      26.861   0.358  29.536  1.00  0.00    -0.000 C 
BRANCH  12  13
ATOM     13  C   UNL     1      28.154   1.135  29.864  1.00  0.00    -0.000 C 
BRANCH  13  14
ATOM     14  C   UNL     1      29.439   0.431  29.382  1.00  0.00    -0.000 C 
BRANCH  14  15
ATOM     15  C   UNL     1      30.430   0.069  30.501  1.00  0.00    -0.003 C 
ATOM     16  C   UNL     1      29.830   0.223  31.898  1.00  0.00     0.004 C 
ENDBRANCH  14  15
ENDBRANCH  13  14
ENDBRANCH  12  13
ENDBRANCH  11  12
ENDBRANCH  10  11
ENDBRANCH   1  10
TORSDOF 12
ENDMDL
MODEL 8
REMARK VINA RESULT:    -4.792      1.939      2.844
REMARK INTER + INTRA:          -9.325
REMARK INTER:                  -8.430
REMARK INTRA:                  -0.894
REMARK UNBOUND:                -1.170
REMARK SMILES CCCCCCCCCCCCCC(=O)[O-]
REMARK SMILES IDX 8 1 9 2 10 3 11 4 12 5 13 6 14 7 15 8 16 9 7 10 6 11 5 12
REMARK SMILES IDX 4 13 3 14 2 15 1 16
REMARK H PARENT
REMARK Flexibility Score: inf
ROOT
ATOM      1  C   UNL     1      29.849  -3.680  29.849  1.00  0.00     0.000 C 
ENDROOT
BRANCH   1   2
ATOM      2  C   UNL     1      28.685  -2.817  30.365  1.00  0.00     0.000 C 
BRANCH   2   3
ATOM      3  C   UNL     1      29.161  -1.495  30.990  1.00  0.00     0.000 C 
BRANCH   3   4
ATOM      4  C   UNL     1      29.944  -0.622  29.984  1.00  0.00     0.000 C 
BRANCH   4   5
ATOM      5  C   UNL     1      29.055   0.374  29.216  1.00  0.00     0.006 C 
BRANCH   5   6
ATOM      6  C   UNL     1      27.773   0.770  29.962  1.00  0.00     0.053 C 
BRANCH   6   7
ATOM      7  C   UNL     1      26.576   0.039  29.438  1.00  0.00     0.041 C 
ATOM      8  O   UNL     1      26.391  -0.075  28.198  1.00  0.00    -0.550 OA
ATOM      9  O   UNL     1      25.669  -0.534  30.321  1.00  0.00    -0.550 OA
ENDBRANCH   6   7
ENDBRANCH   5   6
ENDBRANCH   4   5
ENDBRANCH   3   4
ENDBRANCH   2   3
ENDBRANCH   1   2
BRANCH   1  10
ATOM     10  C   UNL     1      29.797  -5.123  30.381  1.00  0.00     0.000 C 
BRANCH  10  11
ATOM     11  C   UNL     1      28.375  -5.554  30.775  1.00  0.00    -0.000 C 
BRANCH  11  12
ATOM     12  C   UNL     1      27.734  -6.493  29.739  1.00  0.00    -0.000 C 
BRANCH  12  13
ATOM     13  C   UNL     1      28.761  -7.465  29.118  1.00  0.00    -0.000 C 
BRANCH  13  14
ATOM     14  C   UNL     1      28.738  -8.873  29.745  1.00  0.00    -0.000 C 
BRANCH  14  15
ATOM     15  C   UNL     1      29.583  -9.020  31.022  1.00  0.00    -0.003 C 
ATOM     16  C   UNL     1      28.743  -9.346  32.256  1.00  0.00     0.004 C 
ENDBRANCH  14  15
ENDBRANCH  13  14
ENDBRANCH  12  13
ENDBRANCH  11  12
ENDBRANCH  10  11
ENDBRANCH   1  10
TORSDOF 12
ENDMDL
MODEL 9
REMARK VINA RESULT:    -4.735      1.373      2.530
REMARK INTER + INTRA:          -9.226
REMARK INTER:                  -8.131
REMARK INTRA:                  -1.095
REMARK UNBOUND:                -1.170
REMARK SMILES CCCCCCCCCCCCCC(=O)[O-]
REMARK SMILES IDX 8 1 9 2 10 3 11 4 12 5 13 6 14 7 15 8 16 9 7 10 6 11 5 12
REMARK SMILES IDX 4 13 3 14 2 15 1 16
REMARK H PARENT
REMARK Flexibility Score: inf
ROOT
ATOM      1  C   UNL     1      28.051  -2.855  30.923  1.00  0.00     0.000 C 
ENDROOT
BRANCH   1   2
ATOM      2  C   UNL     1      26.844  -2.148  30.284  1.00  0.00     0.000 C 
BRANCH   2   3
ATOM      3  C   UNL     1      27.252  -1.175  29.165  1.00  0.00     0.000 C 
BRANCH   3   4
ATOM      4  C   UNL     1      26.839   0.280  29.477  1.00  0.00     0.000 C 
BRANCH   4   5
ATOM      5  C   UNL     1      28.034   1.245  29.596  1.00  0.00     0.006 C 
BRANCH   5   6
ATOM      6  C   UNL     1      28.570   1.402  31.026  1.00  0.00     0.053 C 
BRANCH   6   7
ATOM      7  C   UNL     1      29.777   0.549  31.265  1.00  0.00     0.041 C 
ATOM      8  O   UNL     1      30.514   0.205  30.304  1.00  0.00    -0.550 OA
ATOM      9  O   UNL     1      30.100   0.146  32.555  1.00  0.00    -0.550 OA
ENDBRANCH   6   7
ENDBRANCH   5   6
ENDBRANCH   4   5
ENDBRANCH   3   4
ENDBRANCH   2   3
ENDBRANCH   1   2
BRANCH   1  10
ATOM     10  C   UNL     1      29.201  -3.079  29.926  1.00  0.00     0.000 C 
BRANCH  10  11
ATOM     11  C   UNL     1      29.606  -4.557  29.817  1.00  0.00    -0.000 C 
BRANCH  11  12
ATOM     12  C   UNL     1      28.821  -5.458  30.785  1.00  0.00    -0.000 C 
BRANCH  12  13
ATOM     13  C   UNL     1      27.994  -6.530  30.043  1.00  0.00    -0.000 C 
BRANCH  13  14
ATOM     14  C   UNL     1      28.827  -7.738  29.570  1.00  0.00    -0.000 C 
BRANCH  14  15
ATOM     15  C   UNL     1      29.680  -8.398  30.666  1.00  0.00    -0.003 C 
ATOM     16  C   UNL     1      28.845  -8.919  31.835  1.00  0.00     0.004 C 
ENDBRANCH  14  15
ENDBRANCH  13  14
ENDBRANCH  12  13
ENDBRANCH  11  12
ENDBRANCH  10  11
ENDBRANCH   1  10
TORSDOF 12
ENDMDL
