MODEL 1
REMARK VINA RESULT:     4.594      0.000      0.000
REMARK INTER + INTRA:           4.937
REMARK INTER:                   4.996
REMARK INTRA:                  -0.059
REMARK UNBOUND:                -0.059
REMARK SMILES COc1cc2ccc(=O)oc2cc1O
REMARK SMILES IDX 3 1 13 2 12 3 11 4 5 5 4 6 6 7 7 8 8 9 9 10 10 11 2 12 1 13
REMARK SMILES IDX 14 14
REMARK H PARENT 14 15
REMARK Flexibility Score: inf
ROOT
ATOM      1  C   UNL     1      -4.732  -1.495   0.761  1.00  0.00     0.161 A 
ATOM      2  C   UNL     1      -5.294  -1.580   2.050  1.00  0.00     0.161 A 
ATOM      3  C   UNL     1      -4.611  -1.056   3.153  1.00  0.00     0.098 A 
ATOM      4  C   UNL     1      -3.366  -0.446   2.990  1.00  0.00     0.142 A 
ATOM      5  C   UNL     1      -2.793  -0.356   1.704  1.00  0.00     0.022 A 
ATOM      6  C   UNL     1      -3.474  -0.879   0.596  1.00  0.00     0.062 A 
ATOM      7  C   UNL     1      -1.545   0.261   1.572  1.00  0.00     0.019 A 
ATOM      8  C   UNL     1      -0.908   0.767   2.705  1.00  0.00     0.094 A 
ATOM      9  C   UNL     1      -1.537   0.642   3.948  1.00  0.00     0.336 A 
ATOM     10  O   UNL     1      -0.977   1.091   4.983  1.00  0.00    -0.246 OA
ATOM     11  O   UNL     1      -2.724   0.049   4.045  1.00  0.00    -0.423 OA
ENDROOT
BRANCH   1  12
ATOM     12  O   UNL     1      -5.444  -2.031  -0.324  1.00  0.00    -0.493 OA
ATOM     13  C   UNL     1      -5.002  -3.125  -1.121  1.00  0.00     0.278 C 
ENDBRANCH   1  12
BRANCH   2  14
ATOM     14  O   UNL     1      -6.536  -2.183   2.253  1.00  0.00    -0.504 OA
ATOM     15  H   UNL     1      -7.188  -1.853   2.955  1.00  0.00     0.293 HD
ENDBRANCH   2  14
TORSDOF 2
ENDMDL
MODEL 2
REMARK VINA RESULT:     4.868      1.329      5.383
REMARK INTER + INTRA:           5.236
REMARK INTER:                   4.523
REMARK INTRA:                   0.712
REMARK UNBOUND:                -0.059
REMARK SMILES COc1cc2ccc(=O)oc2cc1O
REMARK SMILES IDX 3 1 13 2 12 3 11 4 5 5 4 6 6 7 7 8 8 9 9 10 10 11 2 12 1 13
REMARK SMILES IDX 14 14
REMARK H PARENT 14 15
REMARK Flexibility Score: inf
ROOT
ATOM      1  C   UNL     1      -2.918  -0.038   3.488  1.00  0.00     0.161 A 
ATOM      2  C   UNL     1      -2.318   0.260   2.250  1.00  0.00     0.161 A 
ATOM      3  C   UNL     1      -2.797  -0.328   1.073  1.00  0.00     0.098 A 
ATOM      4  C   UNL     1      -3.873  -1.217   1.115  1.00  0.00     0.142 A 
ATOM      5  C   UNL     1      -4.481  -1.523   2.349  1.00  0.00     0.022 A 
ATOM      6  C   UNL     1      -4.005  -0.935   3.530  1.00  0.00     0.062 A 
ATOM      7  C   UNL     1      -5.558  -2.416   2.358  1.00  0.00     0.019 A 
ATOM      8  C   UNL     1      -5.995  -2.974   1.157  1.00  0.00     0.094 A 
ATOM      9  C   UNL     1      -5.343  -2.623  -0.030  1.00  0.00     0.336 A 
ATOM     10  O   UNL     1      -5.722  -3.116  -1.124  1.00  0.00    -0.246 OA
ATOM     11  O   UNL     1      -4.321  -1.771  -0.010  1.00  0.00    -0.423 OA
ENDROOT
BRANCH   1  12
ATOM     12  O   UNL     1      -2.414   0.569   4.649  1.00  0.00    -0.493 OA
ATOM     13  C   UNL     1      -1.068   1.005   4.815  1.00  0.00     0.278 C 
ENDBRANCH   1  12
BRANCH   2  14
ATOM     14  O   UNL     1      -1.241   1.143   2.168  1.00  0.00    -0.504 OA
ATOM     15  H   UNL     1      -0.862   1.611   2.983  1.00  0.00     0.293 HD
ENDBRANCH   2  14
TORSDOF 2
ENDMDL
MODEL 3
REMARK VINA RESULT:     5.925      1.236      4.860
REMARK INTER + INTRA:           6.385
REMARK INTER:                   6.436
REMARK INTRA:                  -0.051
REMARK UNBOUND:                -0.059
REMARK SMILES COc1cc2ccc(=O)oc2cc1O
REMARK SMILES IDX 3 1 13 2 12 3 11 4 5 5 4 6 6 7 7 8 8 9 9 10 10 11 2 12 1 13
REMARK SMILES IDX 14 14
REMARK H PARENT 14 15
REMARK Flexibility Score: inf
ROOT
ATOM      1  C   UNL     1      -2.009   0.202   2.511  1.00  0.00     0.161 A 
ATOM      2  C   UNL     1      -2.828  -0.001   3.638  1.00  0.00     0.161 A 
ATOM      3  C   UNL     1      -4.024  -0.719   3.521  1.00  0.00     0.098 A 
ATOM      4  C   UNL     1      -4.418  -1.240   2.287  1.00  0.00     0.142 A 
ATOM      5  C   UNL     1      -3.606  -1.042   1.152  1.00  0.00     0.022 A 
ATOM      6  C   UNL     1      -2.407  -0.324   1.265  1.00  0.00     0.062 A 
ATOM      7  C   UNL     1      -4.026  -1.576  -0.070  1.00  0.00     0.019 A 
ATOM      8  C   UNL     1      -5.226  -2.284  -0.131  1.00  0.00     0.094 A 
ATOM      9  C   UNL     1      -5.981  -2.441   1.037  1.00  0.00     0.336 A 
ATOM     10  O   UNL     1      -7.067  -3.076   1.002  1.00  0.00    -0.246 OA
ATOM     11  O   UNL     1      -5.557  -1.922   2.186  1.00  0.00    -0.423 OA
ENDROOT
BRANCH   1  12
ATOM     12  O   UNL     1      -0.816   0.927   2.663  1.00  0.00    -0.493 OA
ATOM     13  C   UNL     1       0.445   0.352   2.988  1.00  0.00     0.278 C 
ENDBRANCH   1  12
BRANCH   2  14
ATOM     14  O   UNL     1      -2.469   0.504   4.888  1.00  0.00    -0.504 OA
ATOM     15  H   UNL     1      -2.588   1.480   5.132  1.00  0.00     0.293 HD
ENDBRANCH   2  14
TORSDOF 2
ENDMDL
MODEL 4
REMARK VINA RESULT:     7.316      1.256      2.253
REMARK INTER + INTRA:           7.898
REMARK INTER:                   7.595
REMARK INTRA:                   0.303
REMARK UNBOUND:                -0.059
REMARK SMILES COc1cc2ccc(=O)oc2cc1O
REMARK SMILES IDX 3 1 13 2 12 3 11 4 5 5 4 6 6 7 7 8 8 9 9 10 10 11 2 12 1 13
REMARK SMILES IDX 14 14
REMARK H PARENT 14 15
REMARK Flexibility Score: inf
ROOT
ATOM      1  C   UNL     1      -5.032  -1.372   1.409  1.00  0.00     0.161 A 
ATOM      2  C   UNL     1      -4.135  -1.162   0.343  1.00  0.00     0.161 A 
ATOM      3  C   UNL     1      -2.866  -0.625   0.584  1.00  0.00     0.098 A 
ATOM      4  C   UNL     1      -2.474  -0.291   1.882  1.00  0.00     0.142 A 
ATOM      5  C   UNL     1      -3.363  -0.497   2.957  1.00  0.00     0.022 A 
ATOM      6  C   UNL     1      -4.636  -1.035   2.720  1.00  0.00     0.062 A 
ATOM      7  C   UNL     1      -2.942  -0.153   4.246  1.00  0.00     0.019 A 
ATOM      8  C   UNL     1      -1.666   0.378   4.430  1.00  0.00     0.094 A 
ATOM      9  C   UNL     1      -0.838   0.554   3.316  1.00  0.00     0.336 A 
ATOM     10  O   UNL     1       0.318   1.033   3.461  1.00  0.00    -0.246 OA
ATOM     11  O   UNL     1      -1.264   0.219   2.101  1.00  0.00    -0.423 OA
ENDROOT
BRANCH   1  12
ATOM     12  O   UNL     1      -6.298  -1.912   1.133  1.00  0.00    -0.493 OA
ATOM     13  C   UNL     1      -6.523  -3.124   0.421  1.00  0.00     0.278 C 
ENDBRANCH   1  12
BRANCH   2  14
ATOM     14  O   UNL     1      -4.491  -1.483  -0.967  1.00  0.00    -0.504 OA
ATOM     15  H   UNL     1      -4.897  -0.803  -1.599  1.00  0.00     0.293 HD
ENDBRANCH   2  14
TORSDOF 2
ENDMDL
