MODEL 1
REMARK VINA RESULT:    14.669      0.000      0.000
REMARK INTER + INTRA:          32.419
REMARK INTER:                  33.535
REMARK INTRA:                  -1.116
REMARK UNBOUND:                -1.116
REMARK SMILES CCCCCCCCCCCCCCCCCCCCCCCC(=O)[O-]
REMARK SMILES IDX 13 1 14 2 15 3 16 4 17 5 18 6 19 7 20 8 21 9 22 10 23 11
REMARK SMILES IDX 24 12 25 13 26 14 12 15 11 16 10 17 9 18 8 19 7 20 6 21 5 22
REMARK SMILES IDX 4 23 3 24 2 25 1 26
REMARK H PARENT
REMARK Flexibility Score: inf
ROOT
ATOM      1  C   UNL     1     -28.470  21.444 -11.071  1.00  0.00     0.000 C 
ENDROOT
BRANCH   1   2
ATOM      2  C   UNL     1     -29.965  21.287 -10.758  1.00  0.00     0.000 C 
BRANCH   2   3
ATOM      3  C   UNL     1     -30.741  22.605 -10.903  1.00  0.00     0.000 C 
BRANCH   3   4
ATOM      4  C   UNL     1     -32.143  22.536 -10.279  1.00  0.00     0.000 C 
BRANCH   4   5
ATOM      5  C   UNL     1     -32.409  21.152  -9.674  1.00  0.00     0.000 C 
BRANCH   5   6
ATOM      6  C   UNL     1     -32.600  20.098 -10.774  1.00  0.00     0.000 C 
BRANCH   6   7
ATOM      7  C   UNL     1     -32.667  18.663 -10.223  1.00  0.00     0.000 C 
BRANCH   7   8
ATOM      8  C   UNL     1     -31.477  17.762 -10.608  1.00  0.00     0.000 C 
BRANCH   8   9
ATOM      9  C   UNL     1     -30.088  18.320 -10.243  1.00  0.00     0.000 C 
BRANCH   9  10
ATOM     10  C   UNL     1     -28.895  17.475 -10.734  1.00  0.00     0.006 C 
BRANCH  10  11
ATOM     11  C   UNL     1     -29.278  16.325 -11.678  1.00  0.00     0.053 C 
BRANCH  11  12
ATOM     12  C   UNL     1     -28.979  16.650 -13.109  1.00  0.00     0.041 C 
ATOM     13  O   UNL     1     -28.643  17.819 -13.436  1.00  0.00    -0.550 OA
ATOM     14  O   UNL     1     -29.106  15.673 -14.087  1.00  0.00    -0.550 OA
ENDBRANCH  11  12
ENDBRANCH  10  11
ENDBRANCH   9  10
ENDBRANCH   8   9
ENDBRANCH   7   8
ENDBRANCH   6   7
ENDBRANCH   5   6
ENDBRANCH   4   5
ENDBRANCH   3   4
ENDBRANCH   2   3
ENDBRANCH   1   2
BRANCH   1  15
ATOM     15  C   UNL     1     -28.245  21.693 -12.568  1.00  0.00     0.000 C 
BRANCH  15  16
ATOM     16  C   UNL     1     -26.746  21.802 -12.886  1.00  0.00     0.000 C 
BRANCH  16  17
ATOM     17  C   UNL     1     -26.292  23.249 -13.144  1.00  0.00     0.000 C 
BRANCH  17  18
ATOM     18  C   UNL     1     -26.042  24.094 -11.877  1.00  0.00    -0.000 C 
BRANCH  18  19
ATOM     19  C   UNL     1     -24.752  23.755 -11.106  1.00  0.00    -0.000 C 
BRANCH  19  20
ATOM     20  C   UNL     1     -24.940  23.543  -9.593  1.00  0.00    -0.000 C 
BRANCH  20  21
ATOM     21  C   UNL     1     -25.755  22.279  -9.235  1.00  0.00    -0.000 C 
BRANCH  21  22
ATOM     22  C   UNL     1     -25.309  21.567  -7.941  1.00  0.00    -0.000 C 
BRANCH  22  23
ATOM     23  C   UNL     1     -23.786  21.487  -7.723  1.00  0.00    -0.000 C 
BRANCH  23  24
ATOM     24  C   UNL     1     -23.371  21.728  -6.263  1.00  0.00    -0.000 C 
BRANCH  24  25
ATOM     25  C   UNL     1     -22.050  22.500  -6.189  1.00  0.00    -0.003 C 
ATOM     26  C   UNL     1     -22.279  23.948  -5.765  1.00  0.00     0.004 C 
ENDBRANCH  24  25
ENDBRANCH  23  24
ENDBRANCH  22  23
ENDBRANCH  21  22
ENDBRANCH  20  21
ENDBRANCH  19  20
ENDBRANCH  18  19
ENDBRANCH  17  18
ENDBRANCH  16  17
ENDBRANCH  15  16
ENDBRANCH   1  15
TORSDOF 22
ENDMDL
MODEL 2
REMARK VINA RESULT:    15.271      3.481      8.190
REMARK INTER + INTRA:          33.794
REMARK INTER:                  35.092
REMARK INTRA:                  -1.298
REMARK UNBOUND:                -1.116
REMARK SMILES CCCCCCCCCCCCCCCCCCCCCCCC(=O)[O-]
REMARK SMILES IDX 13 1 14 2 15 3 16 4 17 5 18 6 19 7 20 8 21 9 22 10 23 11
REMARK SMILES IDX 24 12 25 13 26 14 12 15 11 16 10 17 9 18 8 19 7 20 6 21 5 22
REMARK SMILES IDX 4 23 3 24 2 25 1 26
REMARK H PARENT
REMARK Flexibility Score: inf
ROOT
ATOM      1  C   UNL     1     -28.666  21.622 -11.183  1.00  0.00     0.000 C 
ENDROOT
BRANCH   1   2
ATOM      2  C   UNL     1     -28.032  21.108 -12.483  1.00  0.00     0.000 C 
BRANCH   2   3
ATOM      3  C   UNL     1     -26.819  21.944 -12.921  1.00  0.00     0.000 C 
BRANCH   3   4
ATOM      4  C   UNL     1     -26.927  23.413 -12.484  1.00  0.00     0.000 C 
BRANCH   4   5
ATOM      5  C   UNL     1     -25.551  23.978 -12.112  1.00  0.00     0.000 C 
BRANCH   5   6
ATOM      6  C   UNL     1     -25.388  24.069 -10.587  1.00  0.00     0.000 C 
BRANCH   6   7
ATOM      7  C   UNL     1     -24.981  22.729  -9.948  1.00  0.00     0.000 C 
BRANCH   7   8
ATOM      8  C   UNL     1     -25.955  22.197  -8.878  1.00  0.00     0.000 C 
BRANCH   8   9
ATOM      9  C   UNL     1     -25.355  21.166  -7.903  1.00  0.00     0.000 C 
BRANCH   9  10
ATOM     10  C   UNL     1     -23.859  21.362  -7.584  1.00  0.00     0.006 C 
BRANCH  10  11
ATOM     11  C   UNL     1     -23.569  21.810  -6.143  1.00  0.00     0.053 C 
BRANCH  11  12
ATOM     12  C   UNL     1     -22.309  22.612  -6.047  1.00  0.00     0.041 C 
ATOM     13  O   UNL     1     -22.328  23.852  -6.268  1.00  0.00    -0.550 OA
ATOM     14  O   UNL     1     -21.105  21.986  -5.750  1.00  0.00    -0.550 OA
ENDBRANCH  11  12
ENDBRANCH  10  11
ENDBRANCH   9  10
ENDBRANCH   8   9
ENDBRANCH   7   8
ENDBRANCH   6   7
ENDBRANCH   5   6
ENDBRANCH   4   5
ENDBRANCH   3   4
ENDBRANCH   2   3
ENDBRANCH   1   2
BRANCH   1  15
ATOM     15  C   UNL     1     -30.180  21.804 -11.343  1.00  0.00     0.000 C 
BRANCH  15  16
ATOM     16  C   UNL     1     -30.615  23.206 -10.890  1.00  0.00     0.000 C 
BRANCH  16  17
ATOM     17  C   UNL     1     -31.945  23.200 -10.115  1.00  0.00     0.000 C 
BRANCH  17  18
ATOM     18  C   UNL     1     -32.293  21.866  -9.422  1.00  0.00    -0.000 C 
BRANCH  18  19
ATOM     19  C   UNL     1     -32.545  20.679 -10.370  1.00  0.00    -0.000 C 
BRANCH  19  20
ATOM     20  C   UNL     1     -32.113  19.308  -9.819  1.00  0.00    -0.000 C 
BRANCH  20  21
ATOM     21  C   UNL     1     -31.640  18.317 -10.908  1.00  0.00    -0.000 C 
BRANCH  21  22
ATOM     22  C   UNL     1     -31.410  16.874 -10.413  1.00  0.00    -0.000 C 
BRANCH  22  23
ATOM     23  C   UNL     1     -30.283  16.103 -11.127  1.00  0.00    -0.000 C 
BRANCH  23  24
ATOM     24  C   UNL     1     -28.983  16.913 -11.255  1.00  0.00    -0.000 C 
BRANCH  24  25
ATOM     25  C   UNL     1     -28.821  17.470 -12.673  1.00  0.00    -0.003 C 
ATOM     26  C   UNL     1     -28.880  16.355 -13.715  1.00  0.00     0.004 C 
ENDBRANCH  24  25
ENDBRANCH  23  24
ENDBRANCH  22  23
ENDBRANCH  21  22
ENDBRANCH  20  21
ENDBRANCH  19  20
ENDBRANCH  18  19
ENDBRANCH  17  18
ENDBRANCH  16  17
ENDBRANCH  15  16
ENDBRANCH   1  15
TORSDOF 22
ENDMDL
MODEL 3
REMARK VINA RESULT:    15.948      3.221      8.260
REMARK INTER + INTRA:          35.343
REMARK INTER:                  35.839
REMARK INTRA:                  -0.496
REMARK UNBOUND:                -1.116
REMARK SMILES CCCCCCCCCCCCCCCCCCCCCCCC(=O)[O-]
REMARK SMILES IDX 13 1 14 2 15 3 16 4 17 5 18 6 19 7 20 8 21 9 22 10 23 11
REMARK SMILES IDX 24 12 25 13 26 14 12 15 11 16 10 17 9 18 8 19 7 20 6 21 5 22
REMARK SMILES IDX 4 23 3 24 2 25 1 26
REMARK H PARENT
REMARK Flexibility Score: inf
ROOT
ATOM      1  C   UNL     1     -29.582  21.511 -11.262  1.00  0.00     0.000 C 
ENDROOT
BRANCH   1   2
ATOM      2  C   UNL     1     -28.107  21.934 -11.329  1.00  0.00     0.000 C 
BRANCH   2   3
ATOM      3  C   UNL     1     -27.507  21.764 -12.733  1.00  0.00     0.000 C 
BRANCH   3   4
ATOM      4  C   UNL     1     -26.149  22.468 -12.884  1.00  0.00     0.000 C 
BRANCH   4   5
ATOM      5  C   UNL     1     -26.088  23.735 -12.022  1.00  0.00     0.000 C 
BRANCH   5   6
ATOM      6  C   UNL     1     -24.804  23.766 -11.181  1.00  0.00     0.000 C 
BRANCH   6   7
ATOM      7  C   UNL     1     -25.058  23.479  -9.690  1.00  0.00     0.000 C 
BRANCH   7   8
ATOM      8  C   UNL     1     -25.881  22.207  -9.404  1.00  0.00     0.000 C 
BRANCH   8   9
ATOM      9  C   UNL     1     -25.605  21.542  -8.041  1.00  0.00     0.000 C 
BRANCH   9  10
ATOM     10  C   UNL     1     -24.113  21.389  -7.680  1.00  0.00     0.006 C 
BRANCH  10  11
ATOM     11  C   UNL     1     -23.729  21.968  -6.310  1.00  0.00     0.053 C 
BRANCH  11  12
ATOM     12  C   UNL     1     -22.362  22.581  -6.323  1.00  0.00     0.041 C 
ATOM     13  O   UNL     1     -21.453  22.086  -7.038  1.00  0.00    -0.550 OA
ATOM     14  O   UNL     1     -22.084  23.677  -5.516  1.00  0.00    -0.550 OA
ENDBRANCH  11  12
ENDBRANCH  10  11
ENDBRANCH   9  10
ENDBRANCH   8   9
ENDBRANCH   7   8
ENDBRANCH   6   7
ENDBRANCH   5   6
ENDBRANCH   4   5
ENDBRANCH   3   4
ENDBRANCH   2   3
ENDBRANCH   1   2
BRANCH   1  15
ATOM     15  C   UNL     1     -30.306  22.220 -10.110  1.00  0.00     0.000 C 
BRANCH  15  16
ATOM     16  C   UNL     1     -31.426  23.126 -10.642  1.00  0.00     0.000 C 
BRANCH  16  17
ATOM     17  C   UNL     1     -32.789  22.841  -9.987  1.00  0.00     0.000 C 
BRANCH  17  18
ATOM     18  C   UNL     1     -33.008  21.381  -9.539  1.00  0.00    -0.000 C 
BRANCH  18  19
ATOM     19  C   UNL     1     -32.429  20.311 -10.483  1.00  0.00    -0.000 C 
BRANCH  19  20
ATOM     20  C   UNL     1     -32.709  18.856 -10.061  1.00  0.00    -0.000 C 
BRANCH  20  21
ATOM     21  C   UNL     1     -31.625  17.853 -10.520  1.00  0.00    -0.000 C 
BRANCH  21  22
ATOM     22  C   UNL     1     -30.181  18.391 -10.466  1.00  0.00    -0.000 C 
BRANCH  22  23
ATOM     23  C   UNL     1     -29.211  17.785 -11.498  1.00  0.00    -0.000 C 
BRANCH  23  24
ATOM     24  C   UNL     1     -29.236  16.249 -11.521  1.00  0.00    -0.000 C 
BRANCH  24  25
ATOM     25  C   UNL     1     -29.119  15.719 -12.954  1.00  0.00    -0.003 C 
ATOM     26  C   UNL     1     -28.840  16.850 -13.940  1.00  0.00     0.004 C 
ENDBRANCH  24  25
ENDBRANCH  23  24
ENDBRANCH  22  23
ENDBRANCH  21  22
ENDBRANCH  20  21
ENDBRANCH  19  20
ENDBRANCH  18  19
ENDBRANCH  17  18
ENDBRANCH  16  17
ENDBRANCH  15  16
ENDBRANCH   1  15
TORSDOF 22
ENDMDL
MODEL 4
REMARK VINA RESULT:    16.276      3.131      8.072
REMARK INTER + INTRA:          36.092
REMARK INTER:                  34.033
REMARK INTRA:                   2.059
REMARK UNBOUND:                -1.116
REMARK SMILES CCCCCCCCCCCCCCCCCCCCCCCC(=O)[O-]
REMARK SMILES IDX 13 1 14 2 15 3 16 4 17 5 18 6 19 7 20 8 21 9 22 10 23 11
REMARK SMILES IDX 24 12 25 13 26 14 12 15 11 16 10 17 9 18 8 19 7 20 6 21 5 22
REMARK SMILES IDX 4 23 3 24 2 25 1 26
REMARK H PARENT
REMARK Flexibility Score: inf
ROOT
ATOM      1  C   UNL     1     -28.765  17.949 -12.556  1.00  0.00     0.000 C 
ENDROOT
BRANCH   1   2
ATOM      2  C   UNL     1     -28.488  19.452 -12.408  1.00  0.00     0.000 C 
BRANCH   2   3
ATOM      3  C   UNL     1     -27.427  19.958 -13.398  1.00  0.00     0.000 C 
BRANCH   3   4
ATOM      4  C   UNL     1     -27.381  21.491 -13.481  1.00  0.00     0.000 C 
BRANCH   4   5
ATOM      5  C   UNL     1     -26.828  22.096 -12.185  1.00  0.00     0.000 C 
BRANCH   5   6
ATOM      6  C   UNL     1     -25.925  23.301 -12.483  1.00  0.00     0.000 C 
BRANCH   6   7
ATOM      7  C   UNL     1     -25.460  24.029 -11.209  1.00  0.00     0.000 C 
BRANCH   7   8
ATOM      8  C   UNL     1     -24.791  23.128 -10.152  1.00  0.00     0.000 C 
BRANCH   8   9
ATOM      9  C   UNL     1     -25.759  22.262  -9.323  1.00  0.00     0.000 C 
BRANCH   9  10
ATOM     10  C   UNL     1     -25.159  21.659  -8.037  1.00  0.00     0.006 C 
BRANCH  10  11
ATOM     11  C   UNL     1     -23.625  21.723  -7.962  1.00  0.00     0.053 C 
BRANCH  11  12
ATOM     12  C   UNL     1     -23.141  21.947  -6.563  1.00  0.00     0.041 C 
ATOM     13  O   UNL     1     -23.643  21.299  -5.607  1.00  0.00    -0.550 OA
ATOM     14  O   UNL     1     -22.161  22.897  -6.309  1.00  0.00    -0.550 OA
ENDBRANCH  11  12
ENDBRANCH  10  11
ENDBRANCH   9  10
ENDBRANCH   8   9
ENDBRANCH   7   8
ENDBRANCH   6   7
ENDBRANCH   5   6
ENDBRANCH   4   5
ENDBRANCH   3   4
ENDBRANCH   2   3
ENDBRANCH   1   2
BRANCH   1  15
ATOM     15  C   UNL     1     -28.962  17.288 -11.186  1.00  0.00     0.000 C 
BRANCH  15  16
ATOM     16  C   UNL     1     -29.567  15.885 -11.336  1.00  0.00     0.000 C 
BRANCH  16  17
ATOM     17  C   UNL     1     -31.090  15.862 -11.116  1.00  0.00     0.000 C 
BRANCH  17  18
ATOM     18  C   UNL     1     -31.624  16.912 -10.120  1.00  0.00    -0.000 C 
BRANCH  18  19
ATOM     19  C   UNL     1     -31.364  18.379 -10.511  1.00  0.00    -0.000 C 
BRANCH  19  20
ATOM     20  C   UNL     1     -32.589  19.306 -10.395  1.00  0.00    -0.000 C 
BRANCH  20  21
ATOM     21  C   UNL     1     -32.238  20.811 -10.412  1.00  0.00    -0.000 C 
BRANCH  21  22
ATOM     22  C   UNL     1     -33.148  21.697  -9.537  1.00  0.00    -0.000 C 
BRANCH  22  23
ATOM     23  C   UNL     1     -32.947  23.216  -9.701  1.00  0.00    -0.000 C 
BRANCH  23  24
ATOM     24  C   UNL     1     -31.471  23.618  -9.846  1.00  0.00    -0.000 C 
BRANCH  24  25
ATOM     25  C   UNL     1     -30.791  22.815 -10.960  1.00  0.00    -0.003 C 
ATOM     26  C   UNL     1     -29.779  21.826 -10.391  1.00  0.00     0.004 C 
ENDBRANCH  24  25
ENDBRANCH  23  24
ENDBRANCH  22  23
ENDBRANCH  21  22
ENDBRANCH  20  21
ENDBRANCH  19  20
ENDBRANCH  18  19
ENDBRANCH  17  18
ENDBRANCH  16  17
ENDBRANCH  15  16
ENDBRANCH   1  15
TORSDOF 22
ENDMDL
MODEL 5
REMARK VINA RESULT:    16.498      3.401      8.298
REMARK INTER + INTRA:          36.599
REMARK INTER:                  36.196
REMARK INTRA:                   0.404
REMARK UNBOUND:                -1.116
REMARK SMILES CCCCCCCCCCCCCCCCCCCCCCCC(=O)[O-]
REMARK SMILES IDX 13 1 14 2 15 3 16 4 17 5 18 6 19 7 20 8 21 9 22 10 23 11
REMARK SMILES IDX 24 12 25 13 26 14 12 15 11 16 10 17 9 18 8 19 7 20 6 21 5 22
REMARK SMILES IDX 4 23 3 24 2 25 1 26
REMARK H PARENT
REMARK Flexibility Score: inf
ROOT
ATOM      1  C   UNL     1     -27.295  20.197 -13.796  1.00  0.00     0.000 C 
ENDROOT
BRANCH   1   2
ATOM      2  C   UNL     1     -27.425  21.724 -13.697  1.00  0.00     0.000 C 
BRANCH   2   3
ATOM      3  C   UNL     1     -26.544  22.322 -12.589  1.00  0.00     0.000 C 
BRANCH   3   4
ATOM      4  C   UNL     1     -25.876  23.639 -13.011  1.00  0.00     0.000 C 
BRANCH   4   5
ATOM      5  C   UNL     1     -24.891  24.124 -11.941  1.00  0.00     0.000 C 
BRANCH   5   6
ATOM      6  C   UNL     1     -25.540  24.112 -10.550  1.00  0.00     0.000 C 
BRANCH   6   7
ATOM      7  C   UNL     1     -24.771  23.244  -9.538  1.00  0.00     0.000 C 
BRANCH   7   8
ATOM      8  C   UNL     1     -25.619  22.176  -8.820  1.00  0.00     0.000 C 
BRANCH   8   9
ATOM      9  C   UNL     1     -24.889  21.403  -7.704  1.00  0.00     0.000 C 
BRANCH   9  10
ATOM     10  C   UNL     1     -23.350  21.500  -7.741  1.00  0.00     0.006 C 
BRANCH  10  11
ATOM     11  C   UNL     1     -22.699  21.783  -6.379  1.00  0.00     0.053 C 
BRANCH  11  12
ATOM     12  C   UNL     1     -22.411  23.240  -6.187  1.00  0.00     0.041 C 
ATOM     13  O   UNL     1     -22.065  23.674  -5.057  1.00  0.00    -0.550 OA
ATOM     14  O   UNL     1     -22.559  24.124  -7.247  1.00  0.00    -0.550 OA
ENDBRANCH  11  12
ENDBRANCH  10  11
ENDBRANCH   9  10
ENDBRANCH   8   9
ENDBRANCH   7   8
ENDBRANCH   6   7
ENDBRANCH   5   6
ENDBRANCH   4   5
ENDBRANCH   3   4
ENDBRANCH   2   3
ENDBRANCH   1   2
BRANCH   1  15
ATOM     15  C   UNL     1     -28.148  19.503 -12.727  1.00  0.00     0.000 C 
BRANCH  15  16
ATOM     16  C   UNL     1     -28.489  18.065 -13.147  1.00  0.00     0.000 C 
BRANCH  16  17
ATOM     17  C   UNL     1     -29.069  17.226 -11.995  1.00  0.00     0.000 C 
BRANCH  17  18
ATOM     18  C   UNL     1     -29.177  17.958 -10.640  1.00  0.00    -0.000 C 
BRANCH  18  19
ATOM     19  C   UNL     1     -30.506  18.696 -10.398  1.00  0.00    -0.000 C 
BRANCH  19  20
ATOM     20  C   UNL     1     -31.752  17.791 -10.362  1.00  0.00    -0.000 C 
BRANCH  20  21
ATOM     21  C   UNL     1     -33.084  18.565 -10.234  1.00  0.00    -0.000 C 
BRANCH  21  22
ATOM     22  C   UNL     1     -32.931  20.073  -9.944  1.00  0.00    -0.000 C 
BRANCH  22  23
ATOM     23  C   UNL     1     -31.570  20.684 -10.332  1.00  0.00    -0.000 C 
BRANCH  23  24
ATOM     24  C   UNL     1     -31.700  22.006 -11.104  1.00  0.00    -0.000 C 
BRANCH  24  25
ATOM     25  C   UNL     1     -32.502  23.035 -10.300  1.00  0.00    -0.003 C 
ATOM     26  C   UNL     1     -31.622  23.740  -9.272  1.00  0.00     0.004 C 
ENDBRANCH  24  25
ENDBRANCH  23  24
ENDBRANCH  22  23
ENDBRANCH  21  22
ENDBRANCH  20  21
ENDBRANCH  19  20
ENDBRANCH  18  19
ENDBRANCH  17  18
ENDBRANCH  16  17
ENDBRANCH  15  16
ENDBRANCH   1  15
TORSDOF 22
ENDMDL
MODEL 6
REMARK VINA RESULT:    16.902      2.309      4.390
REMARK INTER + INTRA:          37.523
REMARK INTER:                  38.067
REMARK INTRA:                  -0.544
REMARK UNBOUND:                -1.116
REMARK SMILES CCCCCCCCCCCCCCCCCCCCCCCC(=O)[O-]
REMARK SMILES IDX 13 1 14 2 15 3 16 4 17 5 18 6 19 7 20 8 21 9 22 10 23 11
REMARK SMILES IDX 24 12 25 13 26 14 12 15 11 16 10 17 9 18 8 19 7 20 6 21 5 22
REMARK SMILES IDX 4 23 3 24 2 25 1 26
REMARK H PARENT
REMARK Flexibility Score: inf
ROOT
ATOM      1  C   UNL     1     -32.384  20.553  -9.962  1.00  0.00     0.000 C 
ENDROOT
BRANCH   1   2
ATOM      2  C   UNL     1     -31.942  19.382 -10.851  1.00  0.00     0.000 C 
BRANCH   2   3
ATOM      3  C   UNL     1     -32.340  18.016 -10.270  1.00  0.00     0.000 C 
BRANCH   3   4
ATOM      4  C   UNL     1     -31.181  17.007 -10.286  1.00  0.00     0.000 C 
BRANCH   4   5
ATOM      5  C   UNL     1     -29.868  17.685 -10.694  1.00  0.00     0.000 C 
BRANCH   5   6
ATOM      6  C   UNL     1     -29.011  16.747 -11.557  1.00  0.00     0.000 C 
BRANCH   6   7
ATOM      7  C   UNL     1     -28.947  17.184 -13.032  1.00  0.00     0.000 C 
BRANCH   7   8
ATOM      8  C   UNL     1     -28.862  16.028 -14.049  1.00  0.00     0.000 C 
BRANCH   8   9
ATOM      9  C   UNL     1     -29.636  16.254 -15.362  1.00  0.00     0.000 C 
BRANCH   9  10
ATOM     10  C   UNL     1     -29.693  17.719 -15.843  1.00  0.00     0.006 C 
BRANCH  10  11
ATOM     11  C   UNL     1     -30.339  17.909 -17.224  1.00  0.00     0.053 C 
BRANCH  11  12
ATOM     12  C   UNL     1     -30.446  19.355 -17.598  1.00  0.00     0.041 C 
ATOM     13  O   UNL     1     -31.573  19.913 -17.657  1.00  0.00    -0.550 OA
ATOM     14  O   UNL     1     -29.304  20.077 -17.918  1.00  0.00    -0.550 OA
ENDBRANCH  11  12
ENDBRANCH  10  11
ENDBRANCH   9  10
ENDBRANCH   8   9
ENDBRANCH   7   8
ENDBRANCH   6   7
ENDBRANCH   5   6
ENDBRANCH   4   5
ENDBRANCH   3   4
ENDBRANCH   2   3
ENDBRANCH   1   2
BRANCH   1  15
ATOM     15  C   UNL     1     -32.650  21.810 -10.800  1.00  0.00     0.000 C 
BRANCH  15  16
ATOM     16  C   UNL     1     -32.145  23.067 -10.077  1.00  0.00     0.000 C 
BRANCH  16  17
ATOM     17  C   UNL     1     -30.613  23.203 -10.109  1.00  0.00     0.000 C 
BRANCH  17  18
ATOM     18  C   UNL     1     -29.838  21.870 -10.181  1.00  0.00    -0.000 C 
BRANCH  18  19
ATOM     19  C   UNL     1     -28.305  21.997 -10.106  1.00  0.00    -0.000 C 
BRANCH  19  20
ATOM     20  C   UNL     1     -27.639  21.148  -9.008  1.00  0.00    -0.000 C 
BRANCH  20  21
ATOM     21  C   UNL     1     -26.489  21.871  -8.269  1.00  0.00    -0.000 C 
BRANCH  21  22
ATOM     22  C   UNL     1     -25.604  20.957  -7.397  1.00  0.00    -0.000 C 
BRANCH  22  23
ATOM     23  C   UNL     1     -24.086  21.099  -7.621  1.00  0.00    -0.000 C 
BRANCH  23  24
ATOM     24  C   UNL     1     -23.339  21.616  -6.382  1.00  0.00    -0.000 C 
BRANCH  24  25
ATOM     25  C   UNL     1     -22.182  22.537  -6.784  1.00  0.00    -0.003 C 
ATOM     26  C   UNL     1     -22.177  23.815  -5.950  1.00  0.00     0.004 C 
ENDBRANCH  24  25
ENDBRANCH  23  24
ENDBRANCH  22  23
ENDBRANCH  21  22
ENDBRANCH  20  21
ENDBRANCH  19  20
ENDBRANCH  18  19
ENDBRANCH  17  18
ENDBRANCH  16  17
ENDBRANCH  15  16
ENDBRANCH   1  15
TORSDOF 22
ENDMDL
MODEL 7
REMARK VINA RESULT:    17.021      3.363      8.653
REMARK INTER + INTRA:          37.796
REMARK INTER:                  37.779
REMARK INTRA:                   0.018
REMARK UNBOUND:                -1.116
REMARK SMILES CCCCCCCCCCCCCCCCCCCCCCCC(=O)[O-]
REMARK SMILES IDX 13 1 14 2 15 3 16 4 17 5 18 6 19 7 20 8 21 9 22 10 23 11
REMARK SMILES IDX 24 12 25 13 26 14 12 15 11 16 10 17 9 18 8 19 7 20 6 21 5 22
REMARK SMILES IDX 4 23 3 24 2 25 1 26
REMARK H PARENT
REMARK Flexibility Score: inf
ROOT
ATOM      1  C   UNL     1     -30.554  22.465 -10.230  1.00  0.00     0.000 C 
ENDROOT
BRANCH   1   2
ATOM      2  C   UNL     1     -30.000  21.313 -11.080  1.00  0.00     0.000 C 
BRANCH   2   3
ATOM      3  C   UNL     1     -28.465  21.246 -11.058  1.00  0.00     0.000 C 
BRANCH   3   4
ATOM      4  C   UNL     1     -27.846  21.427 -12.452  1.00  0.00     0.000 C 
BRANCH   4   5
ATOM      5  C   UNL     1     -27.078  22.750 -12.545  1.00  0.00     0.000 C 
BRANCH   5   6
ATOM      6  C   UNL     1     -25.634  22.585 -12.048  1.00  0.00     0.000 C 
BRANCH   6   7
ATOM      7  C   UNL     1     -25.386  23.269 -10.692  1.00  0.00     0.000 C 
BRANCH   7   8
ATOM      8  C   UNL     1     -25.480  22.340  -9.466  1.00  0.00     0.000 C 
BRANCH   8   9
ATOM      9  C   UNL     1     -24.340  22.491  -8.440  1.00  0.00     0.000 C 
BRANCH   9  10
ATOM     10  C   UNL     1     -24.179  21.309  -7.464  1.00  0.00     0.006 C 
BRANCH  10  11
ATOM     11  C   UNL     1     -23.566  21.685  -6.106  1.00  0.00     0.053 C 
BRANCH  11  12
ATOM     12  C   UNL     1     -22.355  22.554  -6.260  1.00  0.00     0.041 C 
ATOM     13  O   UNL     1     -21.346  22.130  -6.883  1.00  0.00    -0.550 OA
ATOM     14  O   UNL     1     -22.327  23.817  -5.683  1.00  0.00    -0.550 OA
ENDBRANCH  11  12
ENDBRANCH  10  11
ENDBRANCH   9  10
ENDBRANCH   8   9
ENDBRANCH   7   8
ENDBRANCH   6   7
ENDBRANCH   5   6
ENDBRANCH   4   5
ENDBRANCH   3   4
ENDBRANCH   2   3
ENDBRANCH   1   2
BRANCH   1  15
ATOM     15  C   UNL     1     -32.079  22.561 -10.361  1.00  0.00     0.000 C 
BRANCH  15  16
ATOM     16  C   UNL     1     -32.742  21.208 -10.060  1.00  0.00     0.000 C 
BRANCH  16  17
ATOM     17  C   UNL     1     -31.917  20.012 -10.565  1.00  0.00     0.000 C 
BRANCH  17  18
ATOM     18  C   UNL     1     -32.301  18.647  -9.956  1.00  0.00    -0.000 C 
BRANCH  18  19
ATOM     19  C   UNL     1     -31.445  17.455 -10.425  1.00  0.00    -0.000 C 
BRANCH  19  20
ATOM     20  C   UNL     1     -29.960  17.781 -10.668  1.00  0.00    -0.000 C 
BRANCH  20  21
ATOM     21  C   UNL     1     -29.173  16.641 -11.353  1.00  0.00    -0.000 C 
BRANCH  21  22
ATOM     22  C   UNL     1     -28.669  16.966 -12.774  1.00  0.00    -0.000 C 
BRANCH  22  23
ATOM     23  C   UNL     1     -29.326  16.158 -13.910  1.00  0.00    -0.000 C 
BRANCH  23  24
ATOM     24  C   UNL     1     -28.308  15.548 -14.885  1.00  0.00    -0.000 C 
BRANCH  24  25
ATOM     25  C   UNL     1     -28.201  14.032 -14.688  1.00  0.00    -0.003 C 
ATOM     26  C   UNL     1     -26.788  13.535 -14.981  1.00  0.00     0.004 C 
ENDBRANCH  24  25
ENDBRANCH  23  24
ENDBRANCH  22  23
ENDBRANCH  21  22
ENDBRANCH  20  21
ENDBRANCH  19  20
ENDBRANCH  18  19
ENDBRANCH  17  18
ENDBRANCH  16  17
ENDBRANCH  15  16
ENDBRANCH   1  15
TORSDOF 22
ENDMDL
MODEL 8
REMARK VINA RESULT:    17.028      6.727      9.631
REMARK INTER + INTRA:          37.811
REMARK INTER:                  37.848
REMARK INTRA:                  -0.038
REMARK UNBOUND:                -1.116
REMARK SMILES CCCCCCCCCCCCCCCCCCCCCCCC(=O)[O-]
REMARK SMILES IDX 13 1 14 2 15 3 16 4 17 5 18 6 19 7 20 8 21 9 22 10 23 11
REMARK SMILES IDX 24 12 25 13 26 14 12 15 11 16 10 17 9 18 8 19 7 20 6 21 5 22
REMARK SMILES IDX 4 23 3 24 2 25 1 26
REMARK H PARENT
REMARK Flexibility Score: inf
ROOT
ATOM      1  C   UNL     1     -33.735  16.315  -7.544  1.00  0.00     0.000 C 
ENDROOT
BRANCH   1   2
ATOM      2  C   UNL     1     -33.265  15.399  -6.405  1.00  0.00     0.000 C 
BRANCH   2   3
ATOM      3  C   UNL     1     -33.782  13.960  -6.552  1.00  0.00     0.000 C 
BRANCH   3   4
ATOM      4  C   UNL     1     -33.256  13.028  -5.449  1.00  0.00     0.000 C 
BRANCH   4   5
ATOM      5  C   UNL     1     -33.514  11.558  -5.801  1.00  0.00     0.000 C 
BRANCH   5   6
ATOM      6  C   UNL     1     -32.970  11.224  -7.198  1.00  0.00     0.000 C 
BRANCH   6   7
ATOM      7  C   UNL     1     -32.853   9.710  -7.447  1.00  0.00     0.000 C 
BRANCH   7   8
ATOM      8  C   UNL     1     -31.661   9.286  -8.329  1.00  0.00     0.000 C 
BRANCH   8   9
ATOM      9  C   UNL     1     -31.642   7.799  -8.732  1.00  0.00     0.000 C 
BRANCH   9  10
ATOM     10  C   UNL     1     -32.560   6.884  -7.896  1.00  0.00     0.006 C 
BRANCH  10  11
ATOM     11  C   UNL     1     -31.832   5.731  -7.188  1.00  0.00     0.053 C 
BRANCH  11  12
ATOM     12  C   UNL     1     -30.456   5.513  -7.739  1.00  0.00     0.041 C 
ATOM     13  O   UNL     1     -29.445   5.821  -7.056  1.00  0.00    -0.550 OA
ATOM     14  O   UNL     1     -30.292   5.006  -9.021  1.00  0.00    -0.550 OA
ENDBRANCH  11  12
ENDBRANCH  10  11
ENDBRANCH   9  10
ENDBRANCH   8   9
ENDBRANCH   7   8
ENDBRANCH   6   7
ENDBRANCH   5   6
ENDBRANCH   4   5
ENDBRANCH   3   4
ENDBRANCH   2   3
ENDBRANCH   1   2
BRANCH   1  15
ATOM     15  C   UNL     1     -32.887  16.106  -8.805  1.00  0.00     0.000 C 
BRANCH  15  16
ATOM     16  C   UNL     1     -32.855  17.380  -9.661  1.00  0.00     0.000 C 
BRANCH  16  17
ATOM     17  C   UNL     1     -31.467  17.664 -10.262  1.00  0.00     0.000 C 
BRANCH  17  18
ATOM     18  C   UNL     1     -30.718  16.425 -10.797  1.00  0.00    -0.000 C 
BRANCH  18  19
ATOM     19  C   UNL     1     -29.240  16.658 -11.162  1.00  0.00    -0.000 C 
BRANCH  19  20
ATOM     20  C   UNL     1     -29.008  17.657 -12.311  1.00  0.00    -0.000 C 
BRANCH  20  21
ATOM     21  C   UNL     1     -28.667  19.088 -11.837  1.00  0.00    -0.000 C 
BRANCH  21  22
ATOM     22  C   UNL     1     -29.555  19.620 -10.693  1.00  0.00    -0.000 C 
BRANCH  22  23
ATOM     23  C   UNL     1     -29.822  21.137 -10.716  1.00  0.00    -0.000 C 
BRANCH  23  24
ATOM     24  C   UNL     1     -31.302  21.493 -10.508  1.00  0.00    -0.000 C 
BRANCH  24  25
ATOM     25  C   UNL     1     -31.484  23.004 -10.336  1.00  0.00    -0.003 C 
ATOM     26  C   UNL     1     -32.892  23.341  -9.852  1.00  0.00     0.004 C 
ENDBRANCH  24  25
ENDBRANCH  23  24
ENDBRANCH  22  23
ENDBRANCH  21  22
ENDBRANCH  20  21
ENDBRANCH  19  20
ENDBRANCH  18  19
ENDBRANCH  17  18
ENDBRANCH  16  17
ENDBRANCH  15  16
ENDBRANCH   1  15
TORSDOF 22
ENDMDL
MODEL 9
REMARK VINA RESULT:    17.377      5.387      9.343
REMARK INTER + INTRA:          38.611
REMARK INTER:                  37.806
REMARK INTRA:                   0.804
REMARK UNBOUND:                -1.116
REMARK SMILES CCCCCCCCCCCCCCCCCCCCCCCC(=O)[O-]
REMARK SMILES IDX 13 1 14 2 15 3 16 4 17 5 18 6 19 7 20 8 21 9 22 10 23 11
REMARK SMILES IDX 24 12 25 13 26 14 12 15 11 16 10 17 9 18 8 19 7 20 6 21 5 22
REMARK SMILES IDX 4 23 3 24 2 25 1 26
REMARK H PARENT
REMARK Flexibility Score: inf
ROOT
ATOM      1  C   UNL     1     -29.222  18.169 -11.826  1.00  0.00     0.000 C 
ENDROOT
BRANCH   1   2
ATOM      2  C   UNL     1     -29.123  17.077 -10.752  1.00  0.00     0.000 C 
BRANCH   2   3
ATOM      3  C   UNL     1     -30.038  15.877 -11.044  1.00  0.00     0.000 C 
BRANCH   3   4
ATOM      4  C   UNL     1     -31.444  16.048 -10.450  1.00  0.00     0.000 C 
BRANCH   4   5
ATOM      5  C   UNL     1     -31.617  17.444  -9.841  1.00  0.00     0.000 C 
BRANCH   5   6
ATOM      6  C   UNL     1     -32.627  18.275 -10.648  1.00  0.00     0.000 C 
BRANCH   6   7
ATOM      7  C   UNL     1     -33.362  19.321  -9.791  1.00  0.00     0.000 C 
BRANCH   7   8
ATOM      8  C   UNL     1     -32.647  20.681  -9.670  1.00  0.00     0.000 C 
BRANCH   8   9
ATOM      9  C   UNL     1     -31.455  20.881 -10.626  1.00  0.00     0.000 C 
BRANCH   9  10
ATOM     10  C   UNL     1     -31.072  22.351 -10.894  1.00  0.00     0.006 C 
BRANCH  10  11
ATOM     11  C   UNL     1     -31.394  23.312  -9.738  1.00  0.00     0.053 C 
BRANCH  11  12
ATOM     12  C   UNL     1     -32.847  23.671  -9.696  1.00  0.00     0.041 C 
ATOM     13  O   UNL     1     -33.548  23.602 -10.739  1.00  0.00    -0.550 OA
ATOM     14  O   UNL     1     -33.419  24.118  -8.512  1.00  0.00    -0.550 OA
ENDBRANCH  11  12
ENDBRANCH  10  11
ENDBRANCH   9  10
ENDBRANCH   8   9
ENDBRANCH   7   8
ENDBRANCH   6   7
ENDBRANCH   5   6
ENDBRANCH   4   5
ENDBRANCH   3   4
ENDBRANCH   2   3
ENDBRANCH   1   2
BRANCH   1  15
ATOM     15  C   UNL     1     -28.853  17.617 -13.209  1.00  0.00     0.000 C 
BRANCH  15  16
ATOM     16  C   UNL     1     -28.511  16.121 -13.128  1.00  0.00     0.000 C 
BRANCH  16  17
ATOM     17  C   UNL     1     -28.926  15.343 -14.388  1.00  0.00     0.000 C 
BRANCH  17  18
ATOM     18  C   UNL     1     -27.761  14.905 -15.301  1.00  0.00    -0.000 C 
BRANCH  18  19
ATOM     19  C   UNL     1     -27.103  13.564 -14.927  1.00  0.00    -0.000 C 
BRANCH  19  20
ATOM     20  C   UNL     1     -25.691  13.353 -15.507  1.00  0.00    -0.000 C 
BRANCH  20  21
ATOM     21  C   UNL     1     -24.811  12.392 -14.675  1.00  0.00    -0.000 C 
BRANCH  21  22
ATOM     22  C   UNL     1     -23.599  11.808 -15.430  1.00  0.00    -0.000 C 
BRANCH  22  23
ATOM     23  C   UNL     1     -23.725  10.326 -15.834  1.00  0.00    -0.000 C 
BRANCH  23  24
ATOM     24  C   UNL     1     -22.653   9.882 -16.841  1.00  0.00    -0.000 C 
BRANCH  24  25
ATOM     25  C   UNL     1     -21.257   9.926 -16.211  1.00  0.00    -0.003 C 
ATOM     26  C   UNL     1     -21.277   9.389 -14.782  1.00  0.00     0.004 C 
ENDBRANCH  24  25
ENDBRANCH  23  24
ENDBRANCH  22  23
ENDBRANCH  21  22
ENDBRANCH  20  21
ENDBRANCH  19  20
ENDBRANCH  18  19
ENDBRANCH  17  18
ENDBRANCH  16  17
ENDBRANCH  15  16
ENDBRANCH   1  15
TORSDOF 22
ENDMDL
