MODEL 1
REMARK VINA RESULT:    -6.171      0.000      0.000
REMARK INTER + INTRA:          -7.493
REMARK INTER:                  -7.254
REMARK INTRA:                  -0.240
REMARK UNBOUND:                -0.240
REMARK SMILES O=c1c(O)c(-c2ccc(O)cc2)oc2cc(O)cc(O)c12
REMARK SMILES IDX 5 1 3 2 2 3 1 4 21 5 19 6 18 7 16 8 15 9 14 10 13 11 6 12
REMARK SMILES IDX 7 13 8 14 9 15 12 16 11 17 10 18 4 20 20 22 17 24
REMARK H PARENT 10 19 4 21 20 23 17 25
REMARK Flexibility Score: inf
ROOT
ATOM      1  C   UNL     1      -2.573   4.111   0.006  1.00  0.00     0.180 A 
ATOM      2  C   UNL     1      -2.904   4.957   1.083  1.00  0.00     0.208 A 
ATOM      3  C   UNL     1      -2.146   4.882   2.262  1.00  0.00     0.238 A 
ATOM      4  O   UNL     1      -2.426   5.641   3.229  1.00  0.00    -0.285 OA
ATOM      5  C   UNL     1      -1.091   3.951   2.354  1.00  0.00     0.111 A 
ATOM      6  C   UNL     1      -0.282   3.808   3.508  1.00  0.00     0.134 A 
ATOM      7  C   UNL     1       0.744   2.853   3.524  1.00  0.00     0.093 A 
ATOM      8  C   UNL     1       0.978   2.039   2.413  1.00  0.00     0.123 A 
ATOM      9  C   UNL     1       0.183   2.175   1.270  1.00  0.00     0.094 A 
ATOM     10  C   UNL     1      -0.844   3.123   1.233  1.00  0.00     0.146 A 
ATOM     11  O   UNL     1      -1.581   3.237   0.134  1.00  0.00    -0.452 OA
ENDROOT
BRANCH   1  12
ATOM     12  C   UNL     1      -3.312   4.146  -1.276  1.00  0.00     0.021 A 
ATOM     13  C   UNL     1      -4.160   3.079  -1.614  1.00  0.00     0.016 A 
ATOM     14  C   UNL     1      -4.850   3.079  -2.831  1.00  0.00     0.047 A 
ATOM     15  C   UNL     1      -4.689   4.140  -3.730  1.00  0.00     0.115 A 
ATOM     16  C   UNL     1      -3.140   5.198  -2.194  1.00  0.00     0.016 A 
ATOM     17  C   UNL     1      -3.830   5.197  -3.410  1.00  0.00     0.047 A 
BRANCH  15  18
ATOM     18  O   UNL     1      -5.371   4.153  -4.945  1.00  0.00    -0.508 OA
ATOM     19  H   UNL     1      -5.467   5.002  -5.489  1.00  0.00     0.293 HD
ENDBRANCH  15  18
ENDBRANCH   1  12
BRANCH   2  20
ATOM     20  O   UNL     1      -3.986   5.836   0.985  1.00  0.00    -0.502 OA
ATOM     21  H   UNL     1      -4.384   6.299   1.792  1.00  0.00     0.293 HD
ENDBRANCH   2  20
BRANCH   6  22
ATOM     22  O   UNL     1      -0.491   4.605   4.633  1.00  0.00    -0.507 OA
ATOM     23  H   UNL     1      -0.424   4.229   5.573  1.00  0.00     0.293 HD
ENDBRANCH   6  22
BRANCH   8  24
ATOM     24  O   UNL     1       2.003   1.097   2.455  1.00  0.00    -0.508 OA
ATOM     25  H   UNL     1       1.977   0.314   3.098  1.00  0.00     0.293 HD
ENDBRANCH   8  24
TORSDOF 5
ENDMDL
MODEL 2
REMARK VINA RESULT:    -6.160      1.489      6.554
REMARK INTER + INTRA:          -7.480
REMARK INTER:                  -7.182
REMARK INTRA:                  -0.298
REMARK UNBOUND:                -0.240
REMARK SMILES O=c1c(O)c(-c2ccc(O)cc2)oc2cc(O)cc(O)c12
REMARK SMILES IDX 5 1 3 2 2 3 1 4 21 5 19 6 18 7 16 8 15 9 14 10 13 11 6 12
REMARK SMILES IDX 7 13 8 14 9 15 12 16 11 17 10 18 4 20 20 22 17 24
REMARK H PARENT 10 19 4 21 20 23 17 25
REMARK Flexibility Score: inf
ROOT
ATOM      1  C   UNL     1      -2.465   3.878   0.745  1.00  0.00     0.180 A 
ATOM      2  C   UNL     1      -2.794   5.232   0.950  1.00  0.00     0.208 A 
ATOM      3  C   UNL     1      -3.752   5.831   0.117  1.00  0.00     0.238 A 
ATOM      4  O   UNL     1      -4.064   7.039   0.298  1.00  0.00    -0.285 OA
ATOM      5  C   UNL     1      -4.345   5.077  -0.917  1.00  0.00     0.111 A 
ATOM      6  C   UNL     1      -5.314   5.607  -1.803  1.00  0.00     0.134 A 
ATOM      7  C   UNL     1      -5.851   4.794  -2.812  1.00  0.00     0.093 A 
ATOM      8  C   UNL     1      -5.439   3.467  -2.954  1.00  0.00     0.123 A 
ATOM      9  C   UNL     1      -4.482   2.938  -2.081  1.00  0.00     0.094 A 
ATOM     10  C   UNL     1      -3.937   3.731  -1.068  1.00  0.00     0.146 A 
ATOM     11  O   UNL     1      -3.034   3.203  -0.249  1.00  0.00    -0.452 OA
ENDROOT
BRANCH   1  12
ATOM     12  C   UNL     1      -1.479   3.171   1.594  1.00  0.00     0.021 A 
ATOM     13  C   UNL     1      -0.149   3.054   1.159  1.00  0.00     0.016 A 
ATOM     14  C   UNL     1       0.793   2.370   1.934  1.00  0.00     0.047 A 
ATOM     15  C   UNL     1       0.412   1.783   3.147  1.00  0.00     0.115 A 
ATOM     16  C   UNL     1      -1.859   2.561   2.804  1.00  0.00     0.016 A 
ATOM     17  C   UNL     1      -0.915   1.877   3.578  1.00  0.00     0.047 A 
BRANCH  15  18
ATOM     18  O   UNL     1       1.342   1.100   3.929  1.00  0.00    -0.508 OA
ATOM     19  H   UNL     1       1.269   1.079   4.939  1.00  0.00     0.293 HD
ENDBRANCH  15  18
ENDBRANCH   1  12
BRANCH   2  20
ATOM     20  O   UNL     1      -2.157   5.971   1.950  1.00  0.00    -0.502 OA
ATOM     21  H   UNL     1      -2.661   6.388   2.722  1.00  0.00     0.293 HD
ENDBRANCH   2  20
BRANCH   6  22
ATOM     22  O   UNL     1      -5.746   6.928  -1.689  1.00  0.00    -0.507 OA
ATOM     23  H   UNL     1      -6.731   7.167  -1.663  1.00  0.00     0.293 HD
ENDBRANCH   6  22
BRANCH   8  24
ATOM     24  O   UNL     1      -5.987   2.682  -3.965  1.00  0.00    -0.508 OA
ATOM     25  H   UNL     1      -5.909   2.944  -4.941  1.00  0.00     0.293 HD
ENDBRANCH   8  24
TORSDOF 5
ENDMDL
MODEL 3
REMARK VINA RESULT:    -6.024      4.992      7.160
REMARK INTER + INTRA:          -7.320
REMARK INTER:                  -7.048
REMARK INTRA:                  -0.271
REMARK UNBOUND:                -0.240
REMARK SMILES O=c1c(O)c(-c2ccc(O)cc2)oc2cc(O)cc(O)c12
REMARK SMILES IDX 5 1 3 2 2 3 1 4 21 5 19 6 18 7 16 8 15 9 14 10 13 11 6 12
REMARK SMILES IDX 7 13 8 14 9 15 12 16 11 17 10 18 4 20 20 22 17 24
REMARK H PARENT 10 19 4 21 20 23 17 25
REMARK Flexibility Score: inf
ROOT
ATOM      1  C   UNL     1      -5.404   4.310  -2.262  1.00  0.00     0.180 A 
ATOM      2  C   UNL     1      -5.819   3.721  -3.472  1.00  0.00     0.208 A 
ATOM      3  C   UNL     1      -5.095   3.993  -4.643  1.00  0.00     0.238 A 
ATOM      4  O   UNL     1      -5.450   3.463  -5.730  1.00  0.00    -0.285 OA
ATOM      5  C   UNL     1      -3.986   4.864  -4.590  1.00  0.00     0.111 A 
ATOM      6  C   UNL     1      -3.206   5.194  -5.724  1.00  0.00     0.134 A 
ATOM      7  C   UNL     1      -2.123   6.075  -5.591  1.00  0.00     0.093 A 
ATOM      8  C   UNL     1      -1.806   6.632  -4.350  1.00  0.00     0.123 A 
ATOM      9  C   UNL     1      -2.572   6.310  -3.225  1.00  0.00     0.094 A 
ATOM     10  C   UNL     1      -3.654   5.432  -3.337  1.00  0.00     0.146 A 
ATOM     11  O   UNL     1      -4.363   5.137  -2.253  1.00  0.00    -0.452 OA
ENDROOT
BRANCH   1  12
ATOM     12  C   UNL     1      -6.104   4.056  -0.982  1.00  0.00     0.021 A 
ATOM     13  C   UNL     1      -5.828   2.881  -0.265  1.00  0.00     0.016 A 
ATOM     14  C   UNL     1      -6.494   2.609   0.934  1.00  0.00     0.047 A 
ATOM     15  C   UNL     1      -7.455   3.503   1.423  1.00  0.00     0.115 A 
ATOM     16  C   UNL     1      -7.085   4.940  -0.495  1.00  0.00     0.016 A 
ATOM     17  C   UNL     1      -7.751   4.666   0.704  1.00  0.00     0.047 A 
BRANCH  15  18
ATOM     18  O   UNL     1      -8.125   3.245   2.617  1.00  0.00    -0.508 OA
ATOM     19  H   UNL     1      -7.937   2.409   3.159  1.00  0.00     0.293 HD
ENDBRANCH  15  18
ENDBRANCH   1  12
BRANCH   2  20
ATOM     20  O   UNL     1      -6.950   2.901  -3.507  1.00  0.00    -0.502 OA
ATOM     21  H   UNL     1      -7.887   3.272  -3.597  1.00  0.00     0.293 HD
ENDBRANCH   2  20
BRANCH   6  22
ATOM     22  O   UNL     1      -3.498   4.656  -6.977  1.00  0.00    -0.507 OA
ATOM     23  H   UNL     1      -3.550   3.654  -7.129  1.00  0.00     0.293 HD
ENDBRANCH   6  22
BRANCH   8  24
ATOM     24  O   UNL     1      -0.726   7.506  -4.245  1.00  0.00    -0.508 OA
ATOM     25  H   UNL     1      -0.488   7.951  -3.366  1.00  0.00     0.293 HD
ENDBRANCH   8  24
TORSDOF 5
ENDMDL
MODEL 4
REMARK VINA RESULT:    -6.019      5.930      8.470
REMARK INTER + INTRA:          -7.314
REMARK INTER:                  -7.171
REMARK INTRA:                  -0.143
REMARK UNBOUND:                -0.240
REMARK SMILES O=c1c(O)c(-c2ccc(O)cc2)oc2cc(O)cc(O)c12
REMARK SMILES IDX 5 1 3 2 2 3 1 4 21 5 19 6 18 7 16 8 15 9 14 10 13 11 6 12
REMARK SMILES IDX 7 13 8 14 9 15 12 16 11 17 10 18 4 20 20 22 17 24
REMARK H PARENT 10 19 4 21 20 23 17 25
REMARK Flexibility Score: inf
ROOT
ATOM      1  C   UNL     1      -4.014   4.653  -5.027  1.00  0.00     0.180 A 
ATOM      2  C   UNL     1      -2.716   5.167  -4.841  1.00  0.00     0.208 A 
ATOM      3  C   UNL     1      -1.833   5.192  -5.932  1.00  0.00     0.238 A 
ATOM      4  O   UNL     1      -0.672   5.660  -5.780  1.00  0.00    -0.285 OA
ATOM      5  C   UNL     1      -2.253   4.685  -7.179  1.00  0.00     0.111 A 
ATOM      6  C   UNL     1      -1.423   4.671  -8.327  1.00  0.00     0.134 A 
ATOM      7  C   UNL     1      -1.912   4.142  -9.531  1.00  0.00     0.093 A 
ATOM      8  C   UNL     1      -3.208   3.628  -9.610  1.00  0.00     0.123 A 
ATOM      9  C   UNL     1      -4.032   3.641  -8.479  1.00  0.00     0.094 A 
ATOM     10  C   UNL     1      -3.565   4.166  -7.271  1.00  0.00     0.146 A 
ATOM     11  O   UNL     1      -4.369   4.171  -6.214  1.00  0.00    -0.452 OA
ENDROOT
BRANCH   1  12
ATOM     12  C   UNL     1      -5.008   4.610  -3.931  1.00  0.00     0.021 A 
ATOM     13  C   UNL     1      -5.536   3.374  -3.524  1.00  0.00     0.016 A 
ATOM     14  C   UNL     1      -6.493   3.312  -2.506  1.00  0.00     0.047 A 
ATOM     15  C   UNL     1      -6.945   4.488  -1.893  1.00  0.00     0.115 A 
ATOM     16  C   UNL     1      -5.481   5.788  -3.324  1.00  0.00     0.016 A 
ATOM     17  C   UNL     1      -6.439   5.724  -2.307  1.00  0.00     0.047 A 
BRANCH  15  18
ATOM     18  O   UNL     1      -7.897   4.440  -0.878  1.00  0.00    -0.508 OA
ATOM     19  H   UNL     1      -8.638   3.748  -0.880  1.00  0.00     0.293 HD
ENDBRANCH  15  18
ENDBRANCH   1  12
BRANCH   2  20
ATOM     20  O   UNL     1      -2.308   5.617  -3.582  1.00  0.00    -0.502 OA
ATOM     21  H   UNL     1      -1.888   6.527  -3.441  1.00  0.00     0.293 HD
ENDBRANCH   2  20
BRANCH   6  22
ATOM     22  O   UNL     1      -0.124   5.175  -8.280  1.00  0.00    -0.507 OA
ATOM     23  H   UNL     1       0.065   6.169  -8.339  1.00  0.00     0.293 HD
ENDBRANCH   6  22
BRANCH   8  24
ATOM     24  O   UNL     1      -3.669   3.108 -10.817  1.00  0.00    -0.508 OA
ATOM     25  H   UNL     1      -4.451   3.523 -11.309  1.00  0.00     0.293 HD
ENDBRANCH   8  24
TORSDOF 5
ENDMDL
MODEL 5
REMARK VINA RESULT:    -5.924      3.637      6.280
REMARK INTER + INTRA:          -7.203
REMARK INTER:                  -7.153
REMARK INTRA:                  -0.050
REMARK UNBOUND:                -0.240
REMARK SMILES O=c1c(O)c(-c2ccc(O)cc2)oc2cc(O)cc(O)c12
REMARK SMILES IDX 5 1 3 2 2 3 1 4 21 5 19 6 18 7 16 8 15 9 14 10 13 11 6 12
REMARK SMILES IDX 7 13 8 14 9 15 12 16 11 17 10 18 4 20 20 22 17 24
REMARK H PARENT 10 19 4 21 20 23 17 25
REMARK Flexibility Score: inf
ROOT
ATOM      1  C   UNL     1      -3.169   5.226  -3.917  1.00  0.00     0.180 A 
ATOM      2  C   UNL     1      -4.174   4.511  -4.597  1.00  0.00     0.208 A 
ATOM      3  C   UNL     1      -5.091   3.755  -3.851  1.00  0.00     0.238 A 
ATOM      4  O   UNL     1      -6.002   3.119  -4.448  1.00  0.00    -0.285 OA
ATOM      5  C   UNL     1      -4.975   3.706  -2.446  1.00  0.00     0.111 A 
ATOM      6  C   UNL     1      -5.855   2.964  -1.622  1.00  0.00     0.134 A 
ATOM      7  C   UNL     1      -5.668   2.960  -0.232  1.00  0.00     0.093 A 
ATOM      8  C   UNL     1      -4.622   3.680   0.349  1.00  0.00     0.123 A 
ATOM      9  C   UNL     1      -3.750   4.416  -0.460  1.00  0.00     0.094 A 
ATOM     10  C   UNL     1      -3.920   4.435  -1.847  1.00  0.00     0.146 A 
ATOM     11  O   UNL     1      -3.082   5.146  -2.593  1.00  0.00    -0.452 OA
ENDROOT
BRANCH   1  12
ATOM     12  C   UNL     1      -2.178   6.063  -4.632  1.00  0.00     0.021 A 
ATOM     13  C   UNL     1      -1.334   5.471  -5.586  1.00  0.00     0.016 A 
ATOM     14  C   UNL     1      -0.375   6.237  -6.256  1.00  0.00     0.047 A 
ATOM     15  C   UNL     1      -0.239   7.601  -5.969  1.00  0.00     0.115 A 
ATOM     16  C   UNL     1      -2.021   7.429  -4.334  1.00  0.00     0.016 A 
ATOM     17  C   UNL     1      -1.061   8.193  -5.005  1.00  0.00     0.047 A 
BRANCH  15  18
ATOM     18  O   UNL     1       0.712   8.375  -6.631  1.00  0.00    -0.508 OA
ATOM     19  H   UNL     1       1.256   8.002  -7.400  1.00  0.00     0.293 HD
ENDBRANCH  15  18
ENDBRANCH   1  12
BRANCH   2  20
ATOM     20  O   UNL     1      -4.238   4.536  -5.993  1.00  0.00    -0.502 OA
ATOM     21  H   UNL     1      -3.422   4.400  -6.576  1.00  0.00     0.293 HD
ENDBRANCH   2  20
BRANCH   6  22
ATOM     22  O   UNL     1      -6.909   2.233  -2.172  1.00  0.00    -0.507 OA
ATOM     23  H   UNL     1      -7.877   2.484  -2.004  1.00  0.00     0.293 HD
ENDBRANCH   6  22
BRANCH   8  24
ATOM     24  O   UNL     1      -4.458   3.659   1.732  1.00  0.00    -0.508 OA
ATOM     25  H   UNL     1      -3.826   3.005   2.180  1.00  0.00     0.293 HD
ENDBRANCH   8  24
TORSDOF 5
ENDMDL
MODEL 6
REMARK VINA RESULT:    -5.630      3.737      5.055
REMARK INTER + INTRA:          -6.857
REMARK INTER:                  -6.567
REMARK INTRA:                  -0.290
REMARK UNBOUND:                -0.240
REMARK SMILES O=c1c(O)c(-c2ccc(O)cc2)oc2cc(O)cc(O)c12
REMARK SMILES IDX 5 1 3 2 2 3 1 4 21 5 19 6 18 7 16 8 15 9 14 10 13 11 6 12
REMARK SMILES IDX 7 13 8 14 9 15 12 16 11 17 10 18 4 20 20 22 17 24
REMARK H PARENT 10 19 4 21 20 23 17 25
REMARK Flexibility Score: inf
ROOT
ATOM      1  C   UNL     1      -2.234   2.878   3.168  1.00  0.00     0.180 A 
ATOM      2  C   UNL     1      -1.169   3.560   2.548  1.00  0.00     0.208 A 
ATOM      3  C   UNL     1       0.005   2.853   2.244  1.00  0.00     0.238 A 
ATOM      4  O   UNL     1       0.961   3.450   1.679  1.00  0.00    -0.285 OA
ATOM      5  C   UNL     1       0.103   1.487   2.583  1.00  0.00     0.111 A 
ATOM      6  C   UNL     1       1.251   0.704   2.315  1.00  0.00     0.134 A 
ATOM      7  C   UNL     1       1.275  -0.647   2.691  1.00  0.00     0.093 A 
ATOM      8  C   UNL     1       0.176  -1.229   3.328  1.00  0.00     0.123 A 
ATOM      9  C   UNL     1      -0.962  -0.460   3.595  1.00  0.00     0.094 A 
ATOM     10  C   UNL     1      -1.005   0.887   3.226  1.00  0.00     0.146 A 
ATOM     11  O   UNL     1      -2.100   1.594   3.486  1.00  0.00    -0.452 OA
ENDROOT
BRANCH   1  12
ATOM     12  C   UNL     1      -3.510   3.550   3.503  1.00  0.00     0.021 A 
ATOM     13  C   UNL     1      -4.552   3.562   2.561  1.00  0.00     0.016 A 
ATOM     14  C   UNL     1      -5.758   4.210   2.847  1.00  0.00     0.047 A 
ATOM     15  C   UNL     1      -5.931   4.866   4.072  1.00  0.00     0.115 A 
ATOM     16  C   UNL     1      -3.684   4.228   4.723  1.00  0.00     0.016 A 
ATOM     17  C   UNL     1      -4.890   4.876   5.006  1.00  0.00     0.047 A 
BRANCH  15  18
ATOM     18  O   UNL     1      -7.127   5.515   4.369  1.00  0.00    -0.508 OA
ATOM     19  H   UNL     1      -7.892   5.031   4.825  1.00  0.00     0.293 HD
ENDBRANCH  15  18
ENDBRANCH   1  12
BRANCH   2  20
ATOM     20  O   UNL     1      -1.272   4.925   2.267  1.00  0.00    -0.502 OA
ATOM     21  H   UNL     1      -2.074   5.323   1.796  1.00  0.00     0.293 HD
ENDBRANCH   2  20
BRANCH   6  22
ATOM     22  O   UNL     1       2.365   1.255   1.682  1.00  0.00    -0.507 OA
ATOM     23  H   UNL     1       3.281   0.824   1.742  1.00  0.00     0.293 HD
ENDBRANCH   6  22
BRANCH   8  24
ATOM     24  O   UNL     1       0.225  -2.572   3.693  1.00  0.00    -0.508 OA
ATOM     25  H   UNL     1      -0.083  -3.304   3.063  1.00  0.00     0.293 HD
ENDBRANCH   8  24
TORSDOF 5
ENDMDL
MODEL 7
REMARK VINA RESULT:    -5.582      1.806      6.752
REMARK INTER + INTRA:          -6.801
REMARK INTER:                  -6.847
REMARK INTRA:                   0.046
REMARK UNBOUND:                -0.240
REMARK SMILES O=c1c(O)c(-c2ccc(O)cc2)oc2cc(O)cc(O)c12
REMARK SMILES IDX 5 1 3 2 2 3 1 4 21 5 19 6 18 7 16 8 15 9 14 10 13 11 6 12
REMARK SMILES IDX 7 13 8 14 9 15 12 16 11 17 10 18 4 20 20 22 17 24
REMARK H PARENT 10 19 4 21 20 23 17 25
REMARK Flexibility Score: inf
ROOT
ATOM      1  C   UNL     1      -2.908   3.903   0.463  1.00  0.00     0.180 A 
ATOM      2  C   UNL     1      -4.224   3.629   0.885  1.00  0.00     0.208 A 
ATOM      3  C   UNL     1      -5.284   3.860  -0.006  1.00  0.00     0.238 A 
ATOM      4  O   UNL     1      -6.465   3.608   0.356  1.00  0.00    -0.285 OA
ATOM      5  C   UNL     1      -5.015   4.381  -1.289  1.00  0.00     0.111 A 
ATOM      6  C   UNL     1      -6.025   4.646  -2.244  1.00  0.00     0.134 A 
ATOM      7  C   UNL     1      -5.677   5.172  -3.497  1.00  0.00     0.093 A 
ATOM      8  C   UNL     1      -4.342   5.437  -3.813  1.00  0.00     0.123 A 
ATOM      9  C   UNL     1      -3.339   5.176  -2.874  1.00  0.00     0.094 A 
ATOM     10  C   UNL     1      -3.666   4.650  -1.620  1.00  0.00     0.146 A 
ATOM     11  O   UNL     1      -2.694   4.406  -0.748  1.00  0.00    -0.452 OA
ENDROOT
BRANCH   1  12
ATOM     12  C   UNL     1      -1.737   3.666   1.338  1.00  0.00     0.021 A 
ATOM     13  C   UNL     1      -0.662   2.898   0.861  1.00  0.00     0.016 A 
ATOM     14  C   UNL     1       0.444   2.643   1.678  1.00  0.00     0.047 A 
ATOM     15  C   UNL     1       0.482   3.141   2.986  1.00  0.00     0.115 A 
ATOM     16  C   UNL     1      -1.700   4.146   2.660  1.00  0.00     0.016 A 
ATOM     17  C   UNL     1      -0.593   3.889   3.475  1.00  0.00     0.047 A 
BRANCH  15  18
ATOM     18  O   UNL     1       1.579   2.895   3.809  1.00  0.00    -0.508 OA
ATOM     19  H   UNL     1       2.129   3.652   4.198  1.00  0.00     0.293 HD
ENDBRANCH  15  18
ENDBRANCH   1  12
BRANCH   2  20
ATOM     20  O   UNL     1      -4.469   3.160   2.178  1.00  0.00    -0.502 OA
ATOM     21  H   UNL     1      -4.543   3.780   2.975  1.00  0.00     0.293 HD
ENDBRANCH   2  20
BRANCH   6  22
ATOM     22  O   UNL     1      -7.367   4.394  -1.959  1.00  0.00    -0.507 OA
ATOM     23  H   UNL     1      -8.098   5.051  -2.207  1.00  0.00     0.293 HD
ENDBRANCH   6  22
BRANCH   8  24
ATOM     24  O   UNL     1      -4.023   5.960  -5.064  1.00  0.00    -0.508 OA
ATOM     25  H   UNL     1      -3.086   6.277  -5.282  1.00  0.00     0.293 HD
ENDBRANCH   8  24
TORSDOF 5
ENDMDL
MODEL 8
REMARK VINA RESULT:    -5.503      1.900      6.325
REMARK INTER + INTRA:          -6.707
REMARK INTER:                  -6.441
REMARK INTRA:                  -0.267
REMARK UNBOUND:                -0.240
REMARK SMILES O=c1c(O)c(-c2ccc(O)cc2)oc2cc(O)cc(O)c12
REMARK SMILES IDX 5 1 3 2 2 3 1 4 21 5 19 6 18 7 16 8 15 9 14 10 13 11 6 12
REMARK SMILES IDX 7 13 8 14 9 15 12 16 11 17 10 18 4 20 20 22 17 24
REMARK H PARENT 10 19 4 21 20 23 17 25
REMARK Flexibility Score: inf
ROOT
ATOM      1  C   UNL     1      -1.927   3.358   2.003  1.00  0.00     0.180 A 
ATOM      2  C   UNL     1      -1.929   4.616   2.636  1.00  0.00     0.208 A 
ATOM      3  C   UNL     1      -2.473   5.717   1.956  1.00  0.00     0.238 A 
ATOM      4  O   UNL     1      -2.491   6.846   2.516  1.00  0.00    -0.285 OA
ATOM      5  C   UNL     1      -2.982   5.547   0.651  1.00  0.00     0.111 A 
ATOM      6  C   UNL     1      -3.543   6.605  -0.104  1.00  0.00     0.134 A 
ATOM      7  C   UNL     1      -4.022   6.358  -1.399  1.00  0.00     0.093 A 
ATOM      8  C   UNL     1      -3.950   5.077  -1.953  1.00  0.00     0.123 A 
ATOM      9  C   UNL     1      -3.398   4.028  -1.211  1.00  0.00     0.094 A 
ATOM     10  C   UNL     1      -2.918   4.254   0.082  1.00  0.00     0.146 A 
ATOM     11  O   UNL     1      -2.403   3.239   0.768  1.00  0.00    -0.452 OA
ENDROOT
BRANCH   1  12
ATOM     12  C   UNL     1      -1.389   2.146   2.663  1.00  0.00     0.021 A 
ATOM     13  C   UNL     1      -0.136   1.645   2.274  1.00  0.00     0.016 A 
ATOM     14  C   UNL     1       0.380   0.489   2.867  1.00  0.00     0.047 A 
ATOM     15  C   UNL     1      -0.356  -0.188   3.847  1.00  0.00     0.115 A 
ATOM     16  C   UNL     1      -2.132   1.450   3.634  1.00  0.00     0.016 A 
ATOM     17  C   UNL     1      -1.614   0.293   4.226  1.00  0.00     0.047 A 
BRANCH  15  18
ATOM     18  O   UNL     1       0.148  -1.339   4.447  1.00  0.00    -0.508 OA
ATOM     19  H   UNL     1       0.597  -1.310   5.355  1.00  0.00     0.293 HD
ENDBRANCH  15  18
ENDBRANCH   1  12
BRANCH   2  20
ATOM     20  O   UNL     1      -1.374   4.768   3.909  1.00  0.00    -0.502 OA
ATOM     21  H   UNL     1      -0.800   5.563   4.160  1.00  0.00     0.293 HD
ENDBRANCH   2  20
BRANCH   6  22
ATOM     22  O   UNL     1      -3.628   7.895   0.420  1.00  0.00    -0.507 OA
ATOM     23  H   UNL     1      -4.283   8.578   0.054  1.00  0.00     0.293 HD
ENDBRANCH   6  22
BRANCH   8  24
ATOM     24  O   UNL     1      -4.431   4.858  -3.241  1.00  0.00    -0.508 OA
ATOM     25  H   UNL     1      -3.830   4.941  -4.053  1.00  0.00     0.293 HD
ENDBRANCH   8  24
TORSDOF 5
ENDMDL
MODEL 9
REMARK VINA RESULT:    -5.497      4.448      5.730
REMARK INTER + INTRA:          -6.701
REMARK INTER:                  -6.482
REMARK INTRA:                  -0.219
REMARK UNBOUND:                -0.240
REMARK SMILES O=c1c(O)c(-c2ccc(O)cc2)oc2cc(O)cc(O)c12
REMARK SMILES IDX 5 1 3 2 2 3 1 4 21 5 19 6 18 7 16 8 15 9 14 10 13 11 6 12
REMARK SMILES IDX 7 13 8 14 9 15 12 16 11 17 10 18 4 20 20 22 17 24
REMARK H PARENT 10 19 4 21 20 23 17 25
REMARK Flexibility Score: inf
ROOT
ATOM      1  C   UNL     1      -2.515   1.832   3.898  1.00  0.00     0.180 A 
ATOM      2  C   UNL     1      -2.014   3.125   3.650  1.00  0.00     0.208 A 
ATOM      3  C   UNL     1      -0.735   3.261   3.088  1.00  0.00     0.238 A 
ATOM      4  O   UNL     1      -0.281   4.414   2.852  1.00  0.00    -0.285 OA
ATOM      5  C   UNL     1       0.028   2.109   2.806  1.00  0.00     0.111 A 
ATOM      6  C   UNL     1       1.327   2.160   2.243  1.00  0.00     0.134 A 
ATOM      7  C   UNL     1       2.026   0.969   1.999  1.00  0.00     0.093 A 
ATOM      8  C   UNL     1       1.454  -0.268   2.305  1.00  0.00     0.123 A 
ATOM      9  C   UNL     1       0.171  -0.325   2.860  1.00  0.00     0.094 A 
ATOM     10  C   UNL     1      -0.542   0.851   3.109  1.00  0.00     0.146 A 
ATOM     11  O   UNL     1      -1.761   0.770   3.632  1.00  0.00    -0.452 OA
ENDROOT
BRANCH   1  12
ATOM     12  C   UNL     1      -3.862   1.605   4.470  1.00  0.00     0.021 A 
ATOM     13  C   UNL     1      -3.983   1.085   5.768  1.00  0.00     0.016 A 
ATOM     14  C   UNL     1      -5.244   0.841   6.320  1.00  0.00     0.047 A 
ATOM     15  C   UNL     1      -6.400   1.103   5.574  1.00  0.00     0.115 A 
ATOM     16  C   UNL     1      -5.027   1.846   3.719  1.00  0.00     0.016 A 
ATOM     17  C   UNL     1      -6.288   1.602   4.272  1.00  0.00     0.047 A 
BRANCH  15  18
ATOM     18  O   UNL     1      -7.663   0.865   6.112  1.00  0.00    -0.508 OA
ATOM     19  H   UNL     1      -7.848   0.054   6.690  1.00  0.00     0.293 HD
ENDBRANCH  15  18
ENDBRANCH   1  12
BRANCH   2  20
ATOM     20  O   UNL     1      -2.771   4.251   3.985  1.00  0.00    -0.502 OA
ATOM     21  H   UNL     1      -3.317   4.761   3.302  1.00  0.00     0.293 HD
ENDBRANCH   2  20
BRANCH   6  22
ATOM     22  O   UNL     1       1.925   3.380   1.928  1.00  0.00    -0.507 OA
ATOM     23  H   UNL     1       2.903   3.561   2.126  1.00  0.00     0.293 HD
ENDBRANCH   6  22
BRANCH   8  24
ATOM     24  O   UNL     1       2.170  -1.436   2.054  1.00  0.00    -0.508 OA
ATOM     25  H   UNL     1       2.729  -1.546   1.216  1.00  0.00     0.293 HD
ENDBRANCH   8  24
TORSDOF 5
ENDMDL
