MODEL 1
REMARK VINA RESULT:    -6.091      0.000      0.000
REMARK INTER + INTRA:          -7.123
REMARK INTER:                  -6.981
REMARK INTRA:                  -0.142
REMARK UNBOUND:                -0.142
REMARK SMILES O=C([O-])C=Cc1ccc(O)cc1
REMARK SMILES IDX 6 1 7 2 12 3 8 4 11 5 9 6 5 7 4 8 2 9 1 10 3 11 10 12
REMARK H PARENT 10 13
REMARK Flexibility Score: inf
ROOT
ATOM      1  C   UNL     1      80.551   1.269  -0.030  1.00  0.00    -0.025 A 
ATOM      2  C   UNL     1      79.739   0.174  -0.394  1.00  0.00     0.012 A 
ATOM      3  C   UNL     1      79.934   2.477   0.336  1.00  0.00     0.012 A 
ATOM      4  C   UNL     1      78.347   0.300  -0.411  1.00  0.00     0.047 A 
ATOM      5  C   UNL     1      78.541   2.599   0.317  1.00  0.00     0.047 A 
ATOM      6  C   UNL     1      77.744   1.511  -0.059  1.00  0.00     0.115 A 
ENDROOT
BRANCH   1   7
ATOM      7  C   UNL     1      82.032   1.187   0.015  1.00  0.00     0.010 C 
ATOM      8  C   UNL     1      82.846   2.072  -0.578  1.00  0.00     0.025 C 
BRANCH   8   9
ATOM      9  C   UNL     1      84.312   1.964  -0.503  1.00  0.00     0.064 C 
ATOM     10  O   UNL     1      85.034   2.151  -1.519  1.00  0.00    -0.545 OA
ATOM     11  O   UNL     1      84.913   1.652   0.710  1.00  0.00    -0.545 OA
ENDBRANCH   8   9
ENDBRANCH   1   7
BRANCH   6  12
ATOM     12  O   UNL     1      76.356   1.621  -0.082  1.00  0.00    -0.508 OA
ATOM     13  H   UNL     1      75.826   1.463  -0.931  1.00  0.00     0.293 HD
ENDBRANCH   6  12
TORSDOF 3
ENDMDL
MODEL 2
REMARK VINA RESULT:    -6.079      0.163      1.406
REMARK INTER + INTRA:          -7.110
REMARK INTER:                  -6.973
REMARK INTRA:                  -0.137
REMARK UNBOUND:                -0.142
REMARK SMILES O=C([O-])C=Cc1ccc(O)cc1
REMARK SMILES IDX 6 1 7 2 12 3 8 4 11 5 9 6 5 7 4 8 2 9 1 10 3 11 10 12
REMARK H PARENT 10 13
REMARK Flexibility Score: inf
ROOT
ATOM      1  C   UNL     1      80.654   1.407   0.010  1.00  0.00    -0.025 A 
ATOM      2  C   UNL     1      79.961   2.592   0.336  1.00  0.00     0.012 A 
ATOM      3  C   UNL     1      79.916   0.275  -0.374  1.00  0.00     0.012 A 
ATOM      4  C   UNL     1      78.564   2.627   0.299  1.00  0.00     0.047 A 
ATOM      5  C   UNL     1      78.518   0.314  -0.408  1.00  0.00     0.047 A 
ATOM      6  C   UNL     1      77.839   1.490  -0.069  1.00  0.00     0.115 A 
ENDROOT
BRANCH   1   7
ATOM      7  C   UNL     1      82.135   1.318   0.022  1.00  0.00     0.010 C 
ATOM      8  C   UNL     1      82.935   2.107  -0.709  1.00  0.00     0.025 C 
BRANCH   8   9
ATOM      9  C   UNL     1      84.403   1.996  -0.663  1.00  0.00     0.064 C 
ATOM     10  O   UNL     1      85.101   2.132  -1.704  1.00  0.00    -0.545 OA
ATOM     11  O   UNL     1      85.030   1.739   0.549  1.00  0.00    -0.545 OA
ENDBRANCH   8   9
ENDBRANCH   1   7
BRANCH   6  12
ATOM     12  O   UNL     1      76.448   1.541  -0.100  1.00  0.00    -0.508 OA
ATOM     13  H   UNL     1      75.920   2.052   0.599  1.00  0.00     0.293 HD
ENDBRANCH   6  12
TORSDOF 3
ENDMDL
MODEL 3
REMARK VINA RESULT:    -5.625      9.438     10.790
REMARK INTER + INTRA:          -6.589
REMARK INTER:                  -6.451
REMARK INTRA:                  -0.138
REMARK UNBOUND:                -0.142
REMARK SMILES O=C([O-])C=Cc1ccc(O)cc1
REMARK SMILES IDX 6 1 7 2 12 3 8 4 11 5 9 6 5 7 4 8 2 9 1 10 3 11 10 12
REMARK H PARENT 10 13
REMARK Flexibility Score: inf
ROOT
ATOM      1  C   UNL     1      71.017   0.400  -2.042  1.00  0.00    -0.025 A 
ATOM      2  C   UNL     1      70.963  -0.723  -2.893  1.00  0.00     0.012 A 
ATOM      3  C   UNL     1      70.352   1.577  -2.430  1.00  0.00     0.012 A 
ATOM      4  C   UNL     1      70.280  -0.655  -4.111  1.00  0.00     0.047 A 
ATOM      5  C   UNL     1      69.671   1.640  -3.649  1.00  0.00     0.047 A 
ATOM      6  C   UNL     1      69.636   0.524  -4.495  1.00  0.00     0.115 A 
ENDROOT
BRANCH   1   7
ATOM      7  C   UNL     1      71.718   0.380  -0.734  1.00  0.00     0.010 C 
ATOM      8  C   UNL     1      71.092   0.260   0.445  1.00  0.00     0.025 C 
BRANCH   8   9
ATOM      9  C   UNL     1      71.823   0.233   1.723  1.00  0.00     0.064 C 
ATOM     10  O   UNL     1      72.912   0.850   1.866  1.00  0.00    -0.545 OA
ATOM     11  O   UNL     1      71.302  -0.484   2.793  1.00  0.00    -0.545 OA
ENDBRANCH   8   9
ENDBRANCH   1   7
BRANCH   6  12
ATOM     12  O   UNL     1      68.961   0.575  -5.711  1.00  0.00    -0.508 OA
ATOM     13  H   UNL     1      69.436   0.403  -6.589  1.00  0.00     0.293 HD
ENDBRANCH   6  12
TORSDOF 3
ENDMDL
MODEL 4
REMARK VINA RESULT:    -5.609      9.470     10.896
REMARK INTER + INTRA:          -6.571
REMARK INTER:                  -6.436
REMARK INTRA:                  -0.135
REMARK UNBOUND:                -0.142
REMARK SMILES O=C([O-])C=Cc1ccc(O)cc1
REMARK SMILES IDX 6 1 7 2 12 3 8 4 11 5 9 6 5 7 4 8 2 9 1 10 3 11 10 12
REMARK H PARENT 10 13
REMARK Flexibility Score: inf
ROOT
ATOM      1  C   UNL     1      70.950   0.450  -2.034  1.00  0.00    -0.025 A 
ATOM      2  C   UNL     1      70.294   1.622  -2.466  1.00  0.00     0.012 A 
ATOM      3  C   UNL     1      70.950  -0.676  -2.874  1.00  0.00     0.012 A 
ATOM      4  C   UNL     1      69.636   1.649  -3.699  1.00  0.00     0.047 A 
ATOM      5  C   UNL     1      70.289  -0.644  -4.106  1.00  0.00     0.047 A 
ATOM      6  C   UNL     1      69.628   0.519  -4.521  1.00  0.00     0.115 A 
ENDROOT
BRANCH   1   7
ATOM      7  C   UNL     1      71.673   0.370  -0.740  1.00  0.00     0.010 C 
ATOM      8  C   UNL     1      71.063   0.329   0.453  1.00  0.00     0.025 C 
BRANCH   8   9
ATOM      9  C   UNL     1      71.813   0.238   1.717  1.00  0.00     0.064 C 
ATOM     10  O   UNL     1      72.891   0.870   1.883  1.00  0.00    -0.545 OA
ATOM     11  O   UNL     1      71.324  -0.555   2.746  1.00  0.00    -0.545 OA
ENDBRANCH   8   9
ENDBRANCH   1   7
BRANCH   6  12
ATOM     12  O   UNL     1      68.967   0.562  -5.745  1.00  0.00    -0.508 OA
ATOM     13  H   UNL     1      69.465   0.451  -6.621  1.00  0.00     0.293 HD
ENDBRANCH   6  12
TORSDOF 3
ENDMDL
MODEL 5
REMARK VINA RESULT:    -5.400      7.637     10.307
REMARK INTER + INTRA:          -6.331
REMARK INTER:                  -6.184
REMARK INTRA:                  -0.147
REMARK UNBOUND:                -0.142
REMARK SMILES O=C([O-])C=Cc1ccc(O)cc1
REMARK SMILES IDX 6 1 7 2 12 3 8 4 11 5 9 6 5 7 4 8 2 9 1 10 3 11 10 12
REMARK H PARENT 10 13
REMARK Flexibility Score: inf
ROOT
ATOM      1  C   UNL     1      70.927   0.314  -2.663  1.00  0.00    -0.025 A 
ATOM      2  C   UNL     1      70.613  -0.840  -3.411  1.00  0.00     0.012 A 
ATOM      3  C   UNL     1      70.333   1.536  -3.022  1.00  0.00     0.012 A 
ATOM      4  C   UNL     1      69.745  -0.760  -4.504  1.00  0.00     0.047 A 
ATOM      5  C   UNL     1      69.466   1.611  -4.117  1.00  0.00     0.047 A 
ATOM      6  C   UNL     1      69.171   0.463  -4.862  1.00  0.00     0.115 A 
ENDROOT
BRANCH   1   7
ATOM      7  C   UNL     1      71.834   0.284  -1.489  1.00  0.00     0.010 C 
ATOM      8  C   UNL     1      72.609   1.313  -1.119  1.00  0.00     0.025 C 
BRANCH   8   9
ATOM      9  C   UNL     1      73.489   1.250   0.059  1.00  0.00     0.064 C 
ATOM     10  O   UNL     1      74.709   1.554  -0.019  1.00  0.00    -0.545 OA
ATOM     11  O   UNL     1      72.965   0.851   1.282  1.00  0.00    -0.545 OA
ENDBRANCH   8   9
ENDBRANCH   1   7
BRANCH   6  12
ATOM     12  O   UNL     1      68.310   0.526  -5.953  1.00  0.00    -0.508 OA
ATOM     13  H   UNL     1      68.593   0.206  -6.872  1.00  0.00     0.293 HD
ENDBRANCH   6  12
TORSDOF 3
ENDMDL
MODEL 6
REMARK VINA RESULT:    -5.329      1.657      2.798
REMARK INTER + INTRA:          -6.250
REMARK INTER:                  -6.109
REMARK INTRA:                  -0.142
REMARK UNBOUND:                -0.142
REMARK SMILES O=C([O-])C=Cc1ccc(O)cc1
REMARK SMILES IDX 6 1 7 2 12 3 8 4 11 5 9 6 5 7 4 8 2 9 1 10 3 11 10 12
REMARK H PARENT 10 13
REMARK Flexibility Score: inf
ROOT
ATOM      1  C   UNL     1      82.525   2.407  -0.530  1.00  0.00    -0.025 A 
ATOM      2  C   UNL     1      81.920   3.660  -0.760  1.00  0.00     0.012 A 
ATOM      3  C   UNL     1      81.745   1.364  -0.003  1.00  0.00     0.012 A 
ATOM      4  C   UNL     1      80.572   3.862  -0.447  1.00  0.00     0.047 A 
ATOM      5  C   UNL     1      80.397   1.571   0.309  1.00  0.00     0.047 A 
ATOM      6  C   UNL     1      79.808   2.823   0.089  1.00  0.00     0.115 A 
ENDROOT
BRANCH   1   7
ATOM      7  C   UNL     1      83.948   2.135  -0.853  1.00  0.00     0.010 C 
ATOM      8  C   UNL     1      84.836   1.663   0.033  1.00  0.00     0.025 C 
BRANCH   8   9
ATOM      9  C   UNL     1      86.239   1.395  -0.327  1.00  0.00     0.064 C 
ATOM     10  O   UNL     1      87.124   1.251   0.557  1.00  0.00    -0.545 OA
ATOM     11  O   UNL     1      86.593   1.296  -1.667  1.00  0.00    -0.545 OA
ENDBRANCH   8   9
ENDBRANCH   1   7
BRANCH   6  12
ATOM     12  O   UNL     1      78.468   3.040   0.396  1.00  0.00    -0.508 OA
ATOM     13  H   UNL     1      78.018   3.928   0.207  1.00  0.00     0.293 HD
ENDBRANCH   6  12
TORSDOF 3
ENDMDL
MODEL 7
REMARK VINA RESULT:    -5.268      1.375      5.934
REMARK INTER + INTRA:          -6.180
REMARK INTER:                  -6.045
REMARK INTRA:                  -0.135
REMARK UNBOUND:                -0.142
REMARK SMILES O=C([O-])C=Cc1ccc(O)cc1
REMARK SMILES IDX 6 1 7 2 12 3 8 4 11 5 9 6 5 7 4 8 2 9 1 10 3 11 10 12
REMARK H PARENT 10 13
REMARK Flexibility Score: inf
ROOT
ATOM      1  C   UNL     1      82.404   1.640   0.062  1.00  0.00    -0.025 A 
ATOM      2  C   UNL     1      83.074   2.204  -1.044  1.00  0.00     0.012 A 
ATOM      3  C   UNL     1      83.166   1.144   1.134  1.00  0.00     0.012 A 
ATOM      4  C   UNL     1      84.470   2.247  -1.078  1.00  0.00     0.047 A 
ATOM      5  C   UNL     1      84.563   1.188   1.095  1.00  0.00     0.047 A 
ATOM      6  C   UNL     1      85.219   1.738  -0.014  1.00  0.00     0.115 A 
ENDROOT
BRANCH   1   7
ATOM      7  C   UNL     1      80.924   1.579   0.156  1.00  0.00     0.010 C 
ATOM      8  C   UNL     1      80.183   0.603  -0.387  1.00  0.00     0.025 C 
BRANCH   8   9
ATOM      9  C   UNL     1      78.716   0.570  -0.265  1.00  0.00     0.064 C 
ATOM     10  O   UNL     1      78.074  -0.508  -0.389  1.00  0.00    -0.545 OA
ATOM     11  O   UNL     1      78.026   1.747  -0.006  1.00  0.00    -0.545 OA
ENDBRANCH   8   9
ENDBRANCH   1   7
BRANCH   6  12
ATOM     12  O   UNL     1      86.609   1.787  -0.064  1.00  0.00    -0.508 OA
ATOM     13  H   UNL     1      87.155   2.162   0.702  1.00  0.00     0.293 HD
ENDBRANCH   6  12
TORSDOF 3
ENDMDL
MODEL 8
REMARK VINA RESULT:    -5.181      1.454      2.043
REMARK INTER + INTRA:          -6.080
REMARK INTER:                  -5.945
REMARK INTRA:                  -0.135
REMARK UNBOUND:                -0.142
REMARK SMILES O=C([O-])C=Cc1ccc(O)cc1
REMARK SMILES IDX 6 1 7 2 12 3 8 4 11 5 9 6 5 7 4 8 2 9 1 10 3 11 10 12
REMARK H PARENT 10 13
REMARK Flexibility Score: inf
ROOT
ATOM      1  C   UNL     1      82.158   1.694   0.033  1.00  0.00    -0.025 A 
ATOM      2  C   UNL     1      81.491   0.452  -0.014  1.00  0.00     0.012 A 
ATOM      3  C   UNL     1      81.395   2.873   0.070  1.00  0.00     0.012 A 
ATOM      4  C   UNL     1      80.094   0.401  -0.045  1.00  0.00     0.047 A 
ATOM      5  C   UNL     1      79.997   2.817   0.038  1.00  0.00     0.047 A 
ATOM      6  C   UNL     1      79.344   1.580  -0.022  1.00  0.00     0.115 A 
ENDROOT
BRANCH   1   7
ATOM      7  C   UNL     1      83.638   1.806   0.078  1.00  0.00     0.010 C 
ATOM      8  C   UNL     1      84.388   1.354   1.093  1.00  0.00     0.025 C 
BRANCH   8   9
ATOM      9  C   UNL     1      85.856   1.473   1.098  1.00  0.00     0.064 C 
ATOM     10  O   UNL     1      86.440   2.325   1.821  1.00  0.00    -0.545 OA
ATOM     11  O   UNL     1      86.612   0.631   0.294  1.00  0.00    -0.545 OA
ENDBRANCH   8   9
ENDBRANCH   1   7
BRANCH   6  12
ATOM     12  O   UNL     1      77.954   1.512  -0.054  1.00  0.00    -0.508 OA
ATOM     13  H   UNL     1      77.471   0.702  -0.426  1.00  0.00     0.293 HD
ENDBRANCH   6  12
TORSDOF 3
ENDMDL
MODEL 9
REMARK VINA RESULT:    -5.105      1.711      2.656
REMARK INTER + INTRA:          -5.993
REMARK INTER:                  -5.845
REMARK INTRA:                  -0.148
REMARK UNBOUND:                -0.142
REMARK SMILES O=C([O-])C=Cc1ccc(O)cc1
REMARK SMILES IDX 6 1 7 2 12 3 8 4 11 5 9 6 5 7 4 8 2 9 1 10 3 11 10 12
REMARK H PARENT 10 13
REMARK Flexibility Score: inf
ROOT
ATOM      1  C   UNL     1      82.393   1.532   0.314  1.00  0.00    -0.025 A 
ATOM      2  C   UNL     1      81.477   2.559   0.005  1.00  0.00     0.012 A 
ATOM      3  C   UNL     1      81.931   0.206   0.368  1.00  0.00     0.012 A 
ATOM      4  C   UNL     1      80.129   2.261  -0.219  1.00  0.00     0.047 A 
ATOM      5  C   UNL     1      80.582  -0.088   0.143  1.00  0.00     0.047 A 
ATOM      6  C   UNL     1      79.677   0.941  -0.149  1.00  0.00     0.115 A 
ENDROOT
BRANCH   1   7
ATOM      7  C   UNL     1      83.835   1.790   0.550  1.00  0.00     0.010 C 
ATOM      8  C   UNL     1      84.634   0.972   1.249  1.00  0.00     0.025 C 
BRANCH   8   9
ATOM      9  C   UNL     1      86.064   1.257   1.454  1.00  0.00     0.064 C 
ATOM     10  O   UNL     1      86.949   0.690   0.759  1.00  0.00    -0.545 OA
ATOM     11  O   UNL     1      86.445   2.168   2.431  1.00  0.00    -0.545 OA
ENDBRANCH   8   9
ENDBRANCH   1   7
BRANCH   6  12
ATOM     12  O   UNL     1      78.332   0.661  -0.374  1.00  0.00    -0.508 OA
ATOM     13  H   UNL     1      77.597   1.179   0.094  1.00  0.00     0.293 HD
ENDBRANCH   6  12
TORSDOF 3
ENDMDL
