MODEL 1
REMARK VINA RESULT:     4.652      0.000      0.000
REMARK INTER + INTRA:          11.371
REMARK INTER:                  12.266
REMARK INTRA:                  -0.895
REMARK UNBOUND:                -0.895
REMARK SMILES CCCCCCCCCCCCCCCCCCCCCCCCCCCCCC(=O)[O-]
REMARK SMILES IDX 16 1 17 2 18 3 19 4 20 5 21 6 22 7 23 8 24 9 25 10 26 11
REMARK SMILES IDX 27 12 28 13 29 14 30 15 31 16 32 17 15 18 14 19 13 20 12 21
REMARK SMILES IDX 11 22 10 23 9 24 8 25 7 26 6 27 5 28 4 29 3 30 2 31 1 32
REMARK H PARENT
REMARK Flexibility Score: inf
ROOT
ATOM      1  C   UNL     1       2.768  67.728  -4.981  1.00  0.00     0.000 C 
ENDROOT
BRANCH   1   2
ATOM      2  C   UNL     1       3.111  66.233  -5.128  1.00  0.00     0.000 C 
BRANCH   2   3
ATOM      3  C   UNL     1       3.154  65.732  -6.587  1.00  0.00     0.000 C 
BRANCH   3   4
ATOM      4  C   UNL     1       2.141  64.606  -6.865  1.00  0.00     0.000 C 
BRANCH   4   5
ATOM      5  C   UNL     1       2.810  63.245  -7.102  1.00  0.00     0.000 C 
BRANCH   5   6
ATOM      6  C   UNL     1       2.892  62.388  -5.830  1.00  0.00     0.000 C 
BRANCH   6   7
ATOM      7  C   UNL     1       1.946  61.181  -5.923  1.00  0.00     0.000 C 
BRANCH   7   8
ATOM      8  C   UNL     1       2.095  60.411  -7.245  1.00  0.00     0.000 C 
BRANCH   8   9
ATOM      9  C   UNL     1       1.534  58.981  -7.153  1.00  0.00     0.000 C 
BRANCH   9  10
ATOM     10  C   UNL     1      -0.000  58.949  -7.056  1.00  0.00     0.000 C 
BRANCH  10  11
ATOM     11  C   UNL     1      -0.509  59.102  -5.611  1.00  0.00     0.000 C 
BRANCH  11  12
ATOM     12  C   UNL     1      -2.028  59.335  -5.533  1.00  0.00     0.000 C 
BRANCH  12  13
ATOM     13  C   UNL     1      -2.765  59.253  -6.885  1.00  0.00     0.006 C 
BRANCH  13  14
ATOM     14  C   UNL     1      -4.297  59.293  -6.776  1.00  0.00     0.053 C 
BRANCH  14  15
ATOM     15  C   UNL     1      -4.818  60.693  -6.670  1.00  0.00     0.041 C 
ATOM     16  O   UNL     1      -5.304  61.266  -7.681  1.00  0.00    -0.550 OA
ATOM     17  O   UNL     1      -4.810  61.347  -5.445  1.00  0.00    -0.550 OA
ENDBRANCH  14  15
ENDBRANCH  13  14
ENDBRANCH  12  13
ENDBRANCH  11  12
ENDBRANCH  10  11
ENDBRANCH   9  10
ENDBRANCH   8   9
ENDBRANCH   7   8
ENDBRANCH   6   7
ENDBRANCH   5   6
ENDBRANCH   4   5
ENDBRANCH   3   4
ENDBRANCH   2   3
ENDBRANCH   1   2
BRANCH   1  18
ATOM     18  C   UNL     1       1.280  68.049  -4.741  1.00  0.00     0.000 C 
BRANCH  18  19
ATOM     19  C   UNL     1       0.397  68.040  -6.004  1.00  0.00     0.000 C 
BRANCH  19  20
ATOM     20  C   UNL     1      -0.665  69.148  -5.999  1.00  0.00     0.000 C 
BRANCH  20  21
ATOM     21  C   UNL     1      -2.030  68.598  -6.441  1.00  0.00     0.000 C 
BRANCH  21  22
ATOM     22  C   UNL     1      -3.133  69.671  -6.440  1.00  0.00     0.000 C 
BRANCH  22  23
ATOM     23  C   UNL     1      -2.808  70.939  -5.624  1.00  0.00     0.000 C 
BRANCH  23  24
ATOM     24  C   UNL     1      -3.921  72.002  -5.595  1.00  0.00    -0.000 C 
BRANCH  24  25
ATOM     25  C   UNL     1      -5.273  71.546  -6.176  1.00  0.00    -0.000 C 
BRANCH  25  26
ATOM     26  C   UNL     1      -5.383  71.711  -7.707  1.00  0.00    -0.000 C 
BRANCH  26  27
ATOM     27  C   UNL     1      -5.859  73.115  -8.120  1.00  0.00    -0.000 C 
BRANCH  27  28
ATOM     28  C   UNL     1      -5.841  74.114  -6.953  1.00  0.00    -0.000 C 
BRANCH  28  29
ATOM     29  C   UNL     1      -5.622  75.564  -7.418  1.00  0.00    -0.000 C 
BRANCH  29  30
ATOM     30  C   UNL     1      -4.137  75.911  -7.620  1.00  0.00    -0.000 C 
BRANCH  30  31
ATOM     31  C   UNL     1      -3.871  77.347  -8.108  1.00  0.00    -0.003 C 
ATOM     32  C   UNL     1      -2.407  77.764  -7.961  1.00  0.00     0.004 C 
ENDBRANCH  30  31
ENDBRANCH  29  30
ENDBRANCH  28  29
ENDBRANCH  27  28
ENDBRANCH  26  27
ENDBRANCH  25  26
ENDBRANCH  24  25
ENDBRANCH  23  24
ENDBRANCH  22  23
ENDBRANCH  21  22
ENDBRANCH  20  21
ENDBRANCH  19  20
ENDBRANCH  18  19
ENDBRANCH   1  18
TORSDOF 28
ENDMDL
MODEL 2
REMARK VINA RESULT:     5.743      1.329      1.742
REMARK INTER + INTRA:          14.248
REMARK INTER:                  15.309
REMARK INTRA:                  -1.061
REMARK UNBOUND:                -0.895
REMARK SMILES CCCCCCCCCCCCCCCCCCCCCCCCCCCCCC(=O)[O-]
REMARK SMILES IDX 16 1 17 2 18 3 19 4 20 5 21 6 22 7 23 8 24 9 25 10 26 11
REMARK SMILES IDX 27 12 28 13 29 14 30 15 31 16 32 17 15 18 14 19 13 20 12 21
REMARK SMILES IDX 11 22 10 23 9 24 8 25 7 26 6 27 5 28 4 29 3 30 2 31 1 32
REMARK H PARENT
REMARK Flexibility Score: inf
ROOT
ATOM      1  C   UNL     1       2.929  67.776  -4.400  1.00  0.00     0.000 C 
ENDROOT
BRANCH   1   2
ATOM      2  C   UNL     1       4.105  66.805  -4.626  1.00  0.00     0.000 C 
BRANCH   2   3
ATOM      3  C   UNL     1       3.987  65.954  -5.908  1.00  0.00     0.000 C 
BRANCH   3   4
ATOM      4  C   UNL     1       3.250  64.622  -5.677  1.00  0.00     0.000 C 
BRANCH   4   5
ATOM      5  C   UNL     1       2.263  64.282  -6.802  1.00  0.00     0.000 C 
BRANCH   5   6
ATOM      6  C   UNL     1       2.004  62.773  -6.936  1.00  0.00     0.000 C 
BRANCH   6   7
ATOM      7  C   UNL     1       3.326  61.992  -6.962  1.00  0.00     0.000 C 
BRANCH   7   8
ATOM      8  C   UNL     1       3.116  60.469  -6.969  1.00  0.00     0.000 C 
BRANCH   8   9
ATOM      9  C   UNL     1       2.708  59.931  -5.585  1.00  0.00     0.000 C 
BRANCH   9  10
ATOM     10  C   UNL     1       1.383  59.151  -5.618  1.00  0.00     0.000 C 
BRANCH  10  11
ATOM     11  C   UNL     1       0.334  59.798  -6.540  1.00  0.00     0.000 C 
BRANCH  11  12
ATOM     12  C   UNL     1      -0.865  58.875  -6.821  1.00  0.00     0.000 C 
BRANCH  12  13
ATOM     13  C   UNL     1      -2.233  59.586  -6.860  1.00  0.00     0.006 C 
BRANCH  13  14
ATOM     14  C   UNL     1      -3.339  58.879  -6.060  1.00  0.00     0.053 C 
BRANCH  14  15
ATOM     15  C   UNL     1      -4.615  59.664  -6.048  1.00  0.00     0.041 C 
ATOM     16  O   UNL     1      -5.691  59.128  -6.426  1.00  0.00    -0.550 OA
ATOM     17  O   UNL     1      -4.624  60.969  -5.576  1.00  0.00    -0.550 OA
ENDBRANCH  14  15
ENDBRANCH  13  14
ENDBRANCH  12  13
ENDBRANCH  11  12
ENDBRANCH  10  11
ENDBRANCH   9  10
ENDBRANCH   8   9
ENDBRANCH   7   8
ENDBRANCH   6   7
ENDBRANCH   5   6
ENDBRANCH   4   5
ENDBRANCH   3   4
ENDBRANCH   2   3
ENDBRANCH   1   2
BRANCH   1  18
ATOM     18  C   UNL     1       1.639  67.450  -5.176  1.00  0.00     0.000 C 
BRANCH  18  19
ATOM     19  C   UNL     1       0.759  68.667  -5.520  1.00  0.00     0.000 C 
BRANCH  19  20
ATOM     20  C   UNL     1      -0.141  68.429  -6.741  1.00  0.00     0.000 C 
BRANCH  20  21
ATOM     21  C   UNL     1      -1.512  69.095  -6.549  1.00  0.00     0.000 C 
BRANCH  21  22
ATOM     22  C   UNL     1      -1.472  70.263  -5.549  1.00  0.00     0.000 C 
BRANCH  22  23
ATOM     23  C   UNL     1      -2.716  71.174  -5.560  1.00  0.00     0.000 C 
BRANCH  23  24
ATOM     24  C   UNL     1      -3.947  70.611  -4.826  1.00  0.00    -0.000 C 
BRANCH  24  25
ATOM     25  C   UNL     1      -4.990  69.930  -5.732  1.00  0.00    -0.000 C 
BRANCH  25  26
ATOM     26  C   UNL     1      -4.739  70.138  -7.241  1.00  0.00    -0.000 C 
BRANCH  26  27
ATOM     27  C   UNL     1      -5.975  70.676  -7.982  1.00  0.00    -0.000 C 
BRANCH  27  28
ATOM     28  C   UNL     1      -5.960  72.206  -8.124  1.00  0.00    -0.000 C 
BRANCH  28  29
ATOM     29  C   UNL     1      -5.228  72.902  -6.963  1.00  0.00    -0.000 C 
BRANCH  29  30
ATOM     30  C   UNL     1      -5.571  74.398  -6.850  1.00  0.00    -0.000 C 
BRANCH  30  31
ATOM     31  C   UNL     1      -5.276  75.225  -8.115  1.00  0.00    -0.003 C 
ATOM     32  C   UNL     1      -5.870  76.632  -8.059  1.00  0.00     0.004 C 
ENDBRANCH  30  31
ENDBRANCH  29  30
ENDBRANCH  28  29
ENDBRANCH  27  28
ENDBRANCH  26  27
ENDBRANCH  25  26
ENDBRANCH  24  25
ENDBRANCH  23  24
ENDBRANCH  22  23
ENDBRANCH  21  22
ENDBRANCH  20  21
ENDBRANCH  19  20
ENDBRANCH  18  19
ENDBRANCH   1  18
TORSDOF 28
ENDMDL
MODEL 3
REMARK VINA RESULT:     6.225      1.299      2.681
REMARK INTER + INTRA:          15.518
REMARK INTER:                  15.210
REMARK INTRA:                   0.309
REMARK UNBOUND:                -0.895
REMARK SMILES CCCCCCCCCCCCCCCCCCCCCCCCCCCCCC(=O)[O-]
REMARK SMILES IDX 16 1 17 2 18 3 19 4 20 5 21 6 22 7 23 8 24 9 25 10 26 11
REMARK SMILES IDX 27 12 28 13 29 14 30 15 31 16 32 17 15 18 14 19 13 20 12 21
REMARK SMILES IDX 11 22 10 23 9 24 8 25 7 26 6 27 5 28 4 29 3 30 2 31 1 32
REMARK H PARENT
REMARK Flexibility Score: inf
ROOT
ATOM      1  C   UNL     1       2.853  65.399  -5.505  1.00  0.00     0.000 C 
ENDROOT
BRANCH   1   2
ATOM      2  C   UNL     1       3.539  64.052  -5.806  1.00  0.00     0.000 C 
BRANCH   2   3
ATOM      3  C   UNL     1       2.857  63.228  -6.918  1.00  0.00     0.000 C 
BRANCH   3   4
ATOM      4  C   UNL     1       2.262  61.905  -6.404  1.00  0.00     0.000 C 
BRANCH   4   5
ATOM      5  C   UNL     1       2.611  60.705  -7.296  1.00  0.00     0.000 C 
BRANCH   5   6
ATOM      6  C   UNL     1       2.606  59.370  -6.534  1.00  0.00     0.000 C 
BRANCH   6   7
ATOM      7  C   UNL     1       1.251  59.137  -5.850  1.00  0.00     0.000 C 
BRANCH   7   8
ATOM      8  C   UNL     1       0.602  60.441  -5.358  1.00  0.00     0.000 C 
BRANCH   8   9
ATOM      9  C   UNL     1      -0.459  60.192  -4.271  1.00  0.00     0.000 C 
BRANCH   9  10
ATOM     10  C   UNL     1      -1.661  59.384  -4.788  1.00  0.00     0.000 C 
BRANCH  10  11
ATOM     11  C   UNL     1      -2.850  59.393  -3.811  1.00  0.00     0.000 C 
BRANCH  11  12
ATOM     12  C   UNL     1      -4.187  59.054  -4.492  1.00  0.00     0.000 C 
BRANCH  12  13
ATOM     13  C   UNL     1      -4.113  58.909  -6.025  1.00  0.00     0.006 C 
BRANCH  13  14
ATOM     14  C   UNL     1      -3.834  60.222  -6.774  1.00  0.00     0.053 C 
BRANCH  14  15
ATOM     15  C   UNL     1      -5.050  60.736  -7.482  1.00  0.00     0.041 C 
ATOM     16  O   UNL     1      -6.123  60.075  -7.459  1.00  0.00    -0.550 OA
ATOM     17  O   UNL     1      -5.013  61.965  -8.125  1.00  0.00    -0.550 OA
ENDBRANCH  14  15
ENDBRANCH  13  14
ENDBRANCH  12  13
ENDBRANCH  11  12
ENDBRANCH  10  11
ENDBRANCH   9  10
ENDBRANCH   8   9
ENDBRANCH   7   8
ENDBRANCH   6   7
ENDBRANCH   5   6
ENDBRANCH   4   5
ENDBRANCH   3   4
ENDBRANCH   2   3
ENDBRANCH   1   2
BRANCH   1  18
ATOM     18  C   UNL     1       3.719  66.653  -5.734  1.00  0.00     0.000 C 
BRANCH  18  19
ATOM     19  C   UNL     1       3.091  67.977  -5.261  1.00  0.00     0.000 C 
BRANCH  19  20
ATOM     20  C   UNL     1       1.592  68.076  -5.578  1.00  0.00     0.000 C 
BRANCH  20  21
ATOM     21  C   UNL     1       0.774  68.286  -4.294  1.00  0.00     0.000 C 
BRANCH  21  22
ATOM     22  C   UNL     1      -0.743  68.290  -4.548  1.00  0.00     0.000 C 
BRANCH  22  23
ATOM     23  C   UNL     1      -1.174  68.866  -5.912  1.00  0.00     0.000 C 
BRANCH  23  24
ATOM     24  C   UNL     1      -2.372  69.830  -5.867  1.00  0.00    -0.000 C 
BRANCH  24  25
ATOM     25  C   UNL     1      -3.369  69.686  -7.033  1.00  0.00    -0.000 C 
BRANCH  25  26
ATOM     26  C   UNL     1      -4.843  69.890  -6.624  1.00  0.00    -0.000 C 
BRANCH  26  27
ATOM     27  C   UNL     1      -5.002  70.847  -5.430  1.00  0.00    -0.000 C 
BRANCH  27  28
ATOM     28  C   UNL     1      -6.032  71.957  -5.693  1.00  0.00    -0.000 C 
BRANCH  28  29
ATOM     29  C   UNL     1      -5.382  73.266  -6.176  1.00  0.00    -0.000 C 
BRANCH  29  30
ATOM     30  C   UNL     1      -5.538  73.489  -7.690  1.00  0.00    -0.000 C 
BRANCH  30  31
ATOM     31  C   UNL     1      -5.981  74.909  -8.090  1.00  0.00    -0.003 C 
ATOM     32  C   UNL     1      -4.824  75.909  -8.114  1.00  0.00     0.004 C 
ENDBRANCH  30  31
ENDBRANCH  29  30
ENDBRANCH  28  29
ENDBRANCH  27  28
ENDBRANCH  26  27
ENDBRANCH  25  26
ENDBRANCH  24  25
ENDBRANCH  23  24
ENDBRANCH  22  23
ENDBRANCH  21  22
ENDBRANCH  20  21
ENDBRANCH  19  20
ENDBRANCH  18  19
ENDBRANCH   1  18
TORSDOF 28
ENDMDL
MODEL 4
REMARK VINA RESULT:     6.313      4.087     10.807
REMARK INTER + INTRA:          15.750
REMARK INTER:                  18.062
REMARK INTRA:                  -2.311
REMARK UNBOUND:                -0.895
REMARK SMILES CCCCCCCCCCCCCCCCCCCCCCCCCCCCCC(=O)[O-]
REMARK SMILES IDX 16 1 17 2 18 3 19 4 20 5 21 6 22 7 23 8 24 9 25 10 26 11
REMARK SMILES IDX 27 12 28 13 29 14 30 15 31 16 32 17 15 18 14 19 13 20 12 21
REMARK SMILES IDX 11 22 10 23 9 24 8 25 7 26 6 27 5 28 4 29 3 30 2 31 1 32
REMARK H PARENT
REMARK Flexibility Score: inf
ROOT
ATOM      1  C   UNL     1      -0.876  59.639  -6.543  1.00  0.00     0.000 C 
ENDROOT
BRANCH   1   2
ATOM      2  C   UNL     1       0.495  58.968  -6.759  1.00  0.00     0.000 C 
BRANCH   2   3
ATOM      3  C   UNL     1       1.423  59.011  -5.527  1.00  0.00     0.000 C 
BRANCH   3   4
ATOM      4  C   UNL     1       2.483  60.124  -5.615  1.00  0.00     0.000 C 
BRANCH   4   5
ATOM      5  C   UNL     1       3.254  60.113  -6.942  1.00  0.00     0.000 C 
BRANCH   5   6
ATOM      6  C   UNL     1       3.352  61.503  -7.590  1.00  0.00     0.000 C 
BRANCH   6   7
ATOM      7  C   UNL     1       2.152  62.376  -7.195  1.00  0.00     0.000 C 
BRANCH   7   8
ATOM      8  C   UNL     1       2.549  63.562  -6.301  1.00  0.00     0.000 C 
BRANCH   8   9
ATOM      9  C   UNL     1       2.613  64.886  -7.082  1.00  0.00     0.000 C 
BRANCH   9  10
ATOM     10  C   UNL     1       1.289  65.668  -7.035  1.00  0.00     0.000 C 
BRANCH  10  11
ATOM     11  C   UNL     1       1.446  67.067  -6.411  1.00  0.00     0.000 C 
BRANCH  11  12
ATOM     12  C   UNL     1       0.365  68.056  -6.882  1.00  0.00     0.000 C 
BRANCH  12  13
ATOM     13  C   UNL     1      -0.827  68.219  -5.918  1.00  0.00     0.006 C 
BRANCH  13  14
ATOM     14  C   UNL     1      -1.835  69.303  -6.331  1.00  0.00     0.053 C 
BRANCH  14  15
ATOM     15  C   UNL     1      -2.321  70.097  -5.158  1.00  0.00     0.041 C 
ATOM     16  O   UNL     1      -3.504  70.529  -5.132  1.00  0.00    -0.550 OA
ATOM     17  O   UNL     1      -1.483  70.319  -4.074  1.00  0.00    -0.550 OA
ENDBRANCH  14  15
ENDBRANCH  13  14
ENDBRANCH  12  13
ENDBRANCH  11  12
ENDBRANCH  10  11
ENDBRANCH   9  10
ENDBRANCH   8   9
ENDBRANCH   7   8
ENDBRANCH   6   7
ENDBRANCH   5   6
ENDBRANCH   4   5
ENDBRANCH   3   4
ENDBRANCH   2   3
ENDBRANCH   1   2
BRANCH   1  18
ATOM     18  C   UNL     1      -2.088  58.875  -7.111  1.00  0.00     0.000 C 
BRANCH  18  19
ATOM     19  C   UNL     1      -2.988  59.690  -8.060  1.00  0.00     0.000 C 
BRANCH  19  20
ATOM     20  C   UNL     1      -3.994  60.577  -7.314  1.00  0.00     0.000 C 
BRANCH  20  21
ATOM     21  C   UNL     1      -3.303  61.361  -6.187  1.00  0.00     0.000 C 
BRANCH  21  22
ATOM     22  C   UNL     1      -4.043  61.250  -4.844  1.00  0.00     0.000 C 
BRANCH  22  23
ATOM     23  C   UNL     1      -4.861  59.956  -4.655  1.00  0.00     0.000 C 
BRANCH  23  24
ATOM     24  C   UNL     1      -4.186  58.875  -3.791  1.00  0.00    -0.000 C 
BRANCH  24  25
ATOM     25  C   UNL     1      -2.796  59.252  -3.245  1.00  0.00    -0.000 C 
BRANCH  25  26
ATOM     26  C   UNL     1      -2.656  59.079  -1.718  1.00  0.00    -0.000 C 
BRANCH  26  27
ATOM     27  C   UNL     1      -1.343  59.666  -1.170  1.00  0.00    -0.000 C 
BRANCH  27  28
ATOM     28  C   UNL     1      -0.338  60.005  -2.281  1.00  0.00    -0.000 C 
BRANCH  28  29
ATOM     29  C   UNL     1       0.550  61.212  -1.929  1.00  0.00    -0.000 C 
BRANCH  29  30
ATOM     30  C   UNL     1       0.791  61.356  -0.415  1.00  0.00    -0.000 C 
BRANCH  30  31
ATOM     31  C   UNL     1       1.472  62.672   0.006  1.00  0.00    -0.003 C 
ATOM     32  C   UNL     1       2.199  62.563   1.346  1.00  0.00     0.004 C 
ENDBRANCH  30  31
ENDBRANCH  29  30
ENDBRANCH  28  29
ENDBRANCH  27  28
ENDBRANCH  26  27
ENDBRANCH  25  26
ENDBRANCH  24  25
ENDBRANCH  23  24
ENDBRANCH  22  23
ENDBRANCH  21  22
ENDBRANCH  20  21
ENDBRANCH  19  20
ENDBRANCH  18  19
ENDBRANCH   1  18
TORSDOF 28
ENDMDL
MODEL 5
REMARK VINA RESULT:     6.998      4.133     12.304
REMARK INTER + INTRA:          17.558
REMARK INTER:                  18.594
REMARK INTRA:                  -1.036
REMARK UNBOUND:                -0.895
REMARK SMILES CCCCCCCCCCCCCCCCCCCCCCCCCCCCCC(=O)[O-]
REMARK SMILES IDX 16 1 17 2 18 3 19 4 20 5 21 6 22 7 23 8 24 9 25 10 26 11
REMARK SMILES IDX 27 12 28 13 29 14 30 15 31 16 32 17 15 18 14 19 13 20 12 21
REMARK SMILES IDX 11 22 10 23 9 24 8 25 7 26 6 27 5 28 4 29 3 30 2 31 1 32
REMARK H PARENT
REMARK Flexibility Score: inf
ROOT
ATOM      1  C   UNL     1       2.651  65.741  -5.823  1.00  0.00     0.000 C 
ENDROOT
BRANCH   1   2
ATOM      2  C   UNL     1       1.815  67.009  -6.086  1.00  0.00     0.000 C 
BRANCH   2   3
ATOM      3  C   UNL     1       0.680  66.819  -7.114  1.00  0.00     0.000 C 
BRANCH   3   4
ATOM      4  C   UNL     1      -0.149  68.097  -7.335  1.00  0.00     0.000 C 
BRANCH   4   5
ATOM      5  C   UNL     1      -0.068  69.074  -6.154  1.00  0.00     0.000 C 
BRANCH   5   6
ATOM      6  C   UNL     1      -1.434  69.663  -5.769  1.00  0.00     0.000 C 
BRANCH   6   7
ATOM      7  C   UNL     1      -2.570  68.927  -6.494  1.00  0.00     0.000 C 
BRANCH   7   8
ATOM      8  C   UNL     1      -3.709  69.868  -6.919  1.00  0.00     0.000 C 
BRANCH   8   9
ATOM      9  C   UNL     1      -4.851  69.905  -5.888  1.00  0.00     0.000 C 
BRANCH   9  10
ATOM     10  C   UNL     1      -5.913  70.968  -6.216  1.00  0.00     0.000 C 
BRANCH  10  11
ATOM     11  C   UNL     1      -5.997  71.283  -7.720  1.00  0.00     0.000 C 
BRANCH  11  12
ATOM     12  C   UNL     1      -6.122  72.789  -8.010  1.00  0.00     0.000 C 
BRANCH  12  13
ATOM     13  C   UNL     1      -4.977  73.653  -7.445  1.00  0.00     0.006 C 
BRANCH  13  14
ATOM     14  C   UNL     1      -5.420  75.025  -6.914  1.00  0.00     0.053 C 
BRANCH  14  15
ATOM     15  C   UNL     1      -4.727  76.152  -7.617  1.00  0.00     0.041 C 
ATOM     16  O   UNL     1      -3.481  76.114  -7.799  1.00  0.00    -0.550 OA
ATOM     17  O   UNL     1      -5.463  77.219  -8.113  1.00  0.00    -0.550 OA
ENDBRANCH  14  15
ENDBRANCH  13  14
ENDBRANCH  12  13
ENDBRANCH  11  12
ENDBRANCH  10  11
ENDBRANCH   9  10
ENDBRANCH   8   9
ENDBRANCH   7   8
ENDBRANCH   6   7
ENDBRANCH   5   6
ENDBRANCH   4   5
ENDBRANCH   3   4
ENDBRANCH   2   3
ENDBRANCH   1   2
BRANCH   1  18
ATOM     18  C   UNL     1       2.699  64.725  -6.979  1.00  0.00     0.000 C 
BRANCH  18  19
ATOM     19  C   UNL     1       2.207  63.308  -6.625  1.00  0.00     0.000 C 
BRANCH  19  20
ATOM     20  C   UNL     1       2.540  62.271  -7.707  1.00  0.00     0.000 C 
BRANCH  20  21
ATOM     21  C   UNL     1       2.564  60.853  -7.116  1.00  0.00     0.000 C 
BRANCH  21  22
ATOM     22  C   UNL     1       1.864  59.821  -8.016  1.00  0.00     0.000 C 
BRANCH  22  23
ATOM     23  C   UNL     1       0.762  58.992  -7.325  1.00  0.00     0.000 C 
BRANCH  23  24
ATOM     24  C   UNL     1      -0.680  59.376  -7.702  1.00  0.00    -0.000 C 
BRANCH  24  25
ATOM     25  C   UNL     1      -1.763  58.877  -6.727  1.00  0.00    -0.000 C 
BRANCH  25  26
ATOM     26  C   UNL     1      -3.185  59.370  -7.067  1.00  0.00    -0.000 C 
BRANCH  26  27
ATOM     27  C   UNL     1      -4.155  59.255  -5.878  1.00  0.00    -0.000 C 
BRANCH  27  28
ATOM     28  C   UNL     1      -3.863  60.283  -4.774  1.00  0.00    -0.000 C 
BRANCH  28  29
ATOM     29  C   UNL     1      -2.422  60.821  -4.832  1.00  0.00    -0.000 C 
BRANCH  29  30
ATOM     30  C   UNL     1      -1.641  60.584  -3.527  1.00  0.00    -0.000 C 
BRANCH  30  31
ATOM     31  C   UNL     1      -2.458  59.933  -2.396  1.00  0.00    -0.003 C 
ATOM     32  C   UNL     1      -1.622  59.640  -1.150  1.00  0.00     0.004 C 
ENDBRANCH  30  31
ENDBRANCH  29  30
ENDBRANCH  28  29
ENDBRANCH  27  28
ENDBRANCH  26  27
ENDBRANCH  25  26
ENDBRANCH  24  25
ENDBRANCH  23  24
ENDBRANCH  22  23
ENDBRANCH  21  22
ENDBRANCH  20  21
ENDBRANCH  19  20
ENDBRANCH  18  19
ENDBRANCH   1  18
TORSDOF 28
ENDMDL
MODEL 6
REMARK VINA RESULT:     7.059      2.750      3.455
REMARK INTER + INTRA:          17.718
REMARK INTER:                  18.401
REMARK INTRA:                  -0.683
REMARK UNBOUND:                -0.895
REMARK SMILES CCCCCCCCCCCCCCCCCCCCCCCCCCCCCC(=O)[O-]
REMARK SMILES IDX 16 1 17 2 18 3 19 4 20 5 21 6 22 7 23 8 24 9 25 10 26 11
REMARK SMILES IDX 27 12 28 13 29 14 30 15 31 16 32 17 15 18 14 19 13 20 12 21
REMARK SMILES IDX 11 22 10 23 9 24 8 25 7 26 6 27 5 28 4 29 3 30 2 31 1 32
REMARK H PARENT
REMARK Flexibility Score: inf
ROOT
ATOM      1  C   UNL     1       2.969  67.785  -4.287  1.00  0.00     0.000 C 
ENDROOT
BRANCH   1   2
ATOM      2  C   UNL     1       4.094  66.737  -4.411  1.00  0.00     0.000 C 
BRANCH   2   3
ATOM      3  C   UNL     1       4.037  65.896  -5.704  1.00  0.00     0.000 C 
BRANCH   3   4
ATOM      4  C   UNL     1       3.202  64.612  -5.546  1.00  0.00     0.000 C 
BRANCH   4   5
ATOM      5  C   UNL     1       2.237  64.379  -6.717  1.00  0.00     0.000 C 
BRANCH   5   6
ATOM      6  C   UNL     1       1.984  62.890  -6.997  1.00  0.00     0.000 C 
BRANCH   6   7
ATOM      7  C   UNL     1       3.308  62.141  -7.205  1.00  0.00     0.000 C 
BRANCH   7   8
ATOM      8  C   UNL     1       3.137  60.613  -7.169  1.00  0.00     0.000 C 
BRANCH   8   9
ATOM      9  C   UNL     1       3.390  60.030  -5.767  1.00  0.00     0.000 C 
BRANCH   9  10
ATOM     10  C   UNL     1       2.109  59.490  -5.109  1.00  0.00     0.000 C 
BRANCH  10  11
ATOM     11  C   UNL     1       0.883  60.384  -5.368  1.00  0.00     0.000 C 
BRANCH  11  12
ATOM     12  C   UNL     1      -0.313  60.036  -4.464  1.00  0.00     0.000 C 
BRANCH  12  13
ATOM     13  C   UNL     1      -0.326  60.760  -3.103  1.00  0.00     0.006 C 
BRANCH  13  14
ATOM     14  C   UNL     1       0.814  60.354  -2.156  1.00  0.00     0.053 C 
BRANCH  14  15
ATOM     15  C   UNL     1       0.395  60.395  -0.718  1.00  0.00     0.041 C 
ATOM     16  O   UNL     1       1.067  61.053   0.119  1.00  0.00    -0.550 OA
ATOM     17  O   UNL     1      -0.764  59.746  -0.314  1.00  0.00    -0.550 OA
ENDBRANCH  14  15
ENDBRANCH  13  14
ENDBRANCH  12  13
ENDBRANCH  11  12
ENDBRANCH  10  11
ENDBRANCH   9  10
ENDBRANCH   8   9
ENDBRANCH   7   8
ENDBRANCH   6   7
ENDBRANCH   5   6
ENDBRANCH   4   5
ENDBRANCH   3   4
ENDBRANCH   2   3
ENDBRANCH   1   2
BRANCH   1  18
ATOM     18  C   UNL     1       1.671  67.461  -5.050  1.00  0.00     0.000 C 
BRANCH  18  19
ATOM     19  C   UNL     1       0.793  68.679  -5.394  1.00  0.00     0.000 C 
BRANCH  19  20
ATOM     20  C   UNL     1      -0.086  68.453  -6.632  1.00  0.00     0.000 C 
BRANCH  20  21
ATOM     21  C   UNL     1      -1.486  69.051  -6.425  1.00  0.00     0.000 C 
BRANCH  21  22
ATOM     22  C   UNL     1      -1.488  70.237  -5.446  1.00  0.00     0.000 C 
BRANCH  22  23
ATOM     23  C   UNL     1      -2.768  71.098  -5.467  1.00  0.00     0.000 C 
BRANCH  23  24
ATOM     24  C   UNL     1      -4.005  70.448  -4.823  1.00  0.00    -0.000 C 
BRANCH  24  25
ATOM     25  C   UNL     1      -5.002  69.820  -5.816  1.00  0.00    -0.000 C 
BRANCH  25  26
ATOM     26  C   UNL     1      -4.654  70.075  -7.297  1.00  0.00    -0.000 C 
BRANCH  26  27
ATOM     27  C   UNL     1      -5.833  70.662  -8.093  1.00  0.00    -0.000 C 
BRANCH  27  28
ATOM     28  C   UNL     1      -5.841  72.198  -8.094  1.00  0.00    -0.000 C 
BRANCH  28  29
ATOM     29  C   UNL     1      -5.300  72.794  -6.782  1.00  0.00    -0.000 C 
BRANCH  29  30
ATOM     30  C   UNL     1      -5.164  74.326  -6.831  1.00  0.00    -0.000 C 
BRANCH  30  31
ATOM     31  C   UNL     1      -5.690  74.979  -8.122  1.00  0.00    -0.003 C 
ATOM     32  C   UNL     1      -5.734  76.504  -8.044  1.00  0.00     0.004 C 
ENDBRANCH  30  31
ENDBRANCH  29  30
ENDBRANCH  28  29
ENDBRANCH  27  28
ENDBRANCH  26  27
ENDBRANCH  25  26
ENDBRANCH  24  25
ENDBRANCH  23  24
ENDBRANCH  22  23
ENDBRANCH  21  22
ENDBRANCH  20  21
ENDBRANCH  19  20
ENDBRANCH  18  19
ENDBRANCH   1  18
TORSDOF 28
ENDMDL
MODEL 7
REMARK VINA RESULT:     7.574      4.162     12.704
REMARK INTER + INTRA:          19.077
REMARK INTER:                  19.274
REMARK INTRA:                  -0.197
REMARK UNBOUND:                -0.895
REMARK SMILES CCCCCCCCCCCCCCCCCCCCCCCCCCCCCC(=O)[O-]
REMARK SMILES IDX 16 1 17 2 18 3 19 4 20 5 21 6 22 7 23 8 24 9 25 10 26 11
REMARK SMILES IDX 27 12 28 13 29 14 30 15 31 16 32 17 15 18 14 19 13 20 12 21
REMARK SMILES IDX 11 22 10 23 9 24 8 25 7 26 6 27 5 28 4 29 3 30 2 31 1 32
REMARK H PARENT
REMARK Flexibility Score: inf
ROOT
ATOM      1  C   UNL     1       2.158  67.720  -4.526  1.00  0.00     0.000 C 
ENDROOT
BRANCH   1   2
ATOM      2  C   UNL     1       1.047  68.215  -5.473  1.00  0.00     0.000 C 
BRANCH   2   3
ATOM      3  C   UNL     1      -0.178  68.818  -4.752  1.00  0.00     0.000 C 
BRANCH   3   4
ATOM      4  C   UNL     1      -1.496  68.581  -5.512  1.00  0.00     0.000 C 
BRANCH   4   5
ATOM      5  C   UNL     1      -2.266  69.879  -5.792  1.00  0.00     0.000 C 
BRANCH   5   6
ATOM      6  C   UNL     1      -3.761  69.774  -5.451  1.00  0.00     0.000 C 
BRANCH   6   7
ATOM      7  C   UNL     1      -4.624  70.021  -6.696  1.00  0.00     0.000 C 
BRANCH   7   8
ATOM      8  C   UNL     1      -6.004  70.606  -6.354  1.00  0.00     0.000 C 
BRANCH   8   9
ATOM      9  C   UNL     1      -6.109  71.028  -4.878  1.00  0.00     0.000 C 
BRANCH   9  10
ATOM     10  C   UNL     1      -5.868  72.533  -4.671  1.00  0.00     0.000 C 
BRANCH  10  11
ATOM     11  C   UNL     1      -6.124  73.358  -5.944  1.00  0.00     0.000 C 
BRANCH  11  12
ATOM     12  C   UNL     1      -4.858  73.552  -6.797  1.00  0.00     0.000 C 
BRANCH  12  13
ATOM     13  C   UNL     1      -5.081  74.302  -8.125  1.00  0.00     0.006 C 
BRANCH  13  14
ATOM     14  C   UNL     1      -5.461  75.782  -7.963  1.00  0.00     0.053 C 
BRANCH  14  15
ATOM     15  C   UNL     1      -4.280  76.630  -7.602  1.00  0.00     0.041 C 
ATOM     16  O   UNL     1      -3.307  76.128  -6.978  1.00  0.00    -0.550 OA
ATOM     17  O   UNL     1      -4.234  77.960  -7.995  1.00  0.00    -0.550 OA
ENDBRANCH  14  15
ENDBRANCH  13  14
ENDBRANCH  12  13
ENDBRANCH  11  12
ENDBRANCH  10  11
ENDBRANCH   9  10
ENDBRANCH   8   9
ENDBRANCH   7   8
ENDBRANCH   6   7
ENDBRANCH   5   6
ENDBRANCH   4   5
ENDBRANCH   3   4
ENDBRANCH   2   3
ENDBRANCH   1   2
BRANCH   1  18
ATOM     18  C   UNL     1       3.376  67.072  -5.212  1.00  0.00     0.000 C 
BRANCH  18  19
ATOM     19  C   UNL     1       3.048  66.198  -6.437  1.00  0.00     0.000 C 
BRANCH  19  20
ATOM     20  C   UNL     1       2.261  64.931  -6.076  1.00  0.00     0.000 C 
BRANCH  20  21
ATOM     21  C   UNL     1       2.675  63.755  -6.973  1.00  0.00     0.000 C 
BRANCH  21  22
ATOM     22  C   UNL     1       2.916  62.457  -6.182  1.00  0.00     0.000 C 
BRANCH  22  23
ATOM     23  C   UNL     1       3.459  61.278  -7.014  1.00  0.00     0.000 C 
BRANCH  23  24
ATOM     24  C   UNL     1       3.542  59.934  -6.269  1.00  0.00    -0.000 C 
BRANCH  24  25
ATOM     25  C   UNL     1       2.189  59.366  -5.799  1.00  0.00    -0.000 C 
BRANCH  25  26
ATOM     26  C   UNL     1       1.063  60.418  -5.718  1.00  0.00    -0.000 C 
BRANCH  26  27
ATOM     27  C   UNL     1      -0.275  59.822  -5.248  1.00  0.00    -0.000 C 
BRANCH  27  28
ATOM     28  C   UNL     1      -0.726  60.379  -3.889  1.00  0.00    -0.000 C 
BRANCH  28  29
ATOM     29  C   UNL     1      -2.209  60.090  -3.593  1.00  0.00    -0.000 C 
BRANCH  29  30
ATOM     30  C   UNL     1      -3.163  60.772  -4.589  1.00  0.00    -0.000 C 
BRANCH  30  31
ATOM     31  C   UNL     1      -3.987  59.805  -5.458  1.00  0.00    -0.003 C 
ATOM     32  C   UNL     1      -3.318  59.487  -6.794  1.00  0.00     0.004 C 
ENDBRANCH  30  31
ENDBRANCH  29  30
ENDBRANCH  28  29
ENDBRANCH  27  28
ENDBRANCH  26  27
ENDBRANCH  25  26
ENDBRANCH  24  25
ENDBRANCH  23  24
ENDBRANCH  22  23
ENDBRANCH  21  22
ENDBRANCH  20  21
ENDBRANCH  19  20
ENDBRANCH  18  19
ENDBRANCH   1  18
TORSDOF 28
ENDMDL
MODEL 8
REMARK VINA RESULT:     7.648      1.768      3.034
REMARK INTER + INTRA:          19.273
REMARK INTER:                  17.039
REMARK INTRA:                   2.233
REMARK UNBOUND:                -0.895
REMARK SMILES CCCCCCCCCCCCCCCCCCCCCCCCCCCCCC(=O)[O-]
REMARK SMILES IDX 16 1 17 2 18 3 19 4 20 5 21 6 22 7 23 8 24 9 25 10 26 11
REMARK SMILES IDX 27 12 28 13 29 14 30 15 31 16 32 17 15 18 14 19 13 20 12 21
REMARK SMILES IDX 11 22 10 23 9 24 8 25 7 26 6 27 5 28 4 29 3 30 2 31 1 32
REMARK H PARENT
REMARK Flexibility Score: inf
ROOT
ATOM      1  C   UNL     1       2.837  67.428  -4.458  1.00  0.00     0.000 C 
ENDROOT
BRANCH   1   2
ATOM      2  C   UNL     1       3.730  66.375  -5.145  1.00  0.00     0.000 C 
BRANCH   2   3
ATOM      3  C   UNL     1       2.961  65.371  -6.028  1.00  0.00     0.000 C 
BRANCH   3   4
ATOM      4  C   UNL     1       3.230  63.905  -5.643  1.00  0.00     0.000 C 
BRANCH   4   5
ATOM      5  C   UNL     1       2.492  62.904  -6.543  1.00  0.00     0.000 C 
BRANCH   5   6
ATOM      6  C   UNL     1       2.440  61.488  -5.948  1.00  0.00     0.000 C 
BRANCH   6   7
ATOM      7  C   UNL     1       2.205  60.442  -7.047  1.00  0.00     0.000 C 
BRANCH   7   8
ATOM      8  C   UNL     1       1.419  59.220  -6.544  1.00  0.00     0.000 C 
BRANCH   8   9
ATOM      9  C   UNL     1       0.035  59.604  -5.990  1.00  0.00     0.000 C 
BRANCH   9  10
ATOM     10  C   UNL     1       0.089  60.061  -4.522  1.00  0.00     0.000 C 
BRANCH  10  11
ATOM     11  C   UNL     1      -1.262  60.598  -4.015  1.00  0.00     0.000 C 
BRANCH  11  12
ATOM     12  C   UNL     1      -2.345  59.508  -3.929  1.00  0.00     0.000 C 
BRANCH  12  13
ATOM     13  C   UNL     1      -3.786  60.009  -4.150  1.00  0.00     0.006 C 
BRANCH  13  14
ATOM     14  C   UNL     1      -3.928  61.071  -5.252  1.00  0.00     0.053 C 
BRANCH  14  15
ATOM     15  C   UNL     1      -3.991  60.460  -6.618  1.00  0.00     0.041 C 
ATOM     16  O   UNL     1      -4.492  61.105  -7.578  1.00  0.00    -0.550 OA
ATOM     17  O   UNL     1      -3.456  59.199  -6.841  1.00  0.00    -0.550 OA
ENDBRANCH  14  15
ENDBRANCH  13  14
ENDBRANCH  12  13
ENDBRANCH  11  12
ENDBRANCH  10  11
ENDBRANCH   9  10
ENDBRANCH   8   9
ENDBRANCH   7   8
ENDBRANCH   6   7
ENDBRANCH   5   6
ENDBRANCH   4   5
ENDBRANCH   3   4
ENDBRANCH   2   3
ENDBRANCH   1   2
BRANCH   1  18
ATOM     18  C   UNL     1       2.059  68.360  -5.406  1.00  0.00     0.000 C 
BRANCH  18  19
ATOM     19  C   UNL     1       0.541  68.109  -5.469  1.00  0.00     0.000 C 
BRANCH  19  20
ATOM     20  C   UNL     1      -0.119  68.735  -6.706  1.00  0.00     0.000 C 
BRANCH  20  21
ATOM     21  C   UNL     1      -1.417  69.462  -6.325  1.00  0.00     0.000 C 
BRANCH  21  22
ATOM     22  C   UNL     1      -2.649  68.909  -7.063  1.00  0.00     0.000 C 
BRANCH  22  23
ATOM     23  C   UNL     1      -4.007  69.288  -6.439  1.00  0.00     0.000 C 
BRANCH  23  24
ATOM     24  C   UNL     1      -5.151  69.510  -7.445  1.00  0.00    -0.000 C 
BRANCH  24  25
ATOM     25  C   UNL     1      -5.319  70.963  -7.930  1.00  0.00    -0.000 C 
BRANCH  25  26
ATOM     26  C   UNL     1      -6.116  71.858  -6.958  1.00  0.00    -0.000 C 
BRANCH  26  27
ATOM     27  C   UNL     1      -5.414  73.196  -6.669  1.00  0.00    -0.000 C 
BRANCH  27  28
ATOM     28  C   UNL     1      -4.074  73.015  -5.938  1.00  0.00    -0.000 C 
BRANCH  28  29
ATOM     29  C   UNL     1      -3.969  71.657  -5.223  1.00  0.00    -0.000 C 
BRANCH  29  30
ATOM     30  C   UNL     1      -2.875  71.633  -4.140  1.00  0.00    -0.000 C 
BRANCH  30  31
ATOM     31  C   UNL     1      -1.899  70.446  -4.237  1.00  0.00    -0.003 C 
ATOM     32  C   UNL     1      -1.258  70.091  -2.896  1.00  0.00     0.004 C 
ENDBRANCH  30  31
ENDBRANCH  29  30
ENDBRANCH  28  29
ENDBRANCH  27  28
ENDBRANCH  26  27
ENDBRANCH  25  26
ENDBRANCH  24  25
ENDBRANCH  23  24
ENDBRANCH  22  23
ENDBRANCH  21  22
ENDBRANCH  20  21
ENDBRANCH  19  20
ENDBRANCH  18  19
ENDBRANCH   1  18
TORSDOF 28
ENDMDL
