MODEL 1
REMARK VINA RESULT:    -5.637      0.000      0.000
REMARK INTER + INTRA:         -14.362
REMARK INTER:                 -12.229
REMARK INTRA:                  -2.133
REMARK UNBOUND:                -2.133
REMARK SMILES CCCCCCCCCCCCCCCCCCCCCC(=O)[O-]
REMARK SMILES IDX 12 1 11 2 10 3 9 4 8 5 7 6 6 7 5 8 4 9 3 10 2 11 1 12 13 13
REMARK SMILES IDX 14 14 15 15 16 16 17 17 18 18 19 19 20 20 21 21 22 22 23 23
REMARK SMILES IDX 24 24
REMARK H PARENT
REMARK Flexibility Score: inf
ROOT
ATOM      1  C   UNL     1      19.168 -44.594 -25.246  1.00  0.00     0.000 C 
ENDROOT
BRANCH   1   2
ATOM      2  C   UNL     1      19.918 -43.260 -25.401  1.00  0.00     0.000 C 
BRANCH   2   3
ATOM      3  C   UNL     1      19.585 -42.204 -24.327  1.00  0.00     0.000 C 
BRANCH   3   4
ATOM      4  C   UNL     1      18.320 -41.365 -24.601  1.00  0.00    -0.000 C 
BRANCH   4   5
ATOM      5  C   UNL     1      17.381 -41.176 -23.395  1.00  0.00    -0.000 C 
BRANCH   5   6
ATOM      6  C   UNL     1      16.063 -41.955 -23.535  1.00  0.00    -0.000 C 
BRANCH   6   7
ATOM      7  C   UNL     1      16.170 -43.412 -23.047  1.00  0.00    -0.000 C 
BRANCH   7   8
ATOM      8  C   UNL     1      17.111 -43.640 -21.848  1.00  0.00    -0.000 C 
BRANCH   8   9
ATOM      9  C   UNL     1      17.626 -45.086 -21.758  1.00  0.00    -0.000 C 
BRANCH   9  10
ATOM     10  C   UNL     1      16.888 -46.046 -22.710  1.00  0.00    -0.000 C 
BRANCH  10  11
ATOM     11  C   UNL     1      17.703 -47.271 -23.162  1.00  0.00    -0.003 C 
ATOM     12  C   UNL     1      18.636 -47.805 -22.075  1.00  0.00     0.004 C 
ENDBRANCH  10  11
ENDBRANCH   9  10
ENDBRANCH   8   9
ENDBRANCH   7   8
ENDBRANCH   6   7
ENDBRANCH   5   6
ENDBRANCH   4   5
ENDBRANCH   3   4
ENDBRANCH   2   3
ENDBRANCH   1   2
BRANCH   1  13
ATOM     13  C   UNL     1      17.920 -44.682 -26.143  1.00  0.00     0.000 C 
BRANCH  13  14
ATOM     14  C   UNL     1      17.956 -45.898 -27.080  1.00  0.00     0.000 C 
BRANCH  14  15
ATOM     15  C   UNL     1      17.353 -45.593 -28.462  1.00  0.00     0.000 C 
BRANCH  15  16
ATOM     16  C   UNL     1      17.389 -46.804 -29.411  1.00  0.00     0.000 C 
BRANCH  16  17
ATOM     17  C   UNL     1      18.706 -46.984 -30.187  1.00  0.00     0.000 C 
BRANCH  17  18
ATOM     18  C   UNL     1      18.490 -47.145 -31.703  1.00  0.00     0.000 C 
BRANCH  18  19
ATOM     19  C   UNL     1      19.595 -47.974 -32.377  1.00  0.00     0.000 C 
BRANCH  19  20
ATOM     20  C   UNL     1      19.564 -49.454 -31.968  1.00  0.00     0.006 C 
BRANCH  20  21
ATOM     21  C   UNL     1      20.284 -50.324 -33.003  1.00  0.00     0.053 C 
BRANCH  21  22
ATOM     22  C   UNL     1      20.489 -51.707 -32.473  1.00  0.00     0.041 C 
ATOM     23  O   UNL     1      21.445 -51.950 -31.690  1.00  0.00    -0.550 OA
ATOM     24  O   UNL     1      19.590 -52.716 -32.794  1.00  0.00    -0.550 OA
ENDBRANCH  21  22
ENDBRANCH  20  21
ENDBRANCH  19  20
ENDBRANCH  18  19
ENDBRANCH  17  18
ENDBRANCH  16  17
ENDBRANCH  15  16
ENDBRANCH  14  15
ENDBRANCH  13  14
ENDBRANCH   1  13
TORSDOF 20
ENDMDL
MODEL 2
REMARK VINA RESULT:    -5.547      1.935      4.271
REMARK INTER + INTRA:         -14.167
REMARK INTER:                 -11.249
REMARK INTRA:                  -2.918
REMARK UNBOUND:                -2.133
REMARK SMILES CCCCCCCCCCCCCCCCCCCCCC(=O)[O-]
REMARK SMILES IDX 12 1 11 2 10 3 9 4 8 5 7 6 6 7 5 8 4 9 3 10 2 11 1 12 13 13
REMARK SMILES IDX 14 14 15 15 16 16 17 17 18 18 19 19 20 20 21 21 22 22 23 23
REMARK SMILES IDX 24 24
REMARK H PARENT
REMARK Flexibility Score: inf
ROOT
ATOM      1  C   UNL     1      17.588 -45.446 -21.981  1.00  0.00     0.000 C 
ENDROOT
BRANCH   1   2
ATOM      2  C   UNL     1      18.585 -46.617 -22.001  1.00  0.00     0.000 C 
BRANCH   2   3
ATOM      3  C   UNL     1      20.029 -46.244 -21.609  1.00  0.00     0.000 C 
BRANCH   3   4
ATOM      4  C   UNL     1      20.429 -44.781 -21.891  1.00  0.00    -0.000 C 
BRANCH   4   5
ATOM      5  C   UNL     1      21.008 -44.516 -23.293  1.00  0.00    -0.000 C 
BRANCH   5   6
ATOM      6  C   UNL     1      20.861 -43.051 -23.735  1.00  0.00    -0.000 C 
BRANCH   6   7
ATOM      7  C   UNL     1      19.552 -42.405 -23.244  1.00  0.00    -0.000 C 
BRANCH   7   8
ATOM      8  C   UNL     1      18.748 -41.642 -24.314  1.00  0.00    -0.000 C 
BRANCH   8   9
ATOM      9  C   UNL     1      17.276 -41.430 -23.921  1.00  0.00    -0.000 C 
BRANCH   9  10
ATOM     10  C   UNL     1      17.026 -41.616 -22.413  1.00  0.00    -0.000 C 
BRANCH  10  11
ATOM     11  C   UNL     1      15.547 -41.753 -22.010  1.00  0.00    -0.003 C 
ATOM     12  C   UNL     1      14.672 -42.327 -23.123  1.00  0.00     0.004 C 
ENDBRANCH  10  11
ENDBRANCH   9  10
ENDBRANCH   8   9
ENDBRANCH   7   8
ENDBRANCH   6   7
ENDBRANCH   5   6
ENDBRANCH   4   5
ENDBRANCH   3   4
ENDBRANCH   2   3
ENDBRANCH   1   2
BRANCH   1  13
ATOM     13  C   UNL     1      16.970 -45.168 -23.363  1.00  0.00     0.000 C 
BRANCH  13  14
ATOM     14  C   UNL     1      17.697 -45.916 -24.490  1.00  0.00     0.000 C 
BRANCH  14  15
ATOM     15  C   UNL     1      18.020 -45.004 -25.686  1.00  0.00     0.000 C 
BRANCH  15  16
ATOM     16  C   UNL     1      18.242 -45.787 -26.993  1.00  0.00     0.000 C 
BRANCH  16  17
ATOM     17  C   UNL     1      17.599 -45.160 -28.244  1.00  0.00     0.000 C 
BRANCH  17  18
ATOM     18  C   UNL     1      16.953 -46.205 -29.172  1.00  0.00     0.000 C 
BRANCH  18  19
ATOM     19  C   UNL     1      17.667 -47.565 -29.123  1.00  0.00     0.000 C 
BRANCH  19  20
ATOM     20  C   UNL     1      18.101 -48.063 -30.510  1.00  0.00     0.006 C 
BRANCH  20  21
ATOM     21  C   UNL     1      18.691 -46.921 -31.342  1.00  0.00     0.053 C 
BRANCH  21  22
ATOM     22  C   UNL     1      19.457 -47.463 -32.507  1.00  0.00     0.041 C 
ATOM     23  O   UNL     1      19.972 -48.611 -32.446  1.00  0.00    -0.550 OA
ATOM     24  O   UNL     1      19.552 -46.728 -33.681  1.00  0.00    -0.550 OA
ENDBRANCH  21  22
ENDBRANCH  20  21
ENDBRANCH  19  20
ENDBRANCH  18  19
ENDBRANCH  17  18
ENDBRANCH  16  17
ENDBRANCH  15  16
ENDBRANCH  14  15
ENDBRANCH  13  14
ENDBRANCH   1  13
TORSDOF 20
ENDMDL
MODEL 3
REMARK VINA RESULT:    -5.527      1.249      2.316
REMARK INTER + INTRA:         -14.122
REMARK INTER:                 -12.051
REMARK INTRA:                  -2.071
REMARK UNBOUND:                -2.133
REMARK SMILES CCCCCCCCCCCCCCCCCCCCCC(=O)[O-]
REMARK SMILES IDX 12 1 11 2 10 3 9 4 8 5 7 6 6 7 5 8 4 9 3 10 2 11 1 12 13 13
REMARK SMILES IDX 14 14 15 15 16 16 17 17 18 18 19 19 20 20 21 21 22 22 23 23
REMARK SMILES IDX 24 24
REMARK H PARENT
REMARK Flexibility Score: inf
ROOT
ATOM      1  C   UNL     1      18.214 -45.521 -27.062  1.00  0.00     0.000 C 
ENDROOT
BRANCH   1   2
ATOM      2  C   UNL     1      18.101 -44.338 -26.085  1.00  0.00     0.000 C 
BRANCH   2   3
ATOM      3  C   UNL     1      19.319 -44.147 -25.159  1.00  0.00     0.000 C 
BRANCH   3   4
ATOM      4  C   UNL     1      19.703 -42.681 -24.872  1.00  0.00    -0.000 C 
BRANCH   4   5
ATOM      5  C   UNL     1      19.962 -42.346 -23.392  1.00  0.00    -0.000 C 
BRANCH   5   6
ATOM      6  C   UNL     1      18.713 -41.809 -22.672  1.00  0.00    -0.000 C 
BRANCH   6   7
ATOM      7  C   UNL     1      17.635 -41.294 -23.644  1.00  0.00    -0.000 C 
BRANCH   7   8
ATOM      8  C   UNL     1      16.273 -42.009 -23.561  1.00  0.00    -0.000 C 
BRANCH   8   9
ATOM      9  C   UNL     1      16.284 -43.210 -22.600  1.00  0.00    -0.000 C 
BRANCH   9  10
ATOM     10  C   UNL     1      15.897 -44.532 -23.289  1.00  0.00    -0.000 C 
BRANCH  10  11
ATOM     11  C   UNL     1      16.674 -45.770 -22.805  1.00  0.00    -0.003 C 
ATOM     12  C   UNL     1      17.846 -45.423 -21.889  1.00  0.00     0.004 C 
ENDBRANCH  10  11
ENDBRANCH   9  10
ENDBRANCH   8   9
ENDBRANCH   7   8
ENDBRANCH   6   7
ENDBRANCH   5   6
ENDBRANCH   4   5
ENDBRANCH   3   4
ENDBRANCH   2   3
ENDBRANCH   1   2
BRANCH   1  13
ATOM     13  C   UNL     1      17.260 -45.392 -28.264  1.00  0.00     0.000 C 
BRANCH  13  14
ATOM     14  C   UNL     1      17.777 -46.137 -29.503  1.00  0.00     0.000 C 
BRANCH  14  15
ATOM     15  C   UNL     1      17.251 -47.581 -29.581  1.00  0.00     0.000 C 
BRANCH  15  16
ATOM     16  C   UNL     1      18.000 -48.434 -30.621  1.00  0.00     0.000 C 
BRANCH  16  17
ATOM     17  C   UNL     1      19.260 -47.779 -31.215  1.00  0.00     0.000 C 
BRANCH  17  18
ATOM     18  C   UNL     1      19.884 -48.606 -32.354  1.00  0.00     0.000 C 
BRANCH  18  19
ATOM     19  C   UNL     1      19.594 -50.110 -32.223  1.00  0.00     0.000 C 
BRANCH  19  20
ATOM     20  C   UNL     1      20.634 -50.983 -32.943  1.00  0.00     0.006 C 
BRANCH  20  21
ATOM     21  C   UNL     1      20.317 -52.471 -32.765  1.00  0.00     0.053 C 
BRANCH  21  22
ATOM     22  C   UNL     1      20.990 -53.280 -33.828  1.00  0.00     0.041 C 
ATOM     23  O   UNL     1      21.715 -52.716 -34.690  1.00  0.00    -0.550 OA
ATOM     24  O   UNL     1      20.868 -54.663 -33.831  1.00  0.00    -0.550 OA
ENDBRANCH  21  22
ENDBRANCH  20  21
ENDBRANCH  19  20
ENDBRANCH  18  19
ENDBRANCH  17  18
ENDBRANCH  16  17
ENDBRANCH  15  16
ENDBRANCH  14  15
ENDBRANCH  13  14
ENDBRANCH   1  13
TORSDOF 20
ENDMDL
MODEL 4
REMARK VINA RESULT:    -5.499      4.546      8.786
REMARK INTER + INTRA:         -14.061
REMARK INTER:                 -11.408
REMARK INTRA:                  -2.653
REMARK UNBOUND:                -2.133
REMARK SMILES CCCCCCCCCCCCCCCCCCCCCC(=O)[O-]
REMARK SMILES IDX 12 1 11 2 10 3 9 4 8 5 7 6 6 7 5 8 4 9 3 10 2 11 1 12 13 13
REMARK SMILES IDX 14 14 15 15 16 16 17 17 18 18 19 19 20 20 21 21 22 22 23 23
REMARK SMILES IDX 24 24
REMARK H PARENT
REMARK Flexibility Score: inf
ROOT
ATOM      1  C   UNL     1      19.460 -45.825 -21.596  1.00  0.00     0.000 C 
ENDROOT
BRANCH   1   2
ATOM      2  C   UNL     1      18.954 -47.226 -21.981  1.00  0.00     0.000 C 
BRANCH   2   3
ATOM      3  C   UNL     1      17.872 -47.242 -23.079  1.00  0.00     0.000 C 
BRANCH   3   4
ATOM      4  C   UNL     1      17.081 -45.927 -23.242  1.00  0.00    -0.000 C 
BRANCH   4   5
ATOM      5  C   UNL     1      17.552 -45.015 -24.390  1.00  0.00    -0.000 C 
BRANCH   5   6
ATOM      6  C   UNL     1      18.135 -45.799 -25.577  1.00  0.00    -0.000 C 
BRANCH   6   7
ATOM      7  C   UNL     1      18.244 -44.952 -26.860  1.00  0.00    -0.000 C 
BRANCH   7   8
ATOM      8  C   UNL     1      17.276 -45.340 -27.993  1.00  0.00    -0.000 C 
BRANCH   8   9
ATOM      9  C   UNL     1      17.989 -45.969 -29.202  1.00  0.00    -0.000 C 
BRANCH   9  10
ATOM     10  C   UNL     1      17.502 -47.397 -29.508  1.00  0.00    -0.000 C 
BRANCH  10  11
ATOM     11  C   UNL     1      18.225 -48.097 -30.673  1.00  0.00    -0.003 C 
ATOM     12  C   UNL     1      19.138 -47.160 -31.463  1.00  0.00     0.004 C 
ENDBRANCH  10  11
ENDBRANCH   9  10
ENDBRANCH   8   9
ENDBRANCH   7   8
ENDBRANCH   6   7
ENDBRANCH   5   6
ENDBRANCH   4   5
ENDBRANCH   3   4
ENDBRANCH   2   3
ENDBRANCH   1   2
BRANCH   1  13
ATOM     13  C   UNL     1      20.951 -45.622 -21.921  1.00  0.00     0.000 C 
BRANCH  13  14
ATOM     14  C   UNL     1      21.265 -45.866 -23.404  1.00  0.00     0.000 C 
BRANCH  14  15
ATOM     15  C   UNL     1      21.352 -44.557 -24.209  1.00  0.00     0.000 C 
BRANCH  15  16
ATOM     16  C   UNL     1      21.392 -43.306 -23.312  1.00  0.00     0.000 C 
BRANCH  16  17
ATOM     17  C   UNL     1      20.950 -42.000 -23.998  1.00  0.00     0.000 C 
BRANCH  17  18
ATOM     18  C   UNL     1      19.786 -42.207 -24.984  1.00  0.00     0.000 C 
BRANCH  18  19
ATOM     19  C   UNL     1      18.584 -41.297 -24.685  1.00  0.00     0.000 C 
BRANCH  19  20
ATOM     20  C   UNL     1      17.849 -41.684 -23.393  1.00  0.00     0.006 C 
BRANCH  20  21
ATOM     21  C   UNL     1      16.419 -41.135 -23.391  1.00  0.00     0.053 C 
BRANCH  21  22
ATOM     22  C   UNL     1      15.534 -41.982 -22.533  1.00  0.00     0.041 C 
ATOM     23  O   UNL     1      15.338 -41.675 -21.327  1.00  0.00    -0.550 OA
ATOM     24  O   UNL     1      14.877 -43.077 -23.079  1.00  0.00    -0.550 OA
ENDBRANCH  21  22
ENDBRANCH  20  21
ENDBRANCH  19  20
ENDBRANCH  18  19
ENDBRANCH  17  18
ENDBRANCH  16  17
ENDBRANCH  15  16
ENDBRANCH  14  15
ENDBRANCH  13  14
ENDBRANCH   1  13
TORSDOF 20
ENDMDL
MODEL 5
REMARK VINA RESULT:    -5.458      2.166      4.873
REMARK INTER + INTRA:         -13.972
REMARK INTER:                 -10.888
REMARK INTRA:                  -3.084
REMARK UNBOUND:                -2.133
REMARK SMILES CCCCCCCCCCCCCCCCCCCCCC(=O)[O-]
REMARK SMILES IDX 12 1 11 2 10 3 9 4 8 5 7 6 6 7 5 8 4 9 3 10 2 11 1 12 13 13
REMARK SMILES IDX 14 14 15 15 16 16 17 17 18 18 19 19 20 20 21 21 22 22 23 23
REMARK SMILES IDX 24 24
REMARK H PARENT
REMARK Flexibility Score: inf
ROOT
ATOM      1  C   UNL     1      19.819 -47.238 -21.672  1.00  0.00     0.000 C 
ENDROOT
BRANCH   1   2
ATOM      2  C   UNL     1      20.132 -45.745 -21.468  1.00  0.00     0.000 C 
BRANCH   2   3
ATOM      3  C   UNL     1      20.924 -45.088 -22.617  1.00  0.00     0.000 C 
BRANCH   3   4
ATOM      4  C   UNL     1      20.562 -43.617 -22.908  1.00  0.00    -0.000 C 
BRANCH   4   5
ATOM      5  C   UNL     1      20.918 -43.119 -24.320  1.00  0.00    -0.000 C 
BRANCH   5   6
ATOM      6  C   UNL     1      19.917 -42.085 -24.861  1.00  0.00    -0.000 C 
BRANCH   6   7
ATOM      7  C   UNL     1      18.909 -41.612 -23.797  1.00  0.00    -0.000 C 
BRANCH   7   8
ATOM      8  C   UNL     1      17.431 -41.627 -24.232  1.00  0.00    -0.000 C 
BRANCH   8   9
ATOM      9  C   UNL     1      16.501 -40.935 -23.221  1.00  0.00    -0.000 C 
BRANCH   9  10
ATOM     10  C   UNL     1      15.772 -41.930 -22.299  1.00  0.00    -0.000 C 
BRANCH  10  11
ATOM     11  C   UNL     1      16.265 -41.950 -20.841  1.00  0.00    -0.003 C 
ATOM     12  C   UNL     1      17.558 -42.741 -20.656  1.00  0.00     0.004 C 
ENDBRANCH  10  11
ENDBRANCH   9  10
ENDBRANCH   8   9
ENDBRANCH   7   8
ENDBRANCH   6   7
ENDBRANCH   5   6
ENDBRANCH   4   5
ENDBRANCH   3   4
ENDBRANCH   2   3
ENDBRANCH   1   2
BRANCH   1  13
ATOM     13  C   UNL     1      18.367 -47.484 -22.120  1.00  0.00     0.000 C 
BRANCH  13  14
ATOM     14  C   UNL     1      17.471 -46.256 -21.905  1.00  0.00     0.000 C 
BRANCH  14  15
ATOM     15  C   UNL     1      16.629 -45.918 -23.147  1.00  0.00     0.000 C 
BRANCH  15  16
ATOM     16  C   UNL     1      17.365 -44.996 -24.136  1.00  0.00     0.000 C 
BRANCH  16  17
ATOM     17  C   UNL     1      18.271 -45.720 -25.149  1.00  0.00     0.000 C 
BRANCH  17  18
ATOM     18  C   UNL     1      18.342 -45.000 -26.508  1.00  0.00     0.000 C 
BRANCH  18  19
ATOM     19  C   UNL     1      17.363 -45.581 -27.541  1.00  0.00     0.000 C 
BRANCH  19  20
ATOM     20  C   UNL     1      18.010 -45.810 -28.915  1.00  0.00     0.006 C 
BRANCH  20  21
ATOM     21  C   UNL     1      17.543 -47.135 -29.526  1.00  0.00     0.053 C 
BRANCH  21  22
ATOM     22  C   UNL     1      18.445 -47.541 -30.648  1.00  0.00     0.041 C 
ATOM     23  O   UNL     1      18.443 -48.729 -31.064  1.00  0.00    -0.550 OA
ATOM     24  O   UNL     1      19.244 -46.594 -31.276  1.00  0.00    -0.550 OA
ENDBRANCH  21  22
ENDBRANCH  20  21
ENDBRANCH  19  20
ENDBRANCH  18  19
ENDBRANCH  17  18
ENDBRANCH  16  17
ENDBRANCH  15  16
ENDBRANCH  14  15
ENDBRANCH  13  14
ENDBRANCH   1  13
TORSDOF 20
ENDMDL
MODEL 6
REMARK VINA RESULT:    -5.451      3.405      9.528
REMARK INTER + INTRA:         -13.957
REMARK INTER:                 -11.896
REMARK INTRA:                  -2.061
REMARK UNBOUND:                -2.133
REMARK SMILES CCCCCCCCCCCCCCCCCCCCCC(=O)[O-]
REMARK SMILES IDX 12 1 11 2 10 3 9 4 8 5 7 6 6 7 5 8 4 9 3 10 2 11 1 12 13 13
REMARK SMILES IDX 14 14 15 15 16 16 17 17 18 18 19 19 20 20 21 21 22 22 23 23
REMARK SMILES IDX 24 24
REMARK H PARENT
REMARK Flexibility Score: inf
ROOT
ATOM      1  C   UNL     1      18.091 -44.939 -25.533  1.00  0.00     0.000 C 
ENDROOT
BRANCH   1   2
ATOM      2  C   UNL     1      18.018 -45.809 -26.800  1.00  0.00     0.000 C 
BRANCH   2   3
ATOM      3  C   UNL     1      17.323 -45.141 -28.004  1.00  0.00     0.000 C 
BRANCH   3   4
ATOM      4  C   UNL     1      17.649 -45.762 -29.378  1.00  0.00    -0.000 C 
BRANCH   4   5
ATOM      5  C   UNL     1      18.141 -47.221 -29.340  1.00  0.00    -0.000 C 
BRANCH   5   6
ATOM      6  C   UNL     1      18.129 -47.893 -30.723  1.00  0.00    -0.000 C 
BRANCH   6   7
ATOM      7  C   UNL     1      19.160 -47.288 -31.694  1.00  0.00    -0.000 C 
BRANCH   7   8
ATOM      8  C   UNL     1      19.865 -48.294 -32.624  1.00  0.00    -0.000 C 
BRANCH   8   9
ATOM      9  C   UNL     1      19.852 -49.730 -32.072  1.00  0.00    -0.000 C 
BRANCH   9  10
ATOM     10  C   UNL     1      20.446 -50.755 -33.056  1.00  0.00    -0.000 C 
BRANCH  10  11
ATOM     11  C   UNL     1      20.654 -52.167 -32.479  1.00  0.00    -0.003 C 
ATOM     12  C   UNL     1      19.716 -53.208 -33.089  1.00  0.00     0.004 C 
ENDBRANCH  10  11
ENDBRANCH   9  10
ENDBRANCH   8   9
ENDBRANCH   7   8
ENDBRANCH   6   7
ENDBRANCH   5   6
ENDBRANCH   4   5
ENDBRANCH   3   4
ENDBRANCH   2   3
ENDBRANCH   1   2
BRANCH   1  13
ATOM     13  C   UNL     1      19.224 -43.899 -25.591  1.00  0.00     0.000 C 
BRANCH  13  14
ATOM     14  C   UNL     1      18.832 -42.569 -24.932  1.00  0.00     0.000 C 
BRANCH  14  15
ATOM     15  C   UNL     1      17.431 -42.619 -24.296  1.00  0.00     0.000 C 
BRANCH  15  16
ATOM     16  C   UNL     1      17.318 -41.753 -23.029  1.00  0.00     0.000 C 
BRANCH  16  17
ATOM     17  C   UNL     1      18.574 -41.737 -22.137  1.00  0.00     0.000 C 
BRANCH  17  18
ATOM     18  C   UNL     1      18.670 -42.969 -21.219  1.00  0.00     0.000 C 
BRANCH  18  19
ATOM     19  C   UNL     1      19.812 -43.918 -21.614  1.00  0.00     0.000 C 
BRANCH  19  20
ATOM     20  C   UNL     1      19.330 -45.350 -21.893  1.00  0.00     0.006 C 
BRANCH  20  21
ATOM     21  C   UNL     1      17.803 -45.439 -21.813  1.00  0.00     0.053 C 
BRANCH  21  22
ATOM     22  C   UNL     1      17.330 -46.773 -22.296  1.00  0.00     0.041 C 
ATOM     23  O   UNL     1      16.171 -47.176 -22.011  1.00  0.00    -0.550 OA
ATOM     24  O   UNL     1      18.145 -47.547 -23.112  1.00  0.00    -0.550 OA
ENDBRANCH  21  22
ENDBRANCH  20  21
ENDBRANCH  19  20
ENDBRANCH  18  19
ENDBRANCH  17  18
ENDBRANCH  16  17
ENDBRANCH  15  16
ENDBRANCH  14  15
ENDBRANCH  13  14
ENDBRANCH   1  13
TORSDOF 20
ENDMDL
MODEL 7
REMARK VINA RESULT:    -5.433      4.456      9.813
REMARK INTER + INTRA:         -13.918
REMARK INTER:                 -11.880
REMARK INTRA:                  -2.038
REMARK UNBOUND:                -2.133
REMARK SMILES CCCCCCCCCCCCCCCCCCCCCC(=O)[O-]
REMARK SMILES IDX 12 1 11 2 10 3 9 4 8 5 7 6 6 7 5 8 4 9 3 10 2 11 1 12 13 13
REMARK SMILES IDX 14 14 15 15 16 16 17 17 18 18 19 19 20 20 21 21 22 22 23 23
REMARK SMILES IDX 24 24
REMARK H PARENT
REMARK Flexibility Score: inf
ROOT
ATOM      1  C   UNL     1      18.299 -45.922 -24.513  1.00  0.00     0.000 C 
ENDROOT
BRANCH   1   2
ATOM      2  C   UNL     1      17.672 -45.114 -25.662  1.00  0.00     0.000 C 
BRANCH   2   3
ATOM      3  C   UNL     1      18.384 -45.264 -27.021  1.00  0.00     0.000 C 
BRANCH   3   4
ATOM      4  C   UNL     1      17.460 -45.573 -28.217  1.00  0.00    -0.000 C 
BRANCH   4   5
ATOM      5  C   UNL     1      17.681 -46.944 -28.882  1.00  0.00    -0.000 C 
BRANCH   5   6
ATOM      6  C   UNL     1      17.598 -46.886 -30.416  1.00  0.00    -0.000 C 
BRANCH   6   7
ATOM      7  C   UNL     1      18.968 -46.664 -31.084  1.00  0.00    -0.000 C 
BRANCH   7   8
ATOM      8  C   UNL     1      19.307 -47.628 -32.237  1.00  0.00    -0.000 C 
BRANCH   8   9
ATOM      9  C   UNL     1      19.653 -49.045 -31.750  1.00  0.00    -0.000 C 
BRANCH   9  10
ATOM     10  C   UNL     1      20.272 -49.923 -32.854  1.00  0.00    -0.000 C 
BRANCH  10  11
ATOM     11  C   UNL     1      20.565 -51.378 -32.443  1.00  0.00    -0.003 C 
ATOM     12  C   UNL     1      19.452 -52.348 -32.837  1.00  0.00     0.004 C 
ENDBRANCH  10  11
ENDBRANCH   9  10
ENDBRANCH   8   9
ENDBRANCH   7   8
ENDBRANCH   6   7
ENDBRANCH   5   6
ENDBRANCH   4   5
ENDBRANCH   3   4
ENDBRANCH   2   3
ENDBRANCH   1   2
BRANCH   1  13
ATOM     13  C   UNL     1      17.379 -46.018 -23.282  1.00  0.00     0.000 C 
BRANCH  13  14
ATOM     14  C   UNL     1      18.043 -45.467 -22.011  1.00  0.00     0.000 C 
BRANCH  14  15
ATOM     15  C   UNL     1      19.547 -45.784 -21.950  1.00  0.00     0.000 C 
BRANCH  15  16
ATOM     16  C   UNL     1      20.412 -44.532 -21.713  1.00  0.00     0.000 C 
BRANCH  16  17
ATOM     17  C   UNL     1      19.695 -43.191 -21.953  1.00  0.00     0.000 C 
BRANCH  17  18
ATOM     18  C   UNL     1      20.253 -42.423 -23.165  1.00  0.00     0.000 C 
BRANCH  18  19
ATOM     19  C   UNL     1      19.157 -42.003 -24.158  1.00  0.00     0.000 C 
BRANCH  19  20
ATOM     20  C   UNL     1      17.913 -41.427 -23.466  1.00  0.00     0.006 C 
BRANCH  20  21
ATOM     21  C   UNL     1      16.642 -42.134 -23.946  1.00  0.00     0.053 C 
BRANCH  21  22
ATOM     22  C   UNL     1      15.662 -42.267 -22.824  1.00  0.00     0.041 C 
ATOM     23  O   UNL     1      16.066 -42.324 -21.633  1.00  0.00    -0.550 OA
ATOM     24  O   UNL     1      14.298 -42.267 -23.087  1.00  0.00    -0.550 OA
ENDBRANCH  21  22
ENDBRANCH  20  21
ENDBRANCH  19  20
ENDBRANCH  18  19
ENDBRANCH  17  18
ENDBRANCH  16  17
ENDBRANCH  15  16
ENDBRANCH  14  15
ENDBRANCH  13  14
ENDBRANCH   1  13
TORSDOF 20
ENDMDL
MODEL 8
REMARK VINA RESULT:    -5.411      1.380      2.118
REMARK INTER + INTRA:         -13.871
REMARK INTER:                 -11.838
REMARK INTRA:                  -2.033
REMARK UNBOUND:                -2.133
REMARK SMILES CCCCCCCCCCCCCCCCCCCCCC(=O)[O-]
REMARK SMILES IDX 12 1 11 2 10 3 9 4 8 5 7 6 6 7 5 8 4 9 3 10 2 11 1 12 13 13
REMARK SMILES IDX 14 14 15 15 16 16 17 17 18 18 19 19 20 20 21 21 22 22 23 23
REMARK SMILES IDX 24 24
REMARK H PARENT
REMARK Flexibility Score: inf
ROOT
ATOM      1  C   UNL     1      19.032 -44.079 -25.674  1.00  0.00     0.000 C 
ENDROOT
BRANCH   1   2
ATOM      2  C   UNL     1      18.066 -43.122 -24.952  1.00  0.00     0.000 C 
BRANCH   2   3
ATOM      3  C   UNL     1      18.717 -41.832 -24.415  1.00  0.00     0.000 C 
BRANCH   3   4
ATOM      4  C   UNL     1      20.079 -42.024 -23.717  1.00  0.00    -0.000 C 
BRANCH   4   5
ATOM      5  C   UNL     1      20.027 -42.084 -22.179  1.00  0.00    -0.000 C 
BRANCH   5   6
ATOM      6  C   UNL     1      19.438 -43.403 -21.651  1.00  0.00    -0.000 C 
BRANCH   6   7
ATOM      7  C   UNL     1      20.464 -44.552 -21.631  1.00  0.00    -0.000 C 
BRANCH   7   8
ATOM      8  C   UNL     1      19.867 -45.970 -21.541  1.00  0.00    -0.000 C 
BRANCH   8   9
ATOM      9  C   UNL     1      19.634 -46.610 -22.920  1.00  0.00    -0.000 C 
BRANCH   9  10
ATOM     10  C   UNL     1      18.192 -47.118 -23.109  1.00  0.00    -0.000 C 
BRANCH  10  11
ATOM     11  C   UNL     1      17.155 -46.510 -22.146  1.00  0.00    -0.003 C 
ATOM     12  C   UNL     1      16.297 -45.425 -22.796  1.00  0.00     0.004 C 
ENDBRANCH  10  11
ENDBRANCH   9  10
ENDBRANCH   8   9
ENDBRANCH   7   8
ENDBRANCH   6   7
ENDBRANCH   5   6
ENDBRANCH   4   5
ENDBRANCH   3   4
ENDBRANCH   2   3
ENDBRANCH   1   2
BRANCH   1  13
ATOM     13  C   UNL     1      18.345 -45.374 -26.143  1.00  0.00     0.000 C 
BRANCH  13  14
ATOM     14  C   UNL     1      17.597 -45.192 -27.472  1.00  0.00     0.000 C 
BRANCH  14  15
ATOM     15  C   UNL     1      18.200 -46.040 -28.605  1.00  0.00     0.000 C 
BRANCH  15  16
ATOM     16  C   UNL     1      17.131 -46.777 -29.433  1.00  0.00     0.000 C 
BRANCH  16  17
ATOM     17  C   UNL     1      17.668 -47.914 -30.323  1.00  0.00     0.000 C 
BRANCH  17  18
ATOM     18  C   UNL     1      19.109 -47.667 -30.804  1.00  0.00     0.000 C 
BRANCH  18  19
ATOM     19  C   UNL     1      19.255 -47.783 -32.329  1.00  0.00     0.000 C 
BRANCH  19  20
ATOM     20  C   UNL     1      20.233 -48.889 -32.754  1.00  0.00     0.006 C 
BRANCH  20  21
ATOM     21  C   UNL     1      19.783 -50.252 -32.221  1.00  0.00     0.053 C 
BRANCH  21  22
ATOM     22  C   UNL     1      20.793 -51.304 -32.554  1.00  0.00     0.041 C 
ATOM     23  O   UNL     1      21.403 -51.911 -31.635  1.00  0.00    -0.550 OA
ATOM     24  O   UNL     1      21.018 -51.658 -33.878  1.00  0.00    -0.550 OA
ENDBRANCH  21  22
ENDBRANCH  20  21
ENDBRANCH  19  20
ENDBRANCH  18  19
ENDBRANCH  17  18
ENDBRANCH  16  17
ENDBRANCH  15  16
ENDBRANCH  14  15
ENDBRANCH  13  14
ENDBRANCH   1  13
TORSDOF 20
ENDMDL
MODEL 9
REMARK VINA RESULT:    -5.357      3.734     10.399
REMARK INTER + INTRA:         -13.754
REMARK INTER:                 -12.287
REMARK INTRA:                  -1.467
REMARK UNBOUND:                -2.133
REMARK SMILES CCCCCCCCCCCCCCCCCCCCCC(=O)[O-]
REMARK SMILES IDX 12 1 11 2 10 3 9 4 8 5 7 6 6 7 5 8 4 9 3 10 2 11 1 12 13 13
REMARK SMILES IDX 14 14 15 15 16 16 17 17 18 18 19 19 20 20 21 21 22 22 23 23
REMARK SMILES IDX 24 24
REMARK H PARENT
REMARK Flexibility Score: inf
ROOT
ATOM      1  C   UNL     1      17.999 -45.766 -26.863  1.00  0.00     0.000 C 
ENDROOT
BRANCH   1   2
ATOM      2  C   UNL     1      17.673 -45.588 -28.356  1.00  0.00     0.000 C 
BRANCH   2   3
ATOM      3  C   UNL     1      17.810 -46.868 -29.204  1.00  0.00     0.000 C 
BRANCH   3   4
ATOM      4  C   UNL     1      18.928 -46.834 -30.267  1.00  0.00    -0.000 C 
BRANCH   4   5
ATOM      5  C   UNL     1      18.694 -47.732 -31.496  1.00  0.00    -0.000 C 
BRANCH   5   6
ATOM      6  C   UNL     1      19.861 -48.697 -31.763  1.00  0.00    -0.000 C 
BRANCH   6   7
ATOM      7  C   UNL     1      19.393 -50.112 -32.153  1.00  0.00    -0.000 C 
BRANCH   7   8
ATOM      8  C   UNL     1      20.518 -51.127 -32.435  1.00  0.00    -0.000 C 
BRANCH   8   9
ATOM      9  C   UNL     1      20.012 -52.407 -33.122  1.00  0.00    -0.000 C 
BRANCH   9  10
ATOM     10  C   UNL     1      21.148 -53.380 -33.487  1.00  0.00    -0.000 C 
BRANCH  10  11
ATOM     11  C   UNL     1      20.703 -54.651 -34.232  1.00  0.00    -0.003 C 
ATOM     12  C   UNL     1      19.215 -54.955 -34.064  1.00  0.00     0.004 C 
ENDBRANCH  10  11
ENDBRANCH   9  10
ENDBRANCH   8   9
ENDBRANCH   7   8
ENDBRANCH   6   7
ENDBRANCH   5   6
ENDBRANCH   4   5
ENDBRANCH   3   4
ENDBRANCH   2   3
ENDBRANCH   1   2
BRANCH   1  13
ATOM     13  C   UNL     1      18.072 -44.427 -26.107  1.00  0.00     0.000 C 
BRANCH  13  14
ATOM     14  C   UNL     1      19.376 -44.276 -25.309  1.00  0.00     0.000 C 
BRANCH  14  15
ATOM     15  C   UNL     1      19.713 -42.805 -25.009  1.00  0.00     0.000 C 
BRANCH  15  16
ATOM     16  C   UNL     1      19.752 -42.496 -23.501  1.00  0.00     0.000 C 
BRANCH  16  17
ATOM     17  C   UNL     1      18.569 -41.660 -22.977  1.00  0.00     0.000 C 
BRANCH  17  18
ATOM     18  C   UNL     1      17.449 -41.491 -24.020  1.00  0.00     0.000 C 
BRANCH  18  19
ATOM     19  C   UNL     1      16.074 -41.928 -23.492  1.00  0.00     0.000 C 
BRANCH  19  20
ATOM     20  C   UNL     1      16.163 -43.076 -22.473  1.00  0.00     0.006 C 
BRANCH  20  21
ATOM     21  C   UNL     1      16.130 -44.436 -23.177  1.00  0.00     0.053 C 
BRANCH  21  22
ATOM     22  C   UNL     1      16.961 -45.431 -22.430  1.00  0.00     0.041 C 
ATOM     23  O   UNL     1      17.963 -45.051 -21.769  1.00  0.00    -0.550 OA
ATOM     24  O   UNL     1      16.594 -46.770 -22.413  1.00  0.00    -0.550 OA
ENDBRANCH  21  22
ENDBRANCH  20  21
ENDBRANCH  19  20
ENDBRANCH  18  19
ENDBRANCH  17  18
ENDBRANCH  16  17
ENDBRANCH  15  16
ENDBRANCH  14  15
ENDBRANCH  13  14
ENDBRANCH   1  13
TORSDOF 20
ENDMDL
