MODEL 1
REMARK VINA RESULT:    -7.836      0.000      0.000
REMARK INTER + INTRA:          -9.668
REMARK INTER:                  -9.440
REMARK INTRA:                  -0.229
REMARK UNBOUND:                -0.229
REMARK SMILES O=c1c(O)c(-c2ccc(O)c(O)c2)oc2cc(O)cc(O)c12
REMARK SMILES IDX 5 1 3 2 2 3 1 4 22 5 20 6 19 7 17 8 16 9 15 10 14 11 6 12
REMARK SMILES IDX 7 13 8 14 9 15 13 16 11 17 10 18 12 20 4 22 21 24 18 26
REMARK H PARENT 10 19 12 21 4 23 21 25 18 27
REMARK Flexibility Score: inf
ROOT
ATOM      1  C   UNL     1     -11.284 -66.219 -32.888  1.00  0.00     0.180 A 
ATOM      2  C   UNL     1     -10.657 -66.898 -31.825  1.00  0.00     0.208 A 
ATOM      3  C   UNL     1      -9.282 -66.709 -31.618  1.00  0.00     0.238 A 
ATOM      4  O   UNL     1      -8.705 -67.320 -30.677  1.00  0.00    -0.285 OA
ATOM      5  C   UNL     1      -8.564 -65.833 -32.459  1.00  0.00     0.111 A 
ATOM      6  C   UNL     1      -7.178 -65.584 -32.315  1.00  0.00     0.134 A 
ATOM      7  C   UNL     1      -6.538 -64.690 -33.187  1.00  0.00     0.093 A 
ATOM      8  C   UNL     1      -7.254 -64.043 -34.196  1.00  0.00     0.123 A 
ATOM      9  C   UNL     1      -8.623 -64.286 -34.343  1.00  0.00     0.094 A 
ATOM     10  C   UNL     1      -9.279 -65.173 -33.486  1.00  0.00     0.146 A 
ATOM     11  O   UNL     1     -10.579 -65.390 -33.650  1.00  0.00    -0.452 OA
ENDROOT
BRANCH   1  12
ATOM     12  C   UNL     1     -12.726 -66.383 -33.182  1.00  0.00     0.025 A 
ATOM     13  C   UNL     1     -13.675 -65.795 -32.330  1.00  0.00     0.016 A 
ATOM     14  C   UNL     1     -15.041 -65.918 -32.600  1.00  0.00     0.051 A 
ATOM     15  C   UNL     1     -15.476 -66.617 -33.733  1.00  0.00     0.157 A 
ATOM     16  C   UNL     1     -13.168 -67.066 -34.330  1.00  0.00     0.062 A 
ATOM     17  C   UNL     1     -14.538 -67.188 -34.602  1.00  0.00     0.158 A 
BRANCH  15  18
ATOM     18  O   UNL     1     -16.838 -66.745 -34.004  1.00  0.00    -0.504 OA
ATOM     19  H   UNL     1     -17.531 -66.205 -33.499  1.00  0.00     0.293 HD
ENDBRANCH  15  18
BRANCH  17  20
ATOM     20  O   UNL     1     -14.974 -67.871 -35.736  1.00  0.00    -0.504 OA
ATOM     21  H   UNL     1     -15.753 -67.534 -36.290  1.00  0.00     0.293 HD
ENDBRANCH  17  20
ENDBRANCH   1  12
BRANCH   2  22
ATOM     22  O   UNL     1     -11.399 -67.722 -30.976  1.00  0.00    -0.502 OA
ATOM     23  H   UNL     1     -11.850 -68.570 -31.299  1.00  0.00     0.293 HD
ENDBRANCH   2  22
BRANCH   6  24
ATOM     24  O   UNL     1      -6.434 -66.214 -31.316  1.00  0.00    -0.507 OA
ATOM     25  H   UNL     1      -5.859 -65.689 -30.668  1.00  0.00     0.293 HD
ENDBRANCH   6  24
BRANCH   8  26
ATOM     26  O   UNL     1      -6.594 -63.159 -35.048  1.00  0.00    -0.508 OA
ATOM     27  H   UNL     1      -5.585 -63.069 -35.040  1.00  0.00     0.293 HD
ENDBRANCH   8  26
TORSDOF 6
ENDMDL
MODEL 2
REMARK VINA RESULT:    -7.536      1.513      3.569
REMARK INTER + INTRA:          -9.307
REMARK INTER:                  -9.103
REMARK INTRA:                  -0.204
REMARK UNBOUND:                -0.229
REMARK SMILES O=c1c(O)c(-c2ccc(O)c(O)c2)oc2cc(O)cc(O)c12
REMARK SMILES IDX 5 1 3 2 2 3 1 4 22 5 20 6 19 7 17 8 16 9 15 10 14 11 6 12
REMARK SMILES IDX 7 13 8 14 9 15 13 16 11 17 10 18 12 20 4 22 21 24 18 26
REMARK H PARENT 10 19 12 21 4 23 21 25 18 27
REMARK Flexibility Score: inf
ROOT
ATOM      1  C   UNL     1     -11.091 -66.572 -33.223  1.00  0.00     0.180 A 
ATOM      2  C   UNL     1     -10.111 -65.677 -33.696  1.00  0.00     0.208 A 
ATOM      3  C   UNL     1      -8.937 -65.500 -32.949  1.00  0.00     0.238 A 
ATOM      4  O   UNL     1      -8.057 -64.693 -33.355  1.00  0.00    -0.285 OA
ATOM      5  C   UNL     1      -8.752 -66.232 -31.757  1.00  0.00     0.111 A 
ATOM      6  C   UNL     1      -7.596 -66.116 -30.948  1.00  0.00     0.134 A 
ATOM      7  C   UNL     1      -7.484 -66.886 -29.781  1.00  0.00     0.093 A 
ATOM      8  C   UNL     1      -8.500 -67.768 -29.408  1.00  0.00     0.123 A 
ATOM      9  C   UNL     1      -9.644 -67.887 -30.204  1.00  0.00     0.094 A 
ATOM     10  C   UNL     1      -9.777 -67.127 -31.369  1.00  0.00     0.146 A 
ATOM     11  O   UNL     1     -10.876 -67.255 -32.104  1.00  0.00    -0.452 OA
ENDROOT
BRANCH   1  12
ATOM     12  C   UNL     1     -12.364 -66.797 -33.945  1.00  0.00     0.025 A 
ATOM     13  C   UNL     1     -12.351 -67.491 -35.166  1.00  0.00     0.016 A 
ATOM     14  C   UNL     1     -13.543 -67.733 -35.854  1.00  0.00     0.051 A 
ATOM     15  C   UNL     1     -14.765 -67.300 -35.325  1.00  0.00     0.157 A 
ATOM     16  C   UNL     1     -13.596 -66.382 -33.407  1.00  0.00     0.062 A 
ATOM     17  C   UNL     1     -14.791 -66.626 -34.096  1.00  0.00     0.158 A 
BRANCH  15  18
ATOM     18  O   UNL     1     -15.955 -67.537 -36.009  1.00  0.00    -0.504 OA
ATOM     19  H   UNL     1     -16.258 -66.939 -36.769  1.00  0.00     0.293 HD
ENDBRANCH  15  18
BRANCH  17  20
ATOM     20  O   UNL     1     -16.011 -66.209 -33.566  1.00  0.00    -0.504 OA
ATOM     21  H   UNL     1     -16.056 -65.616 -32.746  1.00  0.00     0.293 HD
ENDBRANCH  17  20
ENDBRANCH   1  12
BRANCH   2  22
ATOM     22  O   UNL     1     -10.296 -65.001 -34.905  1.00  0.00    -0.502 OA
ATOM     23  H   UNL     1     -10.826 -64.140 -34.970  1.00  0.00     0.293 HD
ENDBRANCH   2  22
BRANCH   6  24
ATOM     24  O   UNL     1      -6.563 -65.244 -31.293  1.00  0.00    -0.507 OA
ATOM     25  H   UNL     1      -6.642 -64.607 -32.078  1.00  0.00     0.293 HD
ENDBRANCH   6  24
BRANCH   8  26
ATOM     26  O   UNL     1      -8.363 -68.523 -28.245  1.00  0.00    -0.508 OA
ATOM     27  H   UNL     1      -7.638 -69.224 -28.151  1.00  0.00     0.293 HD
ENDBRANCH   8  26
TORSDOF 6
ENDMDL
MODEL 3
REMARK VINA RESULT:    -7.096      4.103      6.697
REMARK INTER + INTRA:          -8.777
REMARK INTER:                  -8.793
REMARK INTRA:                   0.016
REMARK UNBOUND:                -0.229
REMARK SMILES O=c1c(O)c(-c2ccc(O)c(O)c2)oc2cc(O)cc(O)c12
REMARK SMILES IDX 5 1 3 2 2 3 1 4 22 5 20 6 19 7 17 8 16 9 15 10 14 11 6 12
REMARK SMILES IDX 7 13 8 14 9 15 13 16 11 17 10 18 12 20 4 22 21 24 18 26
REMARK H PARENT 10 19 12 21 4 23 21 25 18 27
REMARK Flexibility Score: inf
ROOT
ATOM      1  C   UNL     1      -7.071 -65.464 -31.984  1.00  0.00     0.180 A 
ATOM      2  C   UNL     1      -6.160 -65.246 -30.933  1.00  0.00     0.208 A 
ATOM      3  C   UNL     1      -6.401 -65.851 -29.690  1.00  0.00     0.238 A 
ATOM      4  O   UNL     1      -5.598 -65.655 -28.737  1.00  0.00    -0.285 OA
ATOM      5  C   UNL     1      -7.532 -66.677 -29.524  1.00  0.00     0.111 A 
ATOM      6  C   UNL     1      -7.845 -67.327 -28.306  1.00  0.00     0.134 A 
ATOM      7  C   UNL     1      -8.986 -68.140 -28.225  1.00  0.00     0.093 A 
ATOM      8  C   UNL     1      -9.816 -68.316 -29.334  1.00  0.00     0.123 A 
ATOM      9  C   UNL     1      -9.512 -67.676 -30.540  1.00  0.00     0.094 A 
ATOM     10  C   UNL     1      -8.382 -66.860 -30.641  1.00  0.00     0.146 A 
ATOM     11  O   UNL     1      -8.119 -66.259 -31.796  1.00  0.00    -0.452 OA
ENDROOT
BRANCH   1  12
ATOM     12  C   UNL     1      -6.896 -64.844 -33.318  1.00  0.00     0.025 A 
ATOM     13  C   UNL     1      -5.674 -64.993 -33.993  1.00  0.00     0.016 A 
ATOM     14  C   UNL     1      -5.493 -64.435 -35.261  1.00  0.00     0.051 A 
ATOM     15  C   UNL     1      -6.536 -63.734 -35.878  1.00  0.00     0.157 A 
ATOM     16  C   UNL     1      -7.947 -64.156 -33.951  1.00  0.00     0.062 A 
ATOM     17  C   UNL     1      -7.767 -63.598 -35.224  1.00  0.00     0.158 A 
BRANCH  15  18
ATOM     18  O   UNL     1      -6.359 -63.173 -37.142  1.00  0.00    -0.504 OA
ATOM     19  H   UNL     1      -6.282 -63.750 -37.972  1.00  0.00     0.293 HD
ENDBRANCH  15  18
BRANCH  17  20
ATOM     20  O   UNL     1      -8.807 -62.911 -35.847  1.00  0.00    -0.504 OA
ATOM     21  H   UNL     1      -9.524 -62.435 -35.312  1.00  0.00     0.293 HD
ENDBRANCH  17  20
ENDBRANCH   1  12
BRANCH   2  22
ATOM     22  O   UNL     1      -5.020 -64.464 -31.136  1.00  0.00    -0.502 OA
ATOM     23  H   UNL     1      -5.049 -63.451 -31.139  1.00  0.00     0.293 HD
ENDBRANCH   2  22
BRANCH   6  24
ATOM     24  O   UNL     1      -7.035 -67.172 -27.181  1.00  0.00    -0.507 OA
ATOM     25  H   UNL     1      -7.417 -66.904 -26.282  1.00  0.00     0.293 HD
ENDBRANCH   6  24
BRANCH   8  26
ATOM     26  O   UNL     1     -10.942 -69.130 -29.226  1.00  0.00    -0.508 OA
ATOM     27  H   UNL     1     -11.878 -68.754 -29.315  1.00  0.00     0.293 HD
ENDBRANCH   8  26
TORSDOF 6
ENDMDL
MODEL 4
REMARK VINA RESULT:    -7.054      3.927      6.659
REMARK INTER + INTRA:          -8.726
REMARK INTER:                  -8.770
REMARK INTRA:                   0.044
REMARK UNBOUND:                -0.229
REMARK SMILES O=c1c(O)c(-c2ccc(O)c(O)c2)oc2cc(O)cc(O)c12
REMARK SMILES IDX 5 1 3 2 2 3 1 4 22 5 20 6 19 7 17 8 16 9 15 10 14 11 6 12
REMARK SMILES IDX 7 13 8 14 9 15 13 16 11 17 10 18 12 20 4 22 21 24 18 26
REMARK H PARENT 10 19 12 21 4 23 21 25 18 27
REMARK Flexibility Score: inf
ROOT
ATOM      1  C   UNL     1      -7.265 -65.345 -32.352  1.00  0.00     0.180 A 
ATOM      2  C   UNL     1      -6.281 -65.187 -31.357  1.00  0.00     0.208 A 
ATOM      3  C   UNL     1      -6.451 -65.836 -30.125  1.00  0.00     0.238 A 
ATOM      4  O   UNL     1      -5.582 -65.694 -29.222  1.00  0.00    -0.285 OA
ATOM      5  C   UNL     1      -7.588 -66.645 -29.914  1.00  0.00     0.111 A 
ATOM      6  C   UNL     1      -7.833 -67.336 -28.703  1.00  0.00     0.134 A 
ATOM      7  C   UNL     1      -8.983 -68.129 -28.576  1.00  0.00     0.093 A 
ATOM      8  C   UNL     1      -9.890 -68.245 -29.632  1.00  0.00     0.123 A 
ATOM      9  C   UNL     1      -9.653 -67.564 -30.830  1.00  0.00     0.094 A 
ATOM     10  C   UNL     1      -8.514 -66.767 -30.977  1.00  0.00     0.146 A 
ATOM     11  O   UNL     1      -8.315 -66.127 -32.123  1.00  0.00    -0.452 OA
ENDROOT
BRANCH   1  12
ATOM     12  C   UNL     1      -7.165 -64.677 -33.669  1.00  0.00     0.025 A 
ATOM     13  C   UNL     1      -8.260 -63.945 -34.157  1.00  0.00     0.016 A 
ATOM     14  C   UNL     1      -8.181 -63.289 -35.388  1.00  0.00     0.051 A 
ATOM     15  C   UNL     1      -7.002 -63.343 -36.142  1.00  0.00     0.157 A 
ATOM     16  C   UNL     1      -5.976 -64.711 -34.421  1.00  0.00     0.062 A 
ATOM     17  C   UNL     1      -5.896 -64.052 -35.655  1.00  0.00     0.158 A 
BRANCH  15  18
ATOM     18  O   UNL     1      -6.921 -62.693 -37.372  1.00  0.00    -0.504 OA
ATOM     19  H   UNL     1      -6.171 -62.887 -38.025  1.00  0.00     0.293 HD
ENDBRANCH  15  18
BRANCH  17  20
ATOM     20  O   UNL     1      -4.720 -64.091 -36.402  1.00  0.00    -0.504 OA
ATOM     21  H   UNL     1      -4.733 -64.038 -37.414  1.00  0.00     0.293 HD
ENDBRANCH  17  20
ENDBRANCH   1  12
BRANCH   2  22
ATOM     22  O   UNL     1      -5.140 -64.420 -31.608  1.00  0.00    -0.502 OA
ATOM     23  H   UNL     1      -5.186 -63.496 -32.018  1.00  0.00     0.293 HD
ENDBRANCH   2  22
BRANCH   6  24
ATOM     24  O   UNL     1      -6.945 -67.242 -27.630  1.00  0.00    -0.507 OA
ATOM     25  H   UNL     1      -7.219 -67.496 -26.688  1.00  0.00     0.293 HD
ENDBRANCH   6  24
BRANCH   8  26
ATOM     26  O   UNL     1     -11.024 -69.040 -29.479  1.00  0.00    -0.508 OA
ATOM     27  H   UNL     1     -11.649 -68.925 -28.691  1.00  0.00     0.293 HD
ENDBRANCH   8  26
TORSDOF 6
ENDMDL
MODEL 5
REMARK VINA RESULT:    -6.971      4.097      7.022
REMARK INTER + INTRA:          -8.626
REMARK INTER:                  -8.601
REMARK INTRA:                  -0.025
REMARK UNBOUND:                -0.229
REMARK SMILES O=c1c(O)c(-c2ccc(O)c(O)c2)oc2cc(O)cc(O)c12
REMARK SMILES IDX 5 1 3 2 2 3 1 4 22 5 20 6 19 7 17 8 16 9 15 10 14 11 6 12
REMARK SMILES IDX 7 13 8 14 9 15 13 16 11 17 10 18 12 20 4 22 21 24 18 26
REMARK H PARENT 10 19 12 21 4 23 21 25 18 27
REMARK Flexibility Score: inf
ROOT
ATOM      1  C   UNL     1      -7.993 -66.581 -30.383  1.00  0.00     0.180 A 
ATOM      2  C   UNL     1      -8.998 -67.565 -30.465  1.00  0.00     0.208 A 
ATOM      3  C   UNL     1      -9.418 -68.204 -29.288  1.00  0.00     0.238 A 
ATOM      4  O   UNL     1     -10.309 -69.094 -29.349  1.00  0.00    -0.285 OA
ATOM      5  C   UNL     1      -8.845 -67.837 -28.053  1.00  0.00     0.111 A 
ATOM      6  C   UNL     1      -9.215 -68.429 -26.821  1.00  0.00     0.134 A 
ATOM      7  C   UNL     1      -8.604 -68.002 -25.633  1.00  0.00     0.093 A 
ATOM      8  C   UNL     1      -7.634 -66.998 -25.651  1.00  0.00     0.123 A 
ATOM      9  C   UNL     1      -7.264 -66.410 -26.865  1.00  0.00     0.094 A 
ATOM     10  C   UNL     1      -7.859 -66.822 -28.060  1.00  0.00     0.146 A 
ATOM     11  O   UNL     1      -7.486 -66.251 -29.200  1.00  0.00    -0.452 OA
ENDROOT
BRANCH   1  12
ATOM     12  C   UNL     1      -7.483 -65.877 -31.582  1.00  0.00     0.025 A 
ATOM     13  C   UNL     1      -6.108 -65.900 -31.864  1.00  0.00     0.016 A 
ATOM     14  C   UNL     1      -5.607 -65.261 -33.000  1.00  0.00     0.051 A 
ATOM     15  C   UNL     1      -6.476 -64.602 -33.880  1.00  0.00     0.157 A 
ATOM     16  C   UNL     1      -8.354 -65.232 -32.479  1.00  0.00     0.062 A 
ATOM     17  C   UNL     1      -7.853 -64.591 -33.621  1.00  0.00     0.158 A 
BRANCH  15  18
ATOM     18  O   UNL     1      -5.980 -63.960 -35.013  1.00  0.00    -0.504 OA
ATOM     19  H   UNL     1      -5.337 -64.422 -35.645  1.00  0.00     0.293 HD
ENDBRANCH  15  18
BRANCH  17  20
ATOM     20  O   UNL     1      -8.715 -63.947 -34.506  1.00  0.00    -0.504 OA
ATOM     21  H   UNL     1      -9.319 -63.192 -34.202  1.00  0.00     0.293 HD
ENDBRANCH  17  20
ENDBRANCH   1  12
BRANCH   2  22
ATOM     22  O   UNL     1      -9.585 -67.875 -31.694  1.00  0.00    -0.502 OA
ATOM     23  H   UNL     1     -10.472 -68.359 -31.766  1.00  0.00     0.293 HD
ENDBRANCH   2  22
BRANCH   6  24
ATOM     24  O   UNL     1     -10.182 -69.434 -26.769  1.00  0.00    -0.507 OA
ATOM     25  H   UNL     1     -10.012 -70.357 -27.151  1.00  0.00     0.293 HD
ENDBRANCH   6  24
BRANCH   8  26
ATOM     26  O   UNL     1      -7.043 -66.591 -24.456  1.00  0.00    -0.508 OA
ATOM     27  H   UNL     1      -6.994 -65.614 -24.196  1.00  0.00     0.293 HD
ENDBRANCH   8  26
TORSDOF 6
ENDMDL
MODEL 6
REMARK VINA RESULT:    -6.852      4.031      6.023
REMARK INTER + INTRA:          -8.483
REMARK INTER:                  -8.568
REMARK INTRA:                   0.085
REMARK UNBOUND:                -0.229
REMARK SMILES O=c1c(O)c(-c2ccc(O)c(O)c2)oc2cc(O)cc(O)c12
REMARK SMILES IDX 5 1 3 2 2 3 1 4 22 5 20 6 19 7 17 8 16 9 15 10 14 11 6 12
REMARK SMILES IDX 7 13 8 14 9 15 13 16 11 17 10 18 12 20 4 22 21 24 18 26
REMARK H PARENT 10 19 12 21 4 23 21 25 18 27
REMARK Flexibility Score: inf
ROOT
ATOM      1  C   UNL     1      -7.340 -65.065 -33.060  1.00  0.00     0.180 A 
ATOM      2  C   UNL     1      -8.422 -64.480 -33.746  1.00  0.00     0.208 A 
ATOM      3  C   UNL     1      -8.175 -63.806 -34.952  1.00  0.00     0.238 A 
ATOM      4  O   UNL     1      -9.134 -63.268 -35.570  1.00  0.00    -0.285 OA
ATOM      5  C   UNL     1      -6.861 -63.744 -35.460  1.00  0.00     0.111 A 
ATOM      6  C   UNL     1      -6.528 -63.087 -36.669  1.00  0.00     0.134 A 
ATOM      7  C   UNL     1      -5.197 -63.079 -37.112  1.00  0.00     0.093 A 
ATOM      8  C   UNL     1      -4.195 -63.712 -36.373  1.00  0.00     0.123 A 
ATOM      9  C   UNL     1      -4.518 -64.362 -35.177  1.00  0.00     0.094 A 
ATOM     10  C   UNL     1      -5.838 -64.380 -34.718  1.00  0.00     0.146 A 
ATOM     11  O   UNL     1      -6.117 -65.000 -33.577  1.00  0.00    -0.452 OA
ENDROOT
BRANCH   1  12
ATOM     12  C   UNL     1      -7.517 -65.776 -31.773  1.00  0.00     0.025 A 
ATOM     13  C   UNL     1      -6.652 -65.495 -30.704  1.00  0.00     0.016 A 
ATOM     14  C   UNL     1      -6.813 -66.138 -29.474  1.00  0.00     0.051 A 
ATOM     15  C   UNL     1      -7.851 -67.061 -29.291  1.00  0.00     0.157 A 
ATOM     16  C   UNL     1      -8.570 -66.689 -31.578  1.00  0.00     0.062 A 
ATOM     17  C   UNL     1      -8.734 -67.333 -30.345  1.00  0.00     0.158 A 
BRANCH  15  18
ATOM     18  O   UNL     1      -8.014 -67.707 -28.067  1.00  0.00    -0.504 OA
ATOM     19  H   UNL     1      -8.015 -68.718 -27.998  1.00  0.00     0.293 HD
ENDBRANCH  15  18
BRANCH  17  20
ATOM     20  O   UNL     1      -9.774 -68.241 -30.155  1.00  0.00    -0.504 OA
ATOM     21  H   UNL     1      -9.755 -68.919 -29.401  1.00  0.00     0.293 HD
ENDBRANCH  17  20
ENDBRANCH   1  12
BRANCH   2  22
ATOM     22  O   UNL     1      -9.721 -64.597 -33.247  1.00  0.00    -0.502 OA
ATOM     23  H   UNL     1     -10.342 -63.802 -33.156  1.00  0.00     0.293 HD
ENDBRANCH   2  22
BRANCH   6  24
ATOM     24  O   UNL     1      -7.506 -62.446 -37.431  1.00  0.00    -0.507 OA
ATOM     25  H   UNL     1      -7.457 -61.455 -37.636  1.00  0.00     0.293 HD
ENDBRANCH   6  24
BRANCH   8  26
ATOM     26  O   UNL     1      -2.881 -63.690 -36.836  1.00  0.00    -0.508 OA
ATOM     27  H   UNL     1      -2.442 -62.830 -37.142  1.00  0.00     0.293 HD
ENDBRANCH   8  26
TORSDOF 6
ENDMDL
MODEL 7
REMARK VINA RESULT:    -6.822      4.634      6.535
REMARK INTER + INTRA:          -8.446
REMARK INTER:                  -8.416
REMARK INTRA:                  -0.030
REMARK UNBOUND:                -0.229
REMARK SMILES O=c1c(O)c(-c2ccc(O)c(O)c2)oc2cc(O)cc(O)c12
REMARK SMILES IDX 5 1 3 2 2 3 1 4 22 5 20 6 19 7 17 8 16 9 15 10 14 11 6 12
REMARK SMILES IDX 7 13 8 14 9 15 13 16 11 17 10 18 12 20 4 22 21 24 18 26
REMARK H PARENT 10 19 12 21 4 23 21 25 18 27
REMARK Flexibility Score: inf
ROOT
ATOM      1  C   UNL     1      -6.721 -65.584 -31.724  1.00  0.00     0.180 A 
ATOM      2  C   UNL     1      -5.368 -65.594 -32.112  1.00  0.00     0.208 A 
ATOM      3  C   UNL     1      -5.025 -65.118 -33.387  1.00  0.00     0.238 A 
ATOM      4  O   UNL     1      -3.817 -65.132 -33.751  1.00  0.00    -0.285 OA
ATOM      5  C   UNL     1      -6.032 -64.624 -34.241  1.00  0.00     0.111 A 
ATOM      6  C   UNL     1      -5.771 -64.123 -35.539  1.00  0.00     0.134 A 
ATOM      7  C   UNL     1      -6.828 -63.641 -36.325  1.00  0.00     0.093 A 
ATOM      8  C   UNL     1      -8.138 -63.648 -35.840  1.00  0.00     0.123 A 
ATOM      9  C   UNL     1      -8.402 -64.142 -34.558  1.00  0.00     0.094 A 
ATOM     10  C   UNL     1      -7.363 -64.629 -33.761  1.00  0.00     0.146 A 
ATOM     11  O   UNL     1      -7.642 -65.098 -32.549  1.00  0.00    -0.452 OA
ENDROOT
BRANCH   1  12
ATOM     12  C   UNL     1      -7.164 -66.087 -30.403  1.00  0.00     0.025 A 
ATOM     13  C   UNL     1      -8.132 -67.101 -30.340  1.00  0.00     0.016 A 
ATOM     14  C   UNL     1      -8.550 -67.606 -29.106  1.00  0.00     0.051 A 
ATOM     15  C   UNL     1      -7.993 -67.116 -27.918  1.00  0.00     0.157 A 
ATOM     16  C   UNL     1      -6.593 -65.612 -29.208  1.00  0.00     0.062 A 
ATOM     17  C   UNL     1      -7.009 -66.119 -27.970  1.00  0.00     0.158 A 
BRANCH  15  18
ATOM     18  O   UNL     1      -8.409 -67.614 -26.685  1.00  0.00    -0.504 OA
ATOM     19  H   UNL     1      -9.044 -68.400 -26.618  1.00  0.00     0.293 HD
ENDBRANCH  15  18
BRANCH  17  20
ATOM     20  O   UNL     1      -6.448 -65.643 -26.787  1.00  0.00    -0.504 OA
ATOM     21  H   UNL     1      -6.365 -66.231 -25.965  1.00  0.00     0.293 HD
ENDBRANCH  17  20
ENDBRANCH   1  12
BRANCH   2  22
ATOM     22  O   UNL     1      -4.382 -66.042 -31.229  1.00  0.00    -0.502 OA
ATOM     23  H   UNL     1      -4.046 -66.998 -31.230  1.00  0.00     0.293 HD
ENDBRANCH   2  22
BRANCH   6  24
ATOM     24  O   UNL     1      -4.473 -64.101 -36.053  1.00  0.00    -0.507 OA
ATOM     25  H   UNL     1      -3.663 -64.243 -35.460  1.00  0.00     0.293 HD
ENDBRANCH   6  24
BRANCH   8  26
ATOM     26  O   UNL     1      -9.170 -63.162 -36.640  1.00  0.00    -0.508 OA
ATOM     27  H   UNL     1     -10.129 -63.147 -36.316  1.00  0.00     0.293 HD
ENDBRANCH   8  26
TORSDOF 6
ENDMDL
MODEL 8
REMARK VINA RESULT:    -6.803      4.500      9.138
REMARK INTER + INTRA:          -8.424
REMARK INTER:                  -8.129
REMARK INTRA:                  -0.294
REMARK UNBOUND:                -0.229
REMARK SMILES O=c1c(O)c(-c2ccc(O)c(O)c2)oc2cc(O)cc(O)c12
REMARK SMILES IDX 5 1 3 2 2 3 1 4 22 5 20 6 19 7 17 8 16 9 15 10 14 11 6 12
REMARK SMILES IDX 7 13 8 14 9 15 13 16 11 17 10 18 12 20 4 22 21 24 18 26
REMARK H PARENT 10 19 12 21 4 23 21 25 18 27
REMARK Flexibility Score: inf
ROOT
ATOM      1  C   UNL     1      -5.295 -64.007 -36.344  1.00  0.00     0.180 A 
ATOM      2  C   UNL     1      -6.624 -63.581 -36.534  1.00  0.00     0.208 A 
ATOM      3  C   UNL     1      -7.557 -63.791 -35.506  1.00  0.00     0.238 A 
ATOM      4  O   UNL     1      -8.753 -63.425 -35.669  1.00  0.00    -0.285 OA
ATOM      5  C   UNL     1      -7.144 -64.401 -34.304  1.00  0.00     0.111 A 
ATOM      6  C   UNL     1      -8.019 -64.645 -33.218  1.00  0.00     0.134 A 
ATOM      7  C   UNL     1      -7.529 -65.249 -32.051  1.00  0.00     0.093 A 
ATOM      8  C   UNL     1      -6.184 -65.612 -31.948  1.00  0.00     0.123 A 
ATOM      9  C   UNL     1      -5.315 -65.374 -33.017  1.00  0.00     0.094 A 
ATOM     10  C   UNL     1      -5.784 -64.775 -34.189  1.00  0.00     0.146 A 
ATOM     11  O   UNL     1      -4.939 -64.565 -35.191  1.00  0.00    -0.452 OA
ENDROOT
BRANCH   1  12
ATOM     12  C   UNL     1      -4.259 -63.838 -37.388  1.00  0.00     0.025 A 
ATOM     13  C   UNL     1      -4.214 -64.734 -38.467  1.00  0.00     0.016 A 
ATOM     14  C   UNL     1      -3.259 -64.582 -39.475  1.00  0.00     0.051 A 
ATOM     15  C   UNL     1      -2.343 -63.523 -39.426  1.00  0.00     0.157 A 
ATOM     16  C   UNL     1      -3.351 -62.764 -37.353  1.00  0.00     0.062 A 
ATOM     17  C   UNL     1      -2.393 -62.609 -38.365  1.00  0.00     0.158 A 
BRANCH  15  18
ATOM     18  O   UNL     1      -1.386 -63.369 -40.427  1.00  0.00    -0.504 OA
ATOM     19  H   UNL     1      -0.472 -63.801 -40.357  1.00  0.00     0.293 HD
ENDBRANCH  15  18
BRANCH  17  20
ATOM     20  O   UNL     1      -1.490 -61.549 -38.326  1.00  0.00    -0.504 OA
ATOM     21  H   UNL     1      -0.529 -61.681 -38.032  1.00  0.00     0.293 HD
ENDBRANCH  17  20
ENDBRANCH   1  12
BRANCH   2  22
ATOM     22  O   UNL     1      -6.997 -62.935 -37.715  1.00  0.00    -0.502 OA
ATOM     23  H   UNL     1      -7.877 -63.120 -38.181  1.00  0.00     0.293 HD
ENDBRANCH   2  22
BRANCH   6  24
ATOM     24  O   UNL     1      -9.368 -64.293 -33.291  1.00  0.00    -0.507 OA
ATOM     25  H   UNL     1      -9.899 -64.045 -32.464  1.00  0.00     0.293 HD
ENDBRANCH   6  24
BRANCH   8  26
ATOM     26  O   UNL     1      -5.722 -66.210 -30.776  1.00  0.00    -0.508 OA
ATOM     27  H   UNL     1      -5.137 -65.706 -30.121  1.00  0.00     0.293 HD
ENDBRANCH   8  26
TORSDOF 6
ENDMDL
MODEL 9
REMARK VINA RESULT:    -6.800      4.250      5.792
REMARK INTER + INTRA:          -8.420
REMARK INTER:                  -8.446
REMARK INTRA:                   0.027
REMARK UNBOUND:                -0.229
REMARK SMILES O=c1c(O)c(-c2ccc(O)c(O)c2)oc2cc(O)cc(O)c12
REMARK SMILES IDX 5 1 3 2 2 3 1 4 22 5 20 6 19 7 17 8 16 9 15 10 14 11 6 12
REMARK SMILES IDX 7 13 8 14 9 15 13 16 11 17 10 18 12 20 4 22 21 24 18 26
REMARK H PARENT 10 19 12 21 4 23 21 25 18 27
REMARK Flexibility Score: inf
ROOT
ATOM      1  C   UNL     1      -7.190 -65.827 -31.644  1.00  0.00     0.180 A 
ATOM      2  C   UNL     1      -5.818 -65.627 -31.889  1.00  0.00     0.208 A 
ATOM      3  C   UNL     1      -5.428 -64.976 -33.069  1.00  0.00     0.238 A 
ATOM      4  O   UNL     1      -4.202 -64.801 -33.306  1.00  0.00    -0.285 OA
ATOM      5  C   UNL     1      -6.412 -64.519 -33.971  1.00  0.00     0.111 A 
ATOM      6  C   UNL     1      -6.103 -63.850 -35.180  1.00  0.00     0.134 A 
ATOM      7  C   UNL     1      -7.140 -63.418 -36.020  1.00  0.00     0.093 A 
ATOM      8  C   UNL     1      -8.475 -63.640 -35.676  1.00  0.00     0.123 A 
ATOM      9  C   UNL     1      -8.786 -64.300 -34.483  1.00  0.00     0.094 A 
ATOM     10  C   UNL     1      -7.768 -64.740 -33.633  1.00  0.00     0.146 A 
ATOM     11  O   UNL     1      -8.090 -65.370 -32.509  1.00  0.00    -0.452 OA
ENDROOT
BRANCH   1  12
ATOM     12  C   UNL     1      -7.679 -66.523 -30.431  1.00  0.00     0.025 A 
ATOM     13  C   UNL     1      -7.234 -66.103 -29.168  1.00  0.00     0.016 A 
ATOM     14  C   UNL     1      -7.697 -66.731 -28.009  1.00  0.00     0.051 A 
ATOM     15  C   UNL     1      -8.625 -67.777 -28.096  1.00  0.00     0.157 A 
ATOM     16  C   UNL     1      -8.627 -67.560 -30.512  1.00  0.00     0.062 A 
ATOM     17  C   UNL     1      -9.094 -68.189 -29.350  1.00  0.00     0.158 A 
BRANCH  15  18
ATOM     18  O   UNL     1      -9.088 -68.408 -26.943  1.00  0.00    -0.504 OA
ATOM     19  H   UNL     1      -8.586 -69.182 -26.525  1.00  0.00     0.293 HD
ENDBRANCH  15  18
BRANCH  17  20
ATOM     20  O   UNL     1     -10.027 -69.220 -29.432  1.00  0.00    -0.504 OA
ATOM     21  H   UNL     1      -9.900 -70.092 -28.931  1.00  0.00     0.293 HD
ENDBRANCH  17  20
ENDBRANCH   1  12
BRANCH   2  22
ATOM     22  O   UNL     1      -4.866 -66.045 -30.956  1.00  0.00    -0.502 OA
ATOM     23  H   UNL     1      -3.917 -65.690 -30.953  1.00  0.00     0.293 HD
ENDBRANCH   2  22
BRANCH   6  24
ATOM     24  O   UNL     1      -4.779 -63.612 -35.552  1.00  0.00    -0.507 OA
ATOM     25  H   UNL     1      -4.360 -62.693 -35.472  1.00  0.00     0.293 HD
ENDBRANCH   6  24
BRANCH   8  26
ATOM     26  O   UNL     1      -9.487 -63.199 -36.528  1.00  0.00    -0.508 OA
ATOM     27  H   UNL     1      -9.312 -63.020 -37.509  1.00  0.00     0.293 HD
ENDBRANCH   8  26
TORSDOF 6
ENDMDL
