MODEL 1
REMARK VINA RESULT:    -5.714      0.000      0.000
REMARK INTER + INTRA:          -6.559
REMARK INTER:                  -6.549
REMARK INTRA:                  -0.010
REMARK UNBOUND:                -0.010
REMARK SMILES O=C([O-])C=Cc1ccc(O)cc1
REMARK SMILES IDX 6 1 7 2 12 3 8 4 11 5 9 6 5 7 4 8 2 9 1 10 3 11 10 12
REMARK H PARENT 10 13
REMARK Flexibility Score: inf
ROOT
ATOM      1  C   UNL     1      73.061  40.006  -6.526  1.00  0.00    -0.025 A 
ATOM      2  C   UNL     1      72.095  40.026  -5.509  1.00  0.00     0.012 A 
ATOM      3  C   UNL     1      72.652  39.839  -7.861  1.00  0.00     0.012 A 
ATOM      4  C   UNL     1      70.736  39.934  -5.825  1.00  0.00     0.047 A 
ATOM      5  C   UNL     1      71.292  39.747  -8.175  1.00  0.00     0.047 A 
ATOM      6  C   UNL     1      70.330  39.797  -7.157  1.00  0.00     0.115 A 
ENDROOT
BRANCH   1   7
ATOM      7  C   UNL     1      74.493  40.053  -6.164  1.00  0.00     0.010 C 
ATOM      8  C   UNL     1      75.100  41.060  -5.517  1.00  0.00     0.025 C 
BRANCH   8   9
ATOM      9  C   UNL     1      74.426  42.214  -4.892  1.00  0.00     0.064 C 
ATOM     10  O   UNL     1      74.159  43.256  -5.548  1.00  0.00    -0.545 OA
ATOM     11  O   UNL     1      74.017  42.123  -3.568  1.00  0.00    -0.545 OA
ENDBRANCH   8   9
ENDBRANCH   1   7
BRANCH   6  12
ATOM     12  O   UNL     1      68.973  39.708  -7.457  1.00  0.00    -0.508 OA
ATOM     13  H   UNL     1      68.415  38.918  -7.156  1.00  0.00     0.293 HD
ENDBRANCH   6  12
TORSDOF 3
ENDMDL
MODEL 2
REMARK VINA RESULT:    -5.267      2.231      4.161
REMARK INTER + INTRA:          -6.047
REMARK INTER:                  -5.752
REMARK INTRA:                  -0.295
REMARK UNBOUND:                -0.010
REMARK SMILES O=C([O-])C=Cc1ccc(O)cc1
REMARK SMILES IDX 6 1 7 2 12 3 8 4 11 5 9 6 5 7 4 8 2 9 1 10 3 11 10 12
REMARK H PARENT 10 13
REMARK Flexibility Score: inf
ROOT
ATOM      1  C   UNL     1      72.994  39.401  -7.360  1.00  0.00    -0.025 A 
ATOM      2  C   UNL     1      71.756  39.230  -6.724  1.00  0.00     0.012 A 
ATOM      3  C   UNL     1      73.961  40.236  -6.772  1.00  0.00     0.012 A 
ATOM      4  C   UNL     1      71.505  39.843  -5.492  1.00  0.00     0.047 A 
ATOM      5  C   UNL     1      73.708  40.848  -5.540  1.00  0.00     0.047 A 
ATOM      6  C   UNL     1      72.479  40.649  -4.895  1.00  0.00     0.115 A 
ENDROOT
BRANCH   1   7
ATOM      7  C   UNL     1      73.218  38.787  -8.686  1.00  0.00     0.010 C 
ATOM      8  C   UNL     1      72.864  39.327  -9.863  1.00  0.00     0.025 C 
BRANCH   8   9
ATOM      9  C   UNL     1      72.357  40.698 -10.066  1.00  0.00     0.064 C 
ATOM     10  O   UNL     1      71.122  40.942 -10.125  1.00  0.00    -0.545 OA
ATOM     11  O   UNL     1      73.259  41.751 -10.125  1.00  0.00    -0.545 OA
ENDBRANCH   8   9
ENDBRANCH   1   7
BRANCH   6  12
ATOM     12  O   UNL     1      72.216  41.252  -3.668  1.00  0.00    -0.508 OA
ATOM     13  H   UNL     1      71.268  41.400  -3.342  1.00  0.00     0.293 HD
ENDBRANCH   6  12
TORSDOF 3
ENDMDL
MODEL 3
REMARK VINA RESULT:    -5.074      1.581      4.703
REMARK INTER + INTRA:          -5.826
REMARK INTER:                  -5.598
REMARK INTRA:                  -0.228
REMARK UNBOUND:                -0.010
REMARK SMILES O=C([O-])C=Cc1ccc(O)cc1
REMARK SMILES IDX 6 1 7 2 12 3 8 4 11 5 9 6 5 7 4 8 2 9 1 10 3 11 10 12
REMARK H PARENT 10 13
REMARK Flexibility Score: inf
ROOT
ATOM      1  C   UNL     1      74.014  40.339  -6.875  1.00  0.00    -0.025 A 
ATOM      2  C   UNL     1      74.922  41.378  -7.126  1.00  0.00     0.012 A 
ATOM      3  C   UNL     1      73.307  40.321  -5.660  1.00  0.00     0.012 A 
ATOM      4  C   UNL     1      75.083  42.413  -6.200  1.00  0.00     0.047 A 
ATOM      5  C   UNL     1      73.469  41.357  -4.735  1.00  0.00     0.047 A 
ATOM      6  C   UNL     1      74.357  42.409  -5.005  1.00  0.00     0.115 A 
ENDROOT
BRANCH   1   7
ATOM      7  C   UNL     1      73.899  39.229  -7.844  1.00  0.00     0.010 C 
ATOM      8  C   UNL     1      72.829  38.976  -8.615  1.00  0.00     0.025 C 
BRANCH   8   9
ATOM      9  C   UNL     1      71.653  39.853  -8.772  1.00  0.00     0.064 C 
ATOM     10  O   UNL     1      71.558  40.662  -9.733  1.00  0.00    -0.545 OA
ATOM     11  O   UNL     1      70.598  39.735  -7.878  1.00  0.00    -0.545 OA
ENDBRANCH   8   9
ENDBRANCH   1   7
BRANCH   6  12
ATOM     12  O   UNL     1      74.526  43.447  -4.092  1.00  0.00    -0.508 OA
ATOM     13  H   UNL     1      73.913  44.253  -4.087  1.00  0.00     0.293 HD
ENDBRANCH   6  12
TORSDOF 3
ENDMDL
MODEL 4
REMARK VINA RESULT:    -5.027      1.383      2.212
REMARK INTER + INTRA:          -5.772
REMARK INTER:                  -6.327
REMARK INTRA:                   0.555
REMARK UNBOUND:                -0.010
REMARK SMILES O=C([O-])C=Cc1ccc(O)cc1
REMARK SMILES IDX 6 1 7 2 12 3 8 4 11 5 9 6 5 7 4 8 2 9 1 10 3 11 10 12
REMARK H PARENT 10 13
REMARK Flexibility Score: inf
ROOT
ATOM      1  C   UNL     1      71.590  40.140  -5.273  1.00  0.00    -0.025 A 
ATOM      2  C   UNL     1      72.684  39.739  -6.054  1.00  0.00     0.012 A 
ATOM      3  C   UNL     1      70.311  40.190  -5.854  1.00  0.00     0.012 A 
ATOM      4  C   UNL     1      72.495  39.343  -7.382  1.00  0.00     0.047 A 
ATOM      5  C   UNL     1      70.124  39.794  -7.182  1.00  0.00     0.047 A 
ATOM      6  C   UNL     1      71.217  39.366  -7.949  1.00  0.00     0.115 A 
ENDROOT
BRANCH   1   7
ATOM      7  C   UNL     1      71.821  40.604  -3.889  1.00  0.00     0.010 C 
ATOM      8  C   UNL     1      72.867  41.340  -3.479  1.00  0.00     0.025 C 
BRANCH   8   9
ATOM      9  C   UNL     1      73.874  41.969  -4.353  1.00  0.00     0.064 C 
ATOM     10  O   UNL     1      73.823  43.195  -4.640  1.00  0.00    -0.545 OA
ATOM     11  O   UNL     1      74.939  41.209  -4.815  1.00  0.00    -0.545 OA
ENDBRANCH   8   9
ENDBRANCH   1   7
BRANCH   6  12
ATOM     12  O   UNL     1      71.043  38.968  -9.272  1.00  0.00    -0.508 OA
ATOM     13  H   UNL     1      70.432  38.197  -9.518  1.00  0.00     0.293 HD
ENDBRANCH   6  12
TORSDOF 3
ENDMDL
MODEL 5
REMARK VINA RESULT:    -5.012      2.436      5.320
REMARK INTER + INTRA:          -5.754
REMARK INTER:                  -6.157
REMARK INTRA:                   0.403
REMARK UNBOUND:                -0.010
REMARK SMILES O=C([O-])C=Cc1ccc(O)cc1
REMARK SMILES IDX 6 1 7 2 12 3 8 4 11 5 9 6 5 7 4 8 2 9 1 10 3 11 10 12
REMARK H PARENT 10 13
REMARK Flexibility Score: inf
ROOT
ATOM      1  C   UNL     1      73.701  42.249  -4.322  1.00  0.00    -0.025 A 
ATOM      2  C   UNL     1      74.076  43.500  -4.834  1.00  0.00     0.012 A 
ATOM      3  C   UNL     1      73.309  42.145  -2.975  1.00  0.00     0.012 A 
ATOM      4  C   UNL     1      74.009  44.640  -4.027  1.00  0.00     0.047 A 
ATOM      5  C   UNL     1      73.243  43.287  -2.171  1.00  0.00     0.047 A 
ATOM      6  C   UNL     1      73.590  44.539  -2.696  1.00  0.00     0.115 A 
ENDROOT
BRANCH   1   7
ATOM      7  C   UNL     1      73.829  41.050  -5.176  1.00  0.00     0.010 C 
ATOM      8  C   UNL     1      72.862  40.145  -5.397  1.00  0.00     0.025 C 
BRANCH   8   9
ATOM      9  C   UNL     1      71.453  40.270  -4.982  1.00  0.00     0.064 C 
ATOM     10  O   UNL     1      70.519  40.324  -5.827  1.00  0.00    -0.545 OA
ATOM     11  O   UNL     1      71.142  40.261  -3.629  1.00  0.00    -0.545 OA
ENDBRANCH   8   9
ENDBRANCH   1   7
BRANCH   6  12
ATOM     12  O   UNL     1      73.528  45.683  -1.905  1.00  0.00    -0.508 OA
ATOM     13  H   UNL     1      73.560  45.631  -0.894  1.00  0.00     0.293 HD
ENDBRANCH   6  12
TORSDOF 3
ENDMDL
MODEL 6
REMARK VINA RESULT:    -4.823     15.223     16.251
REMARK INTER + INTRA:          -5.538
REMARK INTER:                  -5.247
REMARK INTRA:                  -0.291
REMARK UNBOUND:                -0.010
REMARK SMILES O=C([O-])C=Cc1ccc(O)cc1
REMARK SMILES IDX 6 1 7 2 12 3 8 4 11 5 9 6 5 7 4 8 2 9 1 10 3 11 10 12
REMARK H PARENT 10 13
REMARK Flexibility Score: inf
ROOT
ATOM      1  C   UNL     1      70.850  49.624   7.873  1.00  0.00    -0.025 A 
ATOM      2  C   UNL     1      69.997  49.009   8.801  1.00  0.00     0.012 A 
ATOM      3  C   UNL     1      70.553  49.539   6.502  1.00  0.00     0.012 A 
ATOM      4  C   UNL     1      68.834  48.363   8.368  1.00  0.00     0.047 A 
ATOM      5  C   UNL     1      69.390  48.893   6.071  1.00  0.00     0.047 A 
ATOM      6  C   UNL     1      68.525  48.305   7.005  1.00  0.00     0.115 A 
ENDROOT
BRANCH   1   7
ATOM      7  C   UNL     1      72.100  50.255   8.348  1.00  0.00     0.010 C 
ATOM      8  C   UNL     1      73.277  49.629   8.506  1.00  0.00     0.025 C 
BRANCH   8   9
ATOM      9  C   UNL     1      73.588  48.255   8.069  1.00  0.00     0.064 C 
ATOM     10  O   UNL     1      73.481  47.273   8.853  1.00  0.00    -0.545 OA
ATOM     11  O   UNL     1      73.942  48.029   6.746  1.00  0.00    -0.545 OA
ENDBRANCH   8   9
ENDBRANCH   1   7
BRANCH   6  12
ATOM     12  O   UNL     1      67.363  47.660   6.589  1.00  0.00    -0.508 OA
ATOM     13  H   UNL     1      67.280  47.266   5.660  1.00  0.00     0.293 HD
ENDBRANCH   6  12
TORSDOF 3
ENDMDL
MODEL 7
REMARK VINA RESULT:    -4.656     14.895     16.395
REMARK INTER + INTRA:          -5.346
REMARK INTER:                  -5.061
REMARK INTRA:                  -0.285
REMARK UNBOUND:                -0.010
REMARK SMILES O=C([O-])C=Cc1ccc(O)cc1
REMARK SMILES IDX 6 1 7 2 12 3 8 4 11 5 9 6 5 7 4 8 2 9 1 10 3 11 10 12
REMARK H PARENT 10 13
REMARK Flexibility Score: inf
ROOT
ATOM      1  C   UNL     1      71.593  48.871   6.875  1.00  0.00    -0.025 A 
ATOM      2  C   UNL     1      72.040  49.643   7.957  1.00  0.00     0.012 A 
ATOM      3  C   UNL     1      72.350  47.761   6.461  1.00  0.00     0.012 A 
ATOM      4  C   UNL     1      73.199  49.280   8.650  1.00  0.00     0.047 A 
ATOM      5  C   UNL     1      73.508  47.400   7.156  1.00  0.00     0.047 A 
ATOM      6  C   UNL     1      73.934  48.158   8.256  1.00  0.00     0.115 A 
ENDROOT
BRANCH   1   7
ATOM      7  C   UNL     1      70.395  49.303   6.124  1.00  0.00     0.010 C 
ATOM      8  C   UNL     1      69.150  48.838   6.311  1.00  0.00     0.025 C 
BRANCH   8   9
ATOM      9  C   UNL     1      68.716  47.952   7.408  1.00  0.00     0.064 C 
ATOM     10  O   UNL     1      68.500  48.396   8.567  1.00  0.00    -0.545 OA
ATOM     11  O   UNL     1      68.475  46.612   7.140  1.00  0.00    -0.545 OA
ENDBRANCH   8   9
ENDBRANCH   1   7
BRANCH   6  12
ATOM     12  O   UNL     1      75.085  47.808   8.957  1.00  0.00    -0.508 OA
ATOM     13  H   UNL     1      75.619  46.980   8.719  1.00  0.00     0.293 HD
ENDBRANCH   6  12
TORSDOF 3
ENDMDL
MODEL 8
REMARK VINA RESULT:    -4.641     11.975     13.984
REMARK INTER + INTRA:          -5.329
REMARK INTER:                  -5.037
REMARK INTRA:                  -0.292
REMARK UNBOUND:                -0.010
REMARK SMILES O=C([O-])C=Cc1ccc(O)cc1
REMARK SMILES IDX 6 1 7 2 12 3 8 4 11 5 9 6 5 7 4 8 2 9 1 10 3 11 10 12
REMARK H PARENT 10 13
REMARK Flexibility Score: inf
ROOT
ATOM      1  C   UNL     1      72.291  47.354   6.199  1.00  0.00    -0.025 A 
ATOM      2  C   UNL     1      71.957  46.042   6.567  1.00  0.00     0.012 A 
ATOM      3  C   UNL     1      72.964  47.579   4.985  1.00  0.00     0.012 A 
ATOM      4  C   UNL     1      72.244  44.975   5.710  1.00  0.00     0.047 A 
ATOM      5  C   UNL     1      73.250  46.510   4.130  1.00  0.00     0.047 A 
ATOM      6  C   UNL     1      72.887  45.204   4.489  1.00  0.00     0.115 A 
ENDROOT
BRANCH   1   7
ATOM      7  C   UNL     1      72.026  48.460   7.143  1.00  0.00     0.010 C 
ATOM      8  C   UNL     1      71.000  49.322   7.063  1.00  0.00     0.025 C 
BRANCH   8   9
ATOM      9  C   UNL     1      69.857  49.218   6.137  1.00  0.00     0.064 C 
ATOM     10  O   UNL     1      69.856  49.805   5.022  1.00  0.00    -0.545 OA
ATOM     11  O   UNL     1      68.786  48.401   6.472  1.00  0.00    -0.545 OA
ENDBRANCH   8   9
ENDBRANCH   1   7
BRANCH   6  12
ATOM     12  O   UNL     1      73.165  44.132   3.645  1.00  0.00    -0.508 OA
ATOM     13  H   UNL     1      72.460  43.442   3.415  1.00  0.00     0.293 HD
ENDBRANCH   6  12
TORSDOF 3
ENDMDL
MODEL 9
REMARK VINA RESULT:    -4.613     15.428     16.685
REMARK INTER + INTRA:          -5.297
REMARK INTER:                  -5.019
REMARK INTRA:                  -0.279
REMARK UNBOUND:                -0.010
REMARK SMILES O=C([O-])C=Cc1ccc(O)cc1
REMARK SMILES IDX 6 1 7 2 12 3 8 4 11 5 9 6 5 7 4 8 2 9 1 10 3 11 10 12
REMARK H PARENT 10 13
REMARK Flexibility Score: inf
ROOT
ATOM      1  C   UNL     1      71.606  49.286   8.355  1.00  0.00    -0.025 A 
ATOM      2  C   UNL     1      70.888  49.346   7.152  1.00  0.00     0.012 A 
ATOM      3  C   UNL     1      70.909  49.129   9.566  1.00  0.00     0.012 A 
ATOM      4  C   UNL     1      69.497  49.199   7.153  1.00  0.00     0.047 A 
ATOM      5  C   UNL     1      69.519  48.982   9.565  1.00  0.00     0.047 A 
ATOM      6  C   UNL     1      68.809  49.014   8.356  1.00  0.00     0.115 A 
ENDROOT
BRANCH   1   7
ATOM      7  C   UNL     1      73.069  49.496   8.335  1.00  0.00     0.010 C 
ATOM      8  C   UNL     1      73.992  48.531   8.194  1.00  0.00     0.025 C 
BRANCH   8   9
ATOM      9  C   UNL     1      73.721  47.122   7.854  1.00  0.00     0.064 C 
ATOM     10  O   UNL     1      73.781  46.707   6.666  1.00  0.00    -0.545 OA
ATOM     11  O   UNL     1      73.461  46.218   8.875  1.00  0.00    -0.545 OA
ENDBRANCH   8   9
ENDBRANCH   1   7
BRANCH   6  12
ATOM     12  O   UNL     1      67.424  48.867   8.342  1.00  0.00    -0.508 OA
ATOM     13  H   UNL     1      66.951  48.237   8.979  1.00  0.00     0.293 HD
ENDBRANCH   6  12
TORSDOF 3
ENDMDL
