MODEL 1
REMARK VINA RESULT:    -3.403      0.000      0.000
REMARK INTER + INTRA:          -4.291
REMARK INTER:                  -4.000
REMARK INTRA:                  -0.291
REMARK UNBOUND:                -0.291
REMARK SMILES O=c1c(O)c(-c2ccc(O)cc2)oc2cc(O)cc(O)c12
REMARK SMILES IDX 5 1 3 2 2 3 1 4 21 5 19 6 18 7 16 8 15 9 14 10 13 11 6 12
REMARK SMILES IDX 7 13 8 14 9 15 12 16 11 17 10 18 4 20 20 22 17 24
REMARK H PARENT 10 19 4 21 20 23 17 25
REMARK Flexibility Score: inf
ROOT
ATOM      1  C   UNL     1       1.309  14.215  13.721  1.00  0.00     0.180 A 
ATOM      2  C   UNL     1       0.275  14.864  13.019  1.00  0.00     0.208 A 
ATOM      3  C   UNL     1      -0.202  16.094  13.498  1.00  0.00     0.238 A 
ATOM      4  O   UNL     1      -1.119  16.690  12.872  1.00  0.00    -0.285 OA
ATOM      5  C   UNL     1       0.345  16.643  14.676  1.00  0.00     0.111 A 
ATOM      6  C   UNL     1      -0.081  17.875  15.227  1.00  0.00     0.134 A 
ATOM      7  C   UNL     1       0.507  18.350  16.409  1.00  0.00     0.093 A 
ATOM      8  C   UNL     1       1.512  17.616  17.049  1.00  0.00     0.123 A 
ATOM      9  C   UNL     1       1.937  16.401  16.509  1.00  0.00     0.094 A 
ATOM     10  C   UNL     1       1.364  15.911  15.331  1.00  0.00     0.146 A 
ATOM     11  O   UNL     1       1.790  14.755  14.837  1.00  0.00    -0.452 OA
ENDROOT
BRANCH   1  12
ATOM     12  C   UNL     1       1.879  12.925  13.269  1.00  0.00     0.021 A 
ATOM     13  C   UNL     1       1.322  11.697  13.673  1.00  0.00     0.016 A 
ATOM     14  C   UNL     1       1.863  10.492  13.213  1.00  0.00     0.047 A 
ATOM     15  C   UNL     1       2.955  10.498  12.338  1.00  0.00     0.115 A 
ATOM     16  C   UNL     1       2.961  12.922  12.374  1.00  0.00     0.016 A 
ATOM     17  C   UNL     1       3.500  11.716  11.917  1.00  0.00     0.047 A 
BRANCH  15  18
ATOM     18  O   UNL     1       3.503   9.304  11.875  1.00  0.00    -0.508 OA
ATOM     19  H   UNL     1       3.076   8.785  11.116  1.00  0.00     0.293 HD
ENDBRANCH  15  18
ENDBRANCH   1  12
BRANCH   2  20
ATOM     20  O   UNL     1      -0.285  14.275  11.882  1.00  0.00    -0.502 OA
ATOM     21  H   UNL     1       0.183  14.275  10.984  1.00  0.00     0.293 HD
ENDBRANCH   2  20
BRANCH   6  22
ATOM     22  O   UNL     1      -1.082  18.629  14.613  1.00  0.00    -0.507 OA
ATOM     23  H   UNL     1      -0.962  19.021  13.686  1.00  0.00     0.293 HD
ENDBRANCH   6  22
BRANCH   8  24
ATOM     24  O   UNL     1       2.096  18.087  18.223  1.00  0.00    -0.508 OA
ATOM     25  H   UNL     1       1.537  18.343  19.028  1.00  0.00     0.293 HD
ENDBRANCH   8  24
TORSDOF 5
ENDMDL
MODEL 2
REMARK VINA RESULT:    -3.290      1.938      6.655
REMARK INTER + INTRA:          -4.158
REMARK INTER:                  -3.860
REMARK INTRA:                  -0.298
REMARK UNBOUND:                -0.291
REMARK SMILES O=c1c(O)c(-c2ccc(O)cc2)oc2cc(O)cc(O)c12
REMARK SMILES IDX 5 1 3 2 2 3 1 4 21 5 19 6 18 7 16 8 15 9 14 10 13 11 6 12
REMARK SMILES IDX 7 13 8 14 9 15 12 16 11 17 10 18 4 20 20 22 17 24
REMARK H PARENT 10 19 4 21 20 23 17 25
REMARK Flexibility Score: inf
ROOT
ATOM      1  C   UNL     1       1.300  14.778  15.269  1.00  0.00     0.180 A 
ATOM      2  C   UNL     1       0.077  14.085  15.342  1.00  0.00     0.208 A 
ATOM      3  C   UNL     1      -0.038  12.841  14.701  1.00  0.00     0.238 A 
ATOM      4  O   UNL     1      -1.125  12.206  14.768  1.00  0.00    -0.285 OA
ATOM      5  C   UNL     1       1.060  12.323  13.983  1.00  0.00     0.111 A 
ATOM      6  C   UNL     1       1.026  11.080  13.307  1.00  0.00     0.134 A 
ATOM      7  C   UNL     1       2.158  10.638  12.607  1.00  0.00     0.093 A 
ATOM      8  C   UNL     1       3.322  11.415  12.570  1.00  0.00     0.123 A 
ATOM      9  C   UNL     1       3.361  12.640  13.237  1.00  0.00     0.094 A 
ATOM     10  C   UNL     1       2.243  13.098  13.942  1.00  0.00     0.146 A 
ATOM     11  O   UNL     1       2.309  14.265  14.571  1.00  0.00    -0.452 OA
ENDROOT
BRANCH   1  12
ATOM     12  C   UNL     1       1.505  16.085  15.934  1.00  0.00     0.021 A 
ATOM     13  C   UNL     1       1.964  16.167  17.262  1.00  0.00     0.016 A 
ATOM     14  C   UNL     1       2.173  17.413  17.861  1.00  0.00     0.047 A 
ATOM     15  C   UNL     1       1.939  18.590  17.139  1.00  0.00     0.115 A 
ATOM     16  C   UNL     1       1.293  17.270  15.211  1.00  0.00     0.016 A 
ATOM     17  C   UNL     1       1.502  18.515  15.813  1.00  0.00     0.047 A 
BRANCH  15  18
ATOM     18  O   UNL     1       2.143  19.837  17.726  1.00  0.00    -0.508 OA
ATOM     19  H   UNL     1       1.506  20.204  18.423  1.00  0.00     0.293 HD
ENDBRANCH  15  18
ENDBRANCH   1  12
BRANCH   2  20
ATOM     20  O   UNL     1      -1.013  14.643  16.017  1.00  0.00    -0.502 OA
ATOM     21  H   UNL     1      -1.838  14.105  16.253  1.00  0.00     0.293 HD
ENDBRANCH   2  20
BRANCH   6  22
ATOM     22  O   UNL     1      -0.120  10.284  13.323  1.00  0.00    -0.507 OA
ATOM     23  H   UNL     1      -0.819  10.340  12.591  1.00  0.00     0.293 HD
ENDBRANCH   6  22
BRANCH   8  24
ATOM     24  O   UNL     1       4.447  10.976  11.875  1.00  0.00    -0.508 OA
ATOM     25  H   UNL     1       4.460  10.929  10.864  1.00  0.00     0.293 HD
ENDBRANCH   8  24
TORSDOF 5
ENDMDL
MODEL 3
REMARK VINA RESULT:    -2.237      2.257      3.438
REMARK INTER + INTRA:          -2.920
REMARK INTER:                  -3.151
REMARK INTRA:                   0.231
REMARK UNBOUND:                -0.291
REMARK SMILES O=c1c(O)c(-c2ccc(O)cc2)oc2cc(O)cc(O)c12
REMARK SMILES IDX 5 1 3 2 2 3 1 4 21 5 19 6 18 7 16 8 15 9 14 10 13 11 6 12
REMARK SMILES IDX 7 13 8 14 9 15 12 16 11 17 10 18 4 20 20 22 17 24
REMARK H PARENT 10 19 4 21 20 23 17 25
REMARK Flexibility Score: inf
ROOT
ATOM      1  C   UNL     1       0.700  13.881  14.903  1.00  0.00     0.180 A 
ATOM      2  C   UNL     1       0.955  13.801  16.285  1.00  0.00     0.208 A 
ATOM      3  C   UNL     1       1.341  14.963  16.972  1.00  0.00     0.238 A 
ATOM      4  O   UNL     1       1.561  14.907  18.212  1.00  0.00    -0.285 OA
ATOM      5  C   UNL     1       1.486  16.175  16.265  1.00  0.00     0.111 A 
ATOM      6  C   UNL     1       1.874  17.389  16.881  1.00  0.00     0.134 A 
ATOM      7  C   UNL     1       2.004  18.551  16.107  1.00  0.00     0.093 A 
ATOM      8  C   UNL     1       1.754  18.522  14.730  1.00  0.00     0.123 A 
ATOM      9  C   UNL     1       1.369  17.328  14.119  1.00  0.00     0.094 A 
ATOM     10  C   UNL     1       1.232  16.159  14.873  1.00  0.00     0.146 A 
ATOM     11  O   UNL     1       0.861  15.038  14.267  1.00  0.00    -0.452 OA
ENDROOT
BRANCH   1  12
ATOM     12  C   UNL     1       0.270  12.704  14.112  1.00  0.00     0.021 A 
ATOM     13  C   UNL     1       0.760  11.416  14.392  1.00  0.00     0.016 A 
ATOM     14  C   UNL     1       0.321  10.316  13.647  1.00  0.00     0.047 A 
ATOM     15  C   UNL     1      -0.619  10.489  12.625  1.00  0.00     0.115 A 
ATOM     16  C   UNL     1      -0.688  12.865  13.098  1.00  0.00     0.016 A 
ATOM     17  C   UNL     1      -1.125  11.764  12.355  1.00  0.00     0.047 A 
BRANCH  15  18
ATOM     18  O   UNL     1      -1.063   9.401  11.875  1.00  0.00    -0.508 OA
ATOM     19  H   UNL     1      -1.118   9.443  10.864  1.00  0.00     0.293 HD
ENDBRANCH  15  18
ENDBRANCH   1  12
BRANCH   2  20
ATOM     20  O   UNL     1       0.854  12.578  16.953  1.00  0.00    -0.502 OA
ATOM     21  H   UNL     1       1.664  12.010  17.172  1.00  0.00     0.293 HD
ENDBRANCH   2  20
BRANCH   6  22
ATOM     22  O   UNL     1       2.132  17.450  18.251  1.00  0.00    -0.507 OA
ATOM     23  H   UNL     1       3.031  17.748  18.612  1.00  0.00     0.293 HD
ENDBRANCH   6  22
BRANCH   8  24
ATOM     24  O   UNL     1       1.884  19.677  13.961  1.00  0.00    -0.508 OA
ATOM     25  H   UNL     1       1.588  20.581  14.308  1.00  0.00     0.293 HD
ENDBRANCH   8  24
TORSDOF 5
ENDMDL
MODEL 4
REMARK VINA RESULT:    -2.180      1.369      3.154
REMARK INTER + INTRA:          -2.853
REMARK INTER:                  -2.607
REMARK INTRA:                  -0.247
REMARK UNBOUND:                -0.291
REMARK SMILES O=c1c(O)c(-c2ccc(O)cc2)oc2cc(O)cc(O)c12
REMARK SMILES IDX 5 1 3 2 2 3 1 4 21 5 19 6 18 7 16 8 15 9 14 10 13 11 6 12
REMARK SMILES IDX 7 13 8 14 9 15 12 16 11 17 10 18 4 20 20 22 17 24
REMARK H PARENT 10 19 4 21 20 23 17 25
REMARK Flexibility Score: inf
ROOT
ATOM      1  C   UNL     1       1.918  13.865  13.843  1.00  0.00     0.180 A 
ATOM      2  C   UNL     1       2.193  14.265  15.165  1.00  0.00     0.208 A 
ATOM      3  C   UNL     1       1.713  15.506  15.612  1.00  0.00     0.238 A 
ATOM      4  O   UNL     1       1.943  15.869  16.797  1.00  0.00    -0.285 OA
ATOM      5  C   UNL     1       0.989  16.333  14.729  1.00  0.00     0.111 A 
ATOM      6  C   UNL     1       0.474  17.598  15.099  1.00  0.00     0.134 A 
ATOM      7  C   UNL     1      -0.229  18.366  14.160  1.00  0.00     0.093 A 
ATOM      8  C   UNL     1      -0.427  17.892  12.857  1.00  0.00     0.123 A 
ATOM      9  C   UNL     1       0.077  16.644  12.488  1.00  0.00     0.094 A 
ATOM     10  C   UNL     1       0.780  15.863  13.411  1.00  0.00     0.146 A 
ATOM     11  O   UNL     1       1.244  14.678  13.034  1.00  0.00    -0.452 OA
ENDROOT
BRANCH   1  12
ATOM     12  C   UNL     1       2.372  12.563  13.303  1.00  0.00     0.021 A 
ATOM     13  C   UNL     1       3.509  12.469  12.479  1.00  0.00     0.016 A 
ATOM     14  C   UNL     1       3.932  11.224  12.001  1.00  0.00     0.047 A 
ATOM     15  C   UNL     1       3.235  10.061  12.349  1.00  0.00     0.115 A 
ATOM     16  C   UNL     1       1.691  11.389  13.664  1.00  0.00     0.016 A 
ATOM     17  C   UNL     1       2.116  10.147  13.184  1.00  0.00     0.047 A 
BRANCH  15  18
ATOM     18  O   UNL     1       3.647   8.817  11.877  1.00  0.00    -0.508 OA
ATOM     19  H   UNL     1       3.210   7.960  12.195  1.00  0.00     0.293 HD
ENDBRANCH  15  18
ENDBRANCH   1  12
BRANCH   2  20
ATOM     20  O   UNL     1       2.956  13.449  16.005  1.00  0.00    -0.502 OA
ATOM     21  H   UNL     1       2.757  13.351  16.993  1.00  0.00     0.293 HD
ENDBRANCH   2  20
BRANCH   6  22
ATOM     22  O   UNL     1       0.657  18.099  16.389  1.00  0.00    -0.507 OA
ATOM     23  H   UNL     1       0.945  17.503  17.157  1.00  0.00     0.293 HD
ENDBRANCH   6  22
BRANCH   8  24
ATOM     24  O   UNL     1      -1.125  18.655  11.924  1.00  0.00    -0.508 OA
ATOM     25  H   UNL     1      -1.143  18.405  10.942  1.00  0.00     0.293 HD
ENDBRANCH   8  24
TORSDOF 5
ENDMDL
MODEL 5
REMARK VINA RESULT:    -2.006      1.686      2.021
REMARK INTER + INTRA:          -2.648
REMARK INTER:                  -2.849
REMARK INTRA:                   0.200
REMARK UNBOUND:                -0.291
REMARK SMILES O=c1c(O)c(-c2ccc(O)cc2)oc2cc(O)cc(O)c12
REMARK SMILES IDX 5 1 3 2 2 3 1 4 21 5 19 6 18 7 16 8 15 9 14 10 13 11 6 12
REMARK SMILES IDX 7 13 8 14 9 15 12 16 11 17 10 18 4 20 20 22 17 24
REMARK H PARENT 10 19 4 21 20 23 17 25
REMARK Flexibility Score: inf
ROOT
ATOM      1  C   UNL     1       1.828  13.869  13.848  1.00  0.00     0.180 A 
ATOM      2  C   UNL     1       1.898  15.087  13.147  1.00  0.00     0.208 A 
ATOM      3  C   UNL     1       1.349  16.240  13.731  1.00  0.00     0.238 A 
ATOM      4  O   UNL     1       1.416  17.338  13.116  1.00  0.00    -0.285 OA
ATOM      5  C   UNL     1       0.723  16.151  14.991  1.00  0.00     0.111 A 
ATOM      6  C   UNL     1       0.142  17.263  15.647  1.00  0.00     0.134 A 
ATOM      7  C   UNL     1      -0.471  17.092  16.896  1.00  0.00     0.093 A 
ATOM      8  C   UNL     1      -0.514  15.831  17.502  1.00  0.00     0.123 A 
ATOM      9  C   UNL     1       0.059  14.732  16.861  1.00  0.00     0.094 A 
ATOM     10  C   UNL     1       0.676  14.882  15.614  1.00  0.00     0.146 A 
ATOM     11  O   UNL     1       1.216  13.821  15.029  1.00  0.00    -0.452 OA
ENDROOT
BRANCH   1  12
ATOM     12  C   UNL     1       2.400  12.614  13.308  1.00  0.00     0.021 A 
ATOM     13  C   UNL     1       3.591  12.616  12.558  1.00  0.00     0.016 A 
ATOM     14  C   UNL     1       4.125  11.415  12.080  1.00  0.00     0.047 A 
ATOM     15  C   UNL     1       3.485  10.201  12.353  1.00  0.00     0.115 A 
ATOM     16  C   UNL     1       1.776  11.389  13.595  1.00  0.00     0.016 A 
ATOM     17  C   UNL     1       2.312  10.191  13.114  1.00  0.00     0.047 A 
BRANCH  15  18
ATOM     18  O   UNL     1       4.007   8.999  11.879  1.00  0.00    -0.508 OA
ATOM     19  H   UNL     1       4.198   8.857  10.894  1.00  0.00     0.293 HD
ENDBRANCH  15  18
ENDBRANCH   1  12
BRANCH   2  20
ATOM     20  O   UNL     1       2.479  15.138  11.876  1.00  0.00    -0.502 OA
ATOM     21  H   UNL     1       3.199  14.489  11.582  1.00  0.00     0.293 HD
ENDBRANCH   2  20
BRANCH   6  22
ATOM     22  O   UNL     1       0.168  18.533  15.068  1.00  0.00    -0.507 OA
ATOM     23  H   UNL     1      -0.083  19.363  15.591  1.00  0.00     0.293 HD
ENDBRANCH   6  22
BRANCH   8  24
ATOM     24  O   UNL     1      -1.123  15.661  18.743  1.00  0.00    -0.508 OA
ATOM     25  H   UNL     1      -0.831  16.192  19.555  1.00  0.00     0.293 HD
ENDBRANCH   8  24
TORSDOF 5
ENDMDL
MODEL 6
REMARK VINA RESULT:    -1.943      3.309      5.293
REMARK INTER + INTRA:          -2.575
REMARK INTER:                  -3.052
REMARK INTRA:                   0.477
REMARK UNBOUND:                -0.291
REMARK SMILES O=c1c(O)c(-c2ccc(O)cc2)oc2cc(O)cc(O)c12
REMARK SMILES IDX 5 1 3 2 2 3 1 4 21 5 19 6 18 7 16 8 15 9 14 10 13 11 6 12
REMARK SMILES IDX 7 13 8 14 9 15 12 16 11 17 10 18 4 20 20 22 17 24
REMARK H PARENT 10 19 4 21 20 23 17 25
REMARK Flexibility Score: inf
ROOT
ATOM      1  C   UNL     1       0.716  14.632  16.190  1.00  0.00     0.180 A 
ATOM      2  C   UNL     1       1.824  14.191  15.443  1.00  0.00     0.208 A 
ATOM      3  C   UNL     1       2.225  14.933  14.321  1.00  0.00     0.238 A 
ATOM      4  O   UNL     1       3.224  14.553  13.651  1.00  0.00    -0.285 OA
ATOM      5  C   UNL     1       1.503  16.086  13.953  1.00  0.00     0.111 A 
ATOM      6  C   UNL     1       1.839  16.888  12.836  1.00  0.00     0.134 A 
ATOM      7  C   UNL     1       1.064  18.016  12.530  1.00  0.00     0.093 A 
ATOM      8  C   UNL     1      -0.040  18.358  13.321  1.00  0.00     0.123 A 
ATOM      9  C   UNL     1      -0.374  17.573  14.424  1.00  0.00     0.094 A 
ATOM     10  C   UNL     1       0.387  16.444  14.747  1.00  0.00     0.146 A 
ATOM     11  O   UNL     1       0.049  15.717  15.805  1.00  0.00    -0.452 OA
ENDROOT
BRANCH   1  12
ATOM     12  C   UNL     1       0.243  13.915  17.397  1.00  0.00     0.021 A 
ATOM     13  C   UNL     1       0.738  12.642  17.732  1.00  0.00     0.016 A 
ATOM     14  C   UNL     1       0.293  11.995  18.891  1.00  0.00     0.047 A 
ATOM     15  C   UNL     1      -0.639  12.616  19.731  1.00  0.00     0.115 A 
ATOM     16  C   UNL     1      -0.676  14.539  18.256  1.00  0.00     0.016 A 
ATOM     17  C   UNL     1      -1.119  13.890  19.413  1.00  0.00     0.047 A 
BRANCH  15  18
ATOM     18  O   UNL     1      -1.089  11.980  20.886  1.00  0.00    -0.508 OA
ATOM     19  H   UNL     1      -1.256  10.981  20.909  1.00  0.00     0.293 HD
ENDBRANCH  15  18
ENDBRANCH   1  12
BRANCH   2  20
ATOM     20  O   UNL     1       2.493  13.016  15.798  1.00  0.00    -0.502 OA
ATOM     21  H   UNL     1       2.727  12.794  16.758  1.00  0.00     0.293 HD
ENDBRANCH   2  20
BRANCH   6  22
ATOM     22  O   UNL     1       2.932  16.572  12.028  1.00  0.00    -0.507 OA
ATOM     23  H   UNL     1       3.822  16.289  12.421  1.00  0.00     0.293 HD
ENDBRANCH   6  22
BRANCH   8  24
ATOM     24  O   UNL     1      -0.809  19.479  13.017  1.00  0.00    -0.508 OA
ATOM     25  H   UNL     1      -1.462  19.480  12.243  1.00  0.00     0.293 HD
ENDBRANCH   8  24
TORSDOF 5
ENDMDL
MODEL 7
REMARK VINA RESULT:    -1.488      1.841      2.240
REMARK INTER + INTRA:          -2.040
REMARK INTER:                  -1.790
REMARK INTRA:                  -0.250
REMARK UNBOUND:                -0.291
REMARK SMILES O=c1c(O)c(-c2ccc(O)cc2)oc2cc(O)cc(O)c12
REMARK SMILES IDX 5 1 3 2 2 3 1 4 21 5 19 6 18 7 16 8 15 9 14 10 13 11 6 12
REMARK SMILES IDX 7 13 8 14 9 15 12 16 11 17 10 18 4 20 20 22 17 24
REMARK H PARENT 10 19 4 21 20 23 17 25
REMARK Flexibility Score: inf
ROOT
ATOM      1  C   UNL     1       0.851  14.452  14.234  1.00  0.00     0.180 A 
ATOM      2  C   UNL     1       0.958  15.403  13.202  1.00  0.00     0.208 A 
ATOM      3  C   UNL     1       1.281  16.729  13.531  1.00  0.00     0.238 A 
ATOM      4  O   UNL     1       1.391  17.587  12.614  1.00  0.00    -0.285 OA
ATOM      5  C   UNL     1       1.470  17.085  14.883  1.00  0.00     0.111 A 
ATOM      6  C   UNL     1       1.795  18.398  15.300  1.00  0.00     0.134 A 
ATOM      7  C   UNL     1       1.958  18.674  16.665  1.00  0.00     0.093 A 
ATOM      8  C   UNL     1       1.803  17.663  17.620  1.00  0.00     0.123 A 
ATOM      9  C   UNL     1       1.486  16.366  17.214  1.00  0.00     0.094 A 
ATOM     10  C   UNL     1       1.319  16.070  15.857  1.00  0.00     0.146 A 
ATOM     11  O   UNL     1       1.022  14.827  15.499  1.00  0.00    -0.452 OA
ENDROOT
BRANCH   1  12
ATOM     12  C   UNL     1       0.532  13.031  13.965  1.00  0.00     0.021 A 
ATOM     13  C   UNL     1       1.528  12.037  14.007  1.00  0.00     0.016 A 
ATOM     14  C   UNL     1       1.197  10.697  13.774  1.00  0.00     0.047 A 
ATOM     15  C   UNL     1      -0.129  10.335  13.509  1.00  0.00     0.115 A 
ATOM     16  C   UNL     1      -0.798  12.654  13.719  1.00  0.00     0.016 A 
ATOM     17  C   UNL     1      -1.125  11.315  13.486  1.00  0.00     0.047 A 
BRANCH  15  18
ATOM     18  O   UNL     1      -0.468   9.004  13.274  1.00  0.00    -0.508 OA
ATOM     19  H   UNL     1       0.241   8.297  13.118  1.00  0.00     0.293 HD
ENDBRANCH  15  18
ENDBRANCH   1  12
BRANCH   2  20
ATOM     20  O   UNL     1       0.716  15.036  11.875  1.00  0.00    -0.502 OA
ATOM     21  H   UNL     1      -0.056  15.414  11.339  1.00  0.00     0.293 HD
ENDBRANCH   2  20
BRANCH   6  22
ATOM     22  O   UNL     1       1.954  19.428  14.371  1.00  0.00    -0.507 OA
ATOM     23  H   UNL     1       1.443  20.300  14.449  1.00  0.00     0.293 HD
ENDBRANCH   6  22
BRANCH   8  24
ATOM     24  O   UNL     1       1.965  17.937  18.976  1.00  0.00    -0.508 OA
ATOM     25  H   UNL     1       1.674  17.279  19.689  1.00  0.00     0.293 HD
ENDBRANCH   8  24
TORSDOF 5
ENDMDL
