MODEL 1
REMARK VINA RESULT:    -3.948      0.000      0.000
REMARK INTER + INTRA:          -7.203
REMARK INTER:                  -6.256
REMARK INTRA:                  -0.947
REMARK UNBOUND:                -0.947
REMARK SMILES CCCCCCCCCCCC(=O)[O-]
REMARK SMILES IDX 7 1 8 2 9 3 10 4 11 5 12 6 13 7 14 8 6 9 5 10 4 11 3 12 2 13
REMARK SMILES IDX 1 14
REMARK H PARENT
REMARK Flexibility Score: inf
ROOT
ATOM      1  C   UNL     1       3.238 -20.331  29.412  1.00  0.00     0.000 C 
ENDROOT
BRANCH   1   2
ATOM      2  C   UNL     1       4.125 -19.246  28.779  1.00  0.00     0.000 C 
BRANCH   2   3
ATOM      3  C   UNL     1       3.399 -17.896  28.644  1.00  0.00     0.000 C 
BRANCH   3   4
ATOM      4  C   UNL     1       1.875 -18.029  28.789  1.00  0.00     0.006 C 
BRANCH   4   5
ATOM      5  C   UNL     1       1.107 -17.223  27.733  1.00  0.00     0.053 C 
BRANCH   5   6
ATOM      6  C   UNL     1      -0.329 -17.079  28.131  1.00  0.00     0.041 C 
ATOM      7  O   UNL     1      -0.628 -16.638  29.272  1.00  0.00    -0.550 OA
ATOM      8  O   UNL     1      -1.334 -17.477  27.261  1.00  0.00    -0.550 OA
ENDBRANCH   5   6
ENDBRANCH   4   5
ENDBRANCH   3   4
ENDBRANCH   2   3
ENDBRANCH   1   2
BRANCH   1   9
ATOM      9  C   UNL     1       3.955 -21.684  29.538  1.00  0.00     0.000 C 
BRANCH   9  10
ATOM     10  C   UNL     1       3.042 -22.727  30.200  1.00  0.00    -0.000 C 
BRANCH  10  11
ATOM     11  C   UNL     1       1.574 -22.603  29.757  1.00  0.00    -0.000 C 
BRANCH  11  12
ATOM     12  C   UNL     1       0.566 -22.374  30.899  1.00  0.00    -0.000 C 
BRANCH  12  13
ATOM     13  C   UNL     1       0.006 -20.937  30.956  1.00  0.00    -0.003 C 
ATOM     14  C   UNL     1      -0.723 -20.540  29.671  1.00  0.00     0.004 C 
ENDBRANCH  12  13
ENDBRANCH  11  12
ENDBRANCH  10  11
ENDBRANCH   9  10
ENDBRANCH   1   9
TORSDOF 10
ENDMDL
MODEL 2
REMARK VINA RESULT:    -3.859      2.806      4.209
REMARK INTER + INTRA:          -7.062
REMARK INTER:                  -6.070
REMARK INTRA:                  -0.992
REMARK UNBOUND:                -0.947
REMARK SMILES CCCCCCCCCCCC(=O)[O-]
REMARK SMILES IDX 7 1 8 2 9 3 10 4 11 5 12 6 13 7 14 8 6 9 5 10 4 11 3 12 2 13
REMARK SMILES IDX 1 14
REMARK H PARENT
REMARK Flexibility Score: inf
ROOT
ATOM      1  C   UNL     1       1.209 -17.450  28.447  1.00  0.00     0.000 C 
ENDROOT
BRANCH   1   2
ATOM      2  C   UNL     1      -0.264 -17.051  28.253  1.00  0.00     0.000 C 
BRANCH   2   3
ATOM      3  C   UNL     1      -0.688 -17.061  26.773  1.00  0.00     0.000 C 
BRANCH   3   4
ATOM      4  C   UNL     1      -2.181 -16.746  26.587  1.00  0.00     0.006 C 
BRANCH   4   5
ATOM      5  C   UNL     1      -2.421 -15.359  25.976  1.00  0.00     0.053 C 
BRANCH   5   6
ATOM      6  C   UNL     1      -3.733 -15.327  25.255  1.00  0.00     0.041 C 
ATOM      7  O   UNL     1      -4.779 -15.736  25.825  1.00  0.00    -0.550 OA
ATOM      8  O   UNL     1      -3.791 -14.895  23.937  1.00  0.00    -0.550 OA
ENDBRANCH   5   6
ENDBRANCH   4   5
ENDBRANCH   3   4
ENDBRANCH   2   3
ENDBRANCH   1   2
BRANCH   1   9
ATOM      9  C   UNL     1       1.370 -18.756  29.240  1.00  0.00     0.000 C 
BRANCH   9  10
ATOM     10  C   UNL     1       0.056 -19.132  29.944  1.00  0.00    -0.000 C 
BRANCH  10  11
ATOM     11  C   UNL     1      -0.176 -20.652  30.000  1.00  0.00    -0.000 C 
BRANCH  11  12
ATOM     12  C   UNL     1      -1.635 -21.095  29.780  1.00  0.00    -0.000 C 
BRANCH  12  13
ATOM     13  C   UNL     1      -2.507 -20.038  29.069  1.00  0.00    -0.003 C 
ATOM     14  C   UNL     1      -2.667 -20.319  27.574  1.00  0.00     0.004 C 
ENDBRANCH  12  13
ENDBRANCH  11  12
ENDBRANCH  10  11
ENDBRANCH   9  10
ENDBRANCH   1   9
TORSDOF 10
ENDMDL
MODEL 3
REMARK VINA RESULT:    -3.792     17.348     20.140
REMARK INTER + INTRA:          -6.956
REMARK INTER:                  -6.202
REMARK INTRA:                  -0.754
REMARK UNBOUND:                -0.947
REMARK SMILES CCCCCCCCCCCC(=O)[O-]
REMARK SMILES IDX 7 1 8 2 9 3 10 4 11 5 12 6 13 7 14 8 6 9 5 10 4 11 3 12 2 13
REMARK SMILES IDX 1 14
REMARK H PARENT
REMARK Flexibility Score: inf
ROOT
ATOM      1  C   UNL     1     -10.444 -11.992  14.878  1.00  0.00     0.000 C 
ENDROOT
BRANCH   1   2
ATOM      2  C   UNL     1     -11.623 -11.005  14.922  1.00  0.00     0.000 C 
BRANCH   2   3
ATOM      3  C   UNL     1     -12.657 -11.368  16.003  1.00  0.00     0.000 C 
BRANCH   3   4
ATOM      4  C   UNL     1     -14.088 -10.979  15.601  1.00  0.00     0.006 C 
BRANCH   4   5
ATOM      5  C   UNL     1     -15.042 -12.180  15.575  1.00  0.00     0.053 C 
BRANCH   5   6
ATOM      6  C   UNL     1     -15.270 -12.696  16.962  1.00  0.00     0.041 C 
ATOM      7  O   UNL     1     -15.656 -11.916  17.872  1.00  0.00    -0.550 OA
ATOM      8  O   UNL     1     -15.006 -14.026  17.261  1.00  0.00    -0.550 OA
ENDBRANCH   5   6
ENDBRANCH   4   5
ENDBRANCH   3   4
ENDBRANCH   2   3
ENDBRANCH   1   2
BRANCH   1   9
ATOM      9  C   UNL     1      -9.989 -12.434  16.277  1.00  0.00     0.000 C 
BRANCH   9  10
ATOM     10  C   UNL     1      -8.456 -12.498  16.358  1.00  0.00    -0.000 C 
BRANCH  10  11
ATOM     11  C   UNL     1      -7.944 -13.824  16.946  1.00  0.00    -0.000 C 
BRANCH  11  12
ATOM     12  C   UNL     1      -7.915 -15.005  15.958  1.00  0.00    -0.000 C 
BRANCH  12  13
ATOM     13  C   UNL     1      -7.514 -14.606  14.522  1.00  0.00    -0.003 C 
ATOM     14  C   UNL     1      -8.552 -15.034  13.483  1.00  0.00     0.004 C 
ENDBRANCH  12  13
ENDBRANCH  11  12
ENDBRANCH  10  11
ENDBRANCH   9  10
ENDBRANCH   1   9
TORSDOF 10
ENDMDL
MODEL 4
REMARK VINA RESULT:    -3.724      2.747      4.177
REMARK INTER + INTRA:          -6.849
REMARK INTER:                  -5.647
REMARK INTRA:                  -1.202
REMARK UNBOUND:                -0.947
REMARK SMILES CCCCCCCCCCCC(=O)[O-]
REMARK SMILES IDX 7 1 8 2 9 3 10 4 11 5 12 6 13 7 14 8 6 9 5 10 4 11 3 12 2 13
REMARK SMILES IDX 1 14
REMARK H PARENT
REMARK Flexibility Score: inf
ROOT
ATOM      1  C   UNL     1       1.185 -17.265  27.994  1.00  0.00     0.000 C 
ENDROOT
BRANCH   1   2
ATOM      2  C   UNL     1      -0.327 -16.997  27.896  1.00  0.00     0.000 C 
BRANCH   2   3
ATOM      3  C   UNL     1      -0.836 -17.011  26.444  1.00  0.00     0.000 C 
BRANCH   3   4
ATOM      4  C   UNL     1      -2.261 -16.450  26.315  1.00  0.00     0.006 C 
BRANCH   4   5
ATOM      5  C   UNL     1      -3.030 -16.475  27.642  1.00  0.00     0.053 C 
BRANCH   5   6
ATOM      6  C   UNL     1      -4.486 -16.221  27.406  1.00  0.00     0.041 C 
ATOM      7  O   UNL     1      -4.852 -15.439  26.490  1.00  0.00    -0.550 OA
ATOM      8  O   UNL     1      -5.436 -16.809  28.231  1.00  0.00    -0.550 OA
ENDBRANCH   5   6
ENDBRANCH   4   5
ENDBRANCH   3   4
ENDBRANCH   2   3
ENDBRANCH   1   2
BRANCH   1   9
ATOM      9  C   UNL     1       1.531 -18.333  29.042  1.00  0.00     0.000 C 
BRANCH   9  10
ATOM     10  C   UNL     1       0.287 -18.724  29.854  1.00  0.00    -0.000 C 
BRANCH  10  11
ATOM     11  C   UNL     1       0.195 -20.237  30.114  1.00  0.00    -0.000 C 
BRANCH  11  12
ATOM     12  C   UNL     1      -1.068 -20.919  29.555  1.00  0.00    -0.000 C 
BRANCH  12  13
ATOM     13  C   UNL     1      -2.161 -19.927  29.101  1.00  0.00    -0.003 C 
ATOM     14  C   UNL     1      -2.648 -20.202  27.678  1.00  0.00     0.004 C 
ENDBRANCH  12  13
ENDBRANCH  11  12
ENDBRANCH  10  11
ENDBRANCH   9  10
ENDBRANCH   1   9
TORSDOF 10
ENDMDL
MODEL 5
REMARK VINA RESULT:    -3.721     16.788     19.782
REMARK INTER + INTRA:          -6.843
REMARK INTER:                  -5.601
REMARK INTRA:                  -1.242
REMARK UNBOUND:                -0.947
REMARK SMILES CCCCCCCCCCCC(=O)[O-]
REMARK SMILES IDX 7 1 8 2 9 3 10 4 11 5 12 6 13 7 14 8 6 9 5 10 4 11 3 12 2 13
REMARK SMILES IDX 1 14
REMARK H PARENT
REMARK Flexibility Score: inf
ROOT
ATOM      1  C   UNL     1     -14.746  -9.134  25.971  1.00  0.00     0.000 C 
ENDROOT
BRANCH   1   2
ATOM      2  C   UNL     1     -13.313  -9.447  25.508  1.00  0.00     0.000 C 
BRANCH   2   3
ATOM      3  C   UNL     1     -12.338  -8.289  25.784  1.00  0.00     0.000 C 
BRANCH   3   4
ATOM      4  C   UNL     1     -11.302  -8.637  26.865  1.00  0.00     0.006 C 
BRANCH   4   5
ATOM      5  C   UNL     1     -11.834  -8.416  28.287  1.00  0.00     0.053 C 
BRANCH   5   6
ATOM      6  C   UNL     1     -11.856  -9.709  29.042  1.00  0.00     0.041 C 
ATOM      7  O   UNL     1     -12.539 -10.678  28.617  1.00  0.00    -0.550 OA
ATOM      8  O   UNL     1     -11.164  -9.826  30.240  1.00  0.00    -0.550 OA
ENDBRANCH   5   6
ENDBRANCH   4   5
ENDBRANCH   3   4
ENDBRANCH   2   3
ENDBRANCH   1   2
BRANCH   1   9
ATOM      9  C   UNL     1     -14.910  -7.684  26.452  1.00  0.00     0.000 C 
BRANCH   9  10
ATOM     10  C   UNL     1     -16.070  -6.993  25.719  1.00  0.00    -0.000 C 
BRANCH  10  11
ATOM     11  C   UNL     1     -15.656  -5.664  25.065  1.00  0.00    -0.000 C 
BRANCH  11  12
ATOM     12  C   UNL     1     -14.363  -5.724  24.231  1.00  0.00    -0.000 C 
BRANCH  12  13
ATOM     13  C   UNL     1     -14.454  -6.663  23.009  1.00  0.00    -0.003 C 
ATOM     14  C   UNL     1     -13.122  -6.791  22.267  1.00  0.00     0.004 C 
ENDBRANCH  12  13
ENDBRANCH  11  12
ENDBRANCH  10  11
ENDBRANCH   9  10
ENDBRANCH   1   9
TORSDOF 10
ENDMDL
MODEL 6
REMARK VINA RESULT:    -3.693      3.127      5.695
REMARK INTER + INTRA:          -6.799
REMARK INTER:                  -5.792
REMARK INTRA:                  -1.007
REMARK UNBOUND:                -0.947
REMARK SMILES CCCCCCCCCCCC(=O)[O-]
REMARK SMILES IDX 7 1 8 2 9 3 10 4 11 5 12 6 13 7 14 8 6 9 5 10 4 11 3 12 2 13
REMARK SMILES IDX 1 14
REMARK H PARENT
REMARK Flexibility Score: inf
ROOT
ATOM      1  C   UNL     1      -0.019 -18.554  29.875  1.00  0.00     0.000 C 
ENDROOT
BRANCH   1   2
ATOM      2  C   UNL     1       0.130 -20.062  30.141  1.00  0.00     0.000 C 
BRANCH   2   3
ATOM      3  C   UNL     1      -0.999 -20.889  29.502  1.00  0.00     0.000 C 
BRANCH   3   4
ATOM      4  C   UNL     1      -2.240 -20.040  29.179  1.00  0.00     0.006 C 
BRANCH   4   5
ATOM      5  C   UNL     1      -2.827 -20.353  27.797  1.00  0.00     0.053 C 
BRANCH   5   6
ATOM      6  C   UNL     1      -4.151 -21.037  27.936  1.00  0.00     0.041 C 
ATOM      7  O   UNL     1      -5.000 -20.612  28.764  1.00  0.00    -0.550 OA
ATOM      8  O   UNL     1      -4.429 -22.173  27.188  1.00  0.00    -0.550 OA
ENDBRANCH   5   6
ENDBRANCH   4   5
ENDBRANCH   3   4
ENDBRANCH   2   3
ENDBRANCH   1   2
BRANCH   1   9
ATOM      9  C   UNL     1       1.184 -17.962  29.126  1.00  0.00     0.000 C 
BRANCH   9  10
ATOM     10  C   UNL     1       0.735 -17.279  27.825  1.00  0.00    -0.000 C 
BRANCH  10  11
ATOM     11  C   UNL     1      -0.766 -16.940  27.816  1.00  0.00    -0.000 C 
BRANCH  11  12
ATOM     12  C   UNL     1      -1.439 -17.007  26.432  1.00  0.00    -0.000 C 
BRANCH  12  13
ATOM     13  C   UNL     1      -2.481 -15.893  26.192  1.00  0.00    -0.003 C 
ATOM     14  C   UNL     1      -2.872 -15.169  27.481  1.00  0.00     0.004 C 
ENDBRANCH  12  13
ENDBRANCH  11  12
ENDBRANCH  10  11
ENDBRANCH   9  10
ENDBRANCH   1   9
TORSDOF 10
ENDMDL
MODEL 7
REMARK VINA RESULT:    -3.691      3.694      5.898
REMARK INTER + INTRA:          -6.797
REMARK INTER:                  -5.736
REMARK INTRA:                  -1.061
REMARK UNBOUND:                -0.947
REMARK SMILES CCCCCCCCCCCC(=O)[O-]
REMARK SMILES IDX 7 1 8 2 9 3 10 4 11 5 12 6 13 7 14 8 6 9 5 10 4 11 3 12 2 13
REMARK SMILES IDX 1 14
REMARK H PARENT
REMARK Flexibility Score: inf
ROOT
ATOM      1  C   UNL     1      -3.577 -18.149  28.583  1.00  0.00     0.000 C 
ENDROOT
BRANCH   1   2
ATOM      2  C   UNL     1      -3.654 -16.745  27.961  1.00  0.00     0.000 C 
BRANCH   2   3
ATOM      3  C   UNL     1      -2.292 -16.254  27.441  1.00  0.00     0.000 C 
BRANCH   3   4
ATOM      4  C   UNL     1      -2.363 -15.751  25.990  1.00  0.00     0.006 C 
BRANCH   4   5
ATOM      5  C   UNL     1      -3.790 -15.393  25.556  1.00  0.00     0.053 C 
BRANCH   5   6
ATOM      6  C   UNL     1      -3.807 -14.965  24.122  1.00  0.00     0.041 C 
ATOM      7  O   UNL     1      -4.376 -15.680  23.255  1.00  0.00    -0.550 OA
ATOM      8  O   UNL     1      -3.152 -13.804  23.735  1.00  0.00    -0.550 OA
ENDBRANCH   5   6
ENDBRANCH   4   5
ENDBRANCH   3   4
ENDBRANCH   2   3
ENDBRANCH   1   2
BRANCH   1   9
ATOM      9  C   UNL     1      -2.375 -18.958  28.071  1.00  0.00     0.000 C 
BRANCH   9  10
ATOM     10  C   UNL     1      -1.708 -19.731  29.220  1.00  0.00    -0.000 C 
BRANCH  10  11
ATOM     11  C   UNL     1      -0.306 -19.199  29.563  1.00  0.00    -0.000 C 
BRANCH  11  12
ATOM     12  C   UNL     1      -0.287 -17.863  30.330  1.00  0.00    -0.000 C 
BRANCH  12  13
ATOM     13  C   UNL     1       0.467 -16.734  29.596  1.00  0.00    -0.003 C 
ATOM     14  C   UNL     1       1.376 -17.262  28.484  1.00  0.00     0.004 C 
ENDBRANCH  12  13
ENDBRANCH  11  12
ENDBRANCH  10  11
ENDBRANCH   9  10
ENDBRANCH   1   9
TORSDOF 10
ENDMDL
MODEL 8
REMARK VINA RESULT:    -3.657      5.256      6.919
REMARK INTER + INTRA:          -6.743
REMARK INTER:                  -6.199
REMARK INTRA:                  -0.543
REMARK UNBOUND:                -0.947
REMARK SMILES CCCCCCCCCCCC(=O)[O-]
REMARK SMILES IDX 7 1 8 2 9 3 10 4 11 5 12 6 13 7 14 8 6 9 5 10 4 11 3 12 2 13
REMARK SMILES IDX 1 14
REMARK H PARENT
REMARK Flexibility Score: inf
ROOT
ATOM      1  C   UNL     1       0.829 -15.091  30.607  1.00  0.00     0.000 C 
ENDROOT
BRANCH   1   2
ATOM      2  C   UNL     1       1.257 -13.857  31.420  1.00  0.00     0.000 C 
BRANCH   2   3
ATOM      3  C   UNL     1       2.451 -13.120  30.789  1.00  0.00     0.000 C 
BRANCH   3   4
ATOM      4  C   UNL     1       2.788 -11.810  31.520  1.00  0.00     0.006 C 
BRANCH   4   5
ATOM      5  C   UNL     1       2.721 -10.584  30.601  1.00  0.00     0.053 C 
BRANCH   5   6
ATOM      6  C   UNL     1       1.658  -9.640  31.067  1.00  0.00     0.041 C 
ATOM      7  O   UNL     1       0.534 -10.079  31.429  1.00  0.00    -0.550 OA
ATOM      8  O   UNL     1       1.890  -8.271  31.054  1.00  0.00    -0.550 OA
ENDBRANCH   5   6
ENDBRANCH   4   5
ENDBRANCH   3   4
ENDBRANCH   2   3
ENDBRANCH   1   2
BRANCH   1   9
ATOM      9  C   UNL     1      -0.695 -15.280  30.576  1.00  0.00     0.000 C 
BRANCH   9  10
ATOM     10  C   UNL     1      -1.061 -16.772  30.600  1.00  0.00    -0.000 C 
BRANCH  10  11
ATOM     11  C   UNL     1      -0.302 -17.590  29.540  1.00  0.00    -0.000 C 
BRANCH  11  12
ATOM     12  C   UNL     1      -1.113 -17.927  28.274  1.00  0.00    -0.000 C 
BRANCH  12  13
ATOM     13  C   UNL     1      -0.690 -17.118  27.030  1.00  0.00    -0.003 C 
ATOM     14  C   UNL     1      -1.814 -16.225  26.500  1.00  0.00     0.004 C 
ENDBRANCH  12  13
ENDBRANCH  11  12
ENDBRANCH  10  11
ENDBRANCH   9  10
ENDBRANCH   1   9
TORSDOF 10
ENDMDL
MODEL 9
REMARK VINA RESULT:    -3.604     16.651     20.272
REMARK INTER + INTRA:          -6.658
REMARK INTER:                  -5.230
REMARK INTRA:                  -1.428
REMARK UNBOUND:                -0.947
REMARK SMILES CCCCCCCCCCCC(=O)[O-]
REMARK SMILES IDX 7 1 8 2 9 3 10 4 11 5 12 6 13 7 14 8 6 9 5 10 4 11 3 12 2 13
REMARK SMILES IDX 1 14
REMARK H PARENT
REMARK Flexibility Score: inf
ROOT
ATOM      1  C   UNL     1     -15.712  -8.083  25.134  1.00  0.00     0.000 C 
ENDROOT
BRANCH   1   2
ATOM      2  C   UNL     1     -14.885  -9.042  26.008  1.00  0.00     0.000 C 
BRANCH   2   3
ATOM      3  C   UNL     1     -13.815  -9.800  25.203  1.00  0.00     0.000 C 
BRANCH   3   4
ATOM      4  C   UNL     1     -12.616  -8.912  24.835  1.00  0.00     0.006 C 
BRANCH   4   5
ATOM      5  C   UNL     1     -11.916  -8.321  26.066  1.00  0.00     0.053 C 
BRANCH   5   6
ATOM      6  C   UNL     1     -11.315  -9.412  26.897  1.00  0.00     0.041 C 
ATOM      7  O   UNL     1     -10.549 -10.260  26.370  1.00  0.00    -0.550 OA
ATOM      8  O   UNL     1     -11.642  -9.521  28.242  1.00  0.00    -0.550 OA
ENDBRANCH   5   6
ENDBRANCH   4   5
ENDBRANCH   3   4
ENDBRANCH   2   3
ENDBRANCH   1   2
BRANCH   1   9
ATOM      9  C   UNL     1     -15.947  -6.722  25.807  1.00  0.00     0.000 C 
BRANCH   9  10
ATOM     10  C   UNL     1     -15.708  -5.574  24.814  1.00  0.00    -0.000 C 
BRANCH  10  11
ATOM     11  C   UNL     1     -14.313  -5.626  24.166  1.00  0.00    -0.000 C 
BRANCH  11  12
ATOM     12  C   UNL     1     -14.311  -5.628  22.626  1.00  0.00    -0.000 C 
BRANCH  12  13
ATOM     13  C   UNL     1     -13.475  -6.767  22.005  1.00  0.00    -0.003 C 
ATOM     14  C   UNL     1     -14.319  -7.996  21.665  1.00  0.00     0.004 C 
ENDBRANCH  12  13
ENDBRANCH  11  12
ENDBRANCH  10  11
ENDBRANCH   9  10
ENDBRANCH   1   9
TORSDOF 10
ENDMDL
