MODEL 1
REMARK VINA RESULT:    -4.078      0.000      0.000
REMARK INTER + INTRA:          -8.580
REMARK INTER:                  -6.938
REMARK INTRA:                  -1.642
REMARK UNBOUND:                -1.642
REMARK SMILES CCCCCCCCCCCCCC(=O)[O-]
REMARK SMILES IDX 8 1 9 2 10 3 11 4 12 5 13 6 14 7 15 8 16 9 7 10 6 11 5 12
REMARK SMILES IDX 4 13 3 14 2 15 1 16
REMARK H PARENT
REMARK Flexibility Score: inf
ROOT
ATOM      1  C   UNL     1     163.731 178.175 181.802  1.00  0.00     0.000 C 
ENDROOT
BRANCH   1   2
ATOM      2  C   UNL     1     164.010 176.690 181.509  1.00  0.00     0.000 C 
BRANCH   2   3
ATOM      3  C   UNL     1     162.905 176.023 180.674  1.00  0.00     0.000 C 
BRANCH   3   4
ATOM      4  C   UNL     1     161.517 176.494 181.124  1.00  0.00     0.000 C 
BRANCH   4   5
ATOM      5  C   UNL     1     160.501 175.348 181.066  1.00  0.00     0.006 C 
BRANCH   5   6
ATOM      6  C   UNL     1     161.162 174.052 180.586  1.00  0.00     0.053 C 
BRANCH   6   7
ATOM      7  C   UNL     1     160.424 173.492 179.411  1.00  0.00     0.041 C 
ATOM      8  O   UNL     1     160.261 172.248 179.300  1.00  0.00    -0.550 OA
ATOM      9  O   UNL     1     159.875 174.346 178.464  1.00  0.00    -0.550 OA
ENDBRANCH   6   7
ENDBRANCH   5   6
ENDBRANCH   4   5
ENDBRANCH   3   4
ENDBRANCH   2   3
ENDBRANCH   1   2
BRANCH   1  10
ATOM     10  C   UNL     1     164.655 179.174 181.080  1.00  0.00     0.000 C 
BRANCH  10  11
ATOM     11  C   UNL     1     164.006 179.798 179.834  1.00  0.00    -0.000 C 
BRANCH  11  12
ATOM     12  C   UNL     1     162.473 179.892 179.937  1.00  0.00    -0.000 C 
BRANCH  12  13
ATOM     13  C   UNL     1     161.723 179.851 178.594  1.00  0.00    -0.000 C 
BRANCH  13  14
ATOM     14  C   UNL     1     161.386 178.421 178.139  1.00  0.00    -0.000 C 
BRANCH  14  15
ATOM     15  C   UNL     1     162.441 177.841 177.184  1.00  0.00    -0.003 C 
ATOM     16  C   UNL     1     162.123 176.410 176.753  1.00  0.00     0.004 C 
ENDBRANCH  14  15
ENDBRANCH  13  14
ENDBRANCH  12  13
ENDBRANCH  11  12
ENDBRANCH  10  11
ENDBRANCH   1  10
TORSDOF 12
ENDMDL
MODEL 2
REMARK VINA RESULT:    -4.015     10.621     12.923
REMARK INTER + INTRA:          -8.473
REMARK INTER:                  -7.153
REMARK INTRA:                  -1.320
REMARK UNBOUND:                -1.642
REMARK SMILES CCCCCCCCCCCCCC(=O)[O-]
REMARK SMILES IDX 8 1 9 2 10 3 11 4 12 5 13 6 14 7 15 8 16 9 7 10 6 11 5 12
REMARK SMILES IDX 4 13 3 14 2 15 1 16
REMARK H PARENT
REMARK Flexibility Score: inf
ROOT
ATOM      1  C   UNL     1     173.915 177.878 180.928  1.00  0.00     0.000 C 
ENDROOT
BRANCH   1   2
ATOM      2  C   UNL     1     175.305 177.369 181.349  1.00  0.00     0.000 C 
BRANCH   2   3
ATOM      3  C   UNL     1     176.221 178.485 181.874  1.00  0.00     0.000 C 
BRANCH   3   4
ATOM      4  C   UNL     1     177.347 178.785 180.878  1.00  0.00     0.000 C 
BRANCH   4   5
ATOM      5  C   UNL     1     177.114 180.125 180.170  1.00  0.00     0.006 C 
BRANCH   5   6
ATOM      6  C   UNL     1     177.217 179.969 178.650  1.00  0.00     0.053 C 
BRANCH   6   7
ATOM      7  C   UNL     1     175.953 179.393 178.095  1.00  0.00     0.041 C 
ATOM      8  O   UNL     1     174.940 180.125 177.937  1.00  0.00    -0.550 OA
ATOM      9  O   UNL     1     175.908 178.061 177.708  1.00  0.00    -0.550 OA
ENDBRANCH   6   7
ENDBRANCH   5   6
ENDBRANCH   4   5
ENDBRANCH   3   4
ENDBRANCH   2   3
ENDBRANCH   1   2
BRANCH   1  10
ATOM     10  C   UNL     1     173.696 179.395 181.078  1.00  0.00     0.000 C 
BRANCH  10  11
ATOM     11  C   UNL     1     172.223 179.769 181.312  1.00  0.00    -0.000 C 
BRANCH  11  12
ATOM     12  C   UNL     1     171.274 179.164 180.261  1.00  0.00    -0.000 C 
BRANCH  12  13
ATOM     13  C   UNL     1     169.956 178.597 180.819  1.00  0.00    -0.000 C 
BRANCH  13  14
ATOM     14  C   UNL     1     169.949 178.495 182.354  1.00  0.00    -0.000 C 
BRANCH  14  15
ATOM     15  C   UNL     1     170.308 177.087 182.853  1.00  0.00    -0.003 C 
ATOM     16  C   UNL     1     169.651 175.983 182.027  1.00  0.00     0.004 C 
ENDBRANCH  14  15
ENDBRANCH  13  14
ENDBRANCH  12  13
ENDBRANCH  11  12
ENDBRANCH  10  11
ENDBRANCH   1  10
TORSDOF 12
ENDMDL
MODEL 3
REMARK VINA RESULT:    -3.999      2.168      3.053
REMARK INTER + INTRA:          -8.446
REMARK INTER:                  -6.934
REMARK INTRA:                  -1.511
REMARK UNBOUND:                -1.642
REMARK SMILES CCCCCCCCCCCCCC(=O)[O-]
REMARK SMILES IDX 8 1 9 2 10 3 11 4 12 5 13 6 14 7 15 8 16 9 7 10 6 11 5 12
REMARK SMILES IDX 4 13 3 14 2 15 1 16
REMARK H PARENT
REMARK Flexibility Score: inf
ROOT
ATOM      1  C   UNL     1     163.028 176.181 181.010  1.00  0.00     0.000 C 
ENDROOT
BRANCH   1   2
ATOM      2  C   UNL     1     161.513 176.436 181.103  1.00  0.00     0.000 C 
BRANCH   2   3
ATOM      3  C   UNL     1     160.690 175.143 181.200  1.00  0.00     0.000 C 
BRANCH   3   4
ATOM      4  C   UNL     1     161.394 173.987 180.479  1.00  0.00     0.000 C 
BRANCH   4   5
ATOM      5  C   UNL     1     161.205 172.668 181.236  1.00  0.00     0.006 C 
BRANCH   5   6
ATOM      6  C   UNL     1     161.705 172.786 182.679  1.00  0.00     0.053 C 
BRANCH   6   7
ATOM      7  C   UNL     1     163.186 172.583 182.739  1.00  0.00     0.041 C 
ATOM      8  O   UNL     1     163.941 173.530 183.085  1.00  0.00    -0.550 OA
ATOM      9  O   UNL     1     163.728 171.336 182.460  1.00  0.00    -0.550 OA
ENDBRANCH   6   7
ENDBRANCH   5   6
ENDBRANCH   4   5
ENDBRANCH   3   4
ENDBRANCH   2   3
ENDBRANCH   1   2
BRANCH   1  10
ATOM     10  C   UNL     1     163.921 177.392 181.338  1.00  0.00     0.000 C 
BRANCH  10  11
ATOM     11  C   UNL     1     163.120 178.621 181.801  1.00  0.00    -0.000 C 
BRANCH  11  12
ATOM     12  C   UNL     1     163.120 179.763 180.769  1.00  0.00    -0.000 C 
BRANCH  12  13
ATOM     13  C   UNL     1     161.739 180.125 180.194  1.00  0.00    -0.000 C 
BRANCH  13  14
ATOM     14  C   UNL     1     161.667 179.978 178.665  1.00  0.00    -0.000 C 
BRANCH  14  15
ATOM     15  C   UNL     1     161.392 178.533 178.223  1.00  0.00    -0.003 C 
ATOM     16  C   UNL     1     162.566 177.913 177.468  1.00  0.00     0.004 C 
ENDBRANCH  14  15
ENDBRANCH  13  14
ENDBRANCH  12  13
ENDBRANCH  11  12
ENDBRANCH  10  11
ENDBRANCH   1  10
TORSDOF 12
ENDMDL
MODEL 4
REMARK VINA RESULT:    -3.997      2.324      5.131
REMARK INTER + INTRA:          -8.443
REMARK INTER:                  -6.925
REMARK INTRA:                  -1.518
REMARK UNBOUND:                -1.642
REMARK SMILES CCCCCCCCCCCCCC(=O)[O-]
REMARK SMILES IDX 8 1 9 2 10 3 11 4 12 5 13 6 14 7 15 8 16 9 7 10 6 11 5 12
REMARK SMILES IDX 4 13 3 14 2 15 1 16
REMARK H PARENT
REMARK Flexibility Score: inf
ROOT
ATOM      1  C   UNL     1     164.355 177.570 181.207  1.00  0.00     0.000 C 
ENDROOT
BRANCH   1   2
ATOM      2  C   UNL     1     163.620 178.721 181.916  1.00  0.00     0.000 C 
BRANCH   2   3
ATOM      3  C   UNL     1     163.309 179.901 180.982  1.00  0.00     0.000 C 
BRANCH   3   4
ATOM      4  C   UNL     1     161.822 179.927 180.605  1.00  0.00     0.000 C 
BRANCH   4   5
ATOM      5  C   UNL     1     161.640 180.125 179.096  1.00  0.00     0.006 C 
BRANCH   5   6
ATOM      6  C   UNL     1     161.640 178.781 178.362  1.00  0.00     0.053 C 
BRANCH   6   7
ATOM      7  C   UNL     1     162.899 178.614 177.573  1.00  0.00     0.041 C 
ATOM      8  O   UNL     1     163.291 177.463 177.241  1.00  0.00    -0.550 OA
ATOM      9  O   UNL     1     163.616 179.730 177.163  1.00  0.00    -0.550 OA
ENDBRANCH   6   7
ENDBRANCH   5   6
ENDBRANCH   4   5
ENDBRANCH   3   4
ENDBRANCH   2   3
ENDBRANCH   1   2
BRANCH   1  10
ATOM     10  C   UNL     1     163.726 176.175 181.390  1.00  0.00     0.000 C 
BRANCH  10  11
ATOM     11  C   UNL     1     162.593 175.892 180.390  1.00  0.00    -0.000 C 
BRANCH  11  12
ATOM     12  C   UNL     1     161.193 176.141 180.980  1.00  0.00    -0.000 C 
BRANCH  12  13
ATOM     13  C   UNL     1     160.461 174.882 181.479  1.00  0.00    -0.000 C 
BRANCH  13  14
ATOM     14  C   UNL     1     160.931 173.596 180.777  1.00  0.00    -0.000 C 
BRANCH  14  15
ATOM     15  C   UNL     1     161.100 172.420 181.750  1.00  0.00    -0.003 C 
ATOM     16  C   UNL     1     162.212 172.656 182.772  1.00  0.00     0.004 C 
ENDBRANCH  14  15
ENDBRANCH  13  14
ENDBRANCH  12  13
ENDBRANCH  11  12
ENDBRANCH  10  11
ENDBRANCH   1  10
TORSDOF 12
ENDMDL
MODEL 5
REMARK VINA RESULT:    -3.987      1.234      4.071
REMARK INTER + INTRA:          -8.426
REMARK INTER:                  -6.781
REMARK INTRA:                  -1.645
REMARK UNBOUND:                -1.642
REMARK SMILES CCCCCCCCCCCCCC(=O)[O-]
REMARK SMILES IDX 8 1 9 2 10 3 11 4 12 5 13 6 14 7 15 8 16 9 7 10 6 11 5 12
REMARK SMILES IDX 4 13 3 14 2 15 1 16
REMARK H PARENT
REMARK Flexibility Score: inf
ROOT
ATOM      1  C   UNL     1     162.816 179.663 181.219  1.00  0.00     0.000 C 
ENDROOT
BRANCH   1   2
ATOM      2  C   UNL     1     163.161 179.752 179.722  1.00  0.00     0.000 C 
BRANCH   2   3
ATOM      3  C   UNL     1     161.934 180.012 178.836  1.00  0.00     0.000 C 
BRANCH   3   4
ATOM      4  C   UNL     1     161.342 178.696 178.316  1.00  0.00     0.000 C 
BRANCH   4   5
ATOM      5  C   UNL     1     162.421 177.829 177.659  1.00  0.00     0.006 C 
BRANCH   5   6
ATOM      6  C   UNL     1     161.799 176.807 176.702  1.00  0.00     0.053 C 
BRANCH   6   7
ATOM      7  C   UNL     1     161.543 175.514 177.411  1.00  0.00     0.041 C 
ATOM      8  O   UNL     1     162.505 174.842 177.868  1.00  0.00    -0.550 OA
ATOM      9  O   UNL     1     160.240 175.076 177.608  1.00  0.00    -0.550 OA
ENDBRANCH   6   7
ENDBRANCH   5   6
ENDBRANCH   4   5
ENDBRANCH   3   4
ENDBRANCH   2   3
ENDBRANCH   1   2
BRANCH   1  10
ATOM     10  C   UNL     1     163.431 178.464 181.967  1.00  0.00     0.000 C 
BRANCH  10  11
ATOM     11  C   UNL     1     163.842 177.318 181.027  1.00  0.00    -0.000 C 
BRANCH  11  12
ATOM     12  C   UNL     1     162.921 176.089 181.138  1.00  0.00    -0.000 C 
BRANCH  12  13
ATOM     13  C   UNL     1     161.415 176.390 181.030  1.00  0.00    -0.000 C 
BRANCH  13  14
ATOM     14  C   UNL     1     160.541 175.132 181.167  1.00  0.00    -0.000 C 
BRANCH  14  15
ATOM     15  C   UNL     1     161.364 173.872 181.473  1.00  0.00    -0.003 C 
ATOM     16  C   UNL     1     160.591 172.851 182.308  1.00  0.00     0.004 C 
ENDBRANCH  14  15
ENDBRANCH  13  14
ENDBRANCH  12  13
ENDBRANCH  11  12
ENDBRANCH  10  11
ENDBRANCH   1  10
TORSDOF 12
ENDMDL
MODEL 6
REMARK VINA RESULT:    -3.955      4.153      5.738
REMARK INTER + INTRA:          -8.371
REMARK INTER:                  -6.710
REMARK INTRA:                  -1.662
REMARK UNBOUND:                -1.642
REMARK SMILES CCCCCCCCCCCCCC(=O)[O-]
REMARK SMILES IDX 8 1 9 2 10 3 11 4 12 5 13 6 14 7 15 8 16 9 7 10 6 11 5 12
REMARK SMILES IDX 4 13 3 14 2 15 1 16
REMARK H PARENT
REMARK Flexibility Score: inf
ROOT
ATOM      1  C   UNL     1     162.368 179.732 181.478  1.00  0.00     0.000 C 
ENDROOT
BRANCH   1   2
ATOM      2  C   UNL     1     163.859 179.356 181.547  1.00  0.00     0.000 C 
BRANCH   2   3
ATOM      3  C   UNL     1     164.091 177.850 181.746  1.00  0.00     0.000 C 
BRANCH   3   4
ATOM      4  C   UNL     1     165.103 177.310 180.729  1.00  0.00     0.000 C 
BRANCH   4   5
ATOM      5  C   UNL     1     166.229 178.321 180.482  1.00  0.00     0.006 C 
BRANCH   5   6
ATOM      6  C   UNL     1     167.574 177.612 180.297  1.00  0.00     0.053 C 
BRANCH   6   7
ATOM      7  C   UNL     1     168.704 178.547 180.591  1.00  0.00     0.041 C 
ATOM      8  O   UNL     1     169.077 178.735 181.779  1.00  0.00    -0.550 OA
ATOM      9  O   UNL     1     169.377 179.173 179.550  1.00  0.00    -0.550 OA
ENDBRANCH   6   7
ENDBRANCH   5   6
ENDBRANCH   4   5
ENDBRANCH   3   4
ENDBRANCH   2   3
ENDBRANCH   1   2
BRANCH   1  10
ATOM     10  C   UNL     1     161.799 179.908 180.058  1.00  0.00     0.000 C 
BRANCH  10  11
ATOM     11  C   UNL     1     162.874 179.803 178.963  1.00  0.00    -0.000 C 
BRANCH  11  12
ATOM     12  C   UNL     1     162.742 178.528 178.110  1.00  0.00    -0.000 C 
BRANCH  12  13
ATOM     13  C   UNL     1     161.500 177.669 178.409  1.00  0.00    -0.000 C 
BRANCH  13  14
ATOM     14  C   UNL     1     161.843 176.335 179.093  1.00  0.00    -0.000 C 
BRANCH  14  15
ATOM     15  C   UNL     1     161.254 176.229 180.508  1.00  0.00    -0.003 C 
ATOM     16  C   UNL     1     160.857 174.800 180.875  1.00  0.00     0.004 C 
ENDBRANCH  14  15
ENDBRANCH  13  14
ENDBRANCH  12  13
ENDBRANCH  11  12
ENDBRANCH  10  11
ENDBRANCH   1  10
TORSDOF 12
ENDMDL
MODEL 7
REMARK VINA RESULT:    -3.951     10.166     12.191
REMARK INTER + INTRA:          -8.364
REMARK INTER:                  -6.707
REMARK INTRA:                  -1.658
REMARK UNBOUND:                -1.642
REMARK SMILES CCCCCCCCCCCCCC(=O)[O-]
REMARK SMILES IDX 8 1 9 2 10 3 11 4 12 5 13 6 14 7 15 8 16 9 7 10 6 11 5 12
REMARK SMILES IDX 4 13 3 14 2 15 1 16
REMARK H PARENT
REMARK Flexibility Score: inf
ROOT
ATOM      1  C   UNL     1     175.398 177.363 181.461  1.00  0.00     0.000 C 
ENDROOT
BRANCH   1   2
ATOM      2  C   UNL     1     173.976 177.846 181.129  1.00  0.00     0.000 C 
BRANCH   2   3
ATOM      3  C   UNL     1     173.831 179.375 181.188  1.00  0.00     0.000 C 
BRANCH   3   4
ATOM      4  C   UNL     1     172.372 179.798 180.978  1.00  0.00     0.000 C 
BRANCH   4   5
ATOM      5  C   UNL     1     171.463 178.575 180.808  1.00  0.00     0.006 C 
BRANCH   5   6
ATOM      6  C   UNL     1     170.201 178.704 181.667  1.00  0.00     0.053 C 
BRANCH   6   7
ATOM      7  C   UNL     1     168.984 178.376 180.863  1.00  0.00     0.041 C 
ATOM      8  O   UNL     1     167.992 179.152 180.870  1.00  0.00    -0.550 OA
ATOM      9  O   UNL     1     168.963 177.238 180.067  1.00  0.00    -0.550 OA
ENDBRANCH   6   7
ENDBRANCH   5   6
ENDBRANCH   4   5
ENDBRANCH   3   4
ENDBRANCH   2   3
ENDBRANCH   1   2
BRANCH   1  10
ATOM     10  C   UNL     1     176.390 178.467 181.873  1.00  0.00     0.000 C 
BRANCH  10  11
ATOM     11  C   UNL     1     177.461 178.741 180.803  1.00  0.00    -0.000 C 
BRANCH  11  12
ATOM     12  C   UNL     1     177.311 180.124 180.143  1.00  0.00    -0.000 C 
BRANCH  12  13
ATOM     13  C   UNL     1     176.930 180.099 178.652  1.00  0.00    -0.000 C 
BRANCH  13  14
ATOM     14  C   UNL     1     176.819 178.674 178.085  1.00  0.00    -0.000 C 
BRANCH  14  15
ATOM     15  C   UNL     1     175.386 178.317 177.663  1.00  0.00    -0.003 C 
ATOM     16  C   UNL     1     174.479 179.542 177.560  1.00  0.00     0.004 C 
ENDBRANCH  14  15
ENDBRANCH  13  14
ENDBRANCH  12  13
ENDBRANCH  11  12
ENDBRANCH  10  11
ENDBRANCH   1  10
TORSDOF 12
ENDMDL
MODEL 8
REMARK VINA RESULT:    -3.928      1.411      2.035
REMARK INTER + INTRA:          -8.325
REMARK INTER:                  -6.090
REMARK INTRA:                  -2.235
REMARK UNBOUND:                -1.642
REMARK SMILES CCCCCCCCCCCCCC(=O)[O-]
REMARK SMILES IDX 8 1 9 2 10 3 11 4 12 5 13 6 14 7 15 8 16 9 7 10 6 11 5 12
REMARK SMILES IDX 4 13 3 14 2 15 1 16
REMARK H PARENT
REMARK Flexibility Score: inf
ROOT
ATOM      1  C   UNL     1     165.518 178.115 180.658  1.00  0.00     0.000 C 
ENDROOT
BRANCH   1   2
ATOM      2  C   UNL     1     165.373 177.346 179.333  1.00  0.00     0.000 C 
BRANCH   2   3
ATOM      3  C   UNL     1     164.396 176.164 179.427  1.00  0.00     0.000 C 
BRANCH   3   4
ATOM      4  C   UNL     1     164.329 175.618 180.858  1.00  0.00     0.000 C 
BRANCH   4   5
ATOM      5  C   UNL     1     162.877 175.402 181.298  1.00  0.00     0.006 C 
BRANCH   5   6
ATOM      6  C   UNL     1     161.922 175.485 180.104  1.00  0.00     0.053 C 
BRANCH   6   7
ATOM      7  C   UNL     1     160.769 174.551 180.289  1.00  0.00     0.041 C 
ATOM      8  O   UNL     1     159.896 174.435 179.388  1.00  0.00    -0.550 OA
ATOM      9  O   UNL     1     160.682 173.772 181.436  1.00  0.00    -0.550 OA
ENDBRANCH   6   7
ENDBRANCH   5   6
ENDBRANCH   4   5
ENDBRANCH   3   4
ENDBRANCH   2   3
ENDBRANCH   1   2
BRANCH   1  10
ATOM     10  C   UNL     1     164.681 179.404 180.766  1.00  0.00     0.000 C 
BRANCH  10  11
ATOM     11  C   UNL     1     163.481 179.262 181.717  1.00  0.00    -0.000 C 
BRANCH  11  12
ATOM     12  C   UNL     1     162.130 179.229 180.979  1.00  0.00    -0.000 C 
BRANCH  12  13
ATOM     13  C   UNL     1     162.168 179.726 179.523  1.00  0.00    -0.000 C 
BRANCH  13  14
ATOM     14  C   UNL     1     161.374 178.827 178.561  1.00  0.00    -0.000 C 
BRANCH  14  15
ATOM     15  C   UNL     1     162.251 178.231 177.450  1.00  0.00    -0.003 C 
ATOM     16  C   UNL     1     163.292 179.220 176.926  1.00  0.00     0.004 C 
ENDBRANCH  14  15
ENDBRANCH  13  14
ENDBRANCH  12  13
ENDBRANCH  11  12
ENDBRANCH  10  11
ENDBRANCH   1  10
TORSDOF 12
ENDMDL
MODEL 9
REMARK VINA RESULT:    -3.914     10.937     13.240
REMARK INTER + INTRA:          -8.301
REMARK INTER:                  -6.662
REMARK INTRA:                  -1.639
REMARK UNBOUND:                -1.642
REMARK SMILES CCCCCCCCCCCCCC(=O)[O-]
REMARK SMILES IDX 8 1 9 2 10 3 11 4 12 5 13 6 14 7 15 8 16 9 7 10 6 11 5 12
REMARK SMILES IDX 4 13 3 14 2 15 1 16
REMARK H PARENT
REMARK Flexibility Score: inf
ROOT
ATOM      1  C   UNL     1     176.293 177.301 181.060  1.00  0.00     0.000 C 
ENDROOT
BRANCH   1   2
ATOM      2  C   UNL     1     177.104 178.499 181.585  1.00  0.00     0.000 C 
BRANCH   2   3
ATOM      3  C   UNL     1     176.960 179.753 180.709  1.00  0.00     0.000 C 
BRANCH   3   4
ATOM      4  C   UNL     1     177.172 179.417 179.228  1.00  0.00     0.000 C 
BRANCH   4   5
ATOM      5  C   UNL     1     176.005 179.926 178.376  1.00  0.00     0.006 C 
BRANCH   5   6
ATOM      6  C   UNL     1     175.560 178.866 177.363  1.00  0.00     0.053 C 
BRANCH   6   7
ATOM      7  C   UNL     1     174.301 179.293 176.677  1.00  0.00     0.041 C 
ATOM      8  O   UNL     1     173.508 180.089 177.246  1.00  0.00    -0.550 OA
ATOM      9  O   UNL     1     174.026 178.849 175.390  1.00  0.00    -0.550 OA
ENDBRANCH   6   7
ENDBRANCH   5   6
ENDBRANCH   4   5
ENDBRANCH   3   4
ENDBRANCH   2   3
ENDBRANCH   1   2
BRANCH   1  10
ATOM     10  C   UNL     1     174.926 177.083 181.737  1.00  0.00     0.000 C 
BRANCH  10  11
ATOM     11  C   UNL     1     173.798 176.795 180.732  1.00  0.00    -0.000 C 
BRANCH  11  12
ATOM     12  C   UNL     1     173.218 178.072 180.097  1.00  0.00    -0.000 C 
BRANCH  12  13
ATOM     13  C   UNL     1     173.342 179.343 180.956  1.00  0.00    -0.000 C 
BRANCH  13  14
ATOM     14  C   UNL     1     171.979 179.909 181.391  1.00  0.00    -0.000 C 
BRANCH  14  15
ATOM     15  C   UNL     1     170.826 178.924 181.145  1.00  0.00    -0.003 C 
ATOM     16  C   UNL     1     170.088 178.548 182.429  1.00  0.00     0.004 C 
ENDBRANCH  14  15
ENDBRANCH  13  14
ENDBRANCH  12  13
ENDBRANCH  11  12
ENDBRANCH  10  11
ENDBRANCH   1  10
TORSDOF 12
ENDMDL
