MODEL 1
REMARK VINA RESULT:    -3.289      0.000      0.000
REMARK INTER + INTRA:          -6.357
REMARK INTER:                  -5.212
REMARK INTRA:                  -1.145
REMARK UNBOUND:                -1.145
REMARK SMILES CCCCCCCCCCCC(=O)[O-]
REMARK SMILES IDX 7 1 8 2 9 3 10 4 11 5 12 6 13 7 14 8 6 9 5 10 4 11 3 12 2 13
REMARK SMILES IDX 1 14
REMARK H PARENT
REMARK Flexibility Score: inf
ROOT
ATOM      1  C   UNL     1      59.445  29.213  50.047  1.00  0.00     0.000 C 
ENDROOT
BRANCH   1   2
ATOM      2  C   UNL     1      59.935  28.025  49.201  1.00  0.00     0.000 C 
BRANCH   2   3
ATOM      3  C   UNL     1      59.141  26.735  49.470  1.00  0.00     0.000 C 
BRANCH   3   4
ATOM      4  C   UNL     1      59.384  26.177  50.881  1.00  0.00     0.006 C 
BRANCH   4   5
ATOM      5  C   UNL     1      59.574  24.653  50.887  1.00  0.00     0.053 C 
BRANCH   5   6
ATOM      6  C   UNL     1      60.846  24.284  50.194  1.00  0.00     0.041 C 
ATOM      7  O   UNL     1      60.884  23.286  49.426  1.00  0.00    -0.550 OA
ATOM      8  O   UNL     1      62.006  25.012  50.432  1.00  0.00    -0.550 OA
ENDBRANCH   5   6
ENDBRANCH   4   5
ENDBRANCH   3   4
ENDBRANCH   2   3
ENDBRANCH   1   2
BRANCH   1   9
ATOM      9  C   UNL     1      57.919  29.396  49.975  1.00  0.00     0.000 C 
BRANCH   9  10
ATOM     10  C   UNL     1      57.245  29.361  51.359  1.00  0.00    -0.000 C 
BRANCH  10  11
ATOM     11  C   UNL     1      56.217  28.232  51.558  1.00  0.00    -0.000 C 
BRANCH  11  12
ATOM     12  C   UNL     1      55.437  27.900  50.277  1.00  0.00    -0.000 C 
BRANCH  12  13
ATOM     13  C   UNL     1      55.549  26.408  49.937  1.00  0.00    -0.003 C 
ATOM     14  C   UNL     1      54.279  25.899  49.264  1.00  0.00     0.004 C 
ENDBRANCH  12  13
ENDBRANCH  11  12
ENDBRANCH  10  11
ENDBRANCH   9  10
ENDBRANCH   1   9
TORSDOF 10
ENDMDL
MODEL 2
REMARK VINA RESULT:    -3.201      2.168      2.375
REMARK INTER + INTRA:          -6.217
REMARK INTER:                  -5.046
REMARK INTRA:                  -1.171
REMARK UNBOUND:                -1.145
REMARK SMILES CCCCCCCCCCCC(=O)[O-]
REMARK SMILES IDX 7 1 8 2 9 3 10 4 11 5 12 6 13 7 14 8 6 9 5 10 4 11 3 12 2 13
REMARK SMILES IDX 1 14
REMARK H PARENT
REMARK Flexibility Score: inf
ROOT
ATOM      1  C   UNL     1      58.473  29.421  49.482  1.00  0.00     0.000 C 
ENDROOT
BRANCH   1   2
ATOM      2  C   UNL     1      59.692  28.489  49.374  1.00  0.00     0.000 C 
BRANCH   2   3
ATOM      3  C   UNL     1      59.301  27.001  49.344  1.00  0.00     0.000 C 
BRANCH   3   4
ATOM      4  C   UNL     1      59.684  26.265  50.637  1.00  0.00     0.006 C 
BRANCH   4   5
ATOM      5  C   UNL     1      58.646  25.210  51.044  1.00  0.00     0.053 C 
BRANCH   5   6
ATOM      6  C   UNL     1      57.867  25.677  52.233  1.00  0.00     0.041 C 
ATOM      7  O   UNL     1      56.714  25.221  52.455  1.00  0.00    -0.550 OA
ATOM      8  O   UNL     1      58.394  26.653  53.070  1.00  0.00    -0.550 OA
ENDBRANCH   5   6
ENDBRANCH   4   5
ENDBRANCH   3   4
ENDBRANCH   2   3
ENDBRANCH   1   2
BRANCH   1   9
ATOM      9  C   UNL     1      58.160  29.815  50.936  1.00  0.00     0.000 C 
BRANCH   9  10
ATOM     10  C   UNL     1      56.763  29.355  51.394  1.00  0.00    -0.000 C 
BRANCH  10  11
ATOM     11  C   UNL     1      56.089  28.309  50.488  1.00  0.00    -0.000 C 
BRANCH  11  12
ATOM     12  C   UNL     1      54.592  28.578  50.274  1.00  0.00    -0.000 C 
BRANCH  12  13
ATOM     13  C   UNL     1      53.879  27.325  49.748  1.00  0.00    -0.003 C 
ATOM     14  C   UNL     1      54.863  26.179  49.536  1.00  0.00     0.004 C 
ENDBRANCH  12  13
ENDBRANCH  11  12
ENDBRANCH  10  11
ENDBRANCH   9  10
ENDBRANCH   1   9
TORSDOF 10
ENDMDL
MODEL 3
REMARK VINA RESULT:    -3.186      2.062      3.530
REMARK INTER + INTRA:          -6.193
REMARK INTER:                  -5.104
REMARK INTRA:                  -1.089
REMARK UNBOUND:                -1.145
REMARK SMILES CCCCCCCCCCCC(=O)[O-]
REMARK SMILES IDX 7 1 8 2 9 3 10 4 11 5 12 6 13 7 14 8 6 9 5 10 4 11 3 12 2 13
REMARK SMILES IDX 1 14
REMARK H PARENT
REMARK Flexibility Score: inf
ROOT
ATOM      1  C   UNL     1      57.178  27.422  51.532  1.00  0.00     0.000 C 
ENDROOT
BRANCH   1   2
ATOM      2  C   UNL     1      57.209  28.421  50.363  1.00  0.00     0.000 C 
BRANCH   2   3
ATOM      3  C   UNL     1      58.117  29.632  50.640  1.00  0.00     0.000 C 
BRANCH   3   4
ATOM      4  C   UNL     1      59.320  29.698  49.686  1.00  0.00     0.006 C 
BRANCH   4   5
ATOM      5  C   UNL     1      59.634  28.341  49.039  1.00  0.00     0.053 C 
BRANCH   5   6
ATOM      6  C   UNL     1      60.821  27.713  49.698  1.00  0.00     0.041 C 
ATOM      7  O   UNL     1      61.985  27.990  49.306  1.00  0.00    -0.550 OA
ATOM      8  O   UNL     1      60.641  26.781  50.713  1.00  0.00    -0.550 OA
ENDBRANCH   5   6
ENDBRANCH   4   5
ENDBRANCH   3   4
ENDBRANCH   2   3
ENDBRANCH   1   2
BRANCH   1   9
ATOM      9  C   UNL     1      56.212  26.251  51.280  1.00  0.00     0.000 C 
BRANCH   9  10
ATOM     10  C   UNL     1      55.575  26.290  49.878  1.00  0.00    -0.000 C 
BRANCH  10  11
ATOM     11  C   UNL     1      54.038  26.215  49.855  1.00  0.00    -0.000 C 
BRANCH  11  12
ATOM     12  C   UNL     1      53.378  27.550  49.479  1.00  0.00    -0.000 C 
BRANCH  12  13
ATOM     13  C   UNL     1      53.217  28.450  50.711  1.00  0.00    -0.003 C 
ATOM     14  C   UNL     1      53.839  29.822  50.477  1.00  0.00     0.004 C 
ENDBRANCH  12  13
ENDBRANCH  11  12
ENDBRANCH  10  11
ENDBRANCH   9  10
ENDBRANCH   1   9
TORSDOF 10
ENDMDL
MODEL 4
REMARK VINA RESULT:    -3.182      5.354      8.434
REMARK INTER + INTRA:          -6.186
REMARK INTER:                  -5.509
REMARK INTRA:                  -0.677
REMARK UNBOUND:                -1.145
REMARK SMILES CCCCCCCCCCCC(=O)[O-]
REMARK SMILES IDX 7 1 8 2 9 3 10 4 11 5 12 6 13 7 14 8 6 9 5 10 4 11 3 12 2 13
REMARK SMILES IDX 1 14
REMARK H PARENT
REMARK Flexibility Score: inf
ROOT
ATOM      1  C   UNL     1      60.795  19.314  49.733  1.00  0.00     0.000 C 
ENDROOT
BRANCH   1   2
ATOM      2  C   UNL     1      60.431  17.831  49.550  1.00  0.00     0.000 C 
BRANCH   2   3
ATOM      3  C   UNL     1      59.376  17.610  48.451  1.00  0.00     0.000 C 
BRANCH   3   4
ATOM      4  C   UNL     1      58.074  17.005  48.997  1.00  0.00     0.006 C 
BRANCH   4   5
ATOM      5  C   UNL     1      57.901  17.241  50.503  1.00  0.00     0.053 C 
BRANCH   5   6
ATOM      6  C   UNL     1      57.101  18.481  50.748  1.00  0.00     0.041 C 
ATOM      7  O   UNL     1      57.613  19.455  51.360  1.00  0.00    -0.550 OA
ATOM      8  O   UNL     1      55.773  18.544  50.343  1.00  0.00    -0.550 OA
ENDBRANCH   5   6
ENDBRANCH   4   5
ENDBRANCH   3   4
ENDBRANCH   2   3
ENDBRANCH   1   2
BRANCH   1   9
ATOM      9  C   UNL     1      60.144  20.216  48.670  1.00  0.00     0.000 C 
BRANCH   9  10
ATOM     10  C   UNL     1      60.945  21.505  48.406  1.00  0.00    -0.000 C 
BRANCH  10  11
ATOM     11  C   UNL     1      61.586  22.145  49.651  1.00  0.00    -0.000 C 
BRANCH  11  12
ATOM     12  C   UNL     1      60.955  23.494  50.023  1.00  0.00    -0.000 C 
BRANCH  12  13
ATOM     13  C   UNL     1      61.910  24.328  50.887  1.00  0.00    -0.003 C 
ATOM     14  C   UNL     1      62.077  25.736  50.323  1.00  0.00     0.004 C 
ENDBRANCH  12  13
ENDBRANCH  11  12
ENDBRANCH  10  11
ENDBRANCH   9  10
ENDBRANCH   1   9
TORSDOF 10
ENDMDL
MODEL 5
REMARK VINA RESULT:    -3.181      2.913      4.243
REMARK INTER + INTRA:          -6.185
REMARK INTER:                  -5.030
REMARK INTRA:                  -1.154
REMARK UNBOUND:                -1.145
REMARK SMILES CCCCCCCCCCCC(=O)[O-]
REMARK SMILES IDX 7 1 8 2 9 3 10 4 11 5 12 6 13 7 14 8 6 9 5 10 4 11 3 12 2 13
REMARK SMILES IDX 1 14
REMARK H PARENT
REMARK Flexibility Score: inf
ROOT
ATOM      1  C   UNL     1      58.419  26.064  49.892  1.00  0.00     0.000 C 
ENDROOT
BRANCH   1   2
ATOM      2  C   UNL     1      59.479  27.154  50.124  1.00  0.00     0.000 C 
BRANCH   2   3
ATOM      3  C   UNL     1      59.415  28.279  49.076  1.00  0.00     0.000 C 
BRANCH   3   4
ATOM      4  C   UNL     1      58.541  29.458  49.529  1.00  0.00     0.006 C 
BRANCH   4   5
ATOM      5  C   UNL     1      58.356  29.504  51.052  1.00  0.00     0.053 C 
BRANCH   5   6
ATOM      6  C   UNL     1      59.220  30.567  51.651  1.00  0.00     0.041 C 
ATOM      7  O   UNL     1      58.752  31.353  52.517  1.00  0.00    -0.550 OA
ATOM      8  O   UNL     1      60.531  30.725  51.217  1.00  0.00    -0.550 OA
ENDBRANCH   5   6
ENDBRANCH   4   5
ENDBRANCH   3   4
ENDBRANCH   2   3
ENDBRANCH   1   2
BRANCH   1   9
ATOM      9  C   UNL     1      57.713  25.643  51.193  1.00  0.00     0.000 C 
BRANCH   9  10
ATOM     10  C   UNL     1      56.318  26.276  51.350  1.00  0.00    -0.000 C 
BRANCH  10  11
ATOM     11  C   UNL     1      55.708  26.847  50.057  1.00  0.00    -0.000 C 
BRANCH  11  12
ATOM     12  C   UNL     1      54.959  28.169  50.280  1.00  0.00    -0.000 C 
BRANCH  12  13
ATOM     13  C   UNL     1      53.506  28.065  49.800  1.00  0.00    -0.003 C 
ATOM     14  C   UNL     1      53.217  26.687  49.213  1.00  0.00     0.004 C 
ENDBRANCH  12  13
ENDBRANCH  11  12
ENDBRANCH  10  11
ENDBRANCH   9  10
ENDBRANCH   1   9
TORSDOF 10
ENDMDL
MODEL 6
REMARK VINA RESULT:    -3.134      3.057      5.095
REMARK INTER + INTRA:          -6.110
REMARK INTER:                  -4.957
REMARK INTRA:                  -1.154
REMARK UNBOUND:                -1.145
REMARK SMILES CCCCCCCCCCCC(=O)[O-]
REMARK SMILES IDX 7 1 8 2 9 3 10 4 11 5 12 6 13 7 14 8 6 9 5 10 4 11 3 12 2 13
REMARK SMILES IDX 1 14
REMARK H PARENT
REMARK Flexibility Score: inf
ROOT
ATOM      1  C   UNL     1      58.372  29.631  49.847  1.00  0.00     0.000 C 
ENDROOT
BRANCH   1   2
ATOM      2  C   UNL     1      57.467  29.541  51.087  1.00  0.00     0.000 C 
BRANCH   2   3
ATOM      3  C   UNL     1      55.983  29.349  50.729  1.00  0.00     0.000 C 
BRANCH   3   4
ATOM      4  C   UNL     1      55.646  27.891  50.378  1.00  0.00     0.006 C 
BRANCH   4   5
ATOM      5  C   UNL     1      54.180  27.710  49.962  1.00  0.00     0.053 C 
BRANCH   5   6
ATOM      6  C   UNL     1      53.847  26.256  49.845  1.00  0.00     0.041 C 
ATOM      7  O   UNL     1      54.048  25.644  48.763  1.00  0.00    -0.550 OA
ATOM      8  O   UNL     1      53.269  25.587  50.917  1.00  0.00    -0.550 OA
ENDBRANCH   5   6
ENDBRANCH   4   5
ENDBRANCH   3   4
ENDBRANCH   2   3
ENDBRANCH   1   2
BRANCH   1   9
ATOM      9  C   UNL     1      59.816  29.188  50.138  1.00  0.00     0.000 C 
BRANCH   9  10
ATOM     10  C   UNL     1      60.189  27.865  49.444  1.00  0.00    -0.000 C 
BRANCH  10  11
ATOM     11  C   UNL     1      59.070  26.810  49.402  1.00  0.00    -0.000 C 
BRANCH  11  12
ATOM     12  C   UNL     1      59.370  25.583  50.276  1.00  0.00    -0.000 C 
BRANCH  12  13
ATOM     13  C   UNL     1      58.289  25.394  51.347  1.00  0.00    -0.003 C 
ATOM     14  C   UNL     1      58.475  26.378  52.498  1.00  0.00     0.004 C 
ENDBRANCH  12  13
ENDBRANCH  11  12
ENDBRANCH  10  11
ENDBRANCH   9  10
ENDBRANCH   1   9
TORSDOF 10
ENDMDL
MODEL 7
REMARK VINA RESULT:    -3.083      6.743      9.614
REMARK INTER + INTRA:          -6.030
REMARK INTER:                  -5.103
REMARK INTRA:                  -0.927
REMARK UNBOUND:                -1.145
REMARK SMILES CCCCCCCCCCCC(=O)[O-]
REMARK SMILES IDX 7 1 8 2 9 3 10 4 11 5 12 6 13 7 14 8 6 9 5 10 4 11 3 12 2 13
REMARK SMILES IDX 1 14
REMARK H PARENT
REMARK Flexibility Score: inf
ROOT
ATOM      1  C   UNL     1      58.666  17.099  50.983  1.00  0.00     0.000 C 
ENDROOT
BRANCH   1   2
ATOM      2  C   UNL     1      57.754  18.074  51.748  1.00  0.00     0.000 C 
BRANCH   2   3
ATOM      3  C   UNL     1      56.946  18.990  50.812  1.00  0.00     0.000 C 
BRANCH   3   4
ATOM      4  C   UNL     1      55.438  18.706  50.867  1.00  0.00     0.006 C 
BRANCH   4   5
ATOM      5  C   UNL     1      54.641  19.866  51.479  1.00  0.00     0.053 C 
BRANCH   5   6
ATOM      6  C   UNL     1      54.887  19.947  52.952  1.00  0.00     0.041 C 
ATOM      7  O   UNL     1      55.403  20.981  53.453  1.00  0.00    -0.550 OA
ATOM      8  O   UNL     1      54.593  18.861  53.768  1.00  0.00    -0.550 OA
ENDBRANCH   5   6
ENDBRANCH   4   5
ENDBRANCH   3   4
ENDBRANCH   2   3
ENDBRANCH   1   2
BRANCH   1   9
ATOM      9  C   UNL     1      58.203  16.875  49.533  1.00  0.00     0.000 C 
BRANCH   9  10
ATOM     10  C   UNL     1      59.229  17.366  48.494  1.00  0.00    -0.000 C 
BRANCH  10  11
ATOM     11  C   UNL     1      60.231  18.414  49.008  1.00  0.00    -0.000 C 
BRANCH  11  12
ATOM     12  C   UNL     1      59.941  19.828  48.485  1.00  0.00    -0.000 C 
BRANCH  12  13
ATOM     13  C   UNL     1      60.175  20.878  49.579  1.00  0.00    -0.003 C 
ATOM     14  C   UNL     1      60.986  22.056  49.049  1.00  0.00     0.004 C 
ENDBRANCH  12  13
ENDBRANCH  11  12
ENDBRANCH  10  11
ENDBRANCH   9  10
ENDBRANCH   1   9
TORSDOF 10
ENDMDL
MODEL 8
REMARK VINA RESULT:    -3.054      2.027      3.654
REMARK INTER + INTRA:          -5.984
REMARK INTER:                  -4.649
REMARK INTRA:                  -1.335
REMARK UNBOUND:                -1.145
REMARK SMILES CCCCCCCCCCCC(=O)[O-]
REMARK SMILES IDX 7 1 8 2 9 3 10 4 11 5 12 6 13 7 14 8 6 9 5 10 4 11 3 12 2 13
REMARK SMILES IDX 1 14
REMARK H PARENT
REMARK Flexibility Score: inf
ROOT
ATOM      1  C   UNL     1      55.991  29.574  50.704  1.00  0.00     0.000 C 
ENDROOT
BRANCH   1   2
ATOM      2  C   UNL     1      57.090  29.445  51.772  1.00  0.00     0.000 C 
BRANCH   2   3
ATOM      3  C   UNL     1      58.488  29.791  51.232  1.00  0.00     0.000 C 
BRANCH   3   4
ATOM      4  C   UNL     1      58.560  29.728  49.699  1.00  0.00     0.006 C 
BRANCH   4   5
ATOM      5  C   UNL     1      59.305  28.485  49.194  1.00  0.00     0.053 C 
BRANCH   5   6
ATOM      6  C   UNL     1      60.604  28.327  49.917  1.00  0.00     0.041 C 
ATOM      7  O   UNL     1      60.851  27.269  50.554  1.00  0.00    -0.550 OA
ATOM      8  O   UNL     1      61.525  29.367  49.930  1.00  0.00    -0.550 OA
ENDBRANCH   5   6
ENDBRANCH   4   5
ENDBRANCH   3   4
ENDBRANCH   2   3
ENDBRANCH   1   2
BRANCH   1   9
ATOM      9  C   UNL     1      54.801  28.634  50.967  1.00  0.00     0.000 C 
BRANCH   9  10
ATOM     10  C   UNL     1      54.684  27.509  49.922  1.00  0.00    -0.000 C 
BRANCH  10  11
ATOM     11  C   UNL     1      55.339  26.174  50.321  1.00  0.00    -0.000 C 
BRANCH  11  12
ATOM     12  C   UNL     1      56.858  26.162  50.099  1.00  0.00    -0.000 C 
BRANCH  12  13
ATOM     13  C   UNL     1      57.590  25.628  51.337  1.00  0.00    -0.003 C 
ATOM     14  C   UNL     1      56.837  25.977  52.616  1.00  0.00     0.004 C 
ENDBRANCH  12  13
ENDBRANCH  11  12
ENDBRANCH  10  11
ENDBRANCH   9  10
ENDBRANCH   1   9
TORSDOF 10
ENDMDL
MODEL 9
REMARK VINA RESULT:    -3.050      6.961      9.162
REMARK INTER + INTRA:          -5.977
REMARK INTER:                  -4.500
REMARK INTRA:                  -1.477
REMARK UNBOUND:                -1.145
REMARK SMILES CCCCCCCCCCCC(=O)[O-]
REMARK SMILES IDX 7 1 8 2 9 3 10 4 11 5 12 6 13 7 14 8 6 9 5 10 4 11 3 12 2 13
REMARK SMILES IDX 1 14
REMARK H PARENT
REMARK Flexibility Score: inf
ROOT
ATOM      1  C   UNL     1      60.571  17.609  49.617  1.00  0.00     0.000 C 
ENDROOT
BRANCH   1   2
ATOM      2  C   UNL     1      59.745  17.020  50.773  1.00  0.00     0.000 C 
BRANCH   2   3
ATOM      3  C   UNL     1      58.253  16.875  50.424  1.00  0.00     0.000 C 
BRANCH   3   4
ATOM      4  C   UNL     1      57.355  17.760  51.301  1.00  0.00     0.006 C 
BRANCH   4   5
ATOM      5  C   UNL     1      56.553  18.781  50.482  1.00  0.00     0.053 C 
BRANCH   5   6
ATOM      6  C   UNL     1      55.449  19.361  51.308  1.00  0.00     0.041 C 
ATOM      7  O   UNL     1      54.308  19.540  50.806  1.00  0.00    -0.550 OA
ATOM      8  O   UNL     1      55.692  19.750  52.620  1.00  0.00    -0.550 OA
ENDBRANCH   5   6
ENDBRANCH   4   5
ENDBRANCH   3   4
ENDBRANCH   2   3
ENDBRANCH   1   2
BRANCH   1   9
ATOM      9  C   UNL     1      59.687  18.188  48.498  1.00  0.00     0.000 C 
BRANCH   9  10
ATOM     10  C   UNL     1      59.666  19.728  48.486  1.00  0.00    -0.000 C 
BRANCH  10  11
ATOM     11  C   UNL     1      60.849  20.404  49.202  1.00  0.00    -0.000 C 
BRANCH  11  12
ATOM     12  C   UNL     1      60.405  21.393  50.291  1.00  0.00    -0.000 C 
BRANCH  12  13
ATOM     13  C   UNL     1      60.465  20.745  51.679  1.00  0.00    -0.003 C 
ATOM     14  C   UNL     1      59.104  20.785  52.366  1.00  0.00     0.004 C 
ENDBRANCH  12  13
ENDBRANCH  11  12
ENDBRANCH  10  11
ENDBRANCH   9  10
ENDBRANCH   1   9
TORSDOF 10
ENDMDL
