MODEL 1
REMARK VINA RESULT:    -7.208      0.000      0.000
REMARK INTER + INTRA:         -14.655
REMARK INTER:                 -11.843
REMARK INTRA:                  -2.812
REMARK UNBOUND:                -2.812
REMARK SMILES C[C@@H]1O[C@@H](OC[C@@H]2O[C@@H](Oc3c(-c4ccc(O)c(O)c4)oc4cc(O)cc(O)c4c3=O)[C@@H](O)[C@H](O)[C@@H]2O)[C@H](O)[C@@H](O)[C@@H]1O
REMARK SMILES IDX 7 1 36 2 34 3 32 4 9 5 8 6 6 7 5 8 4 9 1 10 2 11 42 12 3 13
REMARK SMILES IDX 40 14 38 15 43 16 41 18 39 20 37 22 35 24 10 26 11 27 12 28
REMARK SMILES IDX 30 29 21 30 29 31 31 32 22 33 27 34 23 35 26 36 24 37 13 38
REMARK SMILES IDX 20 39 14 40 18 41 15 42 16 43 19 44 17 46 28 48 25 50 33 52
REMARK H PARENT 43 17 41 19 39 21 37 23 35 25 19 45 17 47 28 49 25 51 33 53
REMARK Flexibility Score: inf
ROOT
ATOM      1  C   UNL     1      52.129   5.664  79.280  1.00  0.00     0.180 C 
ATOM      2  C   UNL     1      51.545   4.255  79.092  1.00  0.00     0.177 C 
ATOM      3  C   UNL     1      52.532   3.260  78.537  1.00  0.00     0.180 C 
ATOM      4  C   UNL     1      53.805   3.273  79.463  1.00  0.00     0.214 C 
ATOM      5  C   UNL     1      54.314   4.734  79.751  1.00  0.00     0.339 C 
ATOM      6  O   UNL     1      53.244   5.588  80.174  1.00  0.00    -0.332 OA
ENDROOT
BRANCH   1   7
ATOM      7  C   UNL     1      52.473   6.516  77.975  1.00  0.00     0.198 C 
BRANCH   7   8
ATOM      8  O   UNL     1      53.758   6.228  77.423  1.00  0.00    -0.347 OA
BRANCH   8   9
ATOM      9  C   UNL     1      54.514   7.374  77.088  1.00  0.00     0.281 C 
ATOM     10  C   UNL     1      55.800   9.946  79.657  1.00  0.00     0.041 C 
ATOM     11  C   UNL     1      55.109   9.346  78.401  1.00  0.00     0.150 C 
ATOM     12  C   UNL     1      55.773   9.769  77.050  1.00  0.00     0.174 C 
ATOM     13  O   UNL     1      54.998   7.916  78.392  1.00  0.00    -0.344 OA
ATOM     14  C   UNL     1      54.643   9.751  75.980  1.00  0.00     0.179 C 
ATOM     15  C   UNL     1      53.725   8.444  76.233  1.00  0.00     0.202 C 
BRANCH  12  16
ATOM     16  O   UNL     1      56.876   8.941  76.697  1.00  0.00    -0.388 OA
ATOM     17  H   UNL     1      57.684   9.421  77.038  1.00  0.00     0.211 HD
ENDBRANCH  12  16
BRANCH  14  18
ATOM     18  O   UNL     1      53.820  10.913  76.133  1.00  0.00    -0.387 OA
ATOM     19  H   UNL     1      53.092  10.949  75.476  1.00  0.00     0.211 HD
ENDBRANCH  14  18
BRANCH  15  20
ATOM     20  O   UNL     1      53.321   7.987  74.989  1.00  0.00    -0.385 OA
ATOM     21  H   UNL     1      53.557   8.690  74.329  1.00  0.00     0.211 HD
ENDBRANCH  15  20
ENDBRANCH   8   9
ENDBRANCH   7   8
ENDBRANCH   1   7
BRANCH   2  22
ATOM     22  O   UNL     1      50.236   4.237  78.591  1.00  0.00    -0.387 OA
ATOM     23  H   UNL     1      50.133   3.416  77.989  1.00  0.00     0.211 HD
ENDBRANCH   2  22
BRANCH   3  24
ATOM     24  O   UNL     1      52.934   3.487  77.218  1.00  0.00    -0.387 OA
ATOM     25  H   UNL     1      52.651   2.747  76.664  1.00  0.00     0.211 HD
ENDBRANCH   3  24
BRANCH   5  26
ATOM     26  O   UNL     1      55.330   4.668  80.739  1.00  0.00    -0.454 OA
BRANCH  26  27
ATOM     27  C   UNL     1      56.348   5.646  81.051  1.00  0.00     0.214 A 
ATOM     28  C   UNL     1      56.432   6.128  82.366  1.00  0.00     0.180 A 
ATOM     29  C   UNL     1      57.258   6.164  80.111  1.00  0.00     0.239 A 
ATOM     30  O   UNL     1      57.311   7.079  82.712  1.00  0.00    -0.452 OA
ATOM     31  C   UNL     1      58.194   7.153  80.469  1.00  0.00     0.111 A 
ATOM     32  O   UNL     1      57.341   5.652  78.937  1.00  0.00    -0.285 OA
ATOM     33  C   UNL     1      58.157   7.607  81.844  1.00  0.00     0.146 A 
ATOM     34  C   UNL     1      59.001   7.805  79.555  1.00  0.00     0.134 A 
ATOM     35  C   UNL     1      59.051   8.565  82.234  1.00  0.00     0.094 A 
ATOM     36  C   UNL     1      59.977   8.757  80.002  1.00  0.00     0.093 A 
ATOM     37  C   UNL     1      60.015   9.109  81.347  1.00  0.00     0.123 A 
BRANCH  28  38
ATOM     38  C   UNL     1      55.513   5.632  83.392  1.00  0.00     0.025 A 
ATOM     39  C   UNL     1      55.574   4.281  83.749  1.00  0.00     0.062 A 
ATOM     40  C   UNL     1      54.316   6.307  83.543  1.00  0.00     0.016 A 
ATOM     41  C   UNL     1      54.347   3.568  83.850  1.00  0.00     0.158 A 
ATOM     42  C   UNL     1      53.126   5.619  83.423  1.00  0.00     0.051 A 
ATOM     43  C   UNL     1      53.119   4.197  83.500  1.00  0.00     0.157 A 
BRANCH  41  44
ATOM     44  O   UNL     1      54.360   2.229  84.081  1.00  0.00    -0.504 OA
ATOM     45  H   UNL     1      53.729   1.825  84.811  1.00  0.00     0.293 HD
ENDBRANCH  41  44
BRANCH  43  46
ATOM     46  O   UNL     1      51.960   3.516  83.388  1.00  0.00    -0.504 OA
ATOM     47  H   UNL     1      51.162   3.773  83.980  1.00  0.00     0.293 HD
ENDBRANCH  43  46
ENDBRANCH  28  38
BRANCH  34  48
ATOM     48  O   UNL     1      58.791   7.654  78.197  1.00  0.00    -0.507 OA
ATOM     49  H   UNL     1      58.456   6.799  77.786  1.00  0.00     0.293 HD
ENDBRANCH  34  48
BRANCH  37  50
ATOM     50  O   UNL     1      61.005  10.005  81.825  1.00  0.00    -0.508 OA
ATOM     51  H   UNL     1      61.951   9.984  81.489  1.00  0.00     0.293 HD
ENDBRANCH  37  50
ENDBRANCH  26  27
ENDBRANCH   5  26
BRANCH   4  52
ATOM     52  O   UNL     1      53.477   2.639  80.656  1.00  0.00    -0.384 OA
ATOM     53  H   UNL     1      52.935   1.857  80.364  1.00  0.00     0.211 HD
ENDBRANCH   4  52
TORSDOF 16
ENDMDL
MODEL 2
REMARK VINA RESULT:    -6.816      1.273      1.918
REMARK INTER + INTRA:         -14.011
REMARK INTER:                 -11.800
REMARK INTRA:                  -2.211
REMARK UNBOUND:                -2.812
REMARK SMILES C[C@@H]1O[C@@H](OC[C@@H]2O[C@@H](Oc3c(-c4ccc(O)c(O)c4)oc4cc(O)cc(O)c4c3=O)[C@@H](O)[C@H](O)[C@@H]2O)[C@H](O)[C@@H](O)[C@@H]1O
REMARK SMILES IDX 7 1 36 2 34 3 32 4 9 5 8 6 6 7 5 8 4 9 1 10 2 11 42 12 3 13
REMARK SMILES IDX 40 14 38 15 43 16 41 18 39 20 37 22 35 24 10 26 11 27 12 28
REMARK SMILES IDX 30 29 21 30 29 31 31 32 22 33 27 34 23 35 26 36 24 37 13 38
REMARK SMILES IDX 20 39 14 40 18 41 15 42 16 43 19 44 17 46 28 48 25 50 33 52
REMARK H PARENT 43 17 41 19 39 21 37 23 35 25 19 45 17 47 28 49 25 51 33 53
REMARK Flexibility Score: inf
ROOT
ATOM      1  C   UNL     1      51.361   5.310  79.402  1.00  0.00     0.180 C 
ATOM      2  C   UNL     1      51.148   3.973  78.674  1.00  0.00     0.177 C 
ATOM      3  C   UNL     1      52.295   3.582  77.778  1.00  0.00     0.180 C 
ATOM      4  C   UNL     1      53.611   3.601  78.640  1.00  0.00     0.214 C 
ATOM      5  C   UNL     1      53.751   4.925  79.480  1.00  0.00     0.339 C 
ATOM      6  O   UNL     1      52.547   5.218  80.200  1.00  0.00    -0.332 OA
ENDROOT
BRANCH   1   7
ATOM      7  C   UNL     1      51.332   6.651  78.537  1.00  0.00     0.198 C 
BRANCH   7   8
ATOM      8  O   UNL     1      52.562   6.932  77.870  1.00  0.00    -0.347 OA
BRANCH   8   9
ATOM      9  C   UNL     1      52.736   8.291  77.524  1.00  0.00     0.281 C 
ATOM     10  C   UNL     1      50.228  10.326  75.418  1.00  0.00     0.041 C 
ATOM     11  C   UNL     1      51.562   9.700  75.910  1.00  0.00     0.150 C 
ATOM     12  C   UNL     1      52.611  10.750  76.403  1.00  0.00     0.174 C 
ATOM     13  O   UNL     1      51.427   8.715  76.945  1.00  0.00    -0.344 OA
ATOM     14  C   UNL     1      54.013  10.125  76.146  1.00  0.00     0.179 C 
ATOM     15  C   UNL     1      53.954   8.562  76.554  1.00  0.00     0.202 C 
BRANCH  12  16
ATOM     16  O   UNL     1      52.417  11.124  77.763  1.00  0.00    -0.388 OA
ATOM     17  H   UNL     1      53.288  10.932  78.215  1.00  0.00     0.211 HD
ENDBRANCH  12  16
BRANCH  14  18
ATOM     18  O   UNL     1      54.330  10.214  74.753  1.00  0.00    -0.387 OA
ATOM     19  H   UNL     1      54.337   9.338  74.311  1.00  0.00     0.211 HD
ENDBRANCH  14  18
BRANCH  15  20
ATOM     20  O   UNL     1      55.188   8.238  77.092  1.00  0.00    -0.385 OA
ATOM     21  H   UNL     1      55.307   7.259  76.982  1.00  0.00     0.211 HD
ENDBRANCH  15  20
ENDBRANCH   8   9
ENDBRANCH   7   8
ENDBRANCH   1   7
BRANCH   2  22
ATOM     22  O   UNL     1      49.843   3.778  78.200  1.00  0.00    -0.387 OA
ATOM     23  H   UNL     1      49.680   4.431  77.430  1.00  0.00     0.211 HD
ENDBRANCH   2  22
BRANCH   3  24
ATOM     24  O   UNL     1      52.481   4.393  76.655  1.00  0.00    -0.387 OA
ATOM     25  H   UNL     1      53.229   4.986  76.807  1.00  0.00     0.211 HD
ENDBRANCH   3  24
BRANCH   5  26
ATOM     26  O   UNL     1      54.848   4.780  80.368  1.00  0.00    -0.454 OA
BRANCH  26  27
ATOM     27  C   UNL     1      55.976   5.663  80.558  1.00  0.00     0.214 A 
ATOM     28  C   UNL     1      56.313   6.046  81.865  1.00  0.00     0.180 A 
ATOM     29  C   UNL     1      56.756   6.182  79.508  1.00  0.00     0.239 A 
ATOM     30  O   UNL     1      57.309   6.909  82.111  1.00  0.00    -0.452 OA
ATOM     31  C   UNL     1      57.813   7.078  79.759  1.00  0.00     0.111 A 
ATOM     32  O   UNL     1      56.605   5.747  78.311  1.00  0.00    -0.285 OA
ATOM     33  C   UNL     1      58.039   7.437  81.143  1.00  0.00     0.146 A 
ATOM     34  C   UNL     1      58.507   7.735  78.759  1.00  0.00     0.134 A 
ATOM     35  C   UNL     1      59.057   8.304  81.430  1.00  0.00     0.094 A 
ATOM     36  C   UNL     1      59.615   8.586  79.088  1.00  0.00     0.093 A 
ATOM     37  C   UNL     1      59.901   8.841  80.424  1.00  0.00     0.123 A 
BRANCH  28  38
ATOM     38  C   UNL     1      55.540   5.543  83.003  1.00  0.00     0.025 A 
ATOM     39  C   UNL     1      55.505   4.164  83.231  1.00  0.00     0.062 A 
ATOM     40  C   UNL     1      54.476   6.317  83.430  1.00  0.00     0.016 A 
ATOM     41  C   UNL     1      54.241   3.571  83.504  1.00  0.00     0.158 A 
ATOM     42  C   UNL     1      53.212   5.767  83.480  1.00  0.00     0.051 A 
ATOM     43  C   UNL     1      53.052   4.353  83.443  1.00  0.00     0.157 A 
BRANCH  41  44
ATOM     44  O   UNL     1      54.137   2.221  83.619  1.00  0.00    -0.504 OA
ATOM     45  H   UNL     1      54.945   1.672  83.993  1.00  0.00     0.293 HD
ENDBRANCH  41  44
BRANCH  43  46
ATOM     46  O   UNL     1      51.821   3.805  83.496  1.00  0.00    -0.504 OA
ATOM     47  H   UNL     1      51.665   2.962  84.061  1.00  0.00     0.293 HD
ENDBRANCH  43  46
ENDBRANCH  28  38
BRANCH  34  48
ATOM     48  O   UNL     1      58.065   7.692  77.450  1.00  0.00    -0.507 OA
ATOM     49  H   UNL     1      58.600   7.282  76.704  1.00  0.00     0.293 HD
ENDBRANCH  34  48
BRANCH  37  50
ATOM     50  O   UNL     1      61.023   9.633  80.778  1.00  0.00    -0.508 OA
ATOM     51  H   UNL     1      61.224  10.507  80.324  1.00  0.00     0.293 HD
ENDBRANCH  37  50
ENDBRANCH  26  27
ENDBRANCH   5  26
BRANCH   4  52
ATOM     52  O   UNL     1      53.588   2.499  79.489  1.00  0.00    -0.384 OA
ATOM     53  H   UNL     1      53.106   1.808  78.959  1.00  0.00     0.211 HD
ENDBRANCH   4  52
TORSDOF 16
ENDMDL
MODEL 3
REMARK VINA RESULT:    -6.406      1.963      7.561
REMARK INTER + INTRA:         -13.338
REMARK INTER:                 -11.727
REMARK INTRA:                  -1.611
REMARK UNBOUND:                -2.812
REMARK SMILES C[C@@H]1O[C@@H](OC[C@@H]2O[C@@H](Oc3c(-c4ccc(O)c(O)c4)oc4cc(O)cc(O)c4c3=O)[C@@H](O)[C@H](O)[C@@H]2O)[C@H](O)[C@@H](O)[C@@H]1O
REMARK SMILES IDX 7 1 36 2 34 3 32 4 9 5 8 6 6 7 5 8 4 9 1 10 2 11 42 12 3 13
REMARK SMILES IDX 40 14 38 15 43 16 41 18 39 20 37 22 35 24 10 26 11 27 12 28
REMARK SMILES IDX 30 29 21 30 29 31 31 32 22 33 27 34 23 35 26 36 24 37 13 38
REMARK SMILES IDX 20 39 14 40 18 41 15 42 16 43 19 44 17 46 28 48 25 50 33 52
REMARK H PARENT 43 17 41 19 39 21 37 23 35 25 19 45 17 47 28 49 25 51 33 53
REMARK Flexibility Score: inf
ROOT
ATOM      1  C   UNL     1      56.384   6.603  82.018  1.00  0.00     0.180 C 
ATOM      2  C   UNL     1      57.365   5.419  82.041  1.00  0.00     0.177 C 
ATOM      3  C   UNL     1      57.107   4.400  80.962  1.00  0.00     0.180 C 
ATOM      4  C   UNL     1      57.092   5.150  79.579  1.00  0.00     0.214 C 
ATOM      5  C   UNL     1      56.183   6.434  79.611  1.00  0.00     0.339 C 
ATOM      6  O   UNL     1      56.477   7.256  80.747  1.00  0.00    -0.332 OA
ENDROOT
BRANCH   1   7
ATOM      7  C   UNL     1      54.868   6.333  82.435  1.00  0.00     0.198 C 
BRANCH   7   8
ATOM      8  O   UNL     1      54.083   5.742  81.400  1.00  0.00    -0.347 OA
BRANCH   8   9
ATOM      9  C   UNL     1      52.862   5.186  81.845  1.00  0.00     0.281 C 
ATOM     10  C   UNL     1      52.575   1.883  83.811  1.00  0.00     0.041 C 
ATOM     11  C   UNL     1      52.333   2.973  82.731  1.00  0.00     0.150 C 
ATOM     12  C   UNL     1      50.888   3.572  82.749  1.00  0.00     0.174 C 
ATOM     13  O   UNL     1      53.251   4.075  82.762  1.00  0.00    -0.344 OA
ATOM     14  C   UNL     1      50.578   4.015  81.289  1.00  0.00     0.179 C 
ATOM     15  C   UNL     1      51.902   4.716  80.680  1.00  0.00     0.202 C 
BRANCH  12  16
ATOM     16  O   UNL     1      50.745   4.633  83.688  1.00  0.00    -0.388 OA
ATOM     17  H   UNL     1      50.425   4.197  84.529  1.00  0.00     0.211 HD
ENDBRANCH  12  16
BRANCH  14  18
ATOM     18  O   UNL     1      50.273   2.866  80.493  1.00  0.00    -0.387 OA
ATOM     19  H   UNL     1      50.714   2.885  79.617  1.00  0.00     0.211 HD
ENDBRANCH  14  18
BRANCH  15  20
ATOM     20  O   UNL     1      51.473   5.741  79.853  1.00  0.00    -0.385 OA
ATOM     21  H   UNL     1      51.269   5.337  78.970  1.00  0.00     0.211 HD
ENDBRANCH  15  20
ENDBRANCH   8   9
ENDBRANCH   7   8
ENDBRANCH   1   7
BRANCH   2  22
ATOM     22  O   UNL     1      57.678   4.957  83.327  1.00  0.00    -0.387 OA
ATOM     23  H   UNL     1      58.165   5.704  83.828  1.00  0.00     0.211 HD
ENDBRANCH   2  22
BRANCH   3  24
ATOM     24  O   UNL     1      55.918   3.676  81.094  1.00  0.00    -0.387 OA
ATOM     25  H   UNL     1      55.335   3.877  80.350  1.00  0.00     0.211 HD
ENDBRANCH   3  24
BRANCH   5  26
ATOM     26  O   UNL     1      56.379   7.152  78.403  1.00  0.00    -0.454 OA
BRANCH  26  27
ATOM     27  C   UNL     1      55.425   7.950  77.665  1.00  0.00     0.214 A 
ATOM     28  C   UNL     1      55.887   9.094  76.996  1.00  0.00     0.180 A 
ATOM     29  C   UNL     1      54.051   7.663  77.586  1.00  0.00     0.239 A 
ATOM     30  O   UNL     1      55.050   9.913  76.343  1.00  0.00    -0.452 OA
ATOM     31  C   UNL     1      53.167   8.510  76.890  1.00  0.00     0.111 A 
ATOM     32  O   UNL     1      53.593   6.552  78.036  1.00  0.00    -0.285 OA
ATOM     33  C   UNL     1      53.749   9.685  76.277  1.00  0.00     0.146 A 
ATOM     34  C   UNL     1      51.792   8.359  76.912  1.00  0.00     0.134 A 
ATOM     35  C   UNL     1      52.926  10.534  75.590  1.00  0.00     0.094 A 
ATOM     36  C   UNL     1      50.958   9.224  76.126  1.00  0.00     0.093 A 
ATOM     37  C   UNL     1      51.536  10.289  75.445  1.00  0.00     0.123 A 
BRANCH  28  38
ATOM     38  C   UNL     1      57.307   9.451  77.040  1.00  0.00     0.025 A 
ATOM     39  C   UNL     1      58.246   8.437  77.248  1.00  0.00     0.062 A 
ATOM     40  C   UNL     1      57.618  10.739  77.437  1.00  0.00     0.016 A 
ATOM     41  C   UNL     1      59.274   8.673  78.203  1.00  0.00     0.158 A 
ATOM     42  C   UNL     1      58.459  10.935  78.514  1.00  0.00     0.051 A 
ATOM     43  C   UNL     1      59.271   9.864  78.982  1.00  0.00     0.157 A 
BRANCH  41  44
ATOM     44  O   UNL     1      60.141   7.677  78.523  1.00  0.00    -0.504 OA
ATOM     45  H   UNL     1      60.523   7.062  77.768  1.00  0.00     0.293 HD
ENDBRANCH  41  44
BRANCH  43  46
ATOM     46  O   UNL     1      60.100  10.047  80.031  1.00  0.00    -0.504 OA
ATOM     47  H   UNL     1      59.792   9.778  80.973  1.00  0.00     0.293 HD
ENDBRANCH  43  46
ENDBRANCH  28  38
BRANCH  34  48
ATOM     48  O   UNL     1      51.195   7.472  77.787  1.00  0.00    -0.507 OA
ATOM     49  H   UNL     1      51.361   7.486  78.780  1.00  0.00     0.293 HD
ENDBRANCH  34  48
BRANCH  37  50
ATOM     50  O   UNL     1      50.743  11.125  74.618  1.00  0.00    -0.508 OA
ATOM     51  H   UNL     1      49.940  11.615  74.968  1.00  0.00     0.293 HD
ENDBRANCH  37  50
ENDBRANCH  26  27
ENDBRANCH   5  26
BRANCH   4  52
ATOM     52  O   UNL     1      58.401   5.500  79.265  1.00  0.00    -0.384 OA
ATOM     53  H   UNL     1      58.313   5.967  78.390  1.00  0.00     0.211 HD
ENDBRANCH   4  52
TORSDOF 16
ENDMDL
MODEL 4
REMARK VINA RESULT:    -6.289      1.685      6.233
REMARK INTER + INTRA:         -13.146
REMARK INTER:                 -11.209
REMARK INTRA:                  -1.937
REMARK UNBOUND:                -2.812
REMARK SMILES C[C@@H]1O[C@@H](OC[C@@H]2O[C@@H](Oc3c(-c4ccc(O)c(O)c4)oc4cc(O)cc(O)c4c3=O)[C@@H](O)[C@H](O)[C@@H]2O)[C@H](O)[C@@H](O)[C@@H]1O
REMARK SMILES IDX 7 1 36 2 34 3 32 4 9 5 8 6 6 7 5 8 4 9 1 10 2 11 42 12 3 13
REMARK SMILES IDX 40 14 38 15 43 16 41 18 39 20 37 22 35 24 10 26 11 27 12 28
REMARK SMILES IDX 30 29 21 30 29 31 31 32 22 33 27 34 23 35 26 36 24 37 13 38
REMARK SMILES IDX 20 39 14 40 18 41 15 42 16 43 19 44 17 46 28 48 25 50 33 52
REMARK H PARENT 43 17 41 19 39 21 37 23 35 25 19 45 17 47 28 49 25 51 33 53
REMARK Flexibility Score: inf
ROOT
ATOM      1  C   UNL     1      53.642   4.351  77.813  1.00  0.00     0.180 C 
ATOM      2  C   UNL     1      52.166   4.525  77.421  1.00  0.00     0.177 C 
ATOM      3  C   UNL     1      51.509   5.724  78.056  1.00  0.00     0.180 C 
ATOM      4  C   UNL     1      52.381   6.990  77.720  1.00  0.00     0.214 C 
ATOM      5  C   UNL     1      53.910   6.750  78.007  1.00  0.00     0.339 C 
ATOM      6  O   UNL     1      54.366   5.522  77.424  1.00  0.00    -0.332 OA
ENDROOT
BRANCH   1   7
ATOM      7  C   UNL     1      53.976   3.920  79.313  1.00  0.00     0.198 C 
BRANCH   7   8
ATOM      8  O   UNL     1      52.828   3.542  80.073  1.00  0.00    -0.347 OA
BRANCH   8   9
ATOM      9  C   UNL     1      52.952   3.774  81.462  1.00  0.00     0.281 C 
ATOM     10  C   UNL     1      54.477   6.964  82.998  1.00  0.00     0.041 C 
ATOM     11  C   UNL     1      54.205   5.462  82.703  1.00  0.00     0.150 C 
ATOM     12  C   UNL     1      53.626   4.673  83.923  1.00  0.00     0.174 C 
ATOM     13  O   UNL     1      53.344   5.209  81.584  1.00  0.00    -0.344 OA
ATOM     14  C   UNL     1      54.095   3.198  83.754  1.00  0.00     0.179 C 
ATOM     15  C   UNL     1      53.955   2.797  82.194  1.00  0.00     0.202 C 
BRANCH  12  16
ATOM     16  O   UNL     1      52.211   4.790  84.031  1.00  0.00    -0.388 OA
ATOM     17  H   UNL     1      52.031   5.772  84.073  1.00  0.00     0.211 HD
ENDBRANCH  12  16
BRANCH  14  18
ATOM     18  O   UNL     1      55.474   3.089  84.123  1.00  0.00    -0.387 OA
ATOM     19  H   UNL     1      56.071   3.545  83.494  1.00  0.00     0.211 HD
ENDBRANCH  14  18
BRANCH  15  20
ATOM     20  O   UNL     1      53.579   1.464  82.152  1.00  0.00    -0.385 OA
ATOM     21  H   UNL     1      53.791   1.129  81.243  1.00  0.00     0.211 HD
ENDBRANCH  15  20
ENDBRANCH   8   9
ENDBRANCH   7   8
ENDBRANCH   1   7
BRANCH   2  22
ATOM     22  O   UNL     1      51.441   3.327  77.363  1.00  0.00    -0.387 OA
ATOM     23  H   UNL     1      52.097   2.549  77.460  1.00  0.00     0.211 HD
ENDBRANCH   2  22
BRANCH   3  24
ATOM     24  O   UNL     1      51.339   5.650  79.442  1.00  0.00    -0.387 OA
ATOM     25  H   UNL     1      50.397   5.688  79.653  1.00  0.00     0.211 HD
ENDBRANCH   3  24
BRANCH   5  26
ATOM     26  O   UNL     1      54.641   7.854  77.498  1.00  0.00    -0.454 OA
BRANCH  26  27
ATOM     27  C   UNL     1      55.779   8.527  78.082  1.00  0.00     0.214 A 
ATOM     28  C   UNL     1      55.827   9.929  78.028  1.00  0.00     0.180 A 
ATOM     29  C   UNL     1      56.860   7.864  78.690  1.00  0.00     0.239 A 
ATOM     30  O   UNL     1      56.880  10.615  78.495  1.00  0.00    -0.452 OA
ATOM     31  C   UNL     1      57.963   8.578  79.196  1.00  0.00     0.111 A 
ATOM     32  O   UNL     1      56.804   6.602  78.915  1.00  0.00    -0.285 OA
ATOM     33  C   UNL     1      57.923  10.018  79.044  1.00  0.00     0.146 A 
ATOM     34  C   UNL     1      59.116   7.971  79.661  1.00  0.00     0.134 A 
ATOM     35  C   UNL     1      58.975  10.749  79.523  1.00  0.00     0.094 A 
ATOM     36  C   UNL     1      60.174   8.762  80.220  1.00  0.00     0.093 A 
ATOM     37  C   UNL     1      60.082  10.149  80.175  1.00  0.00     0.123 A 
BRANCH  28  38
ATOM     38  C   UNL     1      54.735  10.680  77.406  1.00  0.00     0.025 A 
ATOM     39  C   UNL     1      53.508  10.754  78.073  1.00  0.00     0.062 A 
ATOM     40  C   UNL     1      54.750  10.785  76.027  1.00  0.00     0.016 A 
ATOM     41  C   UNL     1      52.327  10.520  77.314  1.00  0.00     0.158 A 
ATOM     42  C   UNL     1      53.664  10.347  75.298  1.00  0.00     0.051 A 
ATOM     43  C   UNL     1      52.417  10.127  75.949  1.00  0.00     0.157 A 
BRANCH  41  44
ATOM     44  O   UNL     1      51.122  10.468  77.938  1.00  0.00    -0.504 OA
ATOM     45  H   UNL     1      50.566  11.346  78.061  1.00  0.00     0.293 HD
ENDBRANCH  41  44
BRANCH  43  46
ATOM     46  O   UNL     1      51.347   9.703  75.245  1.00  0.00    -0.504 OA
ATOM     47  H   UNL     1      51.479   9.338  74.294  1.00  0.00     0.293 HD
ENDBRANCH  43  46
ENDBRANCH  28  38
BRANCH  34  48
ATOM     48  O   UNL     1      59.324   6.618  79.471  1.00  0.00    -0.507 OA
ATOM     49  H   UNL     1      60.193   6.239  79.134  1.00  0.00     0.293 HD
ENDBRANCH  34  48
BRANCH  37  50
ATOM     50  O   UNL     1      61.087  10.953  80.769  1.00  0.00    -0.508 OA
ATOM     51  H   UNL     1      61.765  11.453  80.222  1.00  0.00     0.293 HD
ENDBRANCH  37  50
ENDBRANCH  26  27
ENDBRANCH   5  26
BRANCH   4  52
ATOM     52  O   UNL     1      52.192   7.300  76.377  1.00  0.00    -0.384 OA
ATOM     53  H   UNL     1      52.196   8.295  76.366  1.00  0.00     0.211 HD
ENDBRANCH   4  52
TORSDOF 16
ENDMDL
MODEL 5
REMARK VINA RESULT:    -6.100      2.043      6.763
REMARK INTER + INTRA:         -12.835
REMARK INTER:                 -10.142
REMARK INTRA:                  -2.693
REMARK UNBOUND:                -2.812
REMARK SMILES C[C@@H]1O[C@@H](OC[C@@H]2O[C@@H](Oc3c(-c4ccc(O)c(O)c4)oc4cc(O)cc(O)c4c3=O)[C@@H](O)[C@H](O)[C@@H]2O)[C@H](O)[C@@H](O)[C@@H]1O
REMARK SMILES IDX 7 1 36 2 34 3 32 4 9 5 8 6 6 7 5 8 4 9 1 10 2 11 42 12 3 13
REMARK SMILES IDX 40 14 38 15 43 16 41 18 39 20 37 22 35 24 10 26 11 27 12 28
REMARK SMILES IDX 30 29 21 30 29 31 31 32 22 33 27 34 23 35 26 36 24 37 13 38
REMARK SMILES IDX 20 39 14 40 18 41 15 42 16 43 19 44 17 46 28 48 25 50 33 52
REMARK H PARENT 43 17 41 19 39 21 37 23 35 25 19 45 17 47 28 49 25 51 33 53
REMARK Flexibility Score: inf
ROOT
ATOM      1  C   UNL     1      54.432   8.174  79.336  1.00  0.00     0.180 C 
ATOM      2  C   UNL     1      54.689   9.606  79.833  1.00  0.00     0.177 C 
ATOM      3  C   UNL     1      53.873   9.980  81.044  1.00  0.00     0.180 C 
ATOM      4  C   UNL     1      54.128   8.896  82.155  1.00  0.00     0.214 C 
ATOM      5  C   UNL     1      53.987   7.431  81.597  1.00  0.00     0.339 C 
ATOM      6  O   UNL     1      54.740   7.256  80.390  1.00  0.00    -0.332 OA
ENDROOT
BRANCH   1   7
ATOM      7  C   UNL     1      53.021   7.852  78.664  1.00  0.00     0.198 C 
BRANCH   7   8
ATOM      8  O   UNL     1      53.122   7.178  77.410  1.00  0.00    -0.347 OA
BRANCH   8   9
ATOM      9  C   UNL     1      52.933   5.779  77.487  1.00  0.00     0.281 C 
ATOM     10  C   UNL     1      50.286   4.073  79.711  1.00  0.00     0.041 C 
ATOM     11  C   UNL     1      51.655   4.416  79.060  1.00  0.00     0.150 C 
ATOM     12  C   UNL     1      52.253   3.258  78.195  1.00  0.00     0.174 C 
ATOM     13  O   UNL     1      51.662   5.600  78.249  1.00  0.00    -0.344 OA
ATOM     14  C   UNL     1      53.800   3.422  78.252  1.00  0.00     0.179 C 
ATOM     15  C   UNL     1      54.148   4.996  78.125  1.00  0.00     0.202 C 
BRANCH  12  16
ATOM     16  O   UNL     1      51.750   3.250  76.864  1.00  0.00    -0.388 OA
ATOM     17  H   UNL     1      51.961   2.339  76.509  1.00  0.00     0.211 HD
ENDBRANCH  12  16
BRANCH  14  18
ATOM     18  O   UNL     1      54.286   2.956  79.516  1.00  0.00    -0.387 OA
ATOM     19  H   UNL     1      54.758   2.100  79.446  1.00  0.00     0.211 HD
ENDBRANCH  14  18
BRANCH  15  20
ATOM     20  O   UNL     1      55.325   5.092  77.401  1.00  0.00    -0.385 OA
ATOM     21  H   UNL     1      55.324   4.349  76.743  1.00  0.00     0.211 HD
ENDBRANCH  15  20
ENDBRANCH   8   9
ENDBRANCH   7   8
ENDBRANCH   1   7
BRANCH   2  22
ATOM     22  O   UNL     1      54.828  10.553  78.810  1.00  0.00    -0.387 OA
ATOM     23  H   UNL     1      55.043  10.059  77.941  1.00  0.00     0.211 HD
ENDBRANCH   2  22
BRANCH   3  24
ATOM     24  O   UNL     1      52.496  10.089  80.828  1.00  0.00    -0.387 OA
ATOM     25  H   UNL     1      52.163  10.881  81.271  1.00  0.00     0.211 HD
ENDBRANCH   3  24
BRANCH   5  26
ATOM     26  O   UNL     1      54.421   6.526  82.600  1.00  0.00    -0.454 OA
BRANCH  26  27
ATOM     27  C   UNL     1      54.073   5.133  82.768  1.00  0.00     0.214 A 
ATOM     28  C   UNL     1      55.090   4.172  82.661  1.00  0.00     0.180 A 
ATOM     29  C   UNL     1      52.767   4.671  83.016  1.00  0.00     0.239 A 
ATOM     30  O   UNL     1      54.829   2.859  82.746  1.00  0.00    -0.452 OA
ATOM     31  C   UNL     1      52.487   3.295  83.120  1.00  0.00     0.111 A 
ATOM     32  O   UNL     1      51.825   5.500  83.283  1.00  0.00    -0.285 OA
ATOM     33  C   UNL     1      53.608   2.395  82.948  1.00  0.00     0.146 A 
ATOM     34  C   UNL     1      51.205   2.784  83.208  1.00  0.00     0.134 A 
ATOM     35  C   UNL     1      53.379   1.050  83.043  1.00  0.00     0.094 A 
ATOM     36  C   UNL     1      51.000   1.373  83.375  1.00  0.00     0.093 A 
ATOM     37  C   UNL     1      52.094   0.517  83.322  1.00  0.00     0.123 A 
BRANCH  28  38
ATOM     38  C   UNL     1      56.470   4.585  82.402  1.00  0.00     0.025 A 
ATOM     39  C   UNL     1      57.016   5.619  83.170  1.00  0.00     0.062 A 
ATOM     40  C   UNL     1      56.959   4.375  81.125  1.00  0.00     0.016 A 
ATOM     41  C   UNL     1      57.729   6.644  82.489  1.00  0.00     0.158 A 
ATOM     42  C   UNL     1      57.453   5.441  80.401  1.00  0.00     0.051 A 
ATOM     43  C   UNL     1      57.788   6.654  81.066  1.00  0.00     0.157 A 
BRANCH  41  44
ATOM     44  O   UNL     1      58.178   7.726  83.176  1.00  0.00    -0.504 OA
ATOM     45  H   UNL     1      57.745   7.970  84.096  1.00  0.00     0.293 HD
ENDBRANCH  41  44
BRANCH  43  46
ATOM     46  O   UNL     1      58.276   7.700  80.368  1.00  0.00    -0.504 OA
ATOM     47  H   UNL     1      58.272   8.637  80.789  1.00  0.00     0.293 HD
ENDBRANCH  43  46
ENDBRANCH  28  38
BRANCH  34  48
ATOM     48  O   UNL     1      50.107   3.597  83.000  1.00  0.00    -0.507 OA
ATOM     49  H   UNL     1      49.516   3.523  82.189  1.00  0.00     0.293 HD
ENDBRANCH  34  48
BRANCH  37  50
ATOM     50  O   UNL     1      51.926  -0.874  83.539  1.00  0.00    -0.508 OA
ATOM     51  H   UNL     1      51.095  -1.253  83.956  1.00  0.00     0.293 HD
ENDBRANCH  37  50
ENDBRANCH  26  27
ENDBRANCH   5  26
BRANCH   4  52
ATOM     52  O   UNL     1      55.408   9.091  82.663  1.00  0.00    -0.384 OA
ATOM     53  H   UNL     1      55.939   9.353  81.863  1.00  0.00     0.211 HD
ENDBRANCH   4  52
TORSDOF 16
ENDMDL
MODEL 6
REMARK VINA RESULT:    -6.020      1.497      2.026
REMARK INTER + INTRA:         -12.703
REMARK INTER:                 -10.498
REMARK INTRA:                  -2.205
REMARK UNBOUND:                -2.812
REMARK SMILES C[C@@H]1O[C@@H](OC[C@@H]2O[C@@H](Oc3c(-c4ccc(O)c(O)c4)oc4cc(O)cc(O)c4c3=O)[C@@H](O)[C@H](O)[C@@H]2O)[C@H](O)[C@@H](O)[C@@H]1O
REMARK SMILES IDX 7 1 36 2 34 3 32 4 9 5 8 6 6 7 5 8 4 9 1 10 2 11 42 12 3 13
REMARK SMILES IDX 40 14 38 15 43 16 41 18 39 20 37 22 35 24 10 26 11 27 12 28
REMARK SMILES IDX 30 29 21 30 29 31 31 32 22 33 27 34 23 35 26 36 24 37 13 38
REMARK SMILES IDX 20 39 14 40 18 41 15 42 16 43 19 44 17 46 28 48 25 50 33 52
REMARK H PARENT 43 17 41 19 39 21 37 23 35 25 19 45 17 47 28 49 25 51 33 53
REMARK Flexibility Score: inf
ROOT
ATOM      1  C   UNL     1      52.032   5.510  78.084  1.00  0.00     0.180 C 
ATOM      2  C   UNL     1      51.856   3.991  77.922  1.00  0.00     0.177 C 
ATOM      3  C   UNL     1      53.097   3.201  78.249  1.00  0.00     0.180 C 
ATOM      4  C   UNL     1      53.565   3.609  79.695  1.00  0.00     0.214 C 
ATOM      5  C   UNL     1      53.617   5.171  79.883  1.00  0.00     0.339 C 
ATOM      6  O   UNL     1      52.405   5.792  79.437  1.00  0.00    -0.332 OA
ENDROOT
BRANCH   1   7
ATOM      7  C   UNL     1      52.968   6.274  77.041  1.00  0.00     0.198 C 
BRANCH   7   8
ATOM      8  O   UNL     1      52.478   7.560  76.663  1.00  0.00    -0.347 OA
BRANCH   8   9
ATOM      9  C   UNL     1      53.320   8.633  77.035  1.00  0.00     0.281 C 
ATOM     10  C   UNL     1      57.153   8.620  76.621  1.00  0.00     0.041 C 
ATOM     11  C   UNL     1      55.747   8.762  77.269  1.00  0.00     0.150 C 
ATOM     12  C   UNL     1      55.401  10.220  77.717  1.00  0.00     0.174 C 
ATOM     13  O   UNL     1      54.656   8.295  76.463  1.00  0.00    -0.344 OA
ATOM     14  C   UNL     1      54.423  10.089  78.921  1.00  0.00     0.179 C 
ATOM     15  C   UNL     1      53.368   8.909  78.590  1.00  0.00     0.202 C 
BRANCH  12  16
ATOM     16  O   UNL     1      54.868  11.009  76.659  1.00  0.00    -0.388 OA
ATOM     17  H   UNL     1      55.450  11.821  76.618  1.00  0.00     0.211 HD
ENDBRANCH  12  16
BRANCH  14  18
ATOM     18  O   UNL     1      55.154   9.721  80.095  1.00  0.00    -0.387 OA
ATOM     19  H   UNL     1      54.915  10.266  80.875  1.00  0.00     0.211 HD
ENDBRANCH  14  18
BRANCH  15  20
ATOM     20  O   UNL     1      52.153   9.289  79.135  1.00  0.00    -0.385 OA
ATOM     21  H   UNL     1      52.296   9.414  80.109  1.00  0.00     0.211 HD
ENDBRANCH  15  20
ENDBRANCH   8   9
ENDBRANCH   7   8
ENDBRANCH   1   7
BRANCH   2  22
ATOM     22  O   UNL     1      51.110   3.615  76.798  1.00  0.00    -0.387 OA
ATOM     23  H   UNL     1      50.173   3.347  77.108  1.00  0.00     0.211 HD
ENDBRANCH   2  22
BRANCH   3  24
ATOM     24  O   UNL     1      54.166   3.372  77.365  1.00  0.00    -0.387 OA
ATOM     25  H   UNL     1      54.581   4.231  77.524  1.00  0.00     0.211 HD
ENDBRANCH   3  24
BRANCH   5  26
ATOM     26  O   UNL     1      53.853   5.449  81.254  1.00  0.00    -0.454 OA
BRANCH  26  27
ATOM     27  C   UNL     1      55.062   5.937  81.878  1.00  0.00     0.214 A 
ATOM     28  C   UNL     1      55.254   5.692  83.247  1.00  0.00     0.180 A 
ATOM     29  C   UNL     1      56.060   6.664  81.203  1.00  0.00     0.239 A 
ATOM     30  O   UNL     1      56.322   6.167  83.904  1.00  0.00    -0.452 OA
ATOM     31  C   UNL     1      57.192   7.154  81.883  1.00  0.00     0.111 A 
ATOM     32  O   UNL     1      56.024   6.783  79.927  1.00  0.00    -0.285 OA
ATOM     33  C   UNL     1      57.260   6.878  83.302  1.00  0.00     0.146 A 
ATOM     34  C   UNL     1      58.119   8.001  81.304  1.00  0.00     0.134 A 
ATOM     35  C   UNL     1      58.344   7.335  84.000  1.00  0.00     0.094 A 
ATOM     36  C   UNL     1      59.282   8.409  82.040  1.00  0.00     0.093 A 
ATOM     37  C   UNL     1      59.401   8.047  83.377  1.00  0.00     0.123 A 
BRANCH  28  38
ATOM     38  C   UNL     1      54.252   4.943  84.009  1.00  0.00     0.025 A 
ATOM     39  C   UNL     1      54.369   3.552  84.084  1.00  0.00     0.062 A 
ATOM     40  C   UNL     1      52.997   5.513  84.125  1.00  0.00     0.016 A 
ATOM     41  C   UNL     1      53.198   2.777  83.862  1.00  0.00     0.158 A 
ATOM     42  C   UNL     1      51.888   4.811  83.698  1.00  0.00     0.051 A 
ATOM     43  C   UNL     1      51.980   3.407  83.479  1.00  0.00     0.157 A 
BRANCH  41  44
ATOM     44  O   UNL     1      53.283   1.421  83.811  1.00  0.00    -0.504 OA
ATOM     45  H   UNL     1      53.396   0.878  84.697  1.00  0.00     0.293 HD
ENDBRANCH  41  44
BRANCH  43  46
ATOM     46  O   UNL     1      50.901   2.711  83.067  1.00  0.00    -0.504 OA
ATOM     47  H   UNL     1      50.556   2.833  82.107  1.00  0.00     0.293 HD
ENDBRANCH  43  46
ENDBRANCH  28  38
BRANCH  34  48
ATOM     48  O   UNL     1      57.876   8.573  80.070  1.00  0.00    -0.507 OA
ATOM     49  H   UNL     1      58.070   8.105  79.201  1.00  0.00     0.293 HD
ENDBRANCH  34  48
BRANCH  37  50
ATOM     50  O   UNL     1      60.565   8.390  84.111  1.00  0.00    -0.508 OA
ATOM     51  H   UNL     1      61.260   7.709  84.359  1.00  0.00     0.293 HD
ENDBRANCH  37  50
ENDBRANCH  26  27
ENDBRANCH   5  26
BRANCH   4  52
ATOM     52  O   UNL     1      52.680   3.047  80.610  1.00  0.00    -0.384 OA
ATOM     53  H   UNL     1      52.542   2.125  80.264  1.00  0.00     0.211 HD
ENDBRANCH   4  52
TORSDOF 16
ENDMDL
MODEL 7
REMARK VINA RESULT:    -5.998      2.093      8.082
REMARK INTER + INTRA:         -12.667
REMARK INTER:                 -10.645
REMARK INTRA:                  -2.022
REMARK UNBOUND:                -2.812
REMARK SMILES C[C@@H]1O[C@@H](OC[C@@H]2O[C@@H](Oc3c(-c4ccc(O)c(O)c4)oc4cc(O)cc(O)c4c3=O)[C@@H](O)[C@H](O)[C@@H]2O)[C@H](O)[C@@H](O)[C@@H]1O
REMARK SMILES IDX 7 1 36 2 34 3 32 4 9 5 8 6 6 7 5 8 4 9 1 10 2 11 42 12 3 13
REMARK SMILES IDX 40 14 38 15 43 16 41 18 39 20 37 22 35 24 10 26 11 27 12 28
REMARK SMILES IDX 30 29 21 30 29 31 31 32 22 33 27 34 23 35 26 36 24 37 13 38
REMARK SMILES IDX 20 39 14 40 18 41 15 42 16 43 19 44 17 46 28 48 25 50 33 52
REMARK H PARENT 43 17 41 19 39 21 37 23 35 25 19 45 17 47 28 49 25 51 33 53
REMARK Flexibility Score: inf
ROOT
ATOM      1  C   UNL     1      54.219   8.927  82.973  1.00  0.00     0.180 C 
ATOM      2  C   UNL     1      55.301  10.016  82.891  1.00  0.00     0.177 C 
ATOM      3  C   UNL     1      56.477   9.636  82.028  1.00  0.00     0.180 C 
ATOM      4  C   UNL     1      55.926   9.219  80.614  1.00  0.00     0.214 C 
ATOM      5  C   UNL     1      54.731   8.200  80.720  1.00  0.00     0.339 C 
ATOM      6  O   UNL     1      53.740   8.650  81.652  1.00  0.00    -0.332 OA
ENDROOT
BRANCH   1   7
ATOM      7  C   UNL     1      54.558   7.588  83.772  1.00  0.00     0.198 C 
BRANCH   7   8
ATOM      8  O   UNL     1      53.502   6.627  83.758  1.00  0.00    -0.347 OA
BRANCH   8   9
ATOM      9  C   UNL     1      53.935   5.293  83.584  1.00  0.00     0.281 C 
ATOM     10  C   UNL     1      57.041   4.275  81.539  1.00  0.00     0.041 C 
ATOM     11  C   UNL     1      55.577   4.324  82.058  1.00  0.00     0.150 C 
ATOM     12  C   UNL     1      55.104   3.002  82.746  1.00  0.00     0.174 C 
ATOM     13  O   UNL     1      55.287   5.401  82.960  1.00  0.00    -0.344 OA
ATOM     14  C   UNL     1      53.566   2.918  82.528  1.00  0.00     0.179 C 
ATOM     15  C   UNL     1      52.941   4.393  82.748  1.00  0.00     0.202 C 
BRANCH  12  16
ATOM     16  O   UNL     1      55.468   2.938  84.121  1.00  0.00    -0.388 OA
ATOM     17  H   UNL     1      56.294   2.376  84.148  1.00  0.00     0.211 HD
ENDBRANCH  12  16
BRANCH  14  18
ATOM     18  O   UNL     1      53.293   2.512  81.182  1.00  0.00    -0.387 OA
ATOM     19  H   UNL     1      52.463   1.995  81.104  1.00  0.00     0.211 HD
ENDBRANCH  14  18
BRANCH  15  20
ATOM     20  O   UNL     1      51.700   4.222  83.338  1.00  0.00    -0.385 OA
ATOM     21  H   UNL     1      51.392   3.307  83.111  1.00  0.00     0.211 HD
ENDBRANCH  15  20
ENDBRANCH   8   9
ENDBRANCH   7   8
ENDBRANCH   1   7
BRANCH   2  22
ATOM     22  O   UNL     1      55.555  10.666  84.106  1.00  0.00    -0.387 OA
ATOM     23  H   UNL     1      56.197  10.086  84.653  1.00  0.00     0.211 HD
ENDBRANCH   2  22
BRANCH   3  24
ATOM     24  O   UNL     1      57.274   8.601  82.524  1.00  0.00    -0.387 OA
ATOM     25  H   UNL     1      56.892   7.750  82.268  1.00  0.00     0.211 HD
ENDBRANCH   3  24
BRANCH   5  26
ATOM     26  O   UNL     1      54.171   8.030  79.429  1.00  0.00    -0.454 OA
BRANCH  26  27
ATOM     27  C   UNL     1      53.464   6.886  78.896  1.00  0.00     0.214 A 
ATOM     28  C   UNL     1      53.729   6.493  77.576  1.00  0.00     0.180 A 
ATOM     29  C   UNL     1      52.508   6.146  79.615  1.00  0.00     0.239 A 
ATOM     30  O   UNL     1      53.068   5.479  76.998  1.00  0.00    -0.452 OA
ATOM     31  C   UNL     1      51.819   5.071  79.020  1.00  0.00     0.111 A 
ATOM     32  O   UNL     1      52.338   6.351  80.870  1.00  0.00    -0.285 OA
ATOM     33  C   UNL     1      52.142   4.785  77.638  1.00  0.00     0.146 A 
ATOM     34  C   UNL     1      50.765   4.413  79.627  1.00  0.00     0.134 A 
ATOM     35  C   UNL     1      51.497   3.748  77.023  1.00  0.00     0.094 A 
ATOM     36  C   UNL     1      50.152   3.285  78.986  1.00  0.00     0.093 A 
ATOM     37  C   UNL     1      50.544   2.941  77.697  1.00  0.00     0.123 A 
BRANCH  28  38
ATOM     38  C   UNL     1      54.712   7.222  76.772  1.00  0.00     0.025 A 
ATOM     39  C   UNL     1      56.071   7.034  77.042  1.00  0.00     0.062 A 
ATOM     40  C   UNL     1      54.303   8.421  76.216  1.00  0.00     0.016 A 
ATOM     41  C   UNL     1      56.894   8.191  77.127  1.00  0.00     0.158 A 
ATOM     42  C   UNL     1      55.007   9.575  76.494  1.00  0.00     0.051 A 
ATOM     43  C   UNL     1      56.320   9.490  77.037  1.00  0.00     0.157 A 
BRANCH  41  44
ATOM     44  O   UNL     1      58.195   8.068  77.499  1.00  0.00    -0.504 OA
ATOM     45  H   UNL     1      58.581   7.123  77.726  1.00  0.00     0.293 HD
ENDBRANCH  41  44
BRANCH  43  46
ATOM     46  O   UNL     1      57.018  10.612  77.307  1.00  0.00    -0.504 OA
ATOM     47  H   UNL     1      58.006  10.541  77.578  1.00  0.00     0.293 HD
ENDBRANCH  43  46
ENDBRANCH  28  38
BRANCH  34  48
ATOM     48  O   UNL     1      50.199   4.910  80.786  1.00  0.00    -0.507 OA
ATOM     49  H   UNL     1      50.732   5.102  81.618  1.00  0.00     0.293 HD
ENDBRANCH  34  48
BRANCH  37  50
ATOM     50  O   UNL     1      49.995   1.799  77.062  1.00  0.00    -0.508 OA
ATOM     51  H   UNL     1      49.102   1.420  77.324  1.00  0.00     0.293 HD
ENDBRANCH  37  50
ENDBRANCH  26  27
ENDBRANCH   5  26
BRANCH   4  52
ATOM     52  O   UNL     1      55.512  10.372  79.955  1.00  0.00    -0.384 OA
ATOM     53  H   UNL     1      55.416  11.038  80.688  1.00  0.00     0.211 HD
ENDBRANCH   4  52
TORSDOF 16
ENDMDL
MODEL 8
REMARK VINA RESULT:    -5.866      1.991      7.388
REMARK INTER + INTRA:         -12.450
REMARK INTER:                 -10.705
REMARK INTRA:                  -1.745
REMARK UNBOUND:                -2.812
REMARK SMILES C[C@@H]1O[C@@H](OC[C@@H]2O[C@@H](Oc3c(-c4ccc(O)c(O)c4)oc4cc(O)cc(O)c4c3=O)[C@@H](O)[C@H](O)[C@@H]2O)[C@H](O)[C@@H](O)[C@@H]1O
REMARK SMILES IDX 7 1 36 2 34 3 32 4 9 5 8 6 6 7 5 8 4 9 1 10 2 11 42 12 3 13
REMARK SMILES IDX 40 14 38 15 43 16 41 18 39 20 37 22 35 24 10 26 11 27 12 28
REMARK SMILES IDX 30 29 21 30 29 31 31 32 22 33 27 34 23 35 26 36 24 37 13 38
REMARK SMILES IDX 20 39 14 40 18 41 15 42 16 43 19 44 17 46 28 48 25 50 33 52
REMARK H PARENT 43 17 41 19 39 21 37 23 35 25 19 45 17 47 28 49 25 51 33 53
REMARK Flexibility Score: inf
ROOT
ATOM      1  C   UNL     1      57.034   9.525  80.001  1.00  0.00     0.180 C 
ATOM      2  C   UNL     1      58.369   9.780  79.283  1.00  0.00     0.177 C 
ATOM      3  C   UNL     1      58.991   8.536  78.703  1.00  0.00     0.180 C 
ATOM      4  C   UNL     1      57.924   7.848  77.774  1.00  0.00     0.214 C 
ATOM      5  C   UNL     1      56.524   7.710  78.480  1.00  0.00     0.339 C 
ATOM      6  O   UNL     1      56.111   8.949  79.070  1.00  0.00    -0.332 OA
ENDROOT
BRANCH   1   7
ATOM      7  C   UNL     1      57.062   8.721  81.379  1.00  0.00     0.198 C 
BRANCH   7   8
ATOM      8  O   UNL     1      57.242   7.313  81.221  1.00  0.00    -0.347 OA
BRANCH   8   9
ATOM      9  C   UNL     1      56.572   6.532  82.190  1.00  0.00     0.281 C 
ATOM     10  C   UNL     1      54.468   3.407  81.373  1.00  0.00     0.041 C 
ATOM     11  C   UNL     1      54.880   4.787  81.956  1.00  0.00     0.150 C 
ATOM     12  C   UNL     1      54.953   4.819  83.517  1.00  0.00     0.174 C 
ATOM     13  O   UNL     1      56.120   5.311  81.460  1.00  0.00    -0.344 OA
ATOM     14  C   UNL     1      54.633   6.281  83.943  1.00  0.00     0.179 C 
ATOM     15  C   UNL     1      55.391   7.283  82.924  1.00  0.00     0.202 C 
BRANCH  12  16
ATOM     16  O   UNL     1      56.205   4.362  84.018  1.00  0.00    -0.388 OA
ATOM     17  H   UNL     1      56.549   3.728  83.326  1.00  0.00     0.211 HD
ENDBRANCH  12  16
BRANCH  14  18
ATOM     18  O   UNL     1      53.225   6.515  83.836  1.00  0.00    -0.387 OA
ATOM     19  H   UNL     1      53.015   7.422  83.526  1.00  0.00     0.211 HD
ENDBRANCH  14  18
BRANCH  15  20
ATOM     20  O   UNL     1      55.793   8.383  83.663  1.00  0.00    -0.385 OA
ATOM     21  H   UNL     1      55.892   8.083  84.604  1.00  0.00     0.211 HD
ENDBRANCH  15  20
ENDBRANCH   8   9
ENDBRANCH   7   8
ENDBRANCH   1   7
BRANCH   2  22
ATOM     22  O   UNL     1      59.206  10.695  79.935  1.00  0.00    -0.387 OA
ATOM     23  H   UNL     1      59.810  11.134  79.236  1.00  0.00     0.211 HD
ENDBRANCH   2  22
BRANCH   3  24
ATOM     24  O   UNL     1      59.444   7.600  79.637  1.00  0.00    -0.387 OA
ATOM     25  H   UNL     1      60.393   7.719  79.778  1.00  0.00     0.211 HD
ENDBRANCH   3  24
BRANCH   5  26
ATOM     26  O   UNL     1      55.579   7.268  77.519  1.00  0.00    -0.454 OA
BRANCH  26  27
ATOM     27  C   UNL     1      54.324   7.880  77.141  1.00  0.00     0.214 A 
ATOM     28  C   UNL     1      53.131   7.273  77.561  1.00  0.00     0.180 A 
ATOM     29  C   UNL     1      54.220   9.044  76.358  1.00  0.00     0.239 A 
ATOM     30  O   UNL     1      51.932   7.751  77.197  1.00  0.00    -0.452 OA
ATOM     31  C   UNL     1      52.965   9.561  75.983  1.00  0.00     0.111 A 
ATOM     32  O   UNL     1      55.265   9.734  76.079  1.00  0.00    -0.285 OA
ATOM     33  C   UNL     1      51.804   8.826  76.437  1.00  0.00     0.146 A 
ATOM     34  C   UNL     1      52.808  10.606  75.091  1.00  0.00     0.134 A 
ATOM     35  C   UNL     1      50.565   9.295  76.096  1.00  0.00     0.094 A 
ATOM     36  C   UNL     1      51.499  11.121  74.805  1.00  0.00     0.093 A 
ATOM     37  C   UNL     1      50.386  10.479  75.335  1.00  0.00     0.123 A 
BRANCH  28  38
ATOM     38  C   UNL     1      53.169   6.057  78.377  1.00  0.00     0.025 A 
ATOM     39  C   UNL     1      53.300   4.823  77.733  1.00  0.00     0.062 A 
ATOM     40  C   UNL     1      52.534   6.104  79.604  1.00  0.00     0.016 A 
ATOM     41  C   UNL     1      52.439   3.768  78.144  1.00  0.00     0.158 A 
ATOM     42  C   UNL     1      51.543   5.189  79.893  1.00  0.00     0.051 A 
ATOM     43  C   UNL     1      51.419   4.007  79.109  1.00  0.00     0.157 A 
BRANCH  41  44
ATOM     44  O   UNL     1      52.448   2.587  77.473  1.00  0.00    -0.504 OA
ATOM     45  H   UNL     1      52.068   1.728  77.934  1.00  0.00     0.293 HD
ENDBRANCH  41  44
BRANCH  43  46
ATOM     46  O   UNL     1      50.457   3.104  79.386  1.00  0.00    -0.504 OA
ATOM     47  H   UNL     1      49.796   3.286  80.151  1.00  0.00     0.293 HD
ENDBRANCH  43  46
ENDBRANCH  28  38
BRANCH  34  48
ATOM     48  O   UNL     1      53.884  11.078  74.363  1.00  0.00    -0.507 OA
ATOM     49  H   UNL     1      54.829  11.058  74.706  1.00  0.00     0.293 HD
ENDBRANCH  34  48
BRANCH  37  50
ATOM     50  O   UNL     1      49.086  10.999  75.113  1.00  0.00    -0.508 OA
ATOM     51  H   UNL     1      48.934  11.872  74.641  1.00  0.00     0.293 HD
ENDBRANCH  37  50
ENDBRANCH  26  27
ENDBRANCH   5  26
BRANCH   4  52
ATOM     52  O   UNL     1      57.801   8.613  76.618  1.00  0.00    -0.384 OA
ATOM     53  H   UNL     1      58.400   8.153  75.970  1.00  0.00     0.211 HD
ENDBRANCH   4  52
TORSDOF 16
ENDMDL
MODEL 9
REMARK VINA RESULT:    -4.744      1.690      6.630
REMARK INTER + INTRA:         -10.606
REMARK INTER:                  -7.983
REMARK INTRA:                  -2.623
REMARK UNBOUND:                -2.812
REMARK SMILES C[C@@H]1O[C@@H](OC[C@@H]2O[C@@H](Oc3c(-c4ccc(O)c(O)c4)oc4cc(O)cc(O)c4c3=O)[C@@H](O)[C@H](O)[C@@H]2O)[C@H](O)[C@@H](O)[C@@H]1O
REMARK SMILES IDX 7 1 36 2 34 3 32 4 9 5 8 6 6 7 5 8 4 9 1 10 2 11 42 12 3 13
REMARK SMILES IDX 40 14 38 15 43 16 41 18 39 20 37 22 35 24 10 26 11 27 12 28
REMARK SMILES IDX 30 29 21 30 29 31 31 32 22 33 27 34 23 35 26 36 24 37 13 38
REMARK SMILES IDX 20 39 14 40 18 41 15 42 16 43 19 44 17 46 28 48 25 50 33 52
REMARK H PARENT 43 17 41 19 39 21 37 23 35 25 19 45 17 47 28 49 25 51 33 53
REMARK Flexibility Score: inf
ROOT
ATOM      1  C   UNL     1      54.053   8.716  76.166  1.00  0.00     0.180 C 
ATOM      2  C   UNL     1      54.117  10.227  75.894  1.00  0.00     0.177 C 
ATOM      3  C   UNL     1      53.679  11.070  77.064  1.00  0.00     0.180 C 
ATOM      4  C   UNL     1      54.530  10.641  78.317  1.00  0.00     0.214 C 
ATOM      5  C   UNL     1      54.560   9.078  78.506  1.00  0.00     0.339 C 
ATOM      6  O   UNL     1      54.894   8.410  77.283  1.00  0.00    -0.332 OA
ENDROOT
BRANCH   1   7
ATOM      7  C   UNL     1      52.616   8.036  76.303  1.00  0.00     0.198 C 
BRANCH   7   8
ATOM      8  O   UNL     1      52.401   7.394  77.560  1.00  0.00    -0.347 OA
BRANCH   8   9
ATOM      9  C   UNL     1      52.448   5.982  77.505  1.00  0.00     0.281 C 
ATOM     10  C   UNL     1      50.174   3.657  79.575  1.00  0.00     0.041 C 
ATOM     11  C   UNL     1      51.451   4.284  78.950  1.00  0.00     0.150 C 
ATOM     12  C   UNL     1      52.213   3.328  77.974  1.00  0.00     0.174 C 
ATOM     13  O   UNL     1      51.243   5.523  78.256  1.00  0.00    -0.344 OA
ATOM     14  C   UNL     1      53.712   3.743  78.036  1.00  0.00     0.179 C 
ATOM     15  C   UNL     1      53.791   5.357  78.057  1.00  0.00     0.202 C 
BRANCH  12  16
ATOM     16  O   UNL     1      51.688   3.360  76.651  1.00  0.00    -0.388 OA
ATOM     17  H   UNL     1      51.198   4.229  76.584  1.00  0.00     0.211 HD
ENDBRANCH  12  16
BRANCH  14  18
ATOM     18  O   UNL     1      54.297   3.249  79.245  1.00  0.00    -0.387 OA
ATOM     19  H   UNL     1      54.971   2.555  79.083  1.00  0.00     0.211 HD
ENDBRANCH  14  18
BRANCH  15  20
ATOM     20  O   UNL     1      54.919   5.716  77.336  1.00  0.00    -0.385 OA
ATOM     21  H   UNL     1      54.737   6.603  76.931  1.00  0.00     0.211 HD
ENDBRANCH  15  20
ENDBRANCH   8   9
ENDBRANCH   7   8
ENDBRANCH   1   7
BRANCH   2  22
ATOM     22  O   UNL     1      53.688  10.600  74.614  1.00  0.00    -0.387 OA
ATOM     23  H   UNL     1      53.309  11.548  74.664  1.00  0.00     0.211 HD
ENDBRANCH   2  22
BRANCH   3  24
ATOM     24  O   UNL     1      52.323  10.984  77.391  1.00  0.00    -0.387 OA
ATOM     25  H   UNL     1      52.109  11.653  78.055  1.00  0.00     0.211 HD
ENDBRANCH   3  24
BRANCH   5  26
ATOM     26  O   UNL     1      55.496   8.768  79.525  1.00  0.00    -0.454 OA
BRANCH  26  27
ATOM     27  C   UNL     1      55.565   7.587  80.355  1.00  0.00     0.214 A 
ATOM     28  C   UNL     1      56.788   6.904  80.446  1.00  0.00     0.180 A 
ATOM     29  C   UNL     1      54.474   7.061  81.071  1.00  0.00     0.239 A 
ATOM     30  O   UNL     1      56.909   5.768  81.149  1.00  0.00    -0.452 OA
ATOM     31  C   UNL     1      54.596   5.877  81.823  1.00  0.00     0.111 A 
ATOM     32  O   UNL     1      53.378   7.722  81.160  1.00  0.00    -0.285 OA
ATOM     33  C   UNL     1      55.894   5.235  81.807  1.00  0.00     0.146 A 
ATOM     34  C   UNL     1      53.523   5.237  82.415  1.00  0.00     0.134 A 
ATOM     35  C   UNL     1      56.056   4.082  82.525  1.00  0.00     0.094 A 
ATOM     36  C   UNL     1      53.734   4.067  83.220  1.00  0.00     0.093 A 
ATOM     37  C   UNL     1      55.007   3.514  83.294  1.00  0.00     0.123 A 
BRANCH  28  38
ATOM     38  C   UNL     1      57.963   7.396  79.724  1.00  0.00     0.025 A 
ATOM     39  C   UNL     1      58.375   8.716  79.936  1.00  0.00     0.062 A 
ATOM     40  C   UNL     1      58.254   6.794  78.513  1.00  0.00     0.016 A 
ATOM     41  C   UNL     1      58.692   9.501  78.793  1.00  0.00     0.158 A 
ATOM     42  C   UNL     1      58.345   7.566  77.373  1.00  0.00     0.051 A 
ATOM     43  C   UNL     1      58.495   8.977  77.484  1.00  0.00     0.157 A 
BRANCH  41  44
ATOM     44  O   UNL     1      58.986  10.820  78.939  1.00  0.00    -0.504 OA
ATOM     45  H   UNL     1      58.250  11.478  79.282  1.00  0.00     0.293 HD
ENDBRANCH  41  44
BRANCH  43  46
ATOM     46  O   UNL     1      58.590   9.740  76.375  1.00  0.00    -0.504 OA
ATOM     47  H   UNL     1      58.544  10.763  76.458  1.00  0.00     0.293 HD
ENDBRANCH  43  46
ENDBRANCH  28  38
BRANCH  34  48
ATOM     48  O   UNL     1      52.228   5.627  82.133  1.00  0.00    -0.507 OA
ATOM     49  H   UNL     1      51.421   5.193  82.549  1.00  0.00     0.293 HD
ENDBRANCH  34  48
BRANCH  37  50
ATOM     50  O   UNL     1      55.254   2.393  84.125  1.00  0.00    -0.508 OA
ATOM     51  H   UNL     1      54.706   1.553  84.064  1.00  0.00     0.293 HD
ENDBRANCH  37  50
ENDBRANCH  26  27
ENDBRANCH   5  26
BRANCH   4  52
ATOM     52  O   UNL     1      55.823  11.125  78.147  1.00  0.00    -0.384 OA
ATOM     53  H   UNL     1      56.222  10.496  77.488  1.00  0.00     0.211 HD
ENDBRANCH   4  52
TORSDOF 16
ENDMDL
