MODEL 1
REMARK VINA RESULT:    -7.203      0.000      0.000
REMARK INTER + INTRA:          -7.274
REMARK INTER:                  -7.835
REMARK INTRA:                   0.561
REMARK UNBOUND:                 0.561
REMARK SMILES C[C@@H]1[C@H](C)CC[C@@]2(C(=O)[O-])CC[C@@]3(C)C(=CC[C@H]4[C@@]5(C)CC[C@H](O)C(C)(C)[C@@H]5CC[C@@]43C)[C@H]12
REMARK SMILES IDX 7 1 6 2 11 3 33 4 5 5 12 6 15 7 2 8 3 9 13 10 16 11 1 12
REMARK SMILES IDX 4 13 14 14 31 15 17 16 18 17 30 18 32 19 19 20 29 21 28 22
REMARK SMILES IDX 21 23 20 24 25 25 22 26 23 27 26 28 27 29 8 30 9 31 10 32
REMARK SMILES IDX 24 33
REMARK H PARENT 24 34
REMARK Flexibility Score: inf
ROOT
ATOM      1  C   UNL     1      17.478  49.272  44.041  1.00  0.00     0.017 C 
ATOM      2  C   UNL     1      18.742  49.913  43.380  1.00  0.00     0.014 C 
ATOM      3  C   UNL     1      16.218  49.746  43.234  1.00  0.00     0.014 C 
ATOM      4  C   UNL     1      17.584  47.713  43.924  1.00  0.00     0.030 C 
ATOM      5  C   UNL     1      20.074  49.301  43.852  1.00  0.00     0.004 C 
ATOM      6  C   UNL     1      14.913  48.914  43.447  1.00  0.00     0.013 C 
ATOM      7  C   UNL     1      16.246  47.052  44.291  1.00  0.00    -0.063 C 
ATOM      8  C   UNL     1      18.948  47.066  44.377  1.00  0.00    -0.003 C 
ATOM      9  C   UNL     1      20.103  47.783  43.607  1.00  0.00    -0.011 C 
ATOM     10  C   UNL     1      15.046  47.338  43.337  1.00  0.00    -0.006 C 
ATOM     11  C   UNL     1      15.998  46.750  45.586  1.00  0.00    -0.027 C 
ATOM     12  C   UNL     1      19.208  46.986  45.899  1.00  0.00     0.008 C 
ATOM     13  C   UNL     1      21.505  47.206  43.878  1.00  0.00     0.008 C 
ATOM     14  C   UNL     1      15.441  47.045  41.851  1.00  0.00     0.017 C 
ATOM     15  C   UNL     1      13.655  46.497  43.736  1.00  0.00    -0.020 C 
ATOM     16  C   UNL     1      14.645  46.378  46.088  1.00  0.00     0.032 C 
ATOM     17  C   UNL     1      13.915  45.593  44.997  1.00  0.00     0.006 C 
ATOM     18  C   UNL     1      13.153  45.483  42.604  1.00  0.00     0.008 C 
ATOM     19  C   UNL     1      12.504  47.535  44.001  1.00  0.00     0.012 C 
ATOM     20  C   UNL     1      12.755  44.634  45.540  1.00  0.00    -0.025 C 
ATOM     21  C   UNL     1      12.438  44.167  43.047  1.00  0.00     0.005 C 
ATOM     22  C   UNL     1      11.724  44.325  44.395  1.00  0.00     0.003 C 
ATOM     23  C   UNL     1      11.940  45.250  46.715  1.00  0.00     0.010 C 
ATOM     24  C   UNL     1      13.487  43.341  46.052  1.00  0.00     0.012 C 
ATOM     25  C   UNL     1      10.542  43.344  44.755  1.00  0.00    -0.006 C 
ATOM     26  C   UNL     1      10.757  44.357  47.164  1.00  0.00     0.033 C 
ATOM     27  C   UNL     1       9.813  43.931  46.017  1.00  0.00     0.120 C 
ATOM     28  C   UNL     1      10.987  41.875  44.978  1.00  0.00     0.014 C 
ATOM     29  C   UNL     1       9.503  43.326  43.597  1.00  0.00     0.014 C 
ENDROOT
BRANCH   1  30
ATOM     30  C   UNL     1      17.341  49.763  45.484  1.00  0.00     0.048 C 
ATOM     31  O   UNL     1      16.211  50.004  45.978  1.00  0.00    -0.550 OA
ATOM     32  O   UNL     1      18.461  49.980  46.283  1.00  0.00    -0.550 OA
ENDBRANCH   1  30
BRANCH  27  33
ATOM     33  O   UNL     1       8.885  43.000  46.520  1.00  0.00    -0.393 OA
ATOM     34  H   UNL     1       8.815  42.257  45.863  1.00  0.00     0.210 HD
ENDBRANCH  27  33
TORSDOF 2
ENDMDL
MODEL 2
REMARK VINA RESULT:    -7.163      4.338      8.155
REMARK INTER + INTRA:          -7.230
REMARK INTER:                  -8.038
REMARK INTRA:                   0.808
REMARK UNBOUND:                 0.561
REMARK SMILES C[C@@H]1[C@H](C)CC[C@@]2(C(=O)[O-])CC[C@@]3(C)C(=CC[C@H]4[C@@]5(C)CC[C@H](O)C(C)(C)[C@@H]5CC[C@@]43C)[C@H]12
REMARK SMILES IDX 7 1 6 2 11 3 33 4 5 5 12 6 15 7 2 8 3 9 13 10 16 11 1 12
REMARK SMILES IDX 4 13 14 14 31 15 17 16 18 17 30 18 32 19 19 20 29 21 28 22
REMARK SMILES IDX 21 23 20 24 25 25 22 26 23 27 26 28 27 29 8 30 9 31 10 32
REMARK SMILES IDX 24 33
REMARK H PARENT 24 34
REMARK Flexibility Score: inf
ROOT
ATOM      1  C   UNL     1      16.186  46.207  39.746  1.00  0.00     0.017 C 
ATOM      2  C   UNL     1      15.035  45.549  38.919  1.00  0.00     0.014 C 
ATOM      3  C   UNL     1      15.806  47.711  39.992  1.00  0.00     0.014 C 
ATOM      4  C   UNL     1      16.286  45.487  41.133  1.00  0.00     0.030 C 
ATOM      5  C   UNL     1      15.102  44.010  38.865  1.00  0.00     0.004 C 
ATOM      6  C   UNL     1      16.589  48.439  41.131  1.00  0.00     0.013 C 
ATOM      7  C   UNL     1      17.195  46.278  42.088  1.00  0.00    -0.063 C 
ATOM      8  C   UNL     1      16.330  43.912  41.106  1.00  0.00    -0.003 C 
ATOM      9  C   UNL     1      15.103  43.408  40.280  1.00  0.00    -0.011 C 
ATOM     10  C   UNL     1      16.687  47.685  42.523  1.00  0.00    -0.006 C 
ATOM     11  C   UNL     1      18.525  46.032  42.077  1.00  0.00    -0.027 C 
ATOM     12  C   UNL     1      17.658  43.261  40.655  1.00  0.00     0.008 C 
ATOM     13  C   UNL     1      14.954  41.875  40.227  1.00  0.00     0.008 C 
ATOM     14  C   UNL     1      15.222  47.600  43.067  1.00  0.00     0.017 C 
ATOM     15  C   UNL     1      17.673  48.437  43.647  1.00  0.00    -0.020 C 
ATOM     16  C   UNL     1      19.519  46.923  42.741  1.00  0.00     0.032 C 
ATOM     17  C   UNL     1      18.889  47.507  44.007  1.00  0.00     0.006 C 
ATOM     18  C   UNL     1      16.961  48.737  45.049  1.00  0.00     0.008 C 
ATOM     19  C   UNL     1      18.157  49.809  43.048  1.00  0.00     0.012 C 
ATOM     20  C   UNL     1      19.946  47.971  45.115  1.00  0.00    -0.025 C 
ATOM     21  C   UNL     1      17.825  48.689  46.349  1.00  0.00     0.005 C 
ATOM     22  C   UNL     1      19.296  49.031  46.075  1.00  0.00     0.003 C 
ATOM     23  C   UNL     1      21.219  48.638  44.517  1.00  0.00     0.010 C 
ATOM     24  C   UNL     1      20.365  46.657  45.868  1.00  0.00     0.012 C 
ATOM     25  C   UNL     1      20.194  49.552  47.263  1.00  0.00    -0.006 C 
ATOM     26  C   UNL     1      22.186  49.174  45.600  1.00  0.00     0.033 C 
ATOM     27  C   UNL     1      21.522  50.109  46.636  1.00  0.00     0.120 C 
ATOM     28  C   UNL     1      20.475  48.487  48.356  1.00  0.00     0.014 C 
ATOM     29  C   UNL     1      19.489  50.745  47.971  1.00  0.00     0.014 C 
ENDROOT
BRANCH   1  30
ATOM     30  C   UNL     1      17.491  46.163  38.946  1.00  0.00     0.048 C 
ATOM     31  O   UNL     1      18.024  47.220  38.524  1.00  0.00    -0.550 OA
ATOM     32  O   UNL     1      18.112  44.954  38.643  1.00  0.00    -0.550 OA
ENDBRANCH   1  30
BRANCH  27  33
ATOM     33  O   UNL     1      22.456  50.394  47.650  1.00  0.00    -0.393 OA
ATOM     34  H   UNL     1      22.334  49.722  48.373  1.00  0.00     0.210 HD
ENDBRANCH  27  33
TORSDOF 2
ENDMDL
MODEL 3
REMARK VINA RESULT:    -7.049      1.827      2.313
REMARK INTER + INTRA:          -7.106
REMARK INTER:                  -7.666
REMARK INTRA:                   0.559
REMARK UNBOUND:                 0.561
REMARK SMILES C[C@@H]1[C@H](C)CC[C@@]2(C(=O)[O-])CC[C@@]3(C)C(=CC[C@H]4[C@@]5(C)CC[C@H](O)C(C)(C)[C@@H]5CC[C@@]43C)[C@H]12
REMARK SMILES IDX 7 1 6 2 11 3 33 4 5 5 12 6 15 7 2 8 3 9 13 10 16 11 1 12
REMARK SMILES IDX 4 13 14 14 31 15 17 16 18 17 30 18 32 19 19 20 29 21 28 22
REMARK SMILES IDX 21 23 20 24 25 25 22 26 23 27 26 28 27 29 8 30 9 31 10 32
REMARK SMILES IDX 24 33
REMARK H PARENT 24 34
REMARK Flexibility Score: inf
ROOT
ATOM      1  C   UNL     1      18.937  48.795  44.090  1.00  0.00     0.017 C 
ATOM      2  C   UNL     1      20.344  48.668  43.422  1.00  0.00     0.014 C 
ATOM      3  C   UNL     1      17.982  49.514  43.073  1.00  0.00     0.014 C 
ATOM      4  C   UNL     1      18.378  47.357  44.364  1.00  0.00     0.030 C 
ATOM      5  C   UNL     1      21.303  47.711  44.156  1.00  0.00     0.004 C 
ATOM      6  C   UNL     1      16.451  49.374  43.352  1.00  0.00     0.013 C 
ATOM      7  C   UNL     1      16.890  47.420  44.746  1.00  0.00    -0.063 C 
ATOM      8  C   UNL     1      19.350  46.351  45.090  1.00  0.00    -0.003 C 
ATOM      9  C   UNL     1      20.690  46.307  44.287  1.00  0.00    -0.011 C 
ATOM     10  C   UNL     1      15.910  47.911  43.639  1.00  0.00    -0.006 C 
ATOM     11  C   UNL     1      16.556  47.592  46.045  1.00  0.00    -0.027 C 
ATOM     12  C   UNL     1      19.572  46.571  46.605  1.00  0.00     0.008 C 
ATOM     13  C   UNL     1      21.724  45.301  44.825  1.00  0.00     0.008 C 
ATOM     14  C   UNL     1      16.127  47.108  42.313  1.00  0.00     0.017 C 
ATOM     15  C   UNL     1      14.299  47.846  44.090  1.00  0.00    -0.020 C 
ATOM     16  C   UNL     1      15.177  47.949  46.486  1.00  0.00     0.032 C 
ATOM     17  C   UNL     1      14.171  47.277  45.550  1.00  0.00     0.006 C 
ATOM     18  C   UNL     1      13.404  46.870  43.192  1.00  0.00     0.008 C 
ATOM     19  C   UNL     1      13.693  49.294  43.983  1.00  0.00     0.012 C 
ATOM     20  C   UNL     1      12.723  47.051  46.193  1.00  0.00    -0.025 C 
ATOM     21  C   UNL     1      12.209  46.124  43.866  1.00  0.00     0.005 C 
ATOM     22  C   UNL     1      11.643  46.905  45.061  1.00  0.00     0.003 C 
ATOM     23  C   UNL     1      12.256  48.228  47.098  1.00  0.00     0.010 C 
ATOM     24  C   UNL     1      12.852  45.754  47.070  1.00  0.00     0.012 C 
ATOM     25  C   UNL     1      10.164  46.622  45.529  1.00  0.00    -0.006 C 
ATOM     26  C   UNL     1      10.814  48.046  47.631  1.00  0.00     0.033 C 
ATOM     27  C   UNL     1       9.764  47.760  46.534  1.00  0.00     0.120 C 
ATOM     28  C   UNL     1       9.954  45.212  46.141  1.00  0.00     0.014 C 
ATOM     29  C   UNL     1       9.198  46.729  44.312  1.00  0.00     0.014 C 
ENDROOT
BRANCH   1  30
ATOM     30  C   UNL     1      19.037  49.655  45.352  1.00  0.00     0.048 C 
ATOM     31  O   UNL     1      18.119  50.456  45.660  1.00  0.00    -0.550 OA
ATOM     32  O   UNL     1      20.154  49.594  46.182  1.00  0.00    -0.550 OA
ENDBRANCH   1  30
BRANCH  27  33
ATOM     33  O   UNL     1       8.538  47.455  47.153  1.00  0.00    -0.393 OA
ATOM     34  H   UNL     1       8.262  46.549  46.848  1.00  0.00     0.210 HD
ENDBRANCH  27  33
TORSDOF 2
ENDMDL
MODEL 4
REMARK VINA RESULT:    -6.997      4.156      5.675
REMARK INTER + INTRA:          -7.049
REMARK INTER:                  -7.620
REMARK INTRA:                   0.570
REMARK UNBOUND:                 0.561
REMARK SMILES C[C@@H]1[C@H](C)CC[C@@]2(C(=O)[O-])CC[C@@]3(C)C(=CC[C@H]4[C@@]5(C)CC[C@H](O)C(C)(C)[C@@H]5CC[C@@]43C)[C@H]12
REMARK SMILES IDX 7 1 6 2 11 3 33 4 5 5 12 6 15 7 2 8 3 9 13 10 16 11 1 12
REMARK SMILES IDX 4 13 14 14 31 15 17 16 18 17 30 18 32 19 19 20 29 21 28 22
REMARK SMILES IDX 21 23 20 24 25 25 22 26 23 27 26 28 27 29 8 30 9 31 10 32
REMARK SMILES IDX 24 33
REMARK H PARENT 24 34
REMARK Flexibility Score: inf
ROOT
ATOM      1  C   UNL     1      18.904  48.905  45.715  1.00  0.00     0.017 C 
ATOM      2  C   UNL     1      19.546  50.053  46.559  1.00  0.00     0.014 C 
ATOM      3  C   UNL     1      17.408  49.290  45.434  1.00  0.00     0.014 C 
ATOM      4  C   UNL     1      19.657  48.805  44.345  1.00  0.00     0.030 C 
ATOM      5  C   UNL     1      21.082  49.982  46.650  1.00  0.00     0.004 C 
ATOM      6  C   UNL     1      16.705  48.511  44.277  1.00  0.00     0.013 C 
ATOM      7  C   UNL     1      18.887  47.899  43.371  1.00  0.00    -0.063 C 
ATOM      8  C   UNL     1      21.231  48.756  44.410  1.00  0.00    -0.003 C 
ATOM      9  C   UNL     1      21.719  49.981  45.250  1.00  0.00    -0.011 C 
ATOM     10  C   UNL     1      17.491  48.411  42.903  1.00  0.00    -0.006 C 
ATOM     11  C   UNL     1      19.128  46.568  43.386  1.00  0.00    -0.027 C 
ATOM     12  C   UNL     1      21.867  47.426  44.875  1.00  0.00     0.008 C 
ATOM     13  C   UNL     1      23.250  50.125  45.339  1.00  0.00     0.008 C 
ATOM     14  C   UNL     1      17.594  49.877  42.363  1.00  0.00     0.017 C 
ATOM     15  C   UNL     1      16.764  47.429  41.760  1.00  0.00    -0.020 C 
ATOM     16  C   UNL     1      18.251  45.578  42.700  1.00  0.00     0.032 C 
ATOM     17  C   UNL     1      17.699  46.211  41.421  1.00  0.00     0.006 C 
ATOM     18  C   UNL     1      16.500  48.144  40.352  1.00  0.00     0.008 C 
ATOM     19  C   UNL     1      15.377  46.949  42.325  1.00  0.00     0.012 C 
ATOM     20  C   UNL     1      17.259  45.157  40.301  1.00  0.00    -0.025 C 
ATOM     21  C   UNL     1      16.577  47.281  39.052  1.00  0.00     0.005 C 
ATOM     22  C   UNL     1      16.224  45.811  39.316  1.00  0.00     0.003 C 
ATOM     23  C   UNL     1      16.574  43.885  40.881  1.00  0.00     0.010 C 
ATOM     24  C   UNL     1      18.589  44.734  39.579  1.00  0.00     0.012 C 
ATOM     25  C   UNL     1      15.729  44.915  38.116  1.00  0.00    -0.006 C 
ATOM     26  C   UNL     1      16.061  42.921  39.784  1.00  0.00     0.033 C 
ATOM     27  C   UNL     1      15.153  43.588  38.727  1.00  0.00     0.120 C 
ATOM     28  C   UNL     1      16.819  44.633  37.048  1.00  0.00     0.014 C 
ATOM     29  C   UNL     1      14.555  45.625  37.379  1.00  0.00     0.014 C 
ENDROOT
BRANCH   1  30
ATOM     30  C   UNL     1      18.925  47.599  46.514  1.00  0.00     0.048 C 
ATOM     31  O   UNL     1      19.875  47.337  47.295  1.00  0.00    -0.550 OA
ATOM     32  O   UNL     1      17.910  46.655  46.384  1.00  0.00    -0.550 OA
ENDBRANCH   1  30
BRANCH  27  33
ATOM     33  O   UNL     1      14.890  42.656  37.706  1.00  0.00    -0.393 OA
ATOM     34  H   UNL     1      15.737  42.172  37.512  1.00  0.00     0.210 HD
ENDBRANCH  27  33
TORSDOF 2
ENDMDL
MODEL 5
REMARK VINA RESULT:    -6.996      2.344      3.175
REMARK INTER + INTRA:          -7.049
REMARK INTER:                  -7.606
REMARK INTRA:                   0.558
REMARK UNBOUND:                 0.561
REMARK SMILES C[C@@H]1[C@H](C)CC[C@@]2(C(=O)[O-])CC[C@@]3(C)C(=CC[C@H]4[C@@]5(C)CC[C@H](O)C(C)(C)[C@@H]5CC[C@@]43C)[C@H]12
REMARK SMILES IDX 7 1 6 2 11 3 33 4 5 5 12 6 15 7 2 8 3 9 13 10 16 11 1 12
REMARK SMILES IDX 4 13 14 14 31 15 17 16 18 17 30 18 32 19 19 20 29 21 28 22
REMARK SMILES IDX 21 23 20 24 25 25 22 26 23 27 26 28 27 29 8 30 9 31 10 32
REMARK SMILES IDX 24 33
REMARK H PARENT 24 34
REMARK Flexibility Score: inf
ROOT
ATOM      1  C   UNL     1      17.030  48.573  43.782  1.00  0.00     0.017 C 
ATOM      2  C   UNL     1      18.248  48.296  42.842  1.00  0.00     0.014 C 
ATOM      3  C   UNL     1      15.735  48.611  42.896  1.00  0.00     0.014 C 
ATOM      4  C   UNL     1      16.900  47.389  44.800  1.00  0.00     0.030 C 
ATOM      5  C   UNL     1      19.542  47.917  43.588  1.00  0.00     0.004 C 
ATOM      6  C   UNL     1      14.378  48.455  43.655  1.00  0.00     0.013 C 
ATOM      7  C   UNL     1      15.559  47.465  45.547  1.00  0.00    -0.063 C 
ATOM      8  C   UNL     1      18.216  46.965  45.557  1.00  0.00    -0.003 C 
ATOM      9  C   UNL     1      19.322  46.689  44.487  1.00  0.00    -0.011 C 
ATOM     10  C   UNL     1      14.274  47.258  44.690  1.00  0.00    -0.006 C 
ATOM     11  C   UNL     1      15.483  48.200  46.681  1.00  0.00    -0.027 C 
ATOM     12  C   UNL     1      18.703  47.904  46.685  1.00  0.00     0.008 C 
ATOM     13  C   UNL     1      20.656  46.181  45.064  1.00  0.00     0.008 C 
ATOM     14  C   UNL     1      14.383  45.948  43.841  1.00  0.00     0.017 C 
ATOM     15  C   UNL     1      12.862  47.242  45.589  1.00  0.00    -0.020 C 
ATOM     16  C   UNL     1      14.189  48.572  47.320  1.00  0.00     0.032 C 
ATOM     17  C   UNL     1      13.192  47.429  47.115  1.00  0.00     0.006 C 
ATOM     18  C   UNL     1      12.050  45.865  45.513  1.00  0.00     0.008 C 
ATOM     19  C   UNL     1      11.922  48.387  45.060  1.00  0.00     0.012 C 
ATOM     20  C   UNL     1      12.013  47.382  48.196  1.00  0.00    -0.025 C 
ATOM     21  C   UNL     1      11.241  45.407  46.768  1.00  0.00     0.005 C 
ATOM     22  C   UNL     1      10.780  46.597  47.621  1.00  0.00     0.003 C 
ATOM     23  C   UNL     1      11.489  48.790  48.603  1.00  0.00     0.010 C 
ATOM     24  C   UNL     1      12.632  46.685  49.460  1.00  0.00     0.012 C 
ATOM     25  C   UNL     1       9.547  46.413  48.588  1.00  0.00    -0.006 C 
ATOM     26  C   UNL     1      10.282  48.730  49.570  1.00  0.00     0.033 C 
ATOM     27  C   UNL     1       9.117  47.842  49.076  1.00  0.00     0.120 C 
ATOM     28  C   UNL     1       9.815  45.454  49.777  1.00  0.00     0.014 C 
ATOM     29  C   UNL     1       8.344  45.820  47.798  1.00  0.00     0.014 C 
ENDROOT
BRANCH   1  30
ATOM     30  C   UNL     1      17.194  49.937  44.457  1.00  0.00     0.048 C 
ATOM     31  O   UNL     1      16.203  50.687  44.644  1.00  0.00    -0.550 OA
ATOM     32  O   UNL     1      18.445  50.396  44.863  1.00  0.00    -0.550 OA
ENDBRANCH   1  30
BRANCH  27  33
ATOM     33  O   UNL     1       8.162  47.738  50.105  1.00  0.00    -0.393 OA
ATOM     34  H   UNL     1       7.386  48.309  49.856  1.00  0.00     0.210 HD
ENDBRANCH  27  33
TORSDOF 2
ENDMDL
MODEL 6
REMARK VINA RESULT:    -6.945      1.759      2.508
REMARK INTER + INTRA:          -6.993
REMARK INTER:                  -7.608
REMARK INTRA:                   0.615
REMARK UNBOUND:                 0.561
REMARK SMILES C[C@@H]1[C@H](C)CC[C@@]2(C(=O)[O-])CC[C@@]3(C)C(=CC[C@H]4[C@@]5(C)CC[C@H](O)C(C)(C)[C@@H]5CC[C@@]43C)[C@H]12
REMARK SMILES IDX 7 1 6 2 11 3 33 4 5 5 12 6 15 7 2 8 3 9 13 10 16 11 1 12
REMARK SMILES IDX 4 13 14 14 31 15 17 16 18 17 30 18 32 19 19 20 29 21 28 22
REMARK SMILES IDX 21 23 20 24 25 25 22 26 23 27 26 28 27 29 8 30 9 31 10 32
REMARK SMILES IDX 24 33
REMARK H PARENT 24 34
REMARK Flexibility Score: inf
ROOT
ATOM      1  C   UNL     1      18.438  49.034  46.604  1.00  0.00     0.017 C 
ATOM      2  C   UNL     1      19.705  49.930  46.417  1.00  0.00     0.014 C 
ATOM      3  C   UNL     1      17.270  49.949  47.117  1.00  0.00     0.014 C 
ATOM      4  C   UNL     1      18.030  48.442  45.212  1.00  0.00     0.030 C 
ATOM      5  C   UNL     1      20.840  49.254  45.625  1.00  0.00     0.004 C 
ATOM      6  C   UNL     1      15.827  49.367  46.974  1.00  0.00     0.013 C 
ATOM      7  C   UNL     1      16.636  47.799  45.287  1.00  0.00    -0.063 C 
ATOM      8  C   UNL     1      19.179  47.767  44.371  1.00  0.00    -0.003 C 
ATOM      9  C   UNL     1      20.350  48.794  44.241  1.00  0.00    -0.011 C 
ATOM     10  C   UNL     1      15.441  48.761  45.560  1.00  0.00    -0.006 C 
ATOM     11  C   UNL     1      16.533  46.502  45.658  1.00  0.00    -0.027 C 
ATOM     12  C   UNL     1      19.659  46.375  44.841  1.00  0.00     0.008 C 
ATOM     13  C   UNL     1      21.526  48.315  43.370  1.00  0.00     0.008 C 
ATOM     14  C   UNL     1      15.463  49.965  44.559  1.00  0.00     0.017 C 
ATOM     15  C   UNL     1      13.947  48.007  45.516  1.00  0.00    -0.020 C 
ATOM     16  C   UNL     1      15.239  45.866  46.036  1.00  0.00     0.032 C 
ATOM     17  C   UNL     1      14.124  46.479  45.188  1.00  0.00     0.006 C 
ATOM     18  C   UNL     1      12.966  48.558  44.378  1.00  0.00     0.008 C 
ATOM     19  C   UNL     1      13.241  48.218  46.906  1.00  0.00     0.012 C 
ATOM     20  C   UNL     1      12.834  45.547  45.022  1.00  0.00    -0.025 C 
ATOM     21  C   UNL     1      11.963  47.562  43.713  1.00  0.00     0.005 C 
ATOM     22  C   UNL     1      11.577  46.417  44.658  1.00  0.00     0.003 C 
ATOM     23  C   UNL     1      12.467  44.760  46.315  1.00  0.00     0.010 C 
ATOM     24  C   UNL     1      13.202  44.521  43.890  1.00  0.00     0.012 C 
ATOM     25  C   UNL     1      10.229  45.638  44.406  1.00  0.00    -0.006 C 
ATOM     26  C   UNL     1      11.161  43.942  46.174  1.00  0.00     0.033 C 
ATOM     27  C   UNL     1       9.948  44.762  45.679  1.00  0.00     0.120 C 
ATOM     28  C   UNL     1      10.223  44.788  43.109  1.00  0.00     0.014 C 
ATOM     29  C   UNL     1       9.053  46.651  44.282  1.00  0.00     0.014 C 
ENDROOT
BRANCH   1  30
ATOM     30  C   UNL     1      18.712  47.961  47.661  1.00  0.00     0.048 C 
ATOM     31  O   UNL     1      17.904  47.764  48.604  1.00  0.00    -0.550 OA
ATOM     32  O   UNL     1      19.871  47.191  47.625  1.00  0.00    -0.550 OA
ENDBRANCH   1  30
BRANCH  27  33
ATOM     33  O   UNL     1       8.877  43.882  45.438  1.00  0.00    -0.393 OA
ATOM     34  H   UNL     1       8.039  44.418  45.433  1.00  0.00     0.210 HD
ENDBRANCH  27  33
TORSDOF 2
ENDMDL
MODEL 7
REMARK VINA RESULT:    -6.936      2.613      8.350
REMARK INTER + INTRA:          -6.983
REMARK INTER:                  -7.539
REMARK INTRA:                   0.557
REMARK UNBOUND:                 0.561
REMARK SMILES C[C@@H]1[C@H](C)CC[C@@]2(C(=O)[O-])CC[C@@]3(C)C(=CC[C@H]4[C@@]5(C)CC[C@H](O)C(C)(C)[C@@H]5CC[C@@]43C)[C@H]12
REMARK SMILES IDX 7 1 6 2 11 3 33 4 5 5 12 6 15 7 2 8 3 9 13 10 16 11 1 12
REMARK SMILES IDX 4 13 14 14 31 15 17 16 18 17 30 18 32 19 19 20 29 21 28 22
REMARK SMILES IDX 21 23 20 24 25 25 22 26 23 27 26 28 27 29 8 30 9 31 10 32
REMARK SMILES IDX 24 33
REMARK H PARENT 24 34
REMARK Flexibility Score: inf
ROOT
ATOM      1  C   UNL     1      10.621  46.729  46.279  1.00  0.00     0.017 C 
ATOM      2  C   UNL     1       9.064  46.832  46.174  1.00  0.00     0.014 C 
ATOM      3  C   UNL     1      11.173  46.309  44.871  1.00  0.00     0.014 C 
ATOM      4  C   UNL     1      11.196  48.141  46.637  1.00  0.00     0.030 C 
ATOM      5  C   UNL     1       8.400  47.535  47.373  1.00  0.00     0.004 C 
ATOM      6  C   UNL     1      12.698  46.551  44.632  1.00  0.00     0.013 C 
ATOM      7  C   UNL     1      12.723  48.161  46.465  1.00  0.00    -0.063 C 
ATOM      8  C   UNL     1      10.516  48.892  47.844  1.00  0.00    -0.003 C 
ATOM      9  C   UNL     1       8.977  48.946  47.575  1.00  0.00    -0.011 C 
ATOM     10  C   UNL     1      13.261  47.983  45.013  1.00  0.00    -0.006 C 
ATOM     11  C   UNL     1      13.503  47.788  47.505  1.00  0.00    -0.027 C 
ATOM     12  C   UNL     1      10.854  48.378  49.262  1.00  0.00     0.008 C 
ATOM     13  C   UNL     1       8.172  49.726  48.631  1.00  0.00     0.008 C 
ATOM     14  C   UNL     1      12.562  48.990  44.039  1.00  0.00     0.017 C 
ATOM     15  C   UNL     1      14.924  48.128  44.890  1.00  0.00    -0.020 C 
ATOM     16  C   UNL     1      14.959  47.498  47.365  1.00  0.00     0.032 C 
ATOM     17  C   UNL     1      15.545  48.430  46.302  1.00  0.00     0.006 C 
ATOM     18  C   UNL     1      15.411  49.338  43.962  1.00  0.00     0.008 C 
ATOM     19  C   UNL     1      15.496  46.794  44.283  1.00  0.00     0.012 C 
ATOM     20  C   UNL     1      17.120  48.680  46.442  1.00  0.00    -0.025 C 
ATOM     21  C   UNL     1      16.745  50.065  44.327  1.00  0.00     0.005 C 
ATOM     22  C   UNL     1      17.721  49.140  45.065  1.00  0.00     0.003 C 
ATOM     23  C   UNL     1      17.913  47.410  46.868  1.00  0.00     0.010 C 
ATOM     24  C   UNL     1      17.272  49.774  47.559  1.00  0.00     0.012 C 
ATOM     25  C   UNL     1      19.261  49.482  45.047  1.00  0.00    -0.006 C 
ATOM     26  C   UNL     1      19.444  47.637  46.901  1.00  0.00     0.033 C 
ATOM     27  C   UNL     1      20.026  48.225  45.596  1.00  0.00     0.120 C 
ATOM     28  C   UNL     1      19.632  50.769  45.830  1.00  0.00     0.014 C 
ATOM     29  C   UNL     1      19.734  49.699  43.580  1.00  0.00     0.014 C 
ENDROOT
BRANCH   1  30
ATOM     30  C   UNL     1      11.002  45.646  47.292  1.00  0.00     0.048 C 
ATOM     31  O   UNL     1      11.991  44.896  47.091  1.00  0.00    -0.550 OA
ATOM     32  O   UNL     1      10.255  45.444  48.449  1.00  0.00    -0.550 OA
ENDBRANCH   1  30
BRANCH  27  33
ATOM     33  O   UNL     1      21.383  48.535  45.807  1.00  0.00    -0.393 OA
ATOM     34  H   UNL     1      21.423  49.381  46.328  1.00  0.00     0.210 HD
ENDBRANCH  27  33
TORSDOF 2
ENDMDL
MODEL 8
REMARK VINA RESULT:    -6.305      2.380      8.328
REMARK INTER + INTRA:          -6.297
REMARK INTER:                  -6.865
REMARK INTRA:                   0.568
REMARK UNBOUND:                 0.561
REMARK SMILES C[C@@H]1[C@H](C)CC[C@@]2(C(=O)[O-])CC[C@@]3(C)C(=CC[C@H]4[C@@]5(C)CC[C@H](O)C(C)(C)[C@@H]5CC[C@@]43C)[C@H]12
REMARK SMILES IDX 7 1 6 2 11 3 33 4 5 5 12 6 15 7 2 8 3 9 13 10 16 11 1 12
REMARK SMILES IDX 4 13 14 14 31 15 17 16 18 17 30 18 32 19 19 20 29 21 28 22
REMARK SMILES IDX 21 23 20 24 25 25 22 26 23 27 26 28 27 29 8 30 9 31 10 32
REMARK SMILES IDX 24 33
REMARK H PARENT 24 34
REMARK Flexibility Score: inf
ROOT
ATOM      1  C   UNL     1       9.877  46.852  46.042  1.00  0.00     0.017 C 
ATOM      2  C   UNL     1       8.622  45.924  46.132  1.00  0.00     0.014 C 
ATOM      3  C   UNL     1      10.708  46.670  47.361  1.00  0.00     0.014 C 
ATOM      4  C   UNL     1      10.758  46.391  44.832  1.00  0.00     0.030 C 
ATOM      5  C   UNL     1       7.876  45.747  44.796  1.00  0.00     0.004 C 
ATOM      6  C   UNL     1      12.188  47.168  47.313  1.00  0.00     0.013 C 
ATOM      7  C   UNL     1      12.134  47.075  44.875  1.00  0.00    -0.063 C 
ATOM      8  C   UNL     1      10.013  46.178  43.460  1.00  0.00    -0.003 C 
ATOM      9  C   UNL     1       8.815  45.205  43.706  1.00  0.00    -0.011 C 
ATOM     10  C   UNL     1      13.058  46.699  46.073  1.00  0.00    -0.006 C 
ATOM     11  C   UNL     1      12.284  48.281  44.282  1.00  0.00    -0.027 C 
ATOM     12  C   UNL     1       9.595  47.452  42.690  1.00  0.00     0.008 C 
ATOM     13  C   UNL     1       8.028  44.826  42.437  1.00  0.00     0.008 C 
ATOM     14  C   UNL     1      13.187  45.145  46.204  1.00  0.00     0.017 C 
ATOM     15  C   UNL     1      14.579  47.395  45.993  1.00  0.00    -0.020 C 
ATOM     16  C   UNL     1      13.473  49.152  44.504  1.00  0.00     0.032 C 
ATOM     17  C   UNL     1      14.706  48.264  44.688  1.00  0.00     0.006 C 
ATOM     18  C   UNL     1      15.780  46.341  45.899  1.00  0.00     0.008 C 
ATOM     19  C   UNL     1      14.798  48.264  47.286  1.00  0.00     0.012 C 
ATOM     20  C   UNL     1      16.093  48.984  44.343  1.00  0.00    -0.025 C 
ATOM     21  C   UNL     1      17.055  46.735  45.088  1.00  0.00     0.005 C 
ATOM     22  C   UNL     1      17.279  48.253  45.070  1.00  0.00     0.003 C 
ATOM     23  C   UNL     1      16.149  50.472  44.795  1.00  0.00     0.010 C 
ATOM     24  C   UNL     1      16.218  48.921  42.779  1.00  0.00     0.012 C 
ATOM     25  C   UNL     1      18.728  48.808  44.789  1.00  0.00    -0.006 C 
ATOM     26  C   UNL     1      17.529  51.127  44.549  1.00  0.00     0.033 C 
ATOM     27  C   UNL     1      18.720  50.339  45.140  1.00  0.00     0.120 C 
ATOM     28  C   UNL     1      19.234  48.552  43.345  1.00  0.00     0.014 C 
ATOM     29  C   UNL     1      19.748  48.126  45.747  1.00  0.00     0.014 C 
ENDROOT
BRANCH   1  30
ATOM     30  C   UNL     1       9.435  48.315  45.946  1.00  0.00     0.048 C 
ATOM     31  O   UNL     1       8.390  48.632  45.324  1.00  0.00    -0.550 OA
ATOM     32  O   UNL     1      10.186  49.336  46.522  1.00  0.00    -0.550 OA
ENDBRANCH   1  30
BRANCH  27  33
ATOM     33  O   UNL     1      19.917  50.943  44.713  1.00  0.00    -0.393 OA
ATOM     34  H   UNL     1      20.666  50.335  44.953  1.00  0.00     0.210 HD
ENDBRANCH  27  33
TORSDOF 2
ENDMDL
MODEL 9
REMARK VINA RESULT:    -5.996      2.231      8.234
REMARK INTER + INTRA:          -5.960
REMARK INTER:                  -6.524
REMARK INTRA:                   0.563
REMARK UNBOUND:                 0.561
REMARK SMILES C[C@@H]1[C@H](C)CC[C@@]2(C(=O)[O-])CC[C@@]3(C)C(=CC[C@H]4[C@@]5(C)CC[C@H](O)C(C)(C)[C@@H]5CC[C@@]43C)[C@H]12
REMARK SMILES IDX 7 1 6 2 11 3 33 4 5 5 12 6 15 7 2 8 3 9 13 10 16 11 1 12
REMARK SMILES IDX 4 13 14 14 31 15 17 16 18 17 30 18 32 19 19 20 29 21 28 22
REMARK SMILES IDX 21 23 20 24 25 25 22 26 23 27 26 28 27 29 8 30 9 31 10 32
REMARK SMILES IDX 24 33
REMARK H PARENT 24 34
REMARK Flexibility Score: inf
ROOT
ATOM      1  C   UNL     1      10.969  46.010  46.047  1.00  0.00     0.017 C 
ATOM      2  C   UNL     1       9.554  45.502  45.620  1.00  0.00     0.014 C 
ATOM      3  C   UNL     1      11.983  44.825  45.865  1.00  0.00     0.014 C 
ATOM      4  C   UNL     1      11.394  47.178  45.094  1.00  0.00     0.030 C 
ATOM      5  C   UNL     1       8.513  46.624  45.438  1.00  0.00     0.004 C 
ATOM      6  C   UNL     1      13.495  45.216  45.829  1.00  0.00     0.013 C 
ATOM      7  C   UNL     1      12.882  47.513  45.282  1.00  0.00    -0.063 C 
ATOM      8  C   UNL     1      10.336  48.325  44.872  1.00  0.00    -0.003 C 
ATOM      9  C   UNL     1       8.996  47.665  44.415  1.00  0.00    -0.011 C 
ATOM     10  C   UNL     1      13.900  46.409  44.867  1.00  0.00    -0.006 C 
ATOM     11  C   UNL     1      13.236  48.411  46.231  1.00  0.00    -0.027 C 
ATOM     12  C   UNL     1      10.141  49.324  46.036  1.00  0.00     0.008 C 
ATOM     13  C   UNL     1       7.875  48.665  44.075  1.00  0.00     0.008 C 
ATOM     14  C   UNL     1      13.606  45.905  43.414  1.00  0.00     0.017 C 
ATOM     15  C   UNL     1      15.500  46.887  44.995  1.00  0.00    -0.020 C 
ATOM     16  C   UNL     1      14.642  48.595  46.688  1.00  0.00     0.032 C 
ATOM     17  C   UNL     1      15.579  48.374  45.500  1.00  0.00     0.006 C 
ATOM     18  C   UNL     1      16.299  46.884  43.608  1.00  0.00     0.008 C 
ATOM     19  C   UNL     1      16.236  45.905  45.979  1.00  0.00     0.012 C 
ATOM     20  C   UNL     1      17.003  49.091  45.641  1.00  0.00    -0.025 C 
ATOM     21  C   UNL     1      17.423  47.947  43.394  1.00  0.00     0.005 C 
ATOM     22  C   UNL     1      18.061  48.385  44.719  1.00  0.00     0.003 C 
ATOM     23  C   UNL     1      17.578  49.048  47.087  1.00  0.00     0.010 C 
ATOM     24  C   UNL     1      16.758  50.589  45.235  1.00  0.00     0.012 C 
ATOM     25  C   UNL     1      19.510  49.008  44.701  1.00  0.00    -0.006 C 
ATOM     26  C   UNL     1      18.999  49.654  47.190  1.00  0.00     0.033 C 
ATOM     27  C   UNL     1      20.015  49.062  46.187  1.00  0.00     0.120 C 
ATOM     28  C   UNL     1      19.591  50.397  44.014  1.00  0.00     0.014 C 
ATOM     29  C   UNL     1      20.477  48.068  43.924  1.00  0.00     0.014 C 
ENDROOT
BRANCH   1  30
ATOM     30  C   UNL     1      10.952  46.410  47.525  1.00  0.00     0.048 C 
ATOM     31  O   UNL     1      11.949  46.200  48.261  1.00  0.00    -0.550 OA
ATOM     32  O   UNL     1       9.828  46.996  48.102  1.00  0.00    -0.550 OA
ENDBRANCH   1  30
BRANCH  27  33
ATOM     33  O   UNL     1      21.211  49.801  46.268  1.00  0.00    -0.393 OA
ATOM     34  H   UNL     1      21.965  49.177  46.092  1.00  0.00     0.210 HD
ENDBRANCH  27  33
TORSDOF 2
ENDMDL
