MODEL 1
REMARK VINA RESULT:    -7.759      0.000      0.000
REMARK INTER + INTRA:         -11.020
REMARK INTER:                 -10.254
REMARK INTRA:                  -0.766
REMARK UNBOUND:                -0.766
REMARK SMILES CC[C@@H](C=C[C@H](C)[C@@H]1CC[C@@H]2[C@H]3CC=C4C[C@@H](O)CC[C@@]4(C)[C@H]3CC[C@@]21C)C(C)C
REMARK SMILES IDX 6 1 7 2 5 3 4 4 3 5 2 6 1 7 28 8 29 9 30 10 8 11 9 12 26 13
REMARK SMILES IDX 10 14 11 15 25 16 27 17 12 18 24 19 23 20 13 21 21 22 14 23
REMARK SMILES IDX 15 24 20 25 22 26 16 27 19 28 17 29 18 30
REMARK H PARENT 18 31
REMARK Flexibility Score: inf
ROOT
ATOM      1  C   UNL     1      15.993  25.279  45.030  1.00  0.00     0.012 C 
ATOM      2  C   UNL     1      15.443  23.910  45.460  1.00  0.00     0.012 C 
ENDROOT
BRANCH   1   3
ATOM      3  C   UNL     1      16.037  26.194  46.240  1.00  0.00    -0.028 C 
ATOM      4  C   UNL     1      15.148  26.102  47.247  1.00  0.00    -0.027 C 
BRANCH   4   5
ATOM      5  C   UNL     1      15.202  26.955  48.501  1.00  0.00     0.014 C 
BRANCH   5   6
ATOM      6  C   UNL     1      15.263  26.116  49.804  1.00  0.00     0.004 C 
ATOM      7  C   UNL     1      14.900  24.650  49.567  1.00  0.00     0.004 C 
ENDBRANCH   5   6
BRANCH   5   8
ATOM      8  C   UNL     1      14.085  28.047  48.491  1.00  0.00    -0.011 C 
ATOM      9  C   UNL     1      13.947  28.730  49.861  1.00  0.00     0.008 C 
ATOM     10  C   UNL     1      12.710  27.541  48.020  1.00  0.00     0.008 C 
ENDBRANCH   5   8
ENDBRANCH   4   5
ENDBRANCH   1   3
BRANCH   1  11
ATOM     11  C   UNL     1      17.397  25.218  44.322  1.00  0.00     0.002 C 
ATOM     12  C   UNL     1      17.872  26.629  43.930  1.00  0.00     0.005 C 
ATOM     13  C   UNL     1      17.551  24.354  43.022  1.00  0.00    -0.026 C 
ATOM     14  C   UNL     1      18.715  26.503  42.671  1.00  0.00     0.005 C 
ATOM     15  C   UNL     1      18.778  25.014  42.321  1.00  0.00    -0.001 C 
ATOM     16  C   UNL     1      16.286  24.442  42.122  1.00  0.00     0.007 C 
ATOM     17  C   UNL     1      17.852  22.876  43.394  1.00  0.00     0.012 C 
ATOM     18  C   UNL     1      18.934  24.790  40.783  1.00  0.00     0.000 C 
ATOM     19  C   UNL     1      16.523  24.024  40.663  1.00  0.00     0.005 C 
ATOM     20  C   UNL     1      17.598  24.918  40.003  1.00  0.00     0.003 C 
ATOM     21  C   UNL     1      19.644  23.462  40.472  1.00  0.00     0.031 C 
ATOM     22  C   UNL     1      17.814  24.725  38.440  1.00  0.00    -0.008 C 
ATOM     23  C   UNL     1      19.718  23.166  39.005  1.00  0.00    -0.027 C 
ATOM     24  C   UNL     1      18.819  23.616  38.107  1.00  0.00    -0.065 C 
ATOM     25  C   UNL     1      16.469  24.406  37.713  1.00  0.00     0.014 C 
ATOM     26  C   UNL     1      18.376  26.061  37.875  1.00  0.00     0.016 C 
ATOM     27  C   UNL     1      18.976  23.188  36.657  1.00  0.00     0.063 C 
ATOM     28  C   UNL     1      16.626  24.083  36.217  1.00  0.00     0.033 C 
ATOM     29  C   UNL     1      17.616  22.931  35.979  1.00  0.00     0.118 C 
BRANCH  29  30
ATOM     30  O   UNL     1      17.062  21.698  36.373  1.00  0.00    -0.393 OA
ATOM     31  H   UNL     1      17.703  20.978  36.139  1.00  0.00     0.210 HD
ENDBRANCH  29  30
ENDBRANCH   1  11
TORSDOF 6
ENDMDL
MODEL 2
REMARK VINA RESULT:    -7.655      2.941      5.650
REMARK INTER + INTRA:         -10.883
REMARK INTER:                  -9.425
REMARK INTRA:                  -1.458
REMARK UNBOUND:                -0.766
REMARK SMILES CC[C@@H](C=C[C@H](C)[C@@H]1CC[C@@H]2[C@H]3CC=C4C[C@@H](O)CC[C@@]4(C)[C@H]3CC[C@@]21C)C(C)C
REMARK SMILES IDX 6 1 7 2 5 3 4 4 3 5 2 6 1 7 28 8 29 9 30 10 8 11 9 12 26 13
REMARK SMILES IDX 10 14 11 15 25 16 27 17 12 18 24 19 23 20 13 21 21 22 14 23
REMARK SMILES IDX 15 24 20 25 22 26 16 27 19 28 17 29 18 30
REMARK H PARENT 18 31
REMARK Flexibility Score: inf
ROOT
ATOM      1  C   UNL     1      15.362  23.021  47.512  1.00  0.00     0.012 C 
ATOM      2  C   UNL     1      14.819  23.253  48.931  1.00  0.00     0.012 C 
ENDROOT
BRANCH   1   3
ATOM      3  C   UNL     1      14.894  21.664  47.021  1.00  0.00    -0.028 C 
ATOM      4  C   UNL     1      15.748  20.723  46.576  1.00  0.00    -0.027 C 
BRANCH   4   5
ATOM      5  C   UNL     1      15.320  19.332  46.142  1.00  0.00     0.014 C 
BRANCH   5   6
ATOM      6  C   UNL     1      15.632  18.243  47.200  1.00  0.00     0.004 C 
ATOM      7  C   UNL     1      16.708  18.688  48.192  1.00  0.00     0.004 C 
ENDBRANCH   5   6
BRANCH   5   8
ATOM      8  C   UNL     1      15.841  19.004  44.706  1.00  0.00    -0.011 C 
ATOM      9  C   UNL     1      16.793  17.797  44.712  1.00  0.00     0.008 C 
ATOM     10  C   UNL     1      16.507  20.190  43.989  1.00  0.00     0.008 C 
ENDBRANCH   5   8
ENDBRANCH   4   5
ENDBRANCH   1   3
BRANCH   1  11
ATOM     11  C   UNL     1      14.985  24.151  46.483  1.00  0.00     0.002 C 
ATOM     12  C   UNL     1      13.856  23.682  45.547  1.00  0.00     0.005 C 
ATOM     13  C   UNL     1      16.101  24.713  45.536  1.00  0.00    -0.026 C 
ATOM     14  C   UNL     1      14.051  24.368  44.205  1.00  0.00     0.005 C 
ATOM     15  C   UNL     1      15.276  25.276  44.339  1.00  0.00    -0.001 C 
ATOM     16  C   UNL     1      17.070  23.593  45.062  1.00  0.00     0.007 C 
ATOM     17  C   UNL     1      16.889  25.847  46.250  1.00  0.00     0.012 C 
ATOM     18  C   UNL     1      16.016  25.450  42.974  1.00  0.00     0.000 C 
ATOM     19  C   UNL     1      17.878  23.951  43.806  1.00  0.00     0.005 C 
ATOM     20  C   UNL     1      16.939  24.256  42.617  1.00  0.00     0.003 C 
ATOM     21  C   UNL     1      16.770  26.789  42.904  1.00  0.00     0.031 C 
ATOM     22  C   UNL     1      17.636  24.459  41.202  1.00  0.00    -0.008 C 
ATOM     23  C   UNL     1      17.576  26.943  41.651  1.00  0.00    -0.027 C 
ATOM     24  C   UNL     1      18.085  25.905  40.958  1.00  0.00    -0.065 C 
ATOM     25  C   UNL     1      18.876  23.524  41.036  1.00  0.00     0.014 C 
ATOM     26  C   UNL     1      16.592  24.095  40.108  1.00  0.00     0.016 C 
ATOM     27  C   UNL     1      18.939  26.205  39.737  1.00  0.00     0.063 C 
ATOM     28  C   UNL     1      19.670  23.759  39.741  1.00  0.00     0.033 C 
ATOM     29  C   UNL     1      20.119  25.223  39.600  1.00  0.00     0.118 C 
BRANCH  29  30
ATOM     30  O   UNL     1      21.154  25.524  40.505  1.00  0.00    -0.393 OA
ATOM     31  H   UNL     1      21.438  26.463  40.356  1.00  0.00     0.210 HD
ENDBRANCH  29  30
ENDBRANCH   1  11
TORSDOF 6
ENDMDL
MODEL 3
REMARK VINA RESULT:    -7.638      4.060      8.787
REMARK INTER + INTRA:         -10.861
REMARK INTER:                 -10.521
REMARK INTRA:                  -0.340
REMARK UNBOUND:                -0.766
REMARK SMILES CC[C@@H](C=C[C@H](C)[C@@H]1CC[C@@H]2[C@H]3CC=C4C[C@@H](O)CC[C@@]4(C)[C@H]3CC[C@@]21C)C(C)C
REMARK SMILES IDX 6 1 7 2 5 3 4 4 3 5 2 6 1 7 28 8 29 9 30 10 8 11 9 12 26 13
REMARK SMILES IDX 10 14 11 15 25 16 27 17 12 18 24 19 23 20 13 21 21 22 14 23
REMARK SMILES IDX 15 24 20 25 22 26 16 27 19 28 17 29 18 30
REMARK H PARENT 18 31
REMARK Flexibility Score: inf
ROOT
ATOM      1  C   UNL     1      16.533  25.372  42.037  1.00  0.00     0.012 C 
ATOM      2  C   UNL     1      16.295  26.030  43.405  1.00  0.00     0.012 C 
ENDROOT
BRANCH   1   3
ATOM      3  C   UNL     1      17.977  25.595  41.628  1.00  0.00    -0.028 C 
ATOM      4  C   UNL     1      18.412  25.391  40.370  1.00  0.00    -0.027 C 
BRANCH   4   5
ATOM      5  C   UNL     1      19.832  25.667  39.912  1.00  0.00     0.014 C 
BRANCH   5   6
ATOM      6  C   UNL     1      20.777  24.451  40.094  1.00  0.00     0.004 C 
ATOM      7  C   UNL     1      20.090  23.127  39.757  1.00  0.00     0.004 C 
ENDBRANCH   5   6
BRANCH   5   8
ATOM      8  C   UNL     1      20.373  27.000  40.523  1.00  0.00    -0.011 C 
ATOM      9  C   UNL     1      20.431  28.121  39.473  1.00  0.00     0.008 C 
ATOM     10  C   UNL     1      21.738  26.867  41.220  1.00  0.00     0.008 C 
ENDBRANCH   5   8
ENDBRANCH   4   5
ENDBRANCH   1   3
BRANCH   1  11
ATOM     11  C   UNL     1      16.163  23.844  41.982  1.00  0.00     0.002 C 
ATOM     12  C   UNL     1      14.636  23.650  42.032  1.00  0.00     0.005 C 
ATOM     13  C   UNL     1      16.738  22.887  43.083  1.00  0.00    -0.026 C 
ATOM     14  C   UNL     1      14.358  22.330  42.732  1.00  0.00     0.005 C 
ATOM     15  C   UNL     1      15.716  21.709  43.074  1.00  0.00    -0.001 C 
ATOM     16  C   UNL     1      16.778  23.575  44.477  1.00  0.00     0.007 C 
ATOM     17  C   UNL     1      18.155  22.395  42.677  1.00  0.00     0.012 C 
ATOM     18  C   UNL     1      15.635  20.818  44.355  1.00  0.00     0.000 C 
ATOM     19  C   UNL     1      16.880  22.598  45.657  1.00  0.00     0.005 C 
ATOM     20  C   UNL     1      15.673  21.632  45.676  1.00  0.00     0.003 C 
ATOM     21  C   UNL     1      16.702  19.710  44.343  1.00  0.00     0.031 C 
ATOM     22  C   UNL     1      15.545  20.687  46.948  1.00  0.00    -0.008 C 
ATOM     23  C   UNL     1      16.721  18.901  45.604  1.00  0.00    -0.027 C 
ATOM     24  C   UNL     1      16.333  19.379  46.803  1.00  0.00    -0.065 C 
ATOM     25  C   UNL     1      16.024  21.410  48.247  1.00  0.00     0.014 C 
ATOM     26  C   UNL     1      14.042  20.320  47.111  1.00  0.00     0.016 C 
ATOM     27  C   UNL     1      16.463  18.471  48.015  1.00  0.00     0.063 C 
ATOM     28  C   UNL     1      16.046  20.510  49.494  1.00  0.00     0.033 C 
ATOM     29  C   UNL     1      16.894  19.246  49.276  1.00  0.00     0.118 C 
BRANCH  29  30
ATOM     30  O   UNL     1      18.267  19.557  49.253  1.00  0.00    -0.393 OA
ATOM     31  H   UNL     1      18.374  20.521  49.461  1.00  0.00     0.210 HD
ENDBRANCH  29  30
ENDBRANCH   1  11
TORSDOF 6
ENDMDL
MODEL 4
REMARK VINA RESULT:    -7.413      3.958      8.002
REMARK INTER + INTRA:         -10.563
REMARK INTER:                  -9.296
REMARK INTRA:                  -1.267
REMARK UNBOUND:                -0.766
REMARK SMILES CC[C@@H](C=C[C@H](C)[C@@H]1CC[C@@H]2[C@H]3CC=C4C[C@@H](O)CC[C@@]4(C)[C@H]3CC[C@@]21C)C(C)C
REMARK SMILES IDX 6 1 7 2 5 3 4 4 3 5 2 6 1 7 28 8 29 9 30 10 8 11 9 12 26 13
REMARK SMILES IDX 10 14 11 15 25 16 27 17 12 18 24 19 23 20 13 21 21 22 14 23
REMARK SMILES IDX 15 24 20 25 22 26 16 27 19 28 17 29 18 30
REMARK H PARENT 18 31
REMARK Flexibility Score: inf
ROOT
ATOM      1  C   UNL     1      14.138  28.403  51.826  1.00  0.00     0.012 C 
ATOM      2  C   UNL     1      13.115  29.266  52.580  1.00  0.00     0.012 C 
ENDROOT
BRANCH   1   3
ATOM      3  C   UNL     1      15.167  27.883  52.813  1.00  0.00    -0.028 C 
ATOM      4  C   UNL     1      16.433  28.340  52.844  1.00  0.00    -0.027 C 
BRANCH   4   5
ATOM      5  C   UNL     1      17.467  27.891  53.861  1.00  0.00     0.014 C 
BRANCH   5   6
ATOM      6  C   UNL     1      18.392  29.042  54.335  1.00  0.00     0.004 C 
ATOM      7  C   UNL     1      17.691  30.401  54.302  1.00  0.00     0.004 C 
ENDBRANCH   5   6
BRANCH   5   8
ATOM      8  C   UNL     1      18.225  26.616  53.370  1.00  0.00    -0.011 C 
ATOM      9  C   UNL     1      17.687  25.343  54.043  1.00  0.00     0.008 C 
ATOM     10  C   UNL     1      19.753  26.687  53.536  1.00  0.00     0.008 C 
ENDBRANCH   5   8
ENDBRANCH   4   5
ENDBRANCH   1   3
BRANCH   1  11
ATOM     11  C   UNL     1      13.505  27.222  51.000  1.00  0.00     0.002 C 
ATOM     12  C   UNL     1      14.009  25.863  51.518  1.00  0.00     0.005 C 
ATOM     13  C   UNL     1      13.726  27.182  49.448  1.00  0.00    -0.026 C 
ATOM     14  C   UNL     1      14.046  24.902  50.341  1.00  0.00     0.005 C 
ATOM     15  C   UNL     1      13.533  25.669  49.119  1.00  0.00    -0.001 C 
ATOM     16  C   UNL     1      15.155  27.655  49.059  1.00  0.00     0.007 C 
ATOM     17  C   UNL     1      12.652  28.047  48.732  1.00  0.00     0.012 C 
ATOM     18  C   UNL     1      14.167  25.135  47.795  1.00  0.00     0.000 C 
ATOM     19  C   UNL     1      15.601  27.217  47.657  1.00  0.00     0.005 C 
ATOM     20  C   UNL     1      15.598  25.676  47.535  1.00  0.00     0.003 C 
ATOM     21  C   UNL     1      13.245  25.374  46.588  1.00  0.00     0.031 C 
ATOM     22  C   UNL     1      16.217  25.072  46.202  1.00  0.00    -0.008 C 
ATOM     23  C   UNL     1      13.866  24.967  45.287  1.00  0.00    -0.027 C 
ATOM     24  C   UNL     1      15.195  24.963  45.063  1.00  0.00    -0.065 C 
ATOM     25  C   UNL     1      17.427  25.922  45.697  1.00  0.00     0.014 C 
ATOM     26  C   UNL     1      16.721  23.636  46.525  1.00  0.00     0.016 C 
ATOM     27  C   UNL     1      15.690  24.590  43.675  1.00  0.00     0.063 C 
ATOM     28  C   UNL     1      17.993  25.465  44.342  1.00  0.00     0.033 C 
ATOM     29  C   UNL     1      16.911  25.429  43.251  1.00  0.00     0.118 C 
BRANCH  29  30
ATOM     30  O   UNL     1      16.540  26.730  42.863  1.00  0.00    -0.393 OA
ATOM     31  H   UNL     1      17.325  27.326  42.976  1.00  0.00     0.210 HD
ENDBRANCH  29  30
ENDBRANCH   1  11
TORSDOF 6
ENDMDL
MODEL 5
REMARK VINA RESULT:    -7.409      3.107      8.408
REMARK INTER + INTRA:         -10.557
REMARK INTER:                 -10.706
REMARK INTRA:                   0.149
REMARK UNBOUND:                -0.766
REMARK SMILES CC[C@@H](C=C[C@H](C)[C@@H]1CC[C@@H]2[C@H]3CC=C4C[C@@H](O)CC[C@@]4(C)[C@H]3CC[C@@]21C)C(C)C
REMARK SMILES IDX 6 1 7 2 5 3 4 4 3 5 2 6 1 7 28 8 29 9 30 10 8 11 9 12 26 13
REMARK SMILES IDX 10 14 11 15 25 16 27 17 12 18 24 19 23 20 13 21 21 22 14 23
REMARK SMILES IDX 15 24 20 25 22 26 16 27 19 28 17 29 18 30
REMARK H PARENT 18 31
REMARK Flexibility Score: inf
ROOT
ATOM      1  C   UNL     1      19.035  26.335  41.066  1.00  0.00     0.012 C 
ATOM      2  C   UNL     1      20.525  26.606  41.324  1.00  0.00     0.012 C 
ENDROOT
BRANCH   1   3
ATOM      3  C   UNL     1      18.872  24.912  40.566  1.00  0.00    -0.028 C 
ATOM      4  C   UNL     1      19.889  24.219  40.019  1.00  0.00    -0.027 C 
BRANCH   4   5
ATOM      5  C   UNL     1      19.779  22.773  39.571  1.00  0.00     0.014 C 
BRANCH   5   6
ATOM      6  C   UNL     1      20.885  21.866  40.170  1.00  0.00     0.004 C 
ATOM      7  C   UNL     1      20.524  21.354  41.565  1.00  0.00     0.004 C 
ENDBRANCH   5   6
BRANCH   5   8
ATOM      8  C   UNL     1      19.634  22.672  38.018  1.00  0.00    -0.011 C 
ATOM      9  C   UNL     1      18.231  23.092  37.552  1.00  0.00     0.008 C 
ATOM     10  C   UNL     1      19.983  21.290  37.440  1.00  0.00     0.008 C 
ENDBRANCH   5   8
ENDBRANCH   4   5
ENDBRANCH   1   3
BRANCH   1  11
ATOM     11  C   UNL     1      18.105  26.604  42.307  1.00  0.00     0.002 C 
ATOM     12  C   UNL     1      18.942  26.788  43.586  1.00  0.00     0.005 C 
ATOM     13  C   UNL     1      17.013  25.542  42.677  1.00  0.00    -0.026 C 
ATOM     14  C   UNL     1      18.119  26.278  44.758  1.00  0.00     0.005 C 
ATOM     15  C   UNL     1      16.772  25.818  44.193  1.00  0.00    -0.001 C 
ATOM     16  C   UNL     1      17.524  24.091  42.453  1.00  0.00     0.007 C 
ATOM     17  C   UNL     1      15.719  25.796  41.854  1.00  0.00     0.012 C 
ATOM     18  C   UNL     1      16.154  24.664  45.045  1.00  0.00     0.000 C 
ATOM     19  C   UNL     1      16.722  23.019  43.206  1.00  0.00     0.005 C 
ATOM     20  C   UNL     1      16.762  23.272  44.730  1.00  0.00     0.003 C 
ATOM     21  C   UNL     1      14.619  24.645  44.946  1.00  0.00     0.031 C 
ATOM     22  C   UNL     1      16.134  22.138  45.650  1.00  0.00    -0.008 C 
ATOM     23  C   UNL     1      14.000  23.487  45.668  1.00  0.00    -0.027 C 
ATOM     24  C   UNL     1      14.625  22.310  45.866  1.00  0.00    -0.065 C 
ATOM     25  C   UNL     1      16.388  20.715  45.059  1.00  0.00     0.014 C 
ATOM     26  C   UNL     1      16.824  22.226  47.042  1.00  0.00     0.016 C 
ATOM     27  C   UNL     1      13.858  21.195  46.557  1.00  0.00     0.063 C 
ATOM     28  C   UNL     1      15.697  19.581  45.834  1.00  0.00     0.033 C 
ATOM     29  C   UNL     1      14.183  19.812  45.962  1.00  0.00     0.118 C 
BRANCH  29  30
ATOM     30  O   UNL     1      13.534  19.610  44.729  1.00  0.00    -0.393 OA
ATOM     31  H   UNL     1      13.963  18.840  44.272  1.00  0.00     0.210 HD
ENDBRANCH  29  30
ENDBRANCH   1  11
TORSDOF 6
ENDMDL
MODEL 6
REMARK VINA RESULT:    -7.358      3.627      8.876
REMARK INTER + INTRA:         -10.490
REMARK INTER:                  -9.258
REMARK INTRA:                  -1.232
REMARK UNBOUND:                -0.766
REMARK SMILES CC[C@@H](C=C[C@H](C)[C@@H]1CC[C@@H]2[C@H]3CC=C4C[C@@H](O)CC[C@@]4(C)[C@H]3CC[C@@]21C)C(C)C
REMARK SMILES IDX 6 1 7 2 5 3 4 4 3 5 2 6 1 7 28 8 29 9 30 10 8 11 9 12 26 13
REMARK SMILES IDX 10 14 11 15 25 16 27 17 12 18 24 19 23 20 13 21 21 22 14 23
REMARK SMILES IDX 15 24 20 25 22 26 16 27 19 28 17 29 18 30
REMARK H PARENT 18 31
REMARK Flexibility Score: inf
ROOT
ATOM      1  C   UNL     1      15.895  24.620  40.577  1.00  0.00     0.012 C 
ATOM      2  C   UNL     1      15.232  25.348  39.397  1.00  0.00     0.012 C 
ENDROOT
BRANCH   1   3
ATOM      3  C   UNL     1      17.388  24.885  40.542  1.00  0.00    -0.028 C 
ATOM      4  C   UNL     1      18.298  23.892  40.540  1.00  0.00    -0.027 C 
BRANCH   4   5
ATOM      5  C   UNL     1      19.795  24.119  40.438  1.00  0.00     0.014 C 
BRANCH   5   6
ATOM      6  C   UNL     1      20.160  25.473  39.776  1.00  0.00     0.004 C 
ATOM      7  C   UNL     1      20.852  26.428  40.750  1.00  0.00     0.004 C 
ENDBRANCH   5   6
BRANCH   5   8
ATOM      8  C   UNL     1      20.513  22.881  39.812  1.00  0.00    -0.011 C 
ATOM      9  C   UNL     1      19.803  22.400  38.536  1.00  0.00     0.008 C 
ATOM     10  C   UNL     1      20.700  21.701  40.781  1.00  0.00     0.008 C 
ENDBRANCH   5   8
ENDBRANCH   4   5
ENDBRANCH   1   3
BRANCH   1  11
ATOM     11  C   UNL     1      15.292  24.985  41.983  1.00  0.00     0.002 C 
ATOM     12  C   UNL     1      16.339  25.699  42.857  1.00  0.00     0.005 C 
ATOM     13  C   UNL     1      14.718  23.835  42.881  1.00  0.00    -0.026 C 
ATOM     14  C   UNL     1      16.054  25.344  44.308  1.00  0.00     0.005 C 
ATOM     15  C   UNL     1      14.815  24.445  44.314  1.00  0.00    -0.001 C 
ATOM     16  C   UNL     1      15.572  22.541  42.772  1.00  0.00     0.007 C 
ATOM     17  C   UNL     1      13.239  23.545  42.500  1.00  0.00     0.012 C 
ATOM     18  C   UNL     1      14.831  23.450  45.519  1.00  0.00     0.000 C 
ATOM     19  C   UNL     1      15.368  21.553  43.930  1.00  0.00     0.005 C 
ATOM     20  C   UNL     1      15.731  22.210  45.282  1.00  0.00     0.003 C 
ATOM     21  C   UNL     1      13.408  23.044  45.938  1.00  0.00     0.031 C 
ATOM     22  C   UNL     1      15.750  21.250  46.549  1.00  0.00    -0.008 C 
ATOM     23  C   UNL     1      13.389  22.011  47.023  1.00  0.00    -0.027 C 
ATOM     24  C   UNL     1      14.375  21.113  47.216  1.00  0.00    -0.065 C 
ATOM     25  C   UNL     1      16.262  19.822  46.179  1.00  0.00     0.014 C 
ATOM     26  C   UNL     1      16.723  21.870  47.594  1.00  0.00     0.016 C 
ATOM     27  C   UNL     1      14.200  20.077  48.314  1.00  0.00     0.063 C 
ATOM     28  C   UNL     1      16.185  18.809  47.333  1.00  0.00     0.033 C 
ATOM     29  C   UNL     1      14.764  18.702  47.909  1.00  0.00     0.118 C 
BRANCH  29  30
ATOM     30  O   UNL     1      13.906  18.028  47.019  1.00  0.00    -0.393 OA
ATOM     31  H   UNL     1      13.428  17.319  47.522  1.00  0.00     0.210 HD
ENDBRANCH  29  30
ENDBRANCH   1  11
TORSDOF 6
ENDMDL
MODEL 7
REMARK VINA RESULT:    -7.284      3.933      6.112
REMARK INTER + INTRA:         -10.392
REMARK INTER:                 -10.287
REMARK INTRA:                  -0.105
REMARK UNBOUND:                -0.766
REMARK SMILES CC[C@@H](C=C[C@H](C)[C@@H]1CC[C@@H]2[C@H]3CC=C4C[C@@H](O)CC[C@@]4(C)[C@H]3CC[C@@]21C)C(C)C
REMARK SMILES IDX 6 1 7 2 5 3 4 4 3 5 2 6 1 7 28 8 29 9 30 10 8 11 9 12 26 13
REMARK SMILES IDX 10 14 11 15 25 16 27 17 12 18 24 19 23 20 13 21 21 22 14 23
REMARK SMILES IDX 15 24 20 25 22 26 16 27 19 28 17 29 18 30
REMARK H PARENT 18 31
REMARK Flexibility Score: inf
ROOT
ATOM      1  C   UNL     1      15.601  18.937  45.009  1.00  0.00     0.012 C 
ATOM      2  C   UNL     1      17.078  18.879  44.588  1.00  0.00     0.012 C 
ENDROOT
BRANCH   1   3
ATOM      3  C   UNL     1      15.489  18.542  46.470  1.00  0.00    -0.028 C 
ATOM      4  C   UNL     1      16.408  18.898  47.386  1.00  0.00    -0.027 C 
BRANCH   4   5
ATOM      5  C   UNL     1      16.294  18.578  48.866  1.00  0.00     0.014 C 
BRANCH   5   6
ATOM      6  C   UNL     1      14.911  17.996  49.256  1.00  0.00     0.004 C 
ATOM      7  C   UNL     1      14.923  17.349  50.641  1.00  0.00     0.004 C 
ENDBRANCH   5   6
BRANCH   5   8
ATOM      8  C   UNL     1      16.755  19.787  49.742  1.00  0.00    -0.011 C 
ATOM      9  C   UNL     1      15.919  21.045  49.456  1.00  0.00     0.008 C 
ATOM     10  C   UNL     1      18.252  20.117  49.625  1.00  0.00     0.008 C 
ENDBRANCH   5   8
ENDBRANCH   4   5
ENDBRANCH   1   3
BRANCH   1  11
ATOM     11  C   UNL     1      14.908  20.325  44.748  1.00  0.00     0.002 C 
ATOM     12  C   UNL     1      14.021  20.265  43.492  1.00  0.00     0.005 C 
ATOM     13  C   UNL     1      15.809  21.595  44.558  1.00  0.00    -0.026 C 
ATOM     14  C   UNL     1      14.022  21.646  42.855  1.00  0.00     0.005 C 
ATOM     15  C   UNL     1      14.882  22.548  43.745  1.00  0.00    -0.001 C 
ATOM     16  C   UNL     1      17.102  21.267  43.760  1.00  0.00     0.007 C 
ATOM     17  C   UNL     1      16.165  22.211  45.940  1.00  0.00     0.012 C 
ATOM     18  C   UNL     1      15.565  23.686  42.920  1.00  0.00     0.000 C 
ATOM     19  C   UNL     1      17.788  22.494  43.142  1.00  0.00     0.005 C 
ATOM     20  C   UNL     1      16.837  23.220  42.163  1.00  0.00     0.003 C 
ATOM     21  C   UNL     1      15.846  24.925  43.788  1.00  0.00     0.031 C 
ATOM     22  C   UNL     1      17.471  24.399  41.307  1.00  0.00    -0.008 C 
ATOM     23  C   UNL     1      16.595  25.996  43.056  1.00  0.00    -0.027 C 
ATOM     24  C   UNL     1      17.434  25.751  42.029  1.00  0.00    -0.065 C 
ATOM     25  C   UNL     1      18.952  24.090  40.917  1.00  0.00     0.014 C 
ATOM     26  C   UNL     1      16.635  24.535  40.002  1.00  0.00     0.016 C 
ATOM     27  C   UNL     1      18.181  26.925  41.416  1.00  0.00     0.063 C 
ATOM     28  C   UNL     1      19.665  25.245  40.195  1.00  0.00     0.033 C 
ATOM     29  C   UNL     1      19.619  26.547  41.010  1.00  0.00     0.118 C 
BRANCH  29  30
ATOM     30  O   UNL     1      20.473  26.477  42.126  1.00  0.00    -0.393 OA
ATOM     31  H   UNL     1      20.198  25.703  42.683  1.00  0.00     0.210 HD
ENDBRANCH  29  30
ENDBRANCH   1  11
TORSDOF 6
ENDMDL
MODEL 8
REMARK VINA RESULT:    -7.226      3.728      9.011
REMARK INTER + INTRA:         -10.316
REMARK INTER:                  -9.519
REMARK INTRA:                  -0.797
REMARK UNBOUND:                -0.766
REMARK SMILES CC[C@@H](C=C[C@H](C)[C@@H]1CC[C@@H]2[C@H]3CC=C4C[C@@H](O)CC[C@@]4(C)[C@H]3CC[C@@]21C)C(C)C
REMARK SMILES IDX 6 1 7 2 5 3 4 4 3 5 2 6 1 7 28 8 29 9 30 10 8 11 9 12 26 13
REMARK SMILES IDX 10 14 11 15 25 16 27 17 12 18 24 19 23 20 13 21 21 22 14 23
REMARK SMILES IDX 15 24 20 25 22 26 16 27 19 28 17 29 18 30
REMARK H PARENT 18 31
REMARK Flexibility Score: inf
ROOT
ATOM      1  C   UNL     1      15.939  24.639  40.668  1.00  0.00     0.012 C 
ATOM      2  C   UNL     1      14.842  25.688  40.908  1.00  0.00     0.012 C 
ENDROOT
BRANCH   1   3
ATOM      3  C   UNL     1      16.807  25.092  39.509  1.00  0.00    -0.028 C 
ATOM      4  C   UNL     1      17.151  24.269  38.500  1.00  0.00    -0.027 C 
BRANCH   4   5
ATOM      5  C   UNL     1      17.960  24.707  37.293  1.00  0.00     0.014 C 
BRANCH   5   6
ATOM      6  C   UNL     1      19.386  24.099  37.264  1.00  0.00     0.004 C 
ATOM      7  C   UNL     1      19.452  22.740  37.962  1.00  0.00     0.004 C 
ENDBRANCH   5   6
BRANCH   5   8
ATOM      8  C   UNL     1      17.918  26.259  37.117  1.00  0.00    -0.011 C 
ATOM      9  C   UNL     1      16.851  26.684  36.096  1.00  0.00     0.008 C 
ATOM     10  C   UNL     1      19.272  26.890  36.749  1.00  0.00     0.008 C 
ENDBRANCH   5   8
ENDBRANCH   4   5
ENDBRANCH   1   3
BRANCH   1  11
ATOM     11  C   UNL     1      16.817  24.321  41.935  1.00  0.00     0.002 C 
ATOM     12  C   UNL     1      18.000  23.409  41.563  1.00  0.00     0.005 C 
ATOM     13  C   UNL     1      16.138  23.635  43.171  1.00  0.00    -0.026 C 
ATOM     14  C   UNL     1      18.315  22.540  42.771  1.00  0.00     0.005 C 
ATOM     15  C   UNL     1      17.345  22.951  43.883  1.00  0.00    -0.001 C 
ATOM     16  C   UNL     1      15.083  22.580  42.734  1.00  0.00     0.007 C 
ATOM     17  C   UNL     1      15.488  24.708  44.089  1.00  0.00     0.012 C 
ATOM     18  C   UNL     1      17.032  21.758  44.843  1.00  0.00     0.000 C 
ATOM     19  C   UNL     1      14.721  21.563  43.827  1.00  0.00     0.005 C 
ATOM     20  C   UNL     1      15.972  20.776  44.280  1.00  0.00     0.003 C 
ATOM     21  C   UNL     1      16.657  22.248  46.252  1.00  0.00     0.031 C 
ATOM     22  C   UNL     1      15.719  19.559  45.271  1.00  0.00    -0.008 C 
ATOM     23  C   UNL     1      16.250  21.136  47.170  1.00  0.00    -0.027 C 
ATOM     24  C   UNL     1      15.700  19.981  46.745  1.00  0.00    -0.065 C 
ATOM     25  C   UNL     1      14.375  18.830  44.950  1.00  0.00     0.014 C 
ATOM     26  C   UNL     1      16.887  18.549  45.083  1.00  0.00     0.016 C 
ATOM     27  C   UNL     1      15.273  18.962  47.788  1.00  0.00     0.063 C 
ATOM     28  C   UNL     1      14.008  17.721  45.951  1.00  0.00     0.033 C 
ATOM     29  C   UNL     1      13.967  18.243  47.396  1.00  0.00     0.118 C 
BRANCH  29  30
ATOM     30  O   UNL     1      12.840  19.059  47.608  1.00  0.00    -0.393 OA
ATOM     31  H   UNL     1      12.034  18.481  47.628  1.00  0.00     0.210 HD
ENDBRANCH  29  30
ENDBRANCH   1  11
TORSDOF 6
ENDMDL
MODEL 9
REMARK VINA RESULT:    -6.888      3.108      8.447
REMARK INTER + INTRA:          -9.869
REMARK INTER:                  -9.522
REMARK INTRA:                  -0.348
REMARK UNBOUND:                -0.766
REMARK SMILES CC[C@@H](C=C[C@H](C)[C@@H]1CC[C@@H]2[C@H]3CC=C4C[C@@H](O)CC[C@@]4(C)[C@H]3CC[C@@]21C)C(C)C
REMARK SMILES IDX 6 1 7 2 5 3 4 4 3 5 2 6 1 7 28 8 29 9 30 10 8 11 9 12 26 13
REMARK SMILES IDX 10 14 11 15 25 16 27 17 12 18 24 19 23 20 13 21 21 22 14 23
REMARK SMILES IDX 15 24 20 25 22 26 16 27 19 28 17 29 18 30
REMARK H PARENT 18 31
REMARK Flexibility Score: inf
ROOT
ATOM      1  C   UNL     1      18.105  26.757  43.767  1.00  0.00     0.012 C 
ATOM      2  C   UNL     1      19.371  26.850  44.634  1.00  0.00     0.012 C 
ENDROOT
BRANCH   1   3
ATOM      3  C   UNL     1      18.313  25.694  42.704  1.00  0.00    -0.028 C 
ATOM      4  C   UNL     1      18.307  25.978  41.388  1.00  0.00    -0.027 C 
BRANCH   4   5
ATOM      5  C   UNL     1      18.578  24.952  40.303  1.00  0.00     0.014 C 
BRANCH   5   6
ATOM      6  C   UNL     1      18.989  23.567  40.865  1.00  0.00     0.004 C 
ATOM      7  C   UNL     1      20.210  22.988  40.148  1.00  0.00     0.004 C 
ENDBRANCH   5   6
BRANCH   5   8
ATOM      8  C   UNL     1      19.549  25.521  39.219  1.00  0.00    -0.011 C 
ATOM      9  C   UNL     1      20.177  26.852  39.663  1.00  0.00     0.008 C 
ATOM     10  C   UNL     1      18.915  25.683  37.826  1.00  0.00     0.008 C 
ENDBRANCH   5   8
ENDBRANCH   4   5
ENDBRANCH   1   3
BRANCH   1  11
ATOM     11  C   UNL     1      16.784  26.489  44.578  1.00  0.00     0.002 C 
ATOM     12  C   UNL     1      16.987  26.806  46.071  1.00  0.00     0.005 C 
ATOM     13  C   UNL     1      16.153  25.054  44.542  1.00  0.00    -0.026 C 
ATOM     14  C   UNL     1      16.091  25.873  46.870  1.00  0.00     0.005 C 
ATOM     15  C   UNL     1      15.322  25.017  45.861  1.00  0.00    -0.001 C 
ATOM     16  C   UNL     1      17.245  23.947  44.545  1.00  0.00     0.007 C 
ATOM     17  C   UNL     1      15.231  24.906  43.300  1.00  0.00     0.012 C 
ATOM     18  C   UNL     1      14.967  23.613  46.449  1.00  0.00     0.000 C 
ATOM     19  C   UNL     1      16.735  22.563  44.971  1.00  0.00     0.005 C 
ATOM     20  C   UNL     1      16.149  22.609  46.401  1.00  0.00     0.003 C 
ATOM     21  C   UNL     1      13.702  23.029  45.797  1.00  0.00     0.031 C 
ATOM     22  C   UNL     1      15.754  21.212  47.047  1.00  0.00    -0.008 C 
ATOM     23  C   UNL     1      13.393  21.639  46.262  1.00  0.00    -0.027 C 
ATOM     24  C   UNL     1      14.328  20.770  46.694  1.00  0.00    -0.065 C 
ATOM     25  C   UNL     1      16.741  20.081  46.613  1.00  0.00     0.014 C 
ATOM     26  C   UNL     1      15.833  21.370  48.593  1.00  0.00     0.016 C 
ATOM     27  C   UNL     1      13.885  19.368  47.077  1.00  0.00     0.063 C 
ATOM     28  C   UNL     1      16.343  18.679  47.102  1.00  0.00     0.033 C 
ATOM     29  C   UNL     1      14.918  18.301  46.665  1.00  0.00     0.118 C 
BRANCH  29  30
ATOM     30  O   UNL     1      14.867  18.033  45.284  1.00  0.00    -0.393 OA
ATOM     31  H   UNL     1      14.764  17.054  45.158  1.00  0.00     0.210 HD
ENDBRANCH  29  30
ENDBRANCH   1  11
TORSDOF 6
ENDMDL
