MODEL 1
REMARK VINA RESULT:    -3.990      0.000      0.000
REMARK INTER + INTRA:         -10.415
REMARK INTER:                  -7.723
REMARK INTRA:                  -2.693
REMARK UNBOUND:                -2.693
REMARK SMILES CCCCCCCCCCCCCCCCCC(=O)[O-]
REMARK SMILES IDX 10 1 11 2 12 3 13 4 14 5 15 6 16 7 17 8 18 9 19 10 20 11
REMARK SMILES IDX 9 12 8 13 7 14 6 15 5 16 4 17 3 18 2 19 1 20
REMARK H PARENT
REMARK Flexibility Score: inf
ROOT
ATOM      1  C   UNL     1      30.846  32.879   4.055  1.00  0.00     0.000 C 
ENDROOT
BRANCH   1   2
ATOM      2  C   UNL     1      29.403  33.376   3.857  1.00  0.00     0.000 C 
BRANCH   2   3
ATOM      3  C   UNL     1      28.696  32.667   2.683  1.00  0.00     0.000 C 
BRANCH   3   4
ATOM      4  C   UNL     1      27.170  32.861   2.677  1.00  0.00     0.000 C 
BRANCH   4   5
ATOM      5  C   UNL     1      26.751  34.338   2.733  1.00  0.00     0.000 C 
BRANCH   5   6
ATOM      6  C   UNL     1      25.719  34.689   1.641  1.00  0.00     0.000 C 
BRANCH   6   7
ATOM      7  C   UNL     1      25.517  33.579   0.593  1.00  0.00     0.006 C 
BRANCH   7   8
ATOM      8  C   UNL     1      24.141  32.891   0.664  1.00  0.00     0.053 C 
BRANCH   8   9
ATOM      9  C   UNL     1      23.198  33.370  -0.400  1.00  0.00     0.041 C 
ATOM     10  O   UNL     1      22.674  34.512  -0.313  1.00  0.00    -0.550 OA
ATOM     11  O   UNL     1      22.846  32.536  -1.452  1.00  0.00    -0.550 OA
ENDBRANCH   8   9
ENDBRANCH   7   8
ENDBRANCH   6   7
ENDBRANCH   5   6
ENDBRANCH   4   5
ENDBRANCH   3   4
ENDBRANCH   2   3
ENDBRANCH   1   2
BRANCH   1  12
ATOM     12  C   UNL     1      31.843  33.563   3.107  1.00  0.00     0.000 C 
BRANCH  12  13
ATOM     13  C   UNL     1      32.590  32.563   2.211  1.00  0.00    -0.000 C 
BRANCH  13  14
ATOM     14  C   UNL     1      32.632  33.058   0.758  1.00  0.00    -0.000 C 
BRANCH  14  15
ATOM     15  C   UNL     1      31.244  33.076   0.096  1.00  0.00    -0.000 C 
BRANCH  15  16
ATOM     16  C   UNL     1      30.831  34.484  -0.366  1.00  0.00    -0.000 C 
BRANCH  16  17
ATOM     17  C   UNL     1      29.342  34.776  -0.109  1.00  0.00    -0.000 C 
BRANCH  17  18
ATOM     18  C   UNL     1      29.110  36.155   0.533  1.00  0.00    -0.000 C 
BRANCH  18  19
ATOM     19  C   UNL     1      30.025  36.401   1.743  1.00  0.00    -0.003 C 
ATOM     20  C   UNL     1      29.280  37.001   2.935  1.00  0.00     0.004 C 
ENDBRANCH  18  19
ENDBRANCH  17  18
ENDBRANCH  16  17
ENDBRANCH  15  16
ENDBRANCH  14  15
ENDBRANCH  13  14
ENDBRANCH  12  13
ENDBRANCH   1  12
TORSDOF 16
ENDMDL
MODEL 2
REMARK VINA RESULT:    -3.760      1.568      3.639
REMARK INTER + INTRA:          -9.969
REMARK INTER:                  -7.213
REMARK INTRA:                  -2.756
REMARK UNBOUND:                -2.693
REMARK SMILES CCCCCCCCCCCCCCCCCC(=O)[O-]
REMARK SMILES IDX 10 1 11 2 12 3 13 4 14 5 15 6 16 7 17 8 18 9 19 10 20 11
REMARK SMILES IDX 9 12 8 13 7 14 6 15 5 16 4 17 3 18 2 19 1 20
REMARK H PARENT
REMARK Flexibility Score: inf
ROOT
ATOM      1  C   UNL     1      30.215  35.330   1.360  1.00  0.00     0.000 C 
ENDROOT
BRANCH   1   2
ATOM      2  C   UNL     1      29.775  33.928   0.901  1.00  0.00     0.000 C 
BRANCH   2   3
ATOM      3  C   UNL     1      29.593  32.956   2.086  1.00  0.00     0.000 C 
BRANCH   3   4
ATOM      4  C   UNL     1      29.543  33.658   3.455  1.00  0.00     0.000 C 
BRANCH   4   5
ATOM      5  C   UNL     1      28.111  33.962   3.922  1.00  0.00     0.000 C 
BRANCH   5   6
ATOM      6  C   UNL     1      27.065  33.108   3.176  1.00  0.00     0.000 C 
BRANCH   6   7
ATOM      7  C   UNL     1      26.079  33.931   2.326  1.00  0.00     0.006 C 
BRANCH   7   8
ATOM      8  C   UNL     1      25.746  33.301   0.962  1.00  0.00     0.053 C 
BRANCH   8   9
ATOM      9  C   UNL     1      24.291  33.415   0.610  1.00  0.00     0.041 C 
ATOM     10  O   UNL     1      23.745  34.547   0.536  1.00  0.00    -0.550 OA
ATOM     11  O   UNL     1      23.523  32.273   0.428  1.00  0.00    -0.550 OA
ENDBRANCH   8   9
ENDBRANCH   7   8
ENDBRANCH   6   7
ENDBRANCH   5   6
ENDBRANCH   4   5
ENDBRANCH   3   4
ENDBRANCH   2   3
ENDBRANCH   1   2
BRANCH   1  12
ATOM     12  C   UNL     1      31.138  36.022   0.345  1.00  0.00     0.000 C 
BRANCH  12  13
ATOM     13  C   UNL     1      32.489  36.428   0.954  1.00  0.00    -0.000 C 
BRANCH  13  14
ATOM     14  C   UNL     1      32.579  35.990   2.423  1.00  0.00    -0.000 C 
BRANCH  14  15
ATOM     15  C   UNL     1      33.710  34.978   2.673  1.00  0.00    -0.000 C 
BRANCH  15  16
ATOM     16  C   UNL     1      33.184  33.611   3.143  1.00  0.00    -0.000 C 
BRANCH  16  17
ATOM     17  C   UNL     1      33.150  32.570   2.011  1.00  0.00    -0.000 C 
BRANCH  17  18
ATOM     18  C   UNL     1      33.819  33.076   0.721  1.00  0.00    -0.000 C 
BRANCH  18  19
ATOM     19  C   UNL     1      32.961  32.814  -0.527  1.00  0.00    -0.003 C 
ATOM     20  C   UNL     1      33.410  33.634  -1.736  1.00  0.00     0.004 C 
ENDBRANCH  18  19
ENDBRANCH  17  18
ENDBRANCH  16  17
ENDBRANCH  15  16
ENDBRANCH  14  15
ENDBRANCH  13  14
ENDBRANCH  12  13
ENDBRANCH   1  12
TORSDOF 16
ENDMDL
MODEL 3
REMARK VINA RESULT:    -3.728      1.685      3.581
REMARK INTER + INTRA:          -9.908
REMARK INTER:                  -7.142
REMARK INTRA:                  -2.766
REMARK UNBOUND:                -2.693
REMARK SMILES CCCCCCCCCCCCCCCCCC(=O)[O-]
REMARK SMILES IDX 10 1 11 2 12 3 13 4 14 5 15 6 16 7 17 8 18 9 19 10 20 11
REMARK SMILES IDX 9 12 8 13 7 14 6 15 5 16 4 17 3 18 2 19 1 20
REMARK H PARENT
REMARK Flexibility Score: inf
ROOT
ATOM      1  C   UNL     1      30.497  35.630   2.009  1.00  0.00     0.000 C 
ENDROOT
BRANCH   1   2
ATOM      2  C   UNL     1      29.116  35.987   2.587  1.00  0.00     0.000 C 
BRANCH   2   3
ATOM      3  C   UNL     1      28.676  35.009   3.696  1.00  0.00     0.000 C 
BRANCH   3   4
ATOM      4  C   UNL     1      29.209  33.578   3.501  1.00  0.00     0.000 C 
BRANCH   4   5
ATOM      5  C   UNL     1      28.316  32.724   2.587  1.00  0.00     0.000 C 
BRANCH   5   6
ATOM      6  C   UNL     1      26.841  33.175   2.633  1.00  0.00     0.000 C 
BRANCH   6   7
ATOM      7  C   UNL     1      26.193  33.331   1.245  1.00  0.00     0.006 C 
BRANCH   7   8
ATOM      8  C   UNL     1      26.314  34.745   0.648  1.00  0.00     0.053 C 
BRANCH   8   9
ATOM      9  C   UNL     1      25.311  35.703   1.219  1.00  0.00     0.041 C 
ATOM     10  O   UNL     1      25.697  36.726   1.844  1.00  0.00    -0.550 OA
ATOM     11  O   UNL     1      23.952  35.437   1.118  1.00  0.00    -0.550 OA
ENDBRANCH   8   9
ENDBRANCH   7   8
ENDBRANCH   6   7
ENDBRANCH   5   6
ENDBRANCH   4   5
ENDBRANCH   3   4
ENDBRANCH   2   3
ENDBRANCH   1   2
BRANCH   1  12
ATOM     12  C   UNL     1      30.568  35.817   0.486  1.00  0.00     0.000 C 
BRANCH  12  13
ATOM     13  C   UNL     1      30.200  34.541  -0.286  1.00  0.00    -0.000 C 
BRANCH  13  14
ATOM     14  C   UNL     1      30.973  33.331   0.259  1.00  0.00    -0.000 C 
BRANCH  14  15
ATOM     15  C   UNL     1      32.427  33.282  -0.238  1.00  0.00    -0.000 C 
BRANCH  15  16
ATOM     16  C   UNL     1      33.435  33.082   0.907  1.00  0.00    -0.000 C 
BRANCH  16  17
ATOM     17  C   UNL     1      32.779  32.515   2.178  1.00  0.00    -0.000 C 
BRANCH  17  18
ATOM     18  C   UNL     1      32.952  33.439   3.396  1.00  0.00    -0.000 C 
BRANCH  18  19
ATOM     19  C   UNL     1      33.928  34.594   3.124  1.00  0.00    -0.003 C 
ATOM     20  C   UNL     1      35.089  34.633   4.117  1.00  0.00     0.004 C 
ENDBRANCH  18  19
ENDBRANCH  17  18
ENDBRANCH  16  17
ENDBRANCH  15  16
ENDBRANCH  14  15
ENDBRANCH  13  14
ENDBRANCH  12  13
ENDBRANCH   1  12
TORSDOF 16
ENDMDL
MODEL 4
REMARK VINA RESULT:    -3.714      3.890      6.911
REMARK INTER + INTRA:          -9.880
REMARK INTER:                  -6.908
REMARK INTRA:                  -2.972
REMARK UNBOUND:                -2.693
REMARK SMILES CCCCCCCCCCCCCCCCCC(=O)[O-]
REMARK SMILES IDX 10 1 11 2 12 3 13 4 14 5 15 6 16 7 17 8 18 9 19 10 20 11
REMARK SMILES IDX 9 12 8 13 7 14 6 15 5 16 4 17 3 18 2 19 1 20
REMARK H PARENT
REMARK Flexibility Score: inf
ROOT
ATOM      1  C   UNL     1      29.223  36.604   2.321  1.00  0.00     0.000 C 
ENDROOT
BRANCH   1   2
ATOM      2  C   UNL     1      30.270  35.947   1.405  1.00  0.00     0.000 C 
BRANCH   2   3
ATOM      3  C   UNL     1      29.713  35.655  -0.004  1.00  0.00     0.000 C 
BRANCH   3   4
ATOM      4  C   UNL     1      30.198  34.318  -0.592  1.00  0.00     0.000 C 
BRANCH   4   5
ATOM      5  C   UNL     1      30.946  33.449   0.430  1.00  0.00     0.000 C 
BRANCH   5   6
ATOM      6  C   UNL     1      32.280  32.913  -0.131  1.00  0.00     0.000 C 
BRANCH   6   7
ATOM      7  C   UNL     1      33.435  32.925   0.888  1.00  0.00     0.006 C 
BRANCH   7   8
ATOM      8  C   UNL     1      32.977  32.929   2.358  1.00  0.00     0.053 C 
BRANCH   8   9
ATOM      9  C   UNL     1      33.547  34.075   3.140  1.00  0.00     0.041 C 
ATOM     10  O   UNL     1      34.009  33.884   4.296  1.00  0.00    -0.550 OA
ATOM     11  O   UNL     1      33.511  35.363   2.623  1.00  0.00    -0.550 OA
ENDBRANCH   8   9
ENDBRANCH   7   8
ENDBRANCH   6   7
ENDBRANCH   5   6
ENDBRANCH   4   5
ENDBRANCH   3   4
ENDBRANCH   2   3
ENDBRANCH   1   2
BRANCH   1  12
ATOM     12  C   UNL     1      28.165  37.397   1.537  1.00  0.00     0.000 C 
BRANCH  12  13
ATOM     13  C   UNL     1      26.736  37.126   2.030  1.00  0.00    -0.000 C 
BRANCH  13  14
ATOM     14  C   UNL     1      25.979  36.225   1.043  1.00  0.00    -0.000 C 
BRANCH  14  15
ATOM     15  C   UNL     1      25.687  34.829   1.617  1.00  0.00    -0.000 C 
BRANCH  15  16
ATOM     16  C   UNL     1      26.589  33.741   1.009  1.00  0.00    -0.000 C 
BRANCH  16  17
ATOM     17  C   UNL     1      27.618  33.197   2.015  1.00  0.00    -0.000 C 
BRANCH  17  18
ATOM     18  C   UNL     1      27.230  33.488   3.476  1.00  0.00    -0.000 C 
BRANCH  18  19
ATOM     19  C   UNL     1      28.429  33.941   4.323  1.00  0.00    -0.003 C 
ATOM     20  C   UNL     1      29.713  33.187   3.980  1.00  0.00     0.004 C 
ENDBRANCH  18  19
ENDBRANCH  17  18
ENDBRANCH  16  17
ENDBRANCH  15  16
ENDBRANCH  14  15
ENDBRANCH  13  14
ENDBRANCH  12  13
ENDBRANCH   1  12
TORSDOF 16
ENDMDL
MODEL 5
REMARK VINA RESULT:    -3.710      1.201      2.788
REMARK INTER + INTRA:          -9.873
REMARK INTER:                  -7.765
REMARK INTRA:                  -2.108
REMARK UNBOUND:                -2.693
REMARK SMILES CCCCCCCCCCCCCCCCCC(=O)[O-]
REMARK SMILES IDX 10 1 11 2 12 3 13 4 14 5 15 6 16 7 17 8 18 9 19 10 20 11
REMARK SMILES IDX 9 12 8 13 7 14 6 15 5 16 4 17 3 18 2 19 1 20
REMARK H PARENT
REMARK Flexibility Score: inf
ROOT
ATOM      1  C   UNL     1      30.076  33.535   2.509  1.00  0.00     0.000 C 
ENDROOT
BRANCH   1   2
ATOM      2  C   UNL     1      29.520  33.153   3.892  1.00  0.00     0.000 C 
BRANCH   2   3
ATOM      3  C   UNL     1      28.264  33.970   4.262  1.00  0.00     0.000 C 
BRANCH   3   4
ATOM      4  C   UNL     1      27.016  33.578   3.452  1.00  0.00     0.000 C 
BRANCH   4   5
ATOM      5  C   UNL     1      26.651  34.611   2.375  1.00  0.00     0.000 C 
BRANCH   5   6
ATOM      6  C   UNL     1      26.148  33.943   1.078  1.00  0.00     0.000 C 
BRANCH   6   7
ATOM      7  C   UNL     1      24.616  33.959   0.921  1.00  0.00     0.006 C 
BRANCH   7   8
ATOM      8  C   UNL     1      23.995  32.574   0.666  1.00  0.00     0.053 C 
BRANCH   8   9
ATOM      9  C   UNL     1      22.935  32.600  -0.395  1.00  0.00     0.041 C 
ATOM     10  O   UNL     1      22.755  33.638  -1.084  1.00  0.00    -0.550 OA
ATOM     11  O   UNL     1      22.103  31.504  -0.581  1.00  0.00    -0.550 OA
ENDBRANCH   8   9
ENDBRANCH   7   8
ENDBRANCH   6   7
ENDBRANCH   5   6
ENDBRANCH   4   5
ENDBRANCH   3   4
ENDBRANCH   2   3
ENDBRANCH   1   2
BRANCH   1  12
ATOM     12  C   UNL     1      30.339  35.042   2.371  1.00  0.00     0.000 C 
BRANCH  12  13
ATOM     13  C   UNL     1      30.412  35.500   0.907  1.00  0.00    -0.000 C 
BRANCH  13  14
ATOM     14  C   UNL     1      29.959  34.378  -0.039  1.00  0.00    -0.000 C 
BRANCH  14  15
ATOM     15  C   UNL     1      30.971  34.106  -1.165  1.00  0.00    -0.000 C 
BRANCH  15  16
ATOM     16  C   UNL     1      31.617  32.715  -1.053  1.00  0.00    -0.000 C 
BRANCH  16  17
ATOM     17  C   UNL     1      33.149  32.784  -0.932  1.00  0.00    -0.000 C 
BRANCH  17  18
ATOM     18  C   UNL     1      33.611  33.512   0.343  1.00  0.00    -0.000 C 
BRANCH  18  19
ATOM     19  C   UNL     1      33.342  32.694   1.616  1.00  0.00    -0.003 C 
ATOM     20  C   UNL     1      33.681  33.461   2.893  1.00  0.00     0.004 C 
ENDBRANCH  18  19
ENDBRANCH  17  18
ENDBRANCH  16  17
ENDBRANCH  15  16
ENDBRANCH  14  15
ENDBRANCH  13  14
ENDBRANCH  12  13
ENDBRANCH   1  12
TORSDOF 16
ENDMDL
MODEL 6
REMARK VINA RESULT:    -3.679      3.512      6.507
REMARK INTER + INTRA:          -9.813
REMARK INTER:                  -7.286
REMARK INTRA:                  -2.527
REMARK UNBOUND:                -2.693
REMARK SMILES CCCCCCCCCCCCCCCCCC(=O)[O-]
REMARK SMILES IDX 10 1 11 2 12 3 13 4 14 5 15 6 16 7 17 8 18 9 19 10 20 11
REMARK SMILES IDX 9 12 8 13 7 14 6 15 5 16 4 17 3 18 2 19 1 20
REMARK H PARENT
REMARK Flexibility Score: inf
ROOT
ATOM      1  C   UNL     1      26.666  33.301   1.834  1.00  0.00     0.000 C 
ENDROOT
BRANCH   1   2
ATOM      2  C   UNL     1      26.666  33.601   3.343  1.00  0.00     0.000 C 
BRANCH   2   3
ATOM      3  C   UNL     1      28.089  33.834   3.893  1.00  0.00     0.000 C 
BRANCH   3   4
ATOM      4  C   UNL     1      29.127  32.833   3.355  1.00  0.00     0.000 C 
BRANCH   4   5
ATOM      5  C   UNL     1      30.546  33.100   3.880  1.00  0.00     0.000 C 
BRANCH   5   6
ATOM      6  C   UNL     1      31.487  33.613   2.769  1.00  0.00     0.000 C 
BRANCH   6   7
ATOM      7  C   UNL     1      32.457  32.545   2.231  1.00  0.00     0.006 C 
BRANCH   7   8
ATOM      8  C   UNL     1      33.633  33.116   1.418  1.00  0.00     0.053 C 
BRANCH   8   9
ATOM      9  C   UNL     1      33.412  33.031  -0.063  1.00  0.00     0.041 C 
ATOM     10  O   UNL     1      34.368  33.226  -0.858  1.00  0.00    -0.550 OA
ATOM     11  O   UNL     1      32.139  32.800  -0.569  1.00  0.00    -0.550 OA
ENDBRANCH   8   9
ENDBRANCH   7   8
ENDBRANCH   6   7
ENDBRANCH   5   6
ENDBRANCH   4   5
ENDBRANCH   3   4
ENDBRANCH   2   3
ENDBRANCH   1   2
BRANCH   1  12
ATOM     12  C   UNL     1      25.250  33.254   1.239  1.00  0.00     0.000 C 
BRANCH  12  13
ATOM     13  C   UNL     1      24.555  34.623   1.256  1.00  0.00    -0.000 C 
BRANCH  13  14
ATOM     14  C   UNL     1      25.476  35.711   0.684  1.00  0.00    -0.000 C 
BRANCH  14  15
ATOM     15  C   UNL     1      25.695  36.878   1.661  1.00  0.00    -0.000 C 
BRANCH  15  16
ATOM     16  C   UNL     1      27.179  37.089   2.004  1.00  0.00    -0.000 C 
BRANCH  16  17
ATOM     17  C   UNL     1      28.098  36.922   0.782  1.00  0.00    -0.000 C 
BRANCH  17  18
ATOM     18  C   UNL     1      29.290  35.990   1.059  1.00  0.00    -0.000 C 
BRANCH  18  19
ATOM     19  C   UNL     1      29.349  34.804   0.083  1.00  0.00    -0.003 C 
ATOM     20  C   UNL     1      28.591  35.071  -1.217  1.00  0.00     0.004 C 
ENDBRANCH  18  19
ENDBRANCH  17  18
ENDBRANCH  16  17
ENDBRANCH  15  16
ENDBRANCH  14  15
ENDBRANCH  13  14
ENDBRANCH  12  13
ENDBRANCH   1  12
TORSDOF 16
ENDMDL
MODEL 7
REMARK VINA RESULT:    -3.672      1.886      3.741
REMARK INTER + INTRA:          -9.799
REMARK INTER:                  -7.209
REMARK INTRA:                  -2.591
REMARK UNBOUND:                -2.693
REMARK SMILES CCCCCCCCCCCCCCCCCC(=O)[O-]
REMARK SMILES IDX 10 1 11 2 12 3 13 4 14 5 15 6 16 7 17 8 18 9 19 10 20 11
REMARK SMILES IDX 9 12 8 13 7 14 6 15 5 16 4 17 3 18 2 19 1 20
REMARK H PARENT
REMARK Flexibility Score: inf
ROOT
ATOM      1  C   UNL     1      27.171  33.572   3.834  1.00  0.00     0.000 C 
ENDROOT
BRANCH   1   2
ATOM      2  C   UNL     1      27.044  32.941   2.437  1.00  0.00     0.000 C 
BRANCH   2   3
ATOM      3  C   UNL     1      26.097  33.741   1.518  1.00  0.00     0.000 C 
BRANCH   3   4
ATOM      4  C   UNL     1      26.801  34.356   0.295  1.00  0.00     0.000 C 
BRANCH   4   5
ATOM      5  C   UNL     1      26.822  35.892   0.324  1.00  0.00     0.000 C 
BRANCH   5   6
ATOM      6  C   UNL     1      26.728  36.446   1.761  1.00  0.00     0.000 C 
BRANCH   6   7
ATOM      7  C   UNL     1      25.709  37.589   1.923  1.00  0.00     0.006 C 
BRANCH   7   8
ATOM      8  C   UNL     1      24.616  37.615   0.840  1.00  0.00     0.053 C 
BRANCH   8   9
ATOM      9  C   UNL     1      23.389  36.847   1.235  1.00  0.00     0.041 C 
ATOM     10  O   UNL     1      23.204  35.681   0.798  1.00  0.00    -0.550 OA
ATOM     11  O   UNL     1      22.418  37.440   2.031  1.00  0.00    -0.550 OA
ENDBRANCH   8   9
ENDBRANCH   7   8
ENDBRANCH   6   7
ENDBRANCH   5   6
ENDBRANCH   4   5
ENDBRANCH   3   4
ENDBRANCH   2   3
ENDBRANCH   1   2
BRANCH   1  12
ATOM     12  C   UNL     1      28.620  33.946   4.186  1.00  0.00     0.000 C 
BRANCH  12  13
ATOM     13  C   UNL     1      29.607  33.618   3.056  1.00  0.00    -0.000 C 
BRANCH  13  14
ATOM     14  C   UNL     1      30.094  34.902   2.367  1.00  0.00    -0.000 C 
BRANCH  14  15
ATOM     15  C   UNL     1      30.432  34.688   0.882  1.00  0.00    -0.000 C 
BRANCH  15  16
ATOM     16  C   UNL     1      30.856  33.241   0.577  1.00  0.00    -0.000 C 
BRANCH  16  17
ATOM     17  C   UNL     1      32.163  33.168  -0.230  1.00  0.00    -0.000 C 
BRANCH  17  18
ATOM     18  C   UNL     1      33.412  33.116   0.668  1.00  0.00    -0.000 C 
BRANCH  18  19
ATOM     19  C   UNL     1      33.109  32.551   2.064  1.00  0.00    -0.003 C 
ATOM     20  C   UNL     1      33.497  33.511   3.187  1.00  0.00     0.004 C 
ENDBRANCH  18  19
ENDBRANCH  17  18
ENDBRANCH  16  17
ENDBRANCH  15  16
ENDBRANCH  14  15
ENDBRANCH  13  14
ENDBRANCH  12  13
ENDBRANCH   1  12
TORSDOF 16
ENDMDL
MODEL 8
REMARK VINA RESULT:    -3.634      3.257      6.189
REMARK INTER + INTRA:          -9.726
REMARK INTER:                  -7.228
REMARK INTRA:                  -2.498
REMARK UNBOUND:                -2.693
REMARK SMILES CCCCCCCCCCCCCCCCCC(=O)[O-]
REMARK SMILES IDX 10 1 11 2 12 3 13 4 14 5 15 6 16 7 17 8 18 9 19 10 20 11
REMARK SMILES IDX 9 12 8 13 7 14 6 15 5 16 4 17 3 18 2 19 1 20
REMARK H PARENT
REMARK Flexibility Score: inf
ROOT
ATOM      1  C   UNL     1      27.221  33.636   3.726  1.00  0.00     0.000 C 
ENDROOT
BRANCH   1   2
ATOM      2  C   UNL     1      28.618  34.273   3.833  1.00  0.00     0.000 C 
BRANCH   2   3
ATOM      3  C   UNL     1      29.738  33.215   3.920  1.00  0.00     0.000 C 
BRANCH   3   4
ATOM      4  C   UNL     1      30.673  33.208   2.698  1.00  0.00     0.000 C 
BRANCH   4   5
ATOM      5  C   UNL     1      32.161  33.239   3.081  1.00  0.00     0.000 C 
BRANCH   5   6
ATOM      6  C   UNL     1      33.041  32.517   2.039  1.00  0.00     0.000 C 
BRANCH   6   7
ATOM      7  C   UNL     1      33.885  33.468   1.169  1.00  0.00     0.006 C 
BRANCH   7   8
ATOM      8  C   UNL     1      33.149  34.001  -0.074  1.00  0.00     0.053 C 
BRANCH   8   9
ATOM      9  C   UNL     1      32.560  32.906  -0.914  1.00  0.00     0.041 C 
ATOM     10  O   UNL     1      31.319  32.692  -0.895  1.00  0.00    -0.550 OA
ATOM     11  O   UNL     1      33.384  32.080  -1.666  1.00  0.00    -0.550 OA
ENDBRANCH   8   9
ENDBRANCH   7   8
ENDBRANCH   6   7
ENDBRANCH   5   6
ENDBRANCH   4   5
ENDBRANCH   3   4
ENDBRANCH   2   3
ENDBRANCH   1   2
BRANCH   1  12
ATOM     12  C   UNL     1      27.022  32.862   2.414  1.00  0.00     0.000 C 
BRANCH  12  13
ATOM     13  C   UNL     1      26.659  33.777   1.235  1.00  0.00    -0.000 C 
BRANCH  13  14
ATOM     14  C   UNL     1      25.514  34.728   1.615  1.00  0.00    -0.000 C 
BRANCH  14  15
ATOM     15  C   UNL     1      25.712  36.148   1.058  1.00  0.00    -0.000 C 
BRANCH  15  16
ATOM     16  C   UNL     1      26.798  36.932   1.814  1.00  0.00    -0.000 C 
BRANCH  16  17
ATOM     17  C   UNL     1      27.991  37.303   0.916  1.00  0.00    -0.000 C 
BRANCH  17  18
ATOM     18  C   UNL     1      29.269  36.524   1.277  1.00  0.00    -0.000 C 
BRANCH  18  19
ATOM     19  C   UNL     1      29.804  35.695   0.099  1.00  0.00    -0.003 C 
ATOM     20  C   UNL     1      28.815  35.614  -1.063  1.00  0.00     0.004 C 
ENDBRANCH  18  19
ENDBRANCH  17  18
ENDBRANCH  16  17
ENDBRANCH  15  16
ENDBRANCH  14  15
ENDBRANCH  13  14
ENDBRANCH  12  13
ENDBRANCH   1  12
TORSDOF 16
ENDMDL
MODEL 9
REMARK VINA RESULT:    -3.567      1.327      2.989
REMARK INTER + INTRA:          -9.595
REMARK INTER:                  -6.751
REMARK INTRA:                  -2.845
REMARK UNBOUND:                -2.693
REMARK SMILES CCCCCCCCCCCCCCCCCC(=O)[O-]
REMARK SMILES IDX 10 1 11 2 12 3 13 4 14 5 15 6 16 7 17 8 18 9 19 10 20 11
REMARK SMILES IDX 9 12 8 13 7 14 6 15 5 16 4 17 3 18 2 19 1 20
REMARK H PARENT
REMARK Flexibility Score: inf
ROOT
ATOM      1  C   UNL     1      32.948  32.866   2.484  1.00  0.00     0.000 C 
ENDROOT
BRANCH   1   2
ATOM      2  C   UNL     1      31.412  32.777   2.512  1.00  0.00     0.000 C 
BRANCH   2   3
ATOM      3  C   UNL     1      30.843  32.970   3.934  1.00  0.00     0.000 C 
BRANCH   3   4
ATOM      4  C   UNL     1      29.346  33.330   3.952  1.00  0.00     0.000 C 
BRANCH   4   5
ATOM      5  C   UNL     1      28.604  32.875   2.686  1.00  0.00     0.000 C 
BRANCH   5   6
ATOM      6  C   UNL     1      27.102  33.224   2.739  1.00  0.00     0.000 C 
BRANCH   6   7
ATOM      7  C   UNL     1      26.704  34.407   1.835  1.00  0.00     0.006 C 
BRANCH   7   8
ATOM      8  C   UNL     1      26.135  33.990   0.467  1.00  0.00     0.053 C 
BRANCH   8   9
ATOM      9  C   UNL     1      24.663  33.705   0.514  1.00  0.00     0.041 C 
ATOM     10  O   UNL     1      24.251  32.535   0.731  1.00  0.00    -0.550 OA
ATOM     11  O   UNL     1      23.745  34.715   0.254  1.00  0.00    -0.550 OA
ENDBRANCH   8   9
ENDBRANCH   7   8
ENDBRANCH   6   7
ENDBRANCH   5   6
ENDBRANCH   4   5
ENDBRANCH   3   4
ENDBRANCH   2   3
ENDBRANCH   1   2
BRANCH   1  12
ATOM     12  C   UNL     1      33.466  34.272   2.825  1.00  0.00     0.000 C 
BRANCH  12  13
ATOM     13  C   UNL     1      33.128  35.307   1.743  1.00  0.00    -0.000 C 
BRANCH  13  14
ATOM     14  C   UNL     1      32.493  36.560   2.365  1.00  0.00    -0.000 C 
BRANCH  14  15
ATOM     15  C   UNL     1      31.263  37.053   1.584  1.00  0.00    -0.000 C 
BRANCH  15  16
ATOM     16  C   UNL     1      30.158  35.987   1.492  1.00  0.00    -0.000 C 
BRANCH  16  17
ATOM     17  C   UNL     1      29.732  35.701   0.042  1.00  0.00    -0.000 C 
BRANCH  17  18
ATOM     18  C   UNL     1      30.079  34.270  -0.406  1.00  0.00    -0.000 C 
BRANCH  18  19
ATOM     19  C   UNL     1      31.348  34.216  -1.271  1.00  0.00    -0.003 C 
ATOM     20  C   UNL     1      32.078  32.877  -1.166  1.00  0.00     0.004 C 
ENDBRANCH  18  19
ENDBRANCH  17  18
ENDBRANCH  16  17
ENDBRANCH  15  16
ENDBRANCH  14  15
ENDBRANCH  13  14
ENDBRANCH  12  13
ENDBRANCH   1  12
TORSDOF 16
ENDMDL
