MODEL 1
REMARK VINA RESULT:    -4.429      0.000      0.000
REMARK INTER + INTRA:          -9.776
REMARK INTER:                  -8.054
REMARK INTRA:                  -1.722
REMARK UNBOUND:                -1.722
REMARK SMILES CCCCCCCCCCCCCCCC(=O)[O-]
REMARK SMILES IDX 9 1 10 2 11 3 12 4 13 5 14 6 15 7 16 8 17 9 18 10 8 11 7 12
REMARK SMILES IDX 6 13 5 14 4 15 3 16 2 17 1 18
REMARK H PARENT
REMARK Flexibility Score: inf
ROOT
ATOM      1  C   UNL     1       0.579  52.737  21.847  1.00  0.00     0.000 C 
ENDROOT
BRANCH   1   2
ATOM      2  C   UNL     1       0.567  51.199  21.971  1.00  0.00     0.000 C 
BRANCH   2   3
ATOM      3  C   UNL     1       1.721  50.472  21.257  1.00  0.00     0.000 C 
BRANCH   3   4
ATOM      4  C   UNL     1       2.071  49.122  21.906  1.00  0.00     0.000 C 
BRANCH   4   5
ATOM      5  C   UNL     1       0.942  48.084  21.777  1.00  0.00     0.000 C 
BRANCH   5   6
ATOM      6  C   UNL     1       0.118  47.848  23.057  1.00  0.00     0.006 C 
BRANCH   6   7
ATOM      7  C   UNL     1      -0.625  46.506  23.053  1.00  0.00     0.053 C 
BRANCH   7   8
ATOM      8  C   UNL     1      -1.352  46.308  24.345  1.00  0.00     0.041 C 
ATOM      9  O   UNL     1      -2.213  45.395  24.454  1.00  0.00    -0.550 OA
ATOM     10  O   UNL     1      -1.114  47.161  25.415  1.00  0.00    -0.550 OA
ENDBRANCH   7   8
ENDBRANCH   6   7
ENDBRANCH   5   6
ENDBRANCH   4   5
ENDBRANCH   3   4
ENDBRANCH   2   3
ENDBRANCH   1   2
BRANCH   1  11
ATOM     11  C   UNL     1       1.949  53.361  21.525  1.00  0.00     0.000 C 
BRANCH  11  12
ATOM     12  C   UNL     1       2.613  54.007  22.753  1.00  0.00    -0.000 C 
BRANCH  12  13
ATOM     13  C   UNL     1       3.246  52.970  23.694  1.00  0.00    -0.000 C 
BRANCH  13  14
ATOM     14  C   UNL     1       2.639  53.003  25.106  1.00  0.00    -0.000 C 
BRANCH  14  15
ATOM     15  C   UNL     1       1.729  51.790  25.340  1.00  0.00    -0.000 C 
BRANCH  15  16
ATOM     16  C   UNL     1       2.488  50.478  25.094  1.00  0.00    -0.000 C 
BRANCH  16  17
ATOM     17  C   UNL     1       2.026  49.345  26.025  1.00  0.00    -0.003 C 
ATOM     18  C   UNL     1       3.185  48.684  26.771  1.00  0.00     0.004 C 
ENDBRANCH  16  17
ENDBRANCH  15  16
ENDBRANCH  14  15
ENDBRANCH  13  14
ENDBRANCH  12  13
ENDBRANCH  11  12
ENDBRANCH   1  11
TORSDOF 14
ENDMDL
MODEL 2
REMARK VINA RESULT:    -4.343      2.397      4.398
REMARK INTER + INTRA:          -9.619
REMARK INTER:                  -8.186
REMARK INTRA:                  -1.433
REMARK UNBOUND:                -1.722
REMARK SMILES CCCCCCCCCCCCCCCC(=O)[O-]
REMARK SMILES IDX 9 1 10 2 11 3 12 4 13 5 14 6 15 7 16 8 17 9 18 10 8 11 7 12
REMARK SMILES IDX 6 13 5 14 4 15 3 16 2 17 1 18
REMARK H PARENT
REMARK Flexibility Score: inf
ROOT
ATOM      1  C   UNL     1       0.206  48.276  22.766  1.00  0.00     0.000 C 
ENDROOT
BRANCH   1   2
ATOM      2  C   UNL     1      -0.491  46.951  23.140  1.00  0.00     0.000 C 
BRANCH   2   3
ATOM      3  C   UNL     1      -0.507  46.617  24.643  1.00  0.00     0.000 C 
BRANCH   3   4
ATOM      4  C   UNL     1      -1.929  46.543  25.224  1.00  0.00     0.000 C 
BRANCH   4   5
ATOM      5  C   UNL     1      -2.873  45.659  24.389  1.00  0.00     0.000 C 
BRANCH   5   6
ATOM      6  C   UNL     1      -4.307  45.531  24.936  1.00  0.00     0.006 C 
BRANCH   6   7
ATOM      7  C   UNL     1      -5.252  44.801  23.974  1.00  0.00     0.053 C 
BRANCH   7   8
ATOM      8  C   UNL     1      -5.400  43.367  24.376  1.00  0.00     0.041 C 
ATOM      9  O   UNL     1      -6.504  42.941  24.808  1.00  0.00    -0.550 OA
ATOM     10  O   UNL     1      -4.307  42.513  24.318  1.00  0.00    -0.550 OA
ENDBRANCH   7   8
ENDBRANCH   6   7
ENDBRANCH   5   6
ENDBRANCH   4   5
ENDBRANCH   3   4
ENDBRANCH   2   3
ENDBRANCH   1   2
BRANCH   1  11
ATOM     11  C   UNL     1       1.318  48.159  21.709  1.00  0.00     0.000 C 
BRANCH  11  12
ATOM     12  C   UNL     1       2.111  49.466  21.530  1.00  0.00    -0.000 C 
BRANCH  12  13
ATOM     13  C   UNL     1       1.275  50.712  21.862  1.00  0.00    -0.000 C 
BRANCH  13  14
ATOM     14  C   UNL     1       2.090  51.798  22.582  1.00  0.00    -0.000 C 
BRANCH  14  15
ATOM     15  C   UNL     1       2.410  51.379  24.023  1.00  0.00    -0.000 C 
BRANCH  15  16
ATOM     16  C   UNL     1       1.125  51.238  24.852  1.00  0.00    -0.000 C 
BRANCH  16  17
ATOM     17  C   UNL     1       1.170  50.038  25.811  1.00  0.00    -0.003 C 
ATOM     18  C   UNL     1       2.486  49.265  25.729  1.00  0.00     0.004 C 
ENDBRANCH  16  17
ENDBRANCH  15  16
ENDBRANCH  14  15
ENDBRANCH  13  14
ENDBRANCH  12  13
ENDBRANCH  11  12
ENDBRANCH   1  11
TORSDOF 14
ENDMDL
MODEL 3
REMARK VINA RESULT:    -4.333      3.158      5.382
REMARK INTER + INTRA:          -9.601
REMARK INTER:                  -7.759
REMARK INTRA:                  -1.842
REMARK UNBOUND:                -1.722
REMARK SMILES CCCCCCCCCCCCCCCC(=O)[O-]
REMARK SMILES IDX 9 1 10 2 11 3 12 4 13 5 14 6 15 7 16 8 17 9 18 10 8 11 7 12
REMARK SMILES IDX 6 13 5 14 4 15 3 16 2 17 1 18
REMARK H PARENT
REMARK Flexibility Score: inf
ROOT
ATOM      1  C   UNL     1      -0.426  47.037  24.819  1.00  0.00     0.000 C 
ENDROOT
BRANCH   1   2
ATOM      2  C   UNL     1      -0.171  47.083  23.298  1.00  0.00     0.000 C 
BRANCH   2   3
ATOM      3  C   UNL     1       0.205  48.467  22.735  1.00  0.00     0.000 C 
BRANCH   3   4
ATOM      4  C   UNL     1       1.452  48.429  21.837  1.00  0.00     0.000 C 
BRANCH   4   5
ATOM      5  C   UNL     1       1.879  49.824  21.343  1.00  0.00     0.000 C 
BRANCH   5   6
ATOM      6  C   UNL     1       1.099  51.003  21.955  1.00  0.00     0.006 C 
BRANCH   6   7
ATOM      7  C   UNL     1       2.010  52.050  22.607  1.00  0.00     0.053 C 
BRANCH   7   8
ATOM      8  C   UNL     1       1.870  53.368  21.912  1.00  0.00     0.041 C 
ATOM      9  O   UNL     1       1.146  53.470  20.887  1.00  0.00    -0.550 OA
ATOM     10  O   UNL     1       2.578  54.472  22.369  1.00  0.00    -0.550 OA
ENDBRANCH   7   8
ENDBRANCH   6   7
ENDBRANCH   5   6
ENDBRANCH   4   5
ENDBRANCH   3   4
ENDBRANCH   2   3
ENDBRANCH   1   2
BRANCH   1  11
ATOM     11  C   UNL     1      -0.870  48.367  25.453  1.00  0.00     0.000 C 
BRANCH  11  12
ATOM     12  C   UNL     1       0.193  48.967  26.389  1.00  0.00    -0.000 C 
BRANCH  12  13
ATOM     13  C   UNL     1       1.006  50.086  25.719  1.00  0.00    -0.000 C 
BRANCH  13  14
ATOM     14  C   UNL     1       2.481  49.706  25.513  1.00  0.00    -0.000 C 
BRANCH  14  15
ATOM     15  C   UNL     1       2.887  48.558  26.446  1.00  0.00    -0.000 C 
BRANCH  15  16
ATOM     16  C   UNL     1       3.858  49.048  27.530  1.00  0.00    -0.000 C 
BRANCH  16  17
ATOM     17  C   UNL     1       3.152  49.359  28.859  1.00  0.00    -0.003 C 
ATOM     18  C   UNL     1       3.479  50.754  29.390  1.00  0.00     0.004 C 
ENDBRANCH  16  17
ENDBRANCH  15  16
ENDBRANCH  14  15
ENDBRANCH  13  14
ENDBRANCH  12  13
ENDBRANCH  11  12
ENDBRANCH   1  11
TORSDOF 14
ENDMDL
MODEL 4
REMARK VINA RESULT:    -4.316      2.249      5.252
REMARK INTER + INTRA:          -9.570
REMARK INTER:                  -7.673
REMARK INTRA:                  -1.897
REMARK UNBOUND:                -1.722
REMARK SMILES CCCCCCCCCCCCCCCC(=O)[O-]
REMARK SMILES IDX 9 1 10 2 11 3 12 4 13 5 14 6 15 7 16 8 17 9 18 10 8 11 7 12
REMARK SMILES IDX 6 13 5 14 4 15 3 16 2 17 1 18
REMARK H PARENT
REMARK Flexibility Score: inf
ROOT
ATOM      1  C   UNL     1       1.916  50.369  21.273  1.00  0.00     0.000 C 
ENDROOT
BRANCH   1   2
ATOM      2  C   UNL     1       1.622  51.560  22.209  1.00  0.00     0.000 C 
BRANCH   2   3
ATOM      3  C   UNL     1       2.463  51.606  23.499  1.00  0.00     0.000 C 
BRANCH   3   4
ATOM      4  C   UNL     1       1.605  51.753  24.767  1.00  0.00     0.000 C 
BRANCH   4   5
ATOM      5  C   UNL     1       2.189  50.998  25.976  1.00  0.00     0.000 C 
BRANCH   5   6
ATOM      6  C   UNL     1       2.502  49.510  25.732  1.00  0.00     0.006 C 
BRANCH   6   7
ATOM      7  C   UNL     1       3.451  48.918  26.781  1.00  0.00     0.053 C 
BRANCH   7   8
ATOM      8  C   UNL     1       2.990  49.271  28.160  1.00  0.00     0.041 C 
ATOM      9  O   UNL     1       3.736  49.936  28.926  1.00  0.00    -0.550 OA
ATOM     10  O   UNL     1       1.756  48.826  28.616  1.00  0.00    -0.550 OA
ENDBRANCH   7   8
ENDBRANCH   6   7
ENDBRANCH   5   6
ENDBRANCH   4   5
ENDBRANCH   3   4
ENDBRANCH   2   3
ENDBRANCH   1   2
BRANCH   1  11
ATOM     11  C   UNL     1       2.099  49.010  21.973  1.00  0.00     0.000 C 
BRANCH  11  12
ATOM     12  C   UNL     1       0.993  48.002  21.617  1.00  0.00    -0.000 C 
BRANCH  12  13
ATOM     13  C   UNL     1       0.101  47.658  22.821  1.00  0.00    -0.000 C 
BRANCH  13  14
ATOM     14  C   UNL     1      -0.509  48.903  23.482  1.00  0.00    -0.000 C 
BRANCH  14  15
ATOM     15  C   UNL     1      -0.928  48.607  24.928  1.00  0.00    -0.000 C 
BRANCH  15  16
ATOM     16  C   UNL     1      -0.924  47.097  25.203  1.00  0.00    -0.000 C 
BRANCH  16  17
ATOM     17  C   UNL     1      -2.340  46.523  25.368  1.00  0.00    -0.003 C 
ATOM     18  C   UNL     1      -2.708  45.533  24.263  1.00  0.00     0.004 C 
ENDBRANCH  16  17
ENDBRANCH  15  16
ENDBRANCH  14  15
ENDBRANCH  13  14
ENDBRANCH  12  13
ENDBRANCH  11  12
ENDBRANCH   1  11
TORSDOF 14
ENDMDL
MODEL 5
REMARK VINA RESULT:    -4.290      2.822      5.202
REMARK INTER + INTRA:          -9.524
REMARK INTER:                  -7.636
REMARK INTRA:                  -1.887
REMARK UNBOUND:                -1.722
REMARK SMILES CCCCCCCCCCCCCCCC(=O)[O-]
REMARK SMILES IDX 9 1 10 2 11 3 12 4 13 5 14 6 15 7 16 8 17 9 18 10 8 11 7 12
REMARK SMILES IDX 6 13 5 14 4 15 3 16 2 17 1 18
REMARK H PARENT
REMARK Flexibility Score: inf
ROOT
ATOM      1  C   UNL     1       2.810  52.714  24.162  1.00  0.00     0.000 C 
ENDROOT
BRANCH   1   2
ATOM      2  C   UNL     1       2.694  51.505  25.113  1.00  0.00     0.000 C 
BRANCH   2   3
ATOM      3  C   UNL     1       1.316  51.317  25.774  1.00  0.00     0.000 C 
BRANCH   3   4
ATOM      4  C   UNL     1       0.896  49.841  25.872  1.00  0.00     0.000 C 
BRANCH   4   5
ATOM      5  C   UNL     1       2.091  48.889  26.068  1.00  0.00     0.000 C 
BRANCH   5   6
ATOM      6  C   UNL     1       2.417  48.538  27.531  1.00  0.00     0.006 C 
BRANCH   6   7
ATOM      7  C   UNL     1       3.687  49.228  28.044  1.00  0.00     0.053 C 
BRANCH   7   8
ATOM      8  C   UNL     1       3.357  50.167  29.161  1.00  0.00     0.041 C 
ATOM      9  O   UNL     1       3.010  51.352  28.911  1.00  0.00    -0.550 OA
ATOM     10  O   UNL     1       3.478  49.748  30.480  1.00  0.00    -0.550 OA
ENDBRANCH   7   8
ENDBRANCH   6   7
ENDBRANCH   5   6
ENDBRANCH   4   5
ENDBRANCH   3   4
ENDBRANCH   2   3
ENDBRANCH   1   2
BRANCH   1  11
ATOM     11  C   UNL     1       2.817  52.373  22.661  1.00  0.00     0.000 C 
BRANCH  11  12
ATOM     12  C   UNL     1       1.420  52.021  22.122  1.00  0.00    -0.000 C 
BRANCH  12  13
ATOM     13  C   UNL     1       1.408  50.702  21.333  1.00  0.00    -0.000 C 
BRANCH  13  14
ATOM     14  C   UNL     1       1.983  49.525  22.137  1.00  0.00    -0.000 C 
BRANCH  14  15
ATOM     15  C   UNL     1       1.146  48.256  21.928  1.00  0.00    -0.000 C 
BRANCH  15  16
ATOM     16  C   UNL     1       0.024  48.159  22.972  1.00  0.00    -0.000 C 
BRANCH  16  17
ATOM     17  C   UNL     1      -0.494  46.724  23.152  1.00  0.00    -0.003 C 
ATOM     18  C   UNL     1      -0.448  46.257  24.606  1.00  0.00     0.004 C 
ENDBRANCH  16  17
ENDBRANCH  15  16
ENDBRANCH  14  15
ENDBRANCH  13  14
ENDBRANCH  12  13
ENDBRANCH  11  12
ENDBRANCH   1  11
TORSDOF 14
ENDMDL
MODEL 6
REMARK VINA RESULT:    -4.257      1.452      2.613
REMARK INTER + INTRA:          -9.462
REMARK INTER:                  -7.910
REMARK INTRA:                  -1.552
REMARK UNBOUND:                -1.722
REMARK SMILES CCCCCCCCCCCCCCCC(=O)[O-]
REMARK SMILES IDX 9 1 10 2 11 3 12 4 13 5 14 6 15 7 16 8 17 9 18 10 8 11 7 12
REMARK SMILES IDX 6 13 5 14 4 15 3 16 2 17 1 18
REMARK H PARENT
REMARK Flexibility Score: inf
ROOT
ATOM      1  C   UNL     1       1.461  51.631  22.213  1.00  0.00     0.000 C 
ENDROOT
BRANCH   1   2
ATOM      2  C   UNL     1       1.696  50.420  21.285  1.00  0.00     0.000 C 
BRANCH   2   3
ATOM      3  C   UNL     1       1.976  49.086  22.002  1.00  0.00     0.000 C 
BRANCH   3   4
ATOM      4  C   UNL     1       1.205  47.905  21.388  1.00  0.00     0.000 C 
BRANCH   4   5
ATOM      5  C   UNL     1       0.201  47.271  22.368  1.00  0.00     0.000 C 
BRANCH   5   6
ATOM      6  C   UNL     1      -0.100  48.102  23.629  1.00  0.00     0.006 C 
BRANCH   6   7
ATOM      7  C   UNL     1      -0.220  47.246  24.896  1.00  0.00     0.053 C 
BRANCH   7   8
ATOM      8  C   UNL     1      -1.628  46.775  25.077  1.00  0.00     0.041 C 
ATOM      9  O   UNL     1      -2.429  47.432  25.794  1.00  0.00    -0.550 OA
ATOM     10  O   UNL     1      -2.045  45.586  24.492  1.00  0.00    -0.550 OA
ENDBRANCH   7   8
ENDBRANCH   6   7
ENDBRANCH   5   6
ENDBRANCH   4   5
ENDBRANCH   3   4
ENDBRANCH   2   3
ENDBRANCH   1   2
BRANCH   1  11
ATOM     11  C   UNL     1       2.303  51.647  23.501  1.00  0.00     0.000 C 
BRANCH  11  12
ATOM     12  C   UNL     1       1.462  51.408  24.767  1.00  0.00    -0.000 C 
BRANCH  12  13
ATOM     13  C   UNL     1       2.290  50.825  25.923  1.00  0.00    -0.000 C 
BRANCH  13  14
ATOM     14  C   UNL     1       2.666  49.352  25.700  1.00  0.00    -0.000 C 
BRANCH  14  15
ATOM     15  C   UNL     1       2.718  48.591  27.031  1.00  0.00    -0.000 C 
BRANCH  15  16
ATOM     16  C   UNL     1       3.704  49.253  28.004  1.00  0.00    -0.000 C 
BRANCH  16  17
ATOM     17  C   UNL     1       3.031  49.712  29.306  1.00  0.00    -0.003 C 
ATOM     18  C   UNL     1       3.860  50.746  30.068  1.00  0.00     0.004 C 
ENDBRANCH  16  17
ENDBRANCH  15  16
ENDBRANCH  14  15
ENDBRANCH  13  14
ENDBRANCH  12  13
ENDBRANCH  11  12
ENDBRANCH   1  11
TORSDOF 14
ENDMDL
MODEL 7
REMARK VINA RESULT:    -4.189      3.800      5.936
REMARK INTER + INTRA:          -9.340
REMARK INTER:                  -7.194
REMARK INTRA:                  -2.146
REMARK UNBOUND:                -1.722
REMARK SMILES CCCCCCCCCCCCCCCC(=O)[O-]
REMARK SMILES IDX 9 1 10 2 11 3 12 4 13 5 14 6 15 7 16 8 17 9 18 10 8 11 7 12
REMARK SMILES IDX 6 13 5 14 4 15 3 16 2 17 1 18
REMARK H PARENT
REMARK Flexibility Score: inf
ROOT
ATOM      1  C   UNL     1       0.690  48.113  21.969  1.00  0.00     0.000 C 
ENDROOT
BRANCH   1   2
ATOM      2  C   UNL     1       2.060  48.811  22.105  1.00  0.00     0.000 C 
BRANCH   2   3
ATOM      3  C   UNL     1       2.172  50.183  21.416  1.00  0.00     0.000 C 
BRANCH   3   4
ATOM      4  C   UNL     1       1.052  51.153  21.829  1.00  0.00     0.000 C 
BRANCH   4   5
ATOM      5  C   UNL     1       1.533  52.611  21.943  1.00  0.00     0.000 C 
BRANCH   5   6
ATOM      6  C   UNL     1       2.852  52.809  22.715  1.00  0.00     0.006 C 
BRANCH   6   7
ATOM      7  C   UNL     1       2.818  54.019  23.656  1.00  0.00     0.053 C 
BRANCH   7   8
ATOM      8  C   UNL     1       3.467  55.202  23.009  1.00  0.00     0.041 C 
ATOM      9  O   UNL     1       4.192  55.049  21.990  1.00  0.00    -0.550 OA
ATOM     10  O   UNL     1       3.311  56.468  23.559  1.00  0.00    -0.550 OA
ENDBRANCH   7   8
ENDBRANCH   6   7
ENDBRANCH   5   6
ENDBRANCH   4   5
ENDBRANCH   3   4
ENDBRANCH   2   3
ENDBRANCH   1   2
BRANCH   1  11
ATOM     11  C   UNL     1       0.005  47.743  23.296  1.00  0.00     0.000 C 
BRANCH  11  12
ATOM     12  C   UNL     1      -0.889  48.870  23.842  1.00  0.00    -0.000 C 
BRANCH  12  13
ATOM     13  C   UNL     1      -0.447  49.351  25.233  1.00  0.00    -0.000 C 
BRANCH  13  14
ATOM     14  C   UNL     1      -0.343  50.881  25.327  1.00  0.00    -0.000 C 
BRANCH  14  15
ATOM     15  C   UNL     1       1.099  51.317  25.617  1.00  0.00    -0.000 C 
BRANCH  15  16
ATOM     16  C   UNL     1       2.087  50.179  25.321  1.00  0.00    -0.000 C 
BRANCH  16  17
ATOM     17  C   UNL     1       2.923  49.788  26.550  1.00  0.00    -0.003 C 
ATOM     18  C   UNL     1       2.686  48.344  26.990  1.00  0.00     0.004 C 
ENDBRANCH  16  17
ENDBRANCH  15  16
ENDBRANCH  14  15
ENDBRANCH  13  14
ENDBRANCH  12  13
ENDBRANCH  11  12
ENDBRANCH   1  11
TORSDOF 14
ENDMDL
MODEL 8
REMARK VINA RESULT:    -4.189      1.773      3.154
REMARK INTER + INTRA:          -9.338
REMARK INTER:                  -7.478
REMARK INTRA:                  -1.861
REMARK UNBOUND:                -1.722
REMARK SMILES CCCCCCCCCCCCCCCC(=O)[O-]
REMARK SMILES IDX 9 1 10 2 11 3 12 4 13 5 14 6 15 7 16 8 17 9 18 10 8 11 7 12
REMARK SMILES IDX 6 13 5 14 4 15 3 16 2 17 1 18
REMARK H PARENT
REMARK Flexibility Score: inf
ROOT
ATOM      1  C   UNL     1       1.003  48.660  21.553  1.00  0.00     0.000 C 
ENDROOT
BRANCH   1   2
ATOM      2  C   UNL     1       0.483  47.909  22.796  1.00  0.00     0.000 C 
BRANCH   2   3
ATOM      3  C   UNL     1      -0.609  48.640  23.598  1.00  0.00     0.000 C 
BRANCH   3   4
ATOM      4  C   UNL     1      -1.147  47.806  24.774  1.00  0.00     0.000 C 
BRANCH   4   5
ATOM      5  C   UNL     1      -0.982  46.291  24.560  1.00  0.00     0.000 C 
BRANCH   5   6
ATOM      6  C   UNL     1      -2.295  45.509  24.367  1.00  0.00     0.006 C 
BRANCH   6   7
ATOM      7  C   UNL     1      -3.471  46.113  25.142  1.00  0.00     0.053 C 
BRANCH   7   8
ATOM      8  C   UNL     1      -4.771  45.651  24.563  1.00  0.00     0.041 C 
ATOM      9  O   UNL     1      -5.100  44.437  24.633  1.00  0.00    -0.550 OA
ATOM     10  O   UNL     1      -5.598  46.551  23.903  1.00  0.00    -0.550 OA
ENDBRANCH   7   8
ENDBRANCH   6   7
ENDBRANCH   5   6
ENDBRANCH   4   5
ENDBRANCH   3   4
ENDBRANCH   2   3
ENDBRANCH   1   2
BRANCH   1  11
ATOM     11  C   UNL     1       2.142  49.662  21.818  1.00  0.00     0.000 C 
BRANCH  11  12
ATOM     12  C   UNL     1       1.628  51.075  22.145  1.00  0.00    -0.000 C 
BRANCH  12  13
ATOM     13  C   UNL     1       2.719  51.972  22.752  1.00  0.00    -0.000 C 
BRANCH  13  14
ATOM     14  C   UNL     1       2.732  51.933  24.288  1.00  0.00    -0.000 C 
BRANCH  14  15
ATOM     15  C   UNL     1       1.323  51.689  24.843  1.00  0.00    -0.000 C 
BRANCH  15  16
ATOM     16  C   UNL     1       1.345  50.624  25.948  1.00  0.00    -0.000 C 
BRANCH  16  17
ATOM     17  C   UNL     1       2.481  49.604  25.765  1.00  0.00    -0.003 C 
ATOM     18  C   UNL     1       2.250  48.315  26.551  1.00  0.00     0.004 C 
ENDBRANCH  16  17
ENDBRANCH  15  16
ENDBRANCH  14  15
ENDBRANCH  13  14
ENDBRANCH  12  13
ENDBRANCH  11  12
ENDBRANCH   1  11
TORSDOF 14
ENDMDL
MODEL 9
REMARK VINA RESULT:    -4.121      1.602      3.267
REMARK INTER + INTRA:          -9.215
REMARK INTER:                  -7.169
REMARK INTRA:                  -2.046
REMARK UNBOUND:                -1.722
REMARK SMILES CCCCCCCCCCCCCCCC(=O)[O-]
REMARK SMILES IDX 9 1 10 2 11 3 12 4 13 5 14 6 15 7 16 8 17 9 18 10 8 11 7 12
REMARK SMILES IDX 6 13 5 14 4 15 3 16 2 17 1 18
REMARK H PARENT
REMARK Flexibility Score: inf
ROOT
ATOM      1  C   UNL     1       2.021  49.934  23.983  1.00  0.00     0.000 C 
ENDROOT
BRANCH   1   2
ATOM      2  C   UNL     1       2.107  49.509  22.502  1.00  0.00     0.000 C 
BRANCH   2   3
ATOM      3  C   UNL     1       0.967  48.596  22.012  1.00  0.00     0.000 C 
BRANCH   3   4
ATOM      4  C   UNL     1      -0.057  48.275  23.113  1.00  0.00     0.000 C 
BRANCH   4   5
ATOM      5  C   UNL     1      -0.490  46.797  23.116  1.00  0.00     0.000 C 
BRANCH   5   6
ATOM      6  C   UNL     1      -0.797  46.206  24.505  1.00  0.00     0.006 C 
BRANCH   6   7
ATOM      7  C   UNL     1      -2.153  46.657  25.062  1.00  0.00     0.053 C 
BRANCH   7   8
ATOM      8  C   UNL     1      -3.239  45.736  24.601  1.00  0.00     0.041 C 
ATOM      9  O   UNL     1      -4.441  46.110  24.631  1.00  0.00    -0.550 OA
ATOM     10  O   UNL     1      -2.928  44.449  24.183  1.00  0.00    -0.550 OA
ENDBRANCH   7   8
ENDBRANCH   6   7
ENDBRANCH   5   6
ENDBRANCH   4   5
ENDBRANCH   3   4
ENDBRANCH   2   3
ENDBRANCH   1   2
BRANCH   1  11
ATOM     11  C   UNL     1       2.380  51.404  24.267  1.00  0.00     0.000 C 
BRANCH  11  12
ATOM     12  C   UNL     1       2.969  52.122  23.041  1.00  0.00    -0.000 C 
BRANCH  12  13
ATOM     13  C   UNL     1       2.093  53.293  22.568  1.00  0.00    -0.000 C 
BRANCH  13  14
ATOM     14  C   UNL     1       1.037  52.864  21.536  1.00  0.00    -0.000 C 
BRANCH  14  15
ATOM     15  C   UNL     1      -0.379  53.167  22.043  1.00  0.00    -0.000 C 
BRANCH  15  16
ATOM     16  C   UNL     1      -0.972  51.954  22.774  1.00  0.00    -0.000 C 
BRANCH  16  17
ATOM     17  C   UNL     1      -1.361  52.272  24.226  1.00  0.00    -0.003 C 
ATOM     18  C   UNL     1      -1.282  51.049  25.140  1.00  0.00     0.004 C 
ENDBRANCH  16  17
ENDBRANCH  15  16
ENDBRANCH  14  15
ENDBRANCH  13  14
ENDBRANCH  12  13
ENDBRANCH  11  12
ENDBRANCH   1  11
TORSDOF 14
ENDMDL
