MODEL 1
REMARK VINA RESULT:   101.002      0.000      0.000
REMARK INTER + INTRA:         110.359
REMARK INTER:                 109.859
REMARK INTRA:                   0.500
REMARK UNBOUND:                 0.500
REMARK SMILES C[C@@H]1[C@H]2C3=CC[C@H]4[C@]5(C)CC[C@@H](O)C(C)(C)[C@H]5CC[C@]4(C)[C@@]3(C)CC[C@@]2(C(=O)[O-])CC[C@@H]1C
REMARK SMILES IDX 26 1 30 2 25 3 3 4 31 5 24 6 4 7 2 8 32 9 22 10 5 11 1 12
REMARK SMILES IDX 33 13 23 14 20 15 6 16 7 17 19 18 21 19 8 20 18 21 17 22
REMARK SMILES IDX 10 23 9 24 14 25 11 26 12 27 15 28 16 29 27 30 28 31 29 32
REMARK SMILES IDX 13 33
REMARK H PARENT 13 34
REMARK Flexibility Score: inf
ROOT
ATOM      1  C   UNL     1       3.871 -24.911  -5.426  1.00  0.00     0.017 C 
ATOM      2  C   UNL     1       4.855 -26.089  -5.156  1.00  0.00     0.014 C 
ATOM      3  C   UNL     1       3.460 -24.251  -4.059  1.00  0.00     0.014 C 
ATOM      4  C   UNL     1       2.628 -25.403  -6.265  1.00  0.00     0.030 C 
ATOM      5  C   UNL     1       4.178 -27.334  -4.582  1.00  0.00     0.004 C 
ATOM      6  C   UNL     1       1.980 -23.836  -3.917  1.00  0.00     0.013 C 
ATOM      7  C   UNL     1       1.566 -24.293  -6.370  1.00  0.00    -0.063 C 
ATOM      8  C   UNL     1       2.011 -26.756  -5.765  1.00  0.00    -0.003 C 
ATOM      9  C   UNL     1       3.081 -27.856  -5.513  1.00  0.00    -0.011 C 
ATOM     10  C   UNL     1       1.323 -23.304  -5.227  1.00  0.00    -0.006 C 
ATOM     11  C   UNL     1       0.838 -24.177  -7.507  1.00  0.00    -0.027 C 
ATOM     12  C   UNL     1       0.929 -27.298  -6.723  1.00  0.00     0.008 C 
ATOM     13  C   UNL     1       3.680 -28.464  -6.801  1.00  0.00     0.008 C 
ATOM     14  C   UNL     1       2.061 -21.967  -5.607  1.00  0.00     0.017 C 
ATOM     15  C   UNL     1      -0.269 -23.101  -5.077  1.00  0.00    -0.020 C 
ATOM     16  C   UNL     1      -0.332 -23.226  -7.689  1.00  0.00     0.032 C 
ATOM     17  C   UNL     1      -0.774 -22.431  -6.415  1.00  0.00     0.006 C 
ATOM     18  C   UNL     1      -0.626 -22.192  -3.855  1.00  0.00     0.008 C 
ATOM     19  C   UNL     1      -0.986 -24.476  -4.857  1.00  0.00     0.012 C 
ATOM     20  C   UNL     1      -2.274 -21.913  -6.422  1.00  0.00    -0.025 C 
ATOM     21  C   UNL     1      -2.076 -21.668  -3.849  1.00  0.00     0.005 C 
ATOM     22  C   UNL     1      -2.434 -20.952  -5.179  1.00  0.00     0.003 C 
ATOM     23  C   UNL     1      -2.489 -21.065  -7.715  1.00  0.00     0.010 C 
ATOM     24  C   UNL     1      -3.299 -23.096  -6.423  1.00  0.00     0.012 C 
ATOM     25  C   UNL     1      -3.759 -20.088  -5.141  1.00  0.00    -0.006 C 
ATOM     26  C   UNL     1      -3.791 -20.251  -7.719  1.00  0.00     0.033 C 
ATOM     27  C   UNL     1      -3.899 -19.327  -6.499  1.00  0.00     0.120 C 
ATOM     28  C   UNL     1      -3.652 -19.011  -4.025  1.00  0.00     0.014 C 
ATOM     29  C   UNL     1      -5.030 -20.924  -4.841  1.00  0.00     0.014 C 
ENDROOT
BRANCH   1  30
ATOM     30  C   UNL     1       4.670 -23.893  -6.243  1.00  0.00     0.048 C 
ATOM     31  O   UNL     1       4.627 -22.668  -5.943  1.00  0.00    -0.550 OA
ATOM     32  O   UNL     1       5.456 -24.285  -7.323  1.00  0.00    -0.550 OA
ENDBRANCH   1  30
BRANCH  27  33
ATOM     33  O   UNL     1      -5.123 -18.635  -6.549  1.00  0.00    -0.393 OA
ATOM     34  H   UNL     1      -5.057 -17.983  -7.296  1.00  0.00     0.210 HD
ENDBRANCH  27  33
TORSDOF 2
ENDMDL
MODEL 2
REMARK VINA RESULT:   103.631     13.262     16.865
REMARK INTER + INTRA:         113.219
REMARK INTER:                 113.424
REMARK INTRA:                  -0.206
REMARK UNBOUND:                 0.500
REMARK SMILES C[C@@H]1[C@H]2C3=CC[C@H]4[C@]5(C)CC[C@@H](O)C(C)(C)[C@H]5CC[C@]4(C)[C@@]3(C)CC[C@@]2(C(=O)[O-])CC[C@@H]1C
REMARK SMILES IDX 26 1 30 2 25 3 3 4 31 5 24 6 4 7 2 8 32 9 22 10 5 11 1 12
REMARK SMILES IDX 33 13 23 14 20 15 6 16 7 17 19 18 21 19 8 20 18 21 17 22
REMARK SMILES IDX 10 23 9 24 14 25 11 26 12 27 15 28 16 29 27 30 28 31 29 32
REMARK SMILES IDX 13 33
REMARK H PARENT 13 34
REMARK Flexibility Score: inf
ROOT
ATOM      1  C   UNL     1      -1.592 -14.626   3.608  1.00  0.00     0.017 C 
ATOM      2  C   UNL     1      -2.538 -14.281   2.419  1.00  0.00     0.014 C 
ATOM      3  C   UNL     1      -2.237 -14.118   4.950  1.00  0.00     0.014 C 
ATOM      4  C   UNL     1      -0.149 -14.038   3.363  1.00  0.00     0.030 C 
ATOM      5  C   UNL     1      -2.532 -12.799   2.040  1.00  0.00     0.004 C 
ATOM      6  C   UNL     1      -1.273 -13.479   5.972  1.00  0.00     0.013 C 
ATOM      7  C   UNL     1       0.731 -14.211   4.614  1.00  0.00    -0.063 C 
ATOM      8  C   UNL     1      -0.138 -12.559   2.841  1.00  0.00    -0.003 C 
ATOM      9  C   UNL     1      -1.127 -12.322   1.665  1.00  0.00    -0.011 C 
ATOM     10  C   UNL     1       0.144 -14.126   6.026  1.00  0.00    -0.006 C 
ATOM     11  C   UNL     1       2.055 -14.459   4.466  1.00  0.00    -0.027 C 
ATOM     12  C   UNL     1       1.274 -12.090   2.430  1.00  0.00     0.008 C 
ATOM     13  C   UNL     1      -0.668 -12.928   0.319  1.00  0.00     0.008 C 
ATOM     14  C   UNL     1      -0.037 -15.601   6.541  1.00  0.00     0.017 C 
ATOM     15  C   UNL     1       1.170 -13.282   6.939  1.00  0.00    -0.020 C 
ATOM     16  C   UNL     1       3.057 -14.508   5.605  1.00  0.00     0.032 C 
ATOM     17  C   UNL     1       2.508 -14.118   7.019  1.00  0.00     0.006 C 
ATOM     18  C   UNL     1       0.604 -13.040   8.377  1.00  0.00     0.008 C 
ATOM     19  C   UNL     1       1.448 -11.875   6.308  1.00  0.00     0.012 C 
ATOM     20  C   UNL     1       3.595 -13.610   8.056  1.00  0.00    -0.025 C 
ATOM     21  C   UNL     1       1.647 -12.558   9.403  1.00  0.00     0.005 C 
ATOM     22  C   UNL     1       2.878 -13.502   9.459  1.00  0.00     0.003 C 
ATOM     23  C   UNL     1       4.707 -14.702   8.168  1.00  0.00     0.010 C 
ATOM     24  C   UNL     1       4.257 -12.268   7.596  1.00  0.00     0.012 C 
ATOM     25  C   UNL     1       3.830 -13.294  10.706  1.00  0.00    -0.006 C 
ATOM     26  C   UNL     1       5.669 -14.495   9.346  1.00  0.00     0.033 C 
ATOM     27  C   UNL     1       4.929 -14.405  10.688  1.00  0.00     0.120 C 
ATOM     28  C   UNL     1       3.020 -13.477  12.020  1.00  0.00     0.014 C 
ATOM     29  C   UNL     1       4.469 -11.882  10.763  1.00  0.00     0.014 C 
ENDROOT
BRANCH   1  30
ATOM     30  C   UNL     1      -1.525 -16.154   3.642  1.00  0.00     0.048 C 
ATOM     31  O   UNL     1      -0.693 -16.767   2.917  1.00  0.00    -0.550 OA
ATOM     32  O   UNL     1      -2.366 -16.901   4.463  1.00  0.00    -0.550 OA
ENDBRANCH   1  30
BRANCH  27  33
ATOM     33  O   UNL     1       5.863 -14.188  11.718  1.00  0.00    -0.393 OA
ATOM     34  H   UNL     1       5.534 -14.679  12.516  1.00  0.00     0.210 HD
ENDBRANCH  27  33
TORSDOF 2
ENDMDL
