MODEL 1
REMARK VINA RESULT:    -3.698      0.000      0.000
REMARK INTER + INTRA:          -8.541
REMARK INTER:                  -6.725
REMARK INTRA:                  -1.816
REMARK UNBOUND:                -1.816
REMARK SMILES CCCCCCCCCCCCCCCC(=O)[O-]
REMARK SMILES IDX 9 1 10 2 11 3 12 4 13 5 14 6 15 7 16 8 17 9 18 10 8 11 7 12
REMARK SMILES IDX 6 13 5 14 4 15 3 16 2 17 1 18
REMARK H PARENT
REMARK Flexibility Score: inf
ROOT
ATOM      1  C   UNL     1      21.602   2.400  23.629  1.00  0.00     0.000 C 
ENDROOT
BRANCH   1   2
ATOM      2  C   UNL     1      21.250   3.852  23.998  1.00  0.00     0.000 C 
BRANCH   2   3
ATOM      3  C   UNL     1      19.764   4.032  24.350  1.00  0.00     0.000 C 
BRANCH   3   4
ATOM      4  C   UNL     1      19.319   5.505  24.301  1.00  0.00     0.000 C 
BRANCH   4   5
ATOM      5  C   UNL     1      20.406   6.466  24.808  1.00  0.00     0.000 C 
BRANCH   5   6
ATOM      6  C   UNL     1      19.849   7.853  25.166  1.00  0.00     0.006 C 
BRANCH   6   7
ATOM      7  C   UNL     1      19.192   8.510  23.948  1.00  0.00     0.053 C 
BRANCH   7   8
ATOM      8  C   UNL     1      20.215   9.221  23.121  1.00  0.00     0.041 C 
ATOM      9  O   UNL     1      21.286   9.622  23.646  1.00  0.00    -0.550 OA
ATOM     10  O   UNL     1      20.011   9.392  21.757  1.00  0.00    -0.550 OA
ENDBRANCH   7   8
ENDBRANCH   6   7
ENDBRANCH   5   6
ENDBRANCH   4   5
ENDBRANCH   3   4
ENDBRANCH   2   3
ENDBRANCH   1   2
BRANCH   1  11
ATOM     11  C   UNL     1      21.046   1.385  24.641  1.00  0.00     0.000 C 
BRANCH  11  12
ATOM     12  C   UNL     1      21.751   1.461  26.006  1.00  0.00    -0.000 C 
BRANCH  12  13
ATOM     13  C   UNL     1      20.804   1.903  27.133  1.00  0.00    -0.000 C 
BRANCH  13  14
ATOM     14  C   UNL     1      21.477   2.866  28.125  1.00  0.00    -0.000 C 
BRANCH  14  15
ATOM     15  C   UNL     1      21.659   4.282  27.553  1.00  0.00    -0.000 C 
BRANCH  15  16
ATOM     16  C   UNL     1      23.094   4.831  27.706  1.00  0.00    -0.000 C 
BRANCH  16  17
ATOM     17  C   UNL     1      24.144   3.711  27.735  1.00  0.00    -0.003 C 
ATOM     18  C   UNL     1      24.860   3.591  26.392  1.00  0.00     0.004 C 
ENDBRANCH  16  17
ENDBRANCH  15  16
ENDBRANCH  14  15
ENDBRANCH  13  14
ENDBRANCH  12  13
ENDBRANCH  11  12
ENDBRANCH   1  11
TORSDOF 14
ENDMDL
MODEL 2
REMARK VINA RESULT:    -3.694      1.561      3.645
REMARK INTER + INTRA:          -8.533
REMARK INTER:                  -6.076
REMARK INTRA:                  -2.457
REMARK UNBOUND:                -1.816
REMARK SMILES CCCCCCCCCCCCCCCC(=O)[O-]
REMARK SMILES IDX 9 1 10 2 11 3 12 4 13 5 14 6 15 7 16 8 17 9 18 10 8 11 7 12
REMARK SMILES IDX 6 13 5 14 4 15 3 16 2 17 1 18
REMARK H PARENT
REMARK Flexibility Score: inf
ROOT
ATOM      1  C   UNL     1      23.785   3.582  26.418  1.00  0.00     0.000 C 
ENDROOT
BRANCH   1   2
ATOM      2  C   UNL     1      23.566   4.942  27.103  1.00  0.00     0.000 C 
BRANCH   2   3
ATOM      3  C   UNL     1      22.204   5.039  27.810  1.00  0.00     0.000 C 
BRANCH   3   4
ATOM      4  C   UNL     1      21.482   6.367  27.525  1.00  0.00     0.000 C 
BRANCH   4   5
ATOM      5  C   UNL     1      22.453   7.494  27.135  1.00  0.00     0.000 C 
BRANCH   5   6
ATOM      6  C   UNL     1      21.797   8.557  26.241  1.00  0.00     0.006 C 
BRANCH   6   7
ATOM      7  C   UNL     1      20.534   8.005  25.570  1.00  0.00     0.053 C 
BRANCH   7   8
ATOM      8  C   UNL     1      20.477   8.424  24.136  1.00  0.00     0.041 C 
ATOM      9  O   UNL     1      21.106   9.445  23.749  1.00  0.00    -0.550 OA
ATOM     10  O   UNL     1      19.775   7.658  23.214  1.00  0.00    -0.550 OA
ENDBRANCH   7   8
ENDBRANCH   6   7
ENDBRANCH   5   6
ENDBRANCH   4   5
ENDBRANCH   3   4
ENDBRANCH   2   3
ENDBRANCH   1   2
BRANCH   1  11
ATOM     11  C   UNL     1      22.716   2.549  26.806  1.00  0.00     0.000 C 
BRANCH  11  12
ATOM     12  C   UNL     1      22.074   1.870  25.584  1.00  0.00    -0.000 C 
BRANCH  12  13
ATOM     13  C   UNL     1      22.497   2.524  24.259  1.00  0.00    -0.000 C 
BRANCH  13  14
ATOM     14  C   UNL     1      21.326   3.214  23.541  1.00  0.00    -0.000 C 
BRANCH  14  15
ATOM     15  C   UNL     1      20.845   4.483  24.265  1.00  0.00    -0.000 C 
BRANCH  15  16
ATOM     16  C   UNL     1      19.345   4.458  24.626  1.00  0.00    -0.000 C 
BRANCH  16  17
ATOM     17  C   UNL     1      19.098   3.923  26.044  1.00  0.00    -0.003 C 
ATOM     18  C   UNL     1      18.563   2.493  26.007  1.00  0.00     0.004 C 
ENDBRANCH  16  17
ENDBRANCH  15  16
ENDBRANCH  14  15
ENDBRANCH  13  14
ENDBRANCH  12  13
ENDBRANCH  11  12
ENDBRANCH   1  11
TORSDOF 14
ENDMDL
MODEL 3
REMARK VINA RESULT:    -3.652      1.610      2.468
REMARK INTER + INTRA:          -8.458
REMARK INTER:                  -6.032
REMARK INTRA:                  -2.426
REMARK UNBOUND:                -1.816
REMARK SMILES CCCCCCCCCCCCCCCC(=O)[O-]
REMARK SMILES IDX 9 1 10 2 11 3 12 4 13 5 14 6 15 7 16 8 17 9 18 10 8 11 7 12
REMARK SMILES IDX 6 13 5 14 4 15 3 16 2 17 1 18
REMARK H PARENT
REMARK Flexibility Score: inf
ROOT
ATOM      1  C   UNL     1      21.031   1.105  24.401  1.00  0.00     0.000 C 
ENDROOT
BRANCH   1   2
ATOM      2  C   UNL     1      21.651   2.303  23.661  1.00  0.00     0.000 C 
BRANCH   2   3
ATOM      3  C   UNL     1      21.755   3.558  24.544  1.00  0.00     0.000 C 
BRANCH   3   4
ATOM      4  C   UNL     1      20.983   4.756  23.964  1.00  0.00     0.000 C 
BRANCH   4   5
ATOM      5  C   UNL     1      19.482   4.704  24.292  1.00  0.00     0.000 C 
BRANCH   5   6
ATOM      6  C   UNL     1      18.797   6.071  24.142  1.00  0.00     0.006 C 
BRANCH   6   7
ATOM      7  C   UNL     1      19.795   7.136  23.676  1.00  0.00     0.053 C 
BRANCH   7   8
ATOM      8  C   UNL     1      19.115   8.459  23.520  1.00  0.00     0.041 C 
ATOM      9  O   UNL     1      18.076   8.719  24.183  1.00  0.00    -0.550 OA
ATOM     10  O   UNL     1      19.658   9.427  22.685  1.00  0.00    -0.550 OA
ENDBRANCH   7   8
ENDBRANCH   6   7
ENDBRANCH   5   6
ENDBRANCH   4   5
ENDBRANCH   3   4
ENDBRANCH   2   3
ENDBRANCH   1   2
BRANCH   1  11
ATOM     11  C   UNL     1      20.554   1.471  25.815  1.00  0.00     0.000 C 
BRANCH  11  12
ATOM     12  C   UNL     1      19.021   1.527  25.929  1.00  0.00    -0.000 C 
BRANCH  12  13
ATOM     13  C   UNL     1      18.550   2.410  27.095  1.00  0.00    -0.000 C 
BRANCH  13  14
ATOM     14  C   UNL     1      19.717   2.923  27.955  1.00  0.00    -0.000 C 
BRANCH  14  15
ATOM     15  C   UNL     1      19.873   4.452  27.900  1.00  0.00    -0.000 C 
BRANCH  15  16
ATOM     16  C   UNL     1      21.334   4.930  28.045  1.00  0.00    -0.000 C 
BRANCH  16  17
ATOM     17  C   UNL     1      21.606   6.216  27.252  1.00  0.00    -0.003 C 
ATOM     18  C   UNL     1      20.417   7.172  27.327  1.00  0.00     0.004 C 
ENDBRANCH  16  17
ENDBRANCH  15  16
ENDBRANCH  14  15
ENDBRANCH  13  14
ENDBRANCH  12  13
ENDBRANCH  11  12
ENDBRANCH   1  11
TORSDOF 14
ENDMDL
MODEL 4
REMARK VINA RESULT:    -3.634      1.021      1.601
REMARK INTER + INTRA:          -8.425
REMARK INTER:                  -6.137
REMARK INTRA:                  -2.288
REMARK UNBOUND:                -1.816
REMARK SMILES CCCCCCCCCCCCCCCC(=O)[O-]
REMARK SMILES IDX 9 1 10 2 11 3 12 4 13 5 14 6 15 7 16 8 17 9 18 10 8 11 7 12
REMARK SMILES IDX 6 13 5 14 4 15 3 16 2 17 1 18
REMARK H PARENT
REMARK Flexibility Score: inf
ROOT
ATOM      1  C   UNL     1      21.835   3.607  24.136  1.00  0.00     0.000 C 
ENDROOT
BRANCH   1   2
ATOM      2  C   UNL     1      20.783   4.724  24.020  1.00  0.00     0.000 C 
BRANCH   2   3
ATOM      3  C   UNL     1      19.532   4.453  24.874  1.00  0.00     0.000 C 
BRANCH   3   4
ATOM      4  C   UNL     1      19.406   5.423  26.062  1.00  0.00     0.000 C 
BRANCH   4   5
ATOM      5  C   UNL     1      20.677   6.262  26.275  1.00  0.00     0.000 C 
BRANCH   5   6
ATOM      6  C   UNL     1      20.367   7.736  26.580  1.00  0.00     0.006 C 
BRANCH   6   7
ATOM      7  C   UNL     1      19.499   8.353  25.478  1.00  0.00     0.053 C 
BRANCH   7   8
ATOM      8  C   UNL     1      20.299   8.548  24.230  1.00  0.00     0.041 C 
ATOM      9  O   UNL     1      19.925   8.022  23.149  1.00  0.00    -0.550 OA
ATOM     10  O   UNL     1      21.429   9.357  24.247  1.00  0.00    -0.550 OA
ENDBRANCH   7   8
ENDBRANCH   6   7
ENDBRANCH   5   6
ENDBRANCH   4   5
ENDBRANCH   3   4
ENDBRANCH   2   3
ENDBRANCH   1   2
BRANCH   1  11
ATOM     11  C   UNL     1      21.387   2.304  23.453  1.00  0.00     0.000 C 
BRANCH  11  12
ATOM     12  C   UNL     1      21.139   1.164  24.455  1.00  0.00    -0.000 C 
BRANCH  12  13
ATOM     13  C   UNL     1      21.843   1.400  25.801  1.00  0.00    -0.000 C 
BRANCH  13  14
ATOM     14  C   UNL     1      20.859   1.754  26.927  1.00  0.00    -0.000 C 
BRANCH  14  15
ATOM     15  C   UNL     1      21.381   2.869  27.848  1.00  0.00    -0.000 C 
BRANCH  15  16
ATOM     16  C   UNL     1      22.917   2.874  28.002  1.00  0.00    -0.000 C 
BRANCH  16  17
ATOM     17  C   UNL     1      23.562   4.102  27.344  1.00  0.00    -0.003 C 
ATOM     18  C   UNL     1      24.775   3.705  26.506  1.00  0.00     0.004 C 
ENDBRANCH  16  17
ENDBRANCH  15  16
ENDBRANCH  14  15
ENDBRANCH  13  14
ENDBRANCH  12  13
ENDBRANCH  11  12
ENDBRANCH   1  11
TORSDOF 14
ENDMDL
MODEL 5
REMARK VINA RESULT:    -3.603      1.290      3.539
REMARK INTER + INTRA:          -8.368
REMARK INTER:                  -6.062
REMARK INTRA:                  -2.306
REMARK UNBOUND:                -1.816
REMARK SMILES CCCCCCCCCCCCCCCC(=O)[O-]
REMARK SMILES IDX 9 1 10 2 11 3 12 4 13 5 14 6 15 7 16 8 17 9 18 10 8 11 7 12
REMARK SMILES IDX 6 13 5 14 4 15 3 16 2 17 1 18
REMARK H PARENT
REMARK Flexibility Score: inf
ROOT
ATOM      1  C   UNL     1      22.227   4.326  27.715  1.00  0.00     0.000 C 
ENDROOT
BRANCH   1   2
ATOM      2  C   UNL     1      21.127   5.402  27.681  1.00  0.00     0.000 C 
BRANCH   2   3
ATOM      3  C   UNL     1      21.097   6.179  26.353  1.00  0.00     0.000 C 
BRANCH   3   4
ATOM      4  C   UNL     1      19.864   5.839  25.497  1.00  0.00     0.000 C 
BRANCH   4   5
ATOM      5  C   UNL     1      19.986   6.363  24.056  1.00  0.00     0.000 C 
BRANCH   5   6
ATOM      6  C   UNL     1      18.830   7.299  23.668  1.00  0.00     0.006 C 
BRANCH   6   7
ATOM      7  C   UNL     1      19.136   8.744  24.076  1.00  0.00     0.053 C 
BRANCH   7   8
ATOM      8  C   UNL     1      20.338   9.251  23.345  1.00  0.00     0.041 C 
ATOM      9  O   UNL     1      20.268   9.512  22.115  1.00  0.00    -0.550 OA
ATOM     10  O   UNL     1      21.522   9.488  24.032  1.00  0.00    -0.550 OA
ENDBRANCH   7   8
ENDBRANCH   6   7
ENDBRANCH   5   6
ENDBRANCH   4   5
ENDBRANCH   3   4
ENDBRANCH   2   3
ENDBRANCH   1   2
BRANCH   1  11
ATOM     11  C   UNL     1      23.183   4.425  26.515  1.00  0.00     0.000 C 
BRANCH  11  12
ATOM     12  C   UNL     1      23.154   3.168  25.628  1.00  0.00    -0.000 C 
BRANCH  12  13
ATOM     13  C   UNL     1      22.360   3.384  24.330  1.00  0.00    -0.000 C 
BRANCH  13  14
ATOM     14  C   UNL     1      21.129   2.468  24.232  1.00  0.00    -0.000 C 
BRANCH  14  15
ATOM     15  C   UNL     1      21.160   1.315  25.250  1.00  0.00    -0.000 C 
BRANCH  15  16
ATOM     16  C   UNL     1      20.188   1.511  26.434  1.00  0.00    -0.000 C 
BRANCH  16  17
ATOM     17  C   UNL     1      18.980   2.379  26.056  1.00  0.00    -0.003 C 
ATOM     18  C   UNL     1      18.306   2.957  27.298  1.00  0.00     0.004 C 
ENDBRANCH  16  17
ENDBRANCH  15  16
ENDBRANCH  14  15
ENDBRANCH  13  14
ENDBRANCH  12  13
ENDBRANCH  11  12
ENDBRANCH   1  11
TORSDOF 14
ENDMDL
MODEL 6
REMARK VINA RESULT:    -3.589      2.516      5.443
REMARK INTER + INTRA:          -8.342
REMARK INTER:                  -6.246
REMARK INTRA:                  -2.096
REMARK UNBOUND:                -1.816
REMARK SMILES CCCCCCCCCCCCCCCC(=O)[O-]
REMARK SMILES IDX 9 1 10 2 11 3 12 4 13 5 14 6 15 7 16 8 17 9 18 10 8 11 7 12
REMARK SMILES IDX 6 13 5 14 4 15 3 16 2 17 1 18
REMARK H PARENT
REMARK Flexibility Score: inf
ROOT
ATOM      1  C   UNL     1      21.889   2.268  24.407  1.00  0.00     0.000 C 
ENDROOT
BRANCH   1   2
ATOM      2  C   UNL     1      20.890   1.140  24.718  1.00  0.00     0.000 C 
BRANCH   2   3
ATOM      3  C   UNL     1      20.062   1.412  25.985  1.00  0.00     0.000 C 
BRANCH   3   4
ATOM      4  C   UNL     1      20.940   1.704  27.214  1.00  0.00     0.000 C 
BRANCH   4   5
ATOM      5  C   UNL     1      20.614   3.060  27.862  1.00  0.00     0.000 C 
BRANCH   5   6
ATOM      6  C   UNL     1      21.844   3.976  27.967  1.00  0.00     0.006 C 
BRANCH   6   7
ATOM      7  C   UNL     1      23.136   3.187  27.730  1.00  0.00     0.053 C 
BRANCH   7   8
ATOM      8  C   UNL     1      24.143   4.033  27.019  1.00  0.00     0.041 C 
ATOM      9  O   UNL     1      25.043   3.496  26.321  1.00  0.00    -0.550 OA
ATOM     10  O   UNL     1      24.057   5.419  27.083  1.00  0.00    -0.550 OA
ENDBRANCH   7   8
ENDBRANCH   6   7
ENDBRANCH   5   6
ENDBRANCH   4   5
ENDBRANCH   3   4
ENDBRANCH   2   3
ENDBRANCH   1   2
BRANCH   1  11
ATOM     11  C   UNL     1      21.260   3.399  23.578  1.00  0.00     0.000 C 
BRANCH  11  12
ATOM     12  C   UNL     1      20.859   4.612  24.435  1.00  0.00    -0.000 C 
BRANCH  12  13
ATOM     13  C   UNL     1      19.341   4.696  24.662  1.00  0.00    -0.000 C 
BRANCH  13  14
ATOM     14  C   UNL     1      18.716   5.941  24.011  1.00  0.00    -0.000 C 
BRANCH  14  15
ATOM     15  C   UNL     1      19.753   7.027  23.680  1.00  0.00    -0.000 C 
BRANCH  15  16
ATOM     16  C   UNL     1      19.585   8.316  24.513  1.00  0.00    -0.000 C 
BRANCH  16  17
ATOM     17  C   UNL     1      20.680   8.465  25.579  1.00  0.00    -0.003 C 
ATOM     18  C   UNL     1      20.312   7.713  26.856  1.00  0.00     0.004 C 
ENDBRANCH  16  17
ENDBRANCH  15  16
ENDBRANCH  14  15
ENDBRANCH  13  14
ENDBRANCH  12  13
ENDBRANCH  11  12
ENDBRANCH   1  11
TORSDOF 14
ENDMDL
MODEL 7
REMARK VINA RESULT:    -3.564      1.176      3.147
REMARK INTER + INTRA:          -8.296
REMARK INTER:                  -5.969
REMARK INTRA:                  -2.327
REMARK UNBOUND:                -1.816
REMARK SMILES CCCCCCCCCCCCCCCC(=O)[O-]
REMARK SMILES IDX 9 1 10 2 11 3 12 4 13 5 14 6 15 7 16 8 17 9 18 10 8 11 7 12
REMARK SMILES IDX 6 13 5 14 4 15 3 16 2 17 1 18
REMARK H PARENT
REMARK Flexibility Score: inf
ROOT
ATOM      1  C   UNL     1      22.639   4.892  26.826  1.00  0.00     0.000 C 
ENDROOT
BRANCH   1   2
ATOM      2  C   UNL     1      21.825   5.212  28.092  1.00  0.00     0.000 C 
BRANCH   2   3
ATOM      3  C   UNL     1      20.378   5.629  27.778  1.00  0.00     0.000 C 
BRANCH   3   4
ATOM      4  C   UNL     1      20.237   6.276  26.390  1.00  0.00     0.000 C 
BRANCH   4   5
ATOM      5  C   UNL     1      19.070   5.685  25.580  1.00  0.00     0.000 C 
BRANCH   5   6
ATOM      6  C   UNL     1      18.643   6.589  24.413  1.00  0.00     0.006 C 
BRANCH   6   7
ATOM      7  C   UNL     1      19.854   7.006  23.572  1.00  0.00     0.053 C 
BRANCH   7   8
ATOM      8  C   UNL     1      19.838   8.482  23.328  1.00  0.00     0.041 C 
ATOM      9  O   UNL     1      20.867   9.172  23.554  1.00  0.00    -0.550 OA
ATOM     10  O   UNL     1      18.706   9.087  22.798  1.00  0.00    -0.550 OA
ENDBRANCH   7   8
ENDBRANCH   6   7
ENDBRANCH   5   6
ENDBRANCH   4   5
ENDBRANCH   3   4
ENDBRANCH   2   3
ENDBRANCH   1   2
BRANCH   1  11
ATOM     11  C   UNL     1      23.314   3.512  26.894  1.00  0.00     0.000 C 
BRANCH  11  12
ATOM     12  C   UNL     1      22.643   2.573  27.911  1.00  0.00    -0.000 C 
BRANCH  12  13
ATOM     13  C   UNL     1      21.798   1.482  27.235  1.00  0.00    -0.000 C 
BRANCH  13  14
ATOM     14  C   UNL     1      20.356   1.939  26.960  1.00  0.00    -0.000 C 
BRANCH  14  15
ATOM     15  C   UNL     1      20.044   2.064  25.459  1.00  0.00    -0.000 C 
BRANCH  15  16
ATOM     16  C   UNL     1      20.991   1.241  24.561  1.00  0.00    -0.000 C 
BRANCH  16  17
ATOM     17  C   UNL     1      21.856   2.132  23.658  1.00  0.00    -0.003 C 
ATOM     18  C   UNL     1      21.377   3.582  23.693  1.00  0.00     0.004 C 
ENDBRANCH  16  17
ENDBRANCH  15  16
ENDBRANCH  14  15
ENDBRANCH  13  14
ENDBRANCH  12  13
ENDBRANCH  11  12
ENDBRANCH   1  11
TORSDOF 14
ENDMDL
MODEL 8
REMARK VINA RESULT:    -3.488      2.510      6.275
REMARK INTER + INTRA:          -8.159
REMARK INTER:                  -6.611
REMARK INTRA:                  -1.548
REMARK UNBOUND:                -1.816
REMARK SMILES CCCCCCCCCCCCCCCC(=O)[O-]
REMARK SMILES IDX 9 1 10 2 11 3 12 4 13 5 14 6 15 7 16 8 17 9 18 10 8 11 7 12
REMARK SMILES IDX 6 13 5 14 4 15 3 16 2 17 1 18
REMARK H PARENT
REMARK Flexibility Score: inf
ROOT
ATOM      1  C   UNL     1      20.416   4.300  23.955  1.00  0.00     0.000 C 
ENDROOT
BRANCH   1   2
ATOM      2  C   UNL     1      21.657   3.390  23.922  1.00  0.00     0.000 C 
BRANCH   2   3
ATOM      3  C   UNL     1      21.311   1.906  24.127  1.00  0.00     0.000 C 
BRANCH   3   4
ATOM      4  C   UNL     1      21.637   1.413  25.548  1.00  0.00     0.000 C 
BRANCH   4   5
ATOM      5  C   UNL     1      20.814   2.138  26.626  1.00  0.00     0.000 C 
BRANCH   5   6
ATOM      6  C   UNL     1      21.690   2.956  27.587  1.00  0.00     0.006 C 
BRANCH   6   7
ATOM      7  C   UNL     1      23.170   2.598  27.419  1.00  0.00     0.053 C 
BRANCH   7   8
ATOM      8  C   UNL     1      23.939   3.776  26.912  1.00  0.00     0.041 C 
ATOM      9  O   UNL     1      25.071   3.614  26.384  1.00  0.00    -0.550 OA
ATOM     10  O   UNL     1      23.384   5.048  26.973  1.00  0.00    -0.550 OA
ENDBRANCH   7   8
ENDBRANCH   6   7
ENDBRANCH   5   6
ENDBRANCH   4   5
ENDBRANCH   3   4
ENDBRANCH   2   3
ENDBRANCH   1   2
BRANCH   1  11
ATOM     11  C   UNL     1      20.630   5.555  24.817  1.00  0.00     0.000 C 
BRANCH  11  12
ATOM     12  C   UNL     1      19.318   6.297  25.121  1.00  0.00    -0.000 C 
BRANCH  12  13
ATOM     13  C   UNL     1      18.236   6.038  24.060  1.00  0.00    -0.000 C 
BRANCH  13  14
ATOM     14  C   UNL     1      17.386   7.286  23.768  1.00  0.00    -0.000 C 
BRANCH  14  15
ATOM     15  C   UNL     1      18.104   8.597  24.131  1.00  0.00    -0.000 C 
BRANCH  15  16
ATOM     16  C   UNL     1      18.390   9.501  22.914  1.00  0.00    -0.000 C 
BRANCH  16  17
ATOM     17  C   UNL     1      19.839   9.371  22.422  1.00  0.00    -0.003 C 
ATOM     18  C   UNL     1      20.812   9.266  23.594  1.00  0.00     0.004 C 
ENDBRANCH  16  17
ENDBRANCH  15  16
ENDBRANCH  14  15
ENDBRANCH  13  14
ENDBRANCH  12  13
ENDBRANCH  11  12
ENDBRANCH   1  11
TORSDOF 14
ENDMDL
MODEL 9
REMARK VINA RESULT:    -3.412      1.529      2.170
REMARK INTER + INTRA:          -8.021
REMARK INTER:                  -5.718
REMARK INTRA:                  -2.303
REMARK UNBOUND:                -1.816
REMARK SMILES CCCCCCCCCCCCCCCC(=O)[O-]
REMARK SMILES IDX 9 1 10 2 11 3 12 4 13 5 14 6 15 7 16 8 17 9 18 10 8 11 7 12
REMARK SMILES IDX 6 13 5 14 4 15 3 16 2 17 1 18
REMARK H PARENT
REMARK Flexibility Score: inf
ROOT
ATOM      1  C   UNL     1      19.172   2.426  25.337  1.00  0.00     0.000 C 
ENDROOT
BRANCH   1   2
ATOM      2  C   UNL     1      19.130   3.462  26.474  1.00  0.00     0.000 C 
BRANCH   2   3
ATOM      3  C   UNL     1      19.074   4.909  25.957  1.00  0.00     0.000 C 
BRANCH   3   4
ATOM      4  C   UNL     1      19.262   5.001  24.432  1.00  0.00     0.000 C 
BRANCH   4   5
ATOM      5  C   UNL     1      20.146   6.189  24.018  1.00  0.00     0.000 C 
BRANCH   5   6
ATOM      6  C   UNL     1      19.981   7.401  24.948  1.00  0.00     0.006 C 
BRANCH   6   7
ATOM      7  C   UNL     1      20.537   8.672  24.297  1.00  0.00     0.053 C 
BRANCH   7   8
ATOM      8  C   UNL     1      19.667   9.100  23.159  1.00  0.00     0.041 C 
ATOM      9  O   UNL     1      20.178   9.392  22.046  1.00  0.00    -0.550 OA
ATOM     10  O   UNL     1      18.285   9.123  23.308  1.00  0.00    -0.550 OA
ENDBRANCH   7   8
ENDBRANCH   6   7
ENDBRANCH   5   6
ENDBRANCH   4   5
ENDBRANCH   3   4
ENDBRANCH   2   3
ENDBRANCH   1   2
BRANCH   1  11
ATOM     11  C   UNL     1      20.452   1.575  25.364  1.00  0.00     0.000 C 
BRANCH  11  12
ATOM     12  C   UNL     1      21.525   2.086  24.387  1.00  0.00    -0.000 C 
BRANCH  12  13
ATOM     13  C   UNL     1      22.515   3.053  25.054  1.00  0.00    -0.000 C 
BRANCH  13  14
ATOM     14  C   UNL     1      22.837   2.660  26.505  1.00  0.00    -0.000 C 
BRANCH  14  15
ATOM     15  C   UNL     1      22.689   3.832  27.489  1.00  0.00    -0.000 C 
BRANCH  15  16
ATOM     16  C   UNL     1      22.543   5.204  26.798  1.00  0.00    -0.000 C 
BRANCH  16  17
ATOM     17  C   UNL     1      23.426   6.279  27.447  1.00  0.00    -0.003 C 
ATOM     18  C   UNL     1      22.804   7.666  27.303  1.00  0.00     0.004 C 
ENDBRANCH  16  17
ENDBRANCH  15  16
ENDBRANCH  14  15
ENDBRANCH  13  14
ENDBRANCH  12  13
ENDBRANCH  11  12
ENDBRANCH   1  11
TORSDOF 14
ENDMDL
