MODEL 1
REMARK VINA RESULT:    -6.429      0.000      0.000
REMARK INTER + INTRA:         -10.908
REMARK INTER:                  -9.436
REMARK INTRA:                  -1.472
REMARK UNBOUND:                -1.472
REMARK SMILES O=c1c(O[C@@H]2O[C@H](CO)[C@H](O)[C@@H](O)[C@@H]2O)c(-c2ccc(O)c(O)c2)oc2cc(O)cc(O)c12
REMARK SMILES IDX 4 1 3 2 16 3 25 4 2 5 26 6 1 7 33 8 27 9 31 10 28 11 30 12
REMARK SMILES IDX 17 13 18 14 19 15 20 16 24 17 22 18 21 19 23 21 32 23 29 25
REMARK SMILES IDX 5 27 14 28 6 29 12 30 7 31 10 32 15 33 13 35 8 37 9 38 11 40
REMARK H PARENT 21 20 23 22 32 24 29 26 15 34 13 36 9 39 11 41
REMARK Flexibility Score: inf
ROOT
ATOM      1  O   UNL     1      16.718  -3.364 -14.504  1.00  0.00    -0.454 OA
ENDROOT
BRANCH   1   2
ATOM      2  C   UNL     1      17.579  -3.186 -15.603  1.00  0.00     0.214 A 
ATOM      3  C   UNL     1      17.895  -4.299 -16.468  1.00  0.00     0.180 A 
ATOM      4  O   UNL     1      18.489  -4.059 -17.646  1.00  0.00    -0.452 OA
ATOM      5  C   UNL     1      18.145  -1.954 -15.918  1.00  0.00     0.239 A 
ATOM      6  C   UNL     1      18.797  -2.846 -18.071  1.00  0.00     0.146 A 
ATOM      7  O   UNL     1      18.198  -1.015 -15.071  1.00  0.00    -0.285 OA
ATOM      8  C   UNL     1      18.665  -1.754 -17.215  1.00  0.00     0.111 A 
ATOM      9  C   UNL     1      19.338  -2.687 -19.346  1.00  0.00     0.094 A 
ATOM     10  C   UNL     1      18.996  -0.462 -17.683  1.00  0.00     0.134 A 
ATOM     11  C   UNL     1      19.577  -1.397 -19.872  1.00  0.00     0.123 A 
ATOM     12  C   UNL     1      19.382  -0.280 -19.045  1.00  0.00     0.093 A 
BRANCH   3  13
ATOM     13  C   UNL     1      17.398  -5.704 -16.355  1.00  0.00     0.025 A 
ATOM     14  C   UNL     1      18.351  -6.742 -16.395  1.00  0.00     0.016 A 
ATOM     15  C   UNL     1      17.955  -8.033 -16.708  1.00  0.00     0.051 A 
ATOM     16  C   UNL     1      16.597  -8.352 -16.922  1.00  0.00     0.157 A 
ATOM     17  C   UNL     1      16.047  -5.991 -16.535  1.00  0.00     0.062 A 
ATOM     18  C   UNL     1      15.645  -7.310 -16.850  1.00  0.00     0.158 A 
BRANCH  16  19
ATOM     19  O   UNL     1      16.271  -9.669 -17.242  1.00  0.00    -0.504 OA
ATOM     20  H   UNL     1      15.719 -10.260 -16.645  1.00  0.00     0.293 HD
ENDBRANCH  16  19
BRANCH  18  21
ATOM     21  O   UNL     1      14.266  -7.559 -16.959  1.00  0.00    -0.504 OA
ATOM     22  H   UNL     1      13.866  -8.459 -17.303  1.00  0.00     0.293 HD
ENDBRANCH  18  21
ENDBRANCH   3  13
BRANCH  10  23
ATOM     23  O   UNL     1      18.922   0.662 -16.863  1.00  0.00    -0.507 OA
ATOM     24  H   UNL     1      18.854   0.580 -15.825  1.00  0.00     0.293 HD
ENDBRANCH  10  23
BRANCH  11  25
ATOM     25  O   UNL     1      19.844  -1.253 -21.241  1.00  0.00    -0.508 OA
ATOM     26  H   UNL     1      19.098  -1.083 -21.925  1.00  0.00     0.293 HD
ENDBRANCH  11  25
ENDBRANCH   1   2
BRANCH   1  27
ATOM     27  C   UNL     1      17.122  -4.032 -13.317  1.00  0.00     0.339 C 
ATOM     28  C   UNL     1      17.050  -3.034 -12.114  1.00  0.00     0.214 C 
ATOM     29  O   UNL     1      16.375  -5.287 -13.143  1.00  0.00    -0.332 OA
ATOM     30  C   UNL     1      15.578  -3.063 -11.710  1.00  0.00     0.180 C 
ATOM     31  C   UNL     1      15.707  -5.619 -11.900  1.00  0.00     0.179 C 
ATOM     32  C   UNL     1      15.495  -4.404 -10.951  1.00  0.00     0.177 C 
BRANCH  28  33
ATOM     33  O   UNL     1      17.255  -1.687 -12.484  1.00  0.00    -0.384 OA
ATOM     34  H   UNL     1      17.613  -1.791 -13.410  1.00  0.00     0.211 HD
ENDBRANCH  28  33
BRANCH  30  35
ATOM     35  O   UNL     1      15.133  -2.107 -10.745  1.00  0.00    -0.387 OA
ATOM     36  H   UNL     1      15.893  -1.500 -10.464  1.00  0.00     0.211 HD
ENDBRANCH  30  35
BRANCH  31  37
ATOM     37  C   UNL     1      14.359  -6.350 -12.250  1.00  0.00     0.191 C 
BRANCH  37  38
ATOM     38  O   UNL     1      14.622  -7.141 -13.407  1.00  0.00    -0.394 OA
ATOM     39  H   UNL     1      15.565  -7.472 -13.317  1.00  0.00     0.210 HD
ENDBRANCH  37  38
ENDBRANCH  31  37
BRANCH  32  40
ATOM     40  O   UNL     1      14.342  -4.510 -10.114  1.00  0.00    -0.387 OA
ATOM     41  H   UNL     1      13.887  -3.609 -10.175  1.00  0.00     0.211 HD
ENDBRANCH  32  40
ENDBRANCH   1  27
TORSDOF 12
ENDMDL
MODEL 2
REMARK VINA RESULT:    -6.309      3.912     10.004
REMARK INTER + INTRA:         -10.732
REMARK INTER:                  -8.863
REMARK INTRA:                  -1.869
REMARK UNBOUND:                -1.472
REMARK SMILES O=c1c(O[C@@H]2O[C@H](CO)[C@H](O)[C@@H](O)[C@@H]2O)c(-c2ccc(O)c(O)c2)oc2cc(O)cc(O)c12
REMARK SMILES IDX 4 1 3 2 16 3 25 4 2 5 26 6 1 7 33 8 27 9 31 10 28 11 30 12
REMARK SMILES IDX 17 13 18 14 19 15 20 16 24 17 22 18 21 19 23 21 32 23 29 25
REMARK SMILES IDX 5 27 14 28 6 29 12 30 7 31 10 32 15 33 13 35 8 37 9 38 11 40
REMARK H PARENT 21 20 23 22 32 24 29 26 15 34 13 36 9 39 11 41
REMARK Flexibility Score: inf
ROOT
ATOM      1  O   UNL     1      12.996  -7.617 -12.626  1.00  0.00    -0.454 OA
ENDROOT
BRANCH   1   2
ATOM      2  C   UNL     1      12.555  -7.418 -11.305  1.00  0.00     0.214 A 
ATOM      3  C   UNL     1      12.876  -6.195 -10.606  1.00  0.00     0.180 A 
ATOM      4  O   UNL     1      12.231  -5.910  -9.464  1.00  0.00    -0.452 OA
ATOM      5  C   UNL     1      11.790  -8.360 -10.622  1.00  0.00     0.239 A 
ATOM      6  C   UNL     1      11.301  -6.689  -8.941  1.00  0.00     0.146 A 
ATOM      7  O   UNL     1      11.728  -9.565 -11.005  1.00  0.00    -0.285 OA
ATOM      8  C   UNL     1      11.066  -7.953  -9.480  1.00  0.00     0.111 A 
ATOM      9  C   UNL     1      10.627  -6.270  -7.795  1.00  0.00     0.094 A 
ATOM     10  C   UNL     1      10.067  -8.774  -8.912  1.00  0.00     0.134 A 
ATOM     11  C   UNL     1       9.553  -7.027  -7.273  1.00  0.00     0.123 A 
ATOM     12  C   UNL     1       9.257  -8.273  -7.849  1.00  0.00     0.093 A 
BRANCH   3  13
ATOM     13  C   UNL     1      13.657  -5.032 -11.126  1.00  0.00     0.025 A 
ATOM     14  C   UNL     1      12.994  -4.122 -11.974  1.00  0.00     0.016 A 
ATOM     15  C   UNL     1      13.728  -3.287 -12.801  1.00  0.00     0.051 A 
ATOM     16  C   UNL     1      15.139  -3.275 -12.767  1.00  0.00     0.157 A 
ATOM     17  C   UNL     1      15.048  -5.026 -11.048  1.00  0.00     0.062 A 
ATOM     18  C   UNL     1      15.794  -4.169 -11.891  1.00  0.00     0.158 A 
BRANCH  16  19
ATOM     19  O   UNL     1      15.812  -2.416 -13.633  1.00  0.00    -0.504 OA
ATOM     20  H   UNL     1      16.812  -2.318 -13.645  1.00  0.00     0.293 HD
ENDBRANCH  16  19
BRANCH  18  21
ATOM     21  O   UNL     1      17.190  -4.156 -11.729  1.00  0.00    -0.504 OA
ATOM     22  H   UNL     1      17.863  -4.029 -12.516  1.00  0.00     0.293 HD
ENDBRANCH  18  21
ENDBRANCH   3  13
BRANCH  10  23
ATOM     23  O   UNL     1       9.813 -10.061  -9.383  1.00  0.00    -0.507 OA
ATOM     24  H   UNL     1       9.608 -10.247 -10.388  1.00  0.00     0.293 HD
ENDBRANCH  10  23
BRANCH  11  25
ATOM     25  O   UNL     1       8.714  -6.452  -6.307  1.00  0.00    -0.508 OA
ATOM     26  H   UNL     1       7.757  -6.154  -6.528  1.00  0.00     0.293 HD
ENDBRANCH  11  25
ENDBRANCH   1   2
BRANCH   1  27
ATOM     27  C   UNL     1      14.145  -8.392 -12.940  1.00  0.00     0.339 C 
ATOM     28  C   UNL     1      13.777  -9.432 -14.050  1.00  0.00     0.214 C 
ATOM     29  O   UNL     1      15.296  -7.527 -13.240  1.00  0.00    -0.332 OA
ATOM     30  C   UNL     1      13.883  -8.628 -15.344  1.00  0.00     0.180 C 
ATOM     31  C   UNL     1      16.096  -7.697 -14.436  1.00  0.00     0.179 C 
ATOM     32  C   UNL     1      15.412  -8.559 -15.537  1.00  0.00     0.177 C 
BRANCH  28  33
ATOM     33  O   UNL     1      12.422  -9.827 -14.028  1.00  0.00    -0.384 OA
ATOM     34  H   UNL     1      12.235  -9.827 -13.048  1.00  0.00     0.211 HD
ENDBRANCH  28  33
BRANCH  30  35
ATOM     35  O   UNL     1      13.423  -9.242 -16.551  1.00  0.00    -0.387 OA
ATOM     36  H   UNL     1      14.025 -10.012 -16.813  1.00  0.00     0.211 HD
ENDBRANCH  30  35
BRANCH  31  37
ATOM     37  C   UNL     1      16.507  -6.271 -14.956  1.00  0.00     0.191 C 
BRANCH  37  38
ATOM     38  O   UNL     1      15.306  -5.650 -15.409  1.00  0.00    -0.394 OA
ATOM     39  H   UNL     1      15.486  -4.663 -15.427  1.00  0.00     0.210 HD
ENDBRANCH  37  38
ENDBRANCH  31  37
BRANCH  32  40
ATOM     40  O   UNL     1      15.800  -8.218 -16.870  1.00  0.00    -0.387 OA
ATOM     41  H   UNL     1      16.761  -8.523 -16.952  1.00  0.00     0.211 HD
ENDBRANCH  32  40
ENDBRANCH   1  27
TORSDOF 12
ENDMDL
MODEL 3
REMARK VINA RESULT:    -6.231      2.824      5.312
REMARK INTER + INTRA:         -10.617
REMARK INTER:                  -9.229
REMARK INTRA:                  -1.388
REMARK UNBOUND:                -1.472
REMARK SMILES O=c1c(O[C@@H]2O[C@H](CO)[C@H](O)[C@@H](O)[C@@H]2O)c(-c2ccc(O)c(O)c2)oc2cc(O)cc(O)c12
REMARK SMILES IDX 4 1 3 2 16 3 25 4 2 5 26 6 1 7 33 8 27 9 31 10 28 11 30 12
REMARK SMILES IDX 17 13 18 14 19 15 20 16 24 17 22 18 21 19 23 21 32 23 29 25
REMARK SMILES IDX 5 27 14 28 6 29 12 30 7 31 10 32 15 33 13 35 8 37 9 38 11 40
REMARK H PARENT 21 20 23 22 32 24 29 26 15 34 13 36 9 39 11 41
REMARK Flexibility Score: inf
ROOT
ATOM      1  O   UNL     1      17.661  -2.540 -13.293  1.00  0.00    -0.454 OA
ENDROOT
BRANCH   1   2
ATOM      2  C   UNL     1      16.905  -1.441 -13.742  1.00  0.00     0.214 A 
ATOM      3  C   UNL     1      17.119  -0.900 -15.064  1.00  0.00     0.180 A 
ATOM      4  O   UNL     1      16.221  -0.041 -15.569  1.00  0.00    -0.452 OA
ATOM      5  C   UNL     1      15.922  -0.841 -12.960  1.00  0.00     0.239 A 
ATOM      6  C   UNL     1      15.132   0.336 -14.922  1.00  0.00     0.146 A 
ATOM      7  O   UNL     1      15.876  -1.016 -11.707  1.00  0.00    -0.285 OA
ATOM      8  C   UNL     1      14.956  -0.024 -13.586  1.00  0.00     0.111 A 
ATOM      9  C   UNL     1      14.214   1.168 -15.559  1.00  0.00     0.094 A 
ATOM     10  C   UNL     1      13.786   0.384 -12.907  1.00  0.00     0.134 A 
ATOM     11  C   UNL     1      12.989   1.500 -14.937  1.00  0.00     0.123 A 
ATOM     12  C   UNL     1      12.765   1.087 -13.615  1.00  0.00     0.093 A 
BRANCH   3  13
ATOM     13  C   UNL     1      18.092  -1.380 -16.093  1.00  0.00     0.025 A 
ATOM     14  C   UNL     1      18.850  -0.412 -16.781  1.00  0.00     0.016 A 
ATOM     15  C   UNL     1      19.442  -0.731 -17.993  1.00  0.00     0.051 A 
ATOM     16  C   UNL     1      19.362  -2.033 -18.529  1.00  0.00     0.157 A 
ATOM     17  C   UNL     1      18.016  -2.683 -16.581  1.00  0.00     0.062 A 
ATOM     18  C   UNL     1      18.625  -3.006 -17.816  1.00  0.00     0.158 A 
BRANCH  16  19
ATOM     19  O   UNL     1      19.973  -2.281 -19.756  1.00  0.00    -0.504 OA
ATOM     20  H   UNL     1      19.925  -3.167 -20.227  1.00  0.00     0.293 HD
ENDBRANCH  16  19
BRANCH  18  21
ATOM     21  O   UNL     1      18.573  -4.347 -18.232  1.00  0.00    -0.504 OA
ATOM     22  H   UNL     1      19.394  -4.867 -18.615  1.00  0.00     0.293 HD
ENDBRANCH  18  21
ENDBRANCH   3  13
BRANCH  10  23
ATOM     23  O   UNL     1      13.572   0.089 -11.562  1.00  0.00    -0.507 OA
ATOM     24  H   UNL     1      13.878  -0.816 -11.144  1.00  0.00     0.293 HD
ENDBRANCH  10  23
BRANCH  11  25
ATOM     25  O   UNL     1      11.971   2.091 -15.699  1.00  0.00    -0.508 OA
ATOM     26  H   UNL     1      12.176   2.697 -16.503  1.00  0.00     0.293 HD
ENDBRANCH  11  25
ENDBRANCH   1   2
BRANCH   1  27
ATOM     27  C   UNL     1      17.126  -3.854 -13.212  1.00  0.00     0.339 C 
ATOM     28  C   UNL     1      17.621  -4.531 -11.890  1.00  0.00     0.214 C 
ATOM     29  O   UNL     1      15.668  -3.839 -13.406  1.00  0.00    -0.332 OA
ATOM     30  C   UNL     1      16.658  -4.000 -10.831  1.00  0.00     0.180 C 
ATOM     31  C   UNL     1      14.762  -4.498 -12.488  1.00  0.00     0.179 C 
ATOM     32  C   UNL     1      15.399  -4.846 -11.111  1.00  0.00     0.177 C 
BRANCH  28  33
ATOM     33  O   UNL     1      18.876  -4.058 -11.449  1.00  0.00    -0.384 OA
ATOM     34  H   UNL     1      18.887  -3.140 -11.840  1.00  0.00     0.211 HD
ENDBRANCH  28  33
BRANCH  30  35
ATOM     35  O   UNL     1      16.951  -4.282  -9.461  1.00  0.00    -0.387 OA
ATOM     36  H   UNL     1      17.532  -5.108  -9.382  1.00  0.00     0.211 HD
ENDBRANCH  30  35
BRANCH  31  37
ATOM     37  C   UNL     1      13.474  -3.607 -12.346  1.00  0.00     0.191 C 
BRANCH  37  38
ATOM     38  O   UNL     1      12.445  -4.465 -11.858  1.00  0.00    -0.394 OA
ATOM     39  H   UNL     1      12.214  -5.088 -12.610  1.00  0.00     0.210 HD
ENDBRANCH  37  38
ENDBRANCH  31  37
BRANCH  32  40
ATOM     40  O   UNL     1      14.471  -4.857 -10.024  1.00  0.00    -0.387 OA
ATOM     41  H   UNL     1      13.875  -5.656 -10.193  1.00  0.00     0.211 HD
ENDBRANCH  32  40
ENDBRANCH   1  27
TORSDOF 12
ENDMDL
MODEL 4
REMARK VINA RESULT:    -6.172      3.926      7.528
REMARK INTER + INTRA:         -10.530
REMARK INTER:                  -8.572
REMARK INTRA:                  -1.958
REMARK UNBOUND:                -1.472
REMARK SMILES O=c1c(O[C@@H]2O[C@H](CO)[C@H](O)[C@@H](O)[C@@H]2O)c(-c2ccc(O)c(O)c2)oc2cc(O)cc(O)c12
REMARK SMILES IDX 4 1 3 2 16 3 25 4 2 5 26 6 1 7 33 8 27 9 31 10 28 11 30 12
REMARK SMILES IDX 17 13 18 14 19 15 20 16 24 17 22 18 21 19 23 21 32 23 29 25
REMARK SMILES IDX 5 27 14 28 6 29 12 30 7 31 10 32 15 33 13 35 8 37 9 38 11 40
REMARK H PARENT 21 20 23 22 32 24 29 26 15 34 13 36 9 39 11 41
REMARK Flexibility Score: inf
ROOT
ATOM      1  O   UNL     1      15.581  -0.990 -11.648  1.00  0.00    -0.454 OA
ENDROOT
BRANCH   1   2
ATOM      2  C   UNL     1      16.794  -1.621 -11.314  1.00  0.00     0.214 A 
ATOM      3  C   UNL     1      17.772  -1.906 -12.338  1.00  0.00     0.180 A 
ATOM      4  O   UNL     1      19.014  -2.256 -11.971  1.00  0.00    -0.452 OA
ATOM      5  C   UNL     1      17.115  -1.980 -10.009  1.00  0.00     0.239 A 
ATOM      6  C   UNL     1      19.402  -2.346 -10.711  1.00  0.00     0.146 A 
ATOM      7  O   UNL     1      16.227  -2.072  -9.111  1.00  0.00    -0.285 OA
ATOM      8  C   UNL     1      18.464  -2.241  -9.685  1.00  0.00     0.111 A 
ATOM      9  C   UNL     1      20.735  -2.636 -10.427  1.00  0.00     0.094 A 
ATOM     10  C   UNL     1      18.893  -2.337  -8.342  1.00  0.00     0.134 A 
ATOM     11  C   UNL     1      21.205  -2.632  -9.094  1.00  0.00     0.123 A 
ATOM     12  C   UNL     1      20.284  -2.458  -8.049  1.00  0.00     0.093 A 
BRANCH   3  13
ATOM     13  C   UNL     1      17.673  -1.600 -13.798  1.00  0.00     0.025 A 
ATOM     14  C   UNL     1      17.585  -2.685 -14.692  1.00  0.00     0.016 A 
ATOM     15  C   UNL     1      17.902  -2.507 -16.029  1.00  0.00     0.051 A 
ATOM     16  C   UNL     1      18.247  -1.237 -16.539  1.00  0.00     0.157 A 
ATOM     17  C   UNL     1      17.984  -0.327 -14.273  1.00  0.00     0.062 A 
ATOM     18  C   UNL     1      18.302  -0.148 -15.639  1.00  0.00     0.158 A 
BRANCH  16  19
ATOM     19  O   UNL     1      18.562  -1.133 -17.892  1.00  0.00    -0.504 OA
ATOM     20  H   UNL     1      19.151  -1.790 -18.373  1.00  0.00     0.293 HD
ENDBRANCH  16  19
BRANCH  18  21
ATOM     21  O   UNL     1      18.547   1.164 -16.081  1.00  0.00    -0.504 OA
ATOM     22  H   UNL     1      18.684   1.975 -15.439  1.00  0.00     0.293 HD
ENDBRANCH  18  21
ENDBRANCH   3  13
BRANCH  10  23
ATOM     23  O   UNL     1      17.998  -2.279  -7.275  1.00  0.00    -0.507 OA
ATOM     24  H   UNL     1      17.051  -2.712  -7.329  1.00  0.00     0.293 HD
ENDBRANCH  10  23
BRANCH  11  25
ATOM     25  O   UNL     1      22.588  -2.640  -8.854  1.00  0.00    -0.508 OA
ATOM     26  H   UNL     1      23.199  -3.374  -9.230  1.00  0.00     0.293 HD
ENDBRANCH  11  25
ENDBRANCH   1   2
BRANCH   1  27
ATOM     27  C   UNL     1      15.438   0.424 -11.676  1.00  0.00     0.339 C 
ATOM     28  C   UNL     1      13.999   0.806 -11.195  1.00  0.00     0.214 C 
ATOM     29  O   UNL     1      16.540   1.077 -10.954  1.00  0.00    -0.332 OA
ATOM     30  C   UNL     1      14.110   0.781  -9.672  1.00  0.00     0.180 C 
ATOM     31  C   UNL     1      16.305   2.084  -9.939  1.00  0.00     0.179 C 
ATOM     32  C   UNL     1      14.846   2.108  -9.397  1.00  0.00     0.177 C 
BRANCH  28  33
ATOM     33  O   UNL     1      13.031  -0.187 -11.462  1.00  0.00    -0.384 OA
ATOM     34  H   UNL     1      12.588  -0.272 -10.573  1.00  0.00     0.211 HD
ENDBRANCH  28  33
BRANCH  30  35
ATOM     35  O   UNL     1      12.905   0.904  -8.913  1.00  0.00    -0.387 OA
ATOM     36  H   UNL     1      12.107   1.024  -9.524  1.00  0.00     0.211 HD
ENDBRANCH  30  35
BRANCH  31  37
ATOM     37  C   UNL     1      17.367   1.882  -8.796  1.00  0.00     0.191 C 
BRANCH  37  38
ATOM     38  O   UNL     1      17.037   0.651  -8.156  1.00  0.00    -0.394 OA
ATOM     39  H   UNL     1      16.887   0.866  -7.188  1.00  0.00     0.210 HD
ENDBRANCH  37  38
ENDBRANCH  31  37
BRANCH  32  40
ATOM     40  O   UNL     1      14.733   2.548  -8.043  1.00  0.00    -0.387 OA
ATOM     41  H   UNL     1      15.550   2.179  -7.575  1.00  0.00     0.211 HD
ENDBRANCH  32  40
ENDBRANCH   1  27
TORSDOF 12
ENDMDL
MODEL 5
REMARK VINA RESULT:    -6.171      2.228      5.717
REMARK INTER + INTRA:         -10.529
REMARK INTER:                  -8.887
REMARK INTRA:                  -1.642
REMARK UNBOUND:                -1.472
REMARK SMILES O=c1c(O[C@@H]2O[C@H](CO)[C@H](O)[C@@H](O)[C@@H]2O)c(-c2ccc(O)c(O)c2)oc2cc(O)cc(O)c12
REMARK SMILES IDX 4 1 3 2 16 3 25 4 2 5 26 6 1 7 33 8 27 9 31 10 28 11 30 12
REMARK SMILES IDX 17 13 18 14 19 15 20 16 24 17 22 18 21 19 23 21 32 23 29 25
REMARK SMILES IDX 5 27 14 28 6 29 12 30 7 31 10 32 15 33 13 35 8 37 9 38 11 40
REMARK H PARENT 21 20 23 22 32 24 29 26 15 34 13 36 9 39 11 41
REMARK Flexibility Score: inf
ROOT
ATOM      1  O   UNL     1      17.822  -4.268 -15.106  1.00  0.00    -0.454 OA
ENDROOT
BRANCH   1   2
ATOM      2  C   UNL     1      17.385  -2.951 -14.878  1.00  0.00     0.214 A 
ATOM      3  C   UNL     1      16.503  -2.657 -13.772  1.00  0.00     0.180 A 
ATOM      4  O   UNL     1      16.315  -1.378 -13.412  1.00  0.00    -0.452 OA
ATOM      5  C   UNL     1      17.783  -1.882 -15.676  1.00  0.00     0.239 A 
ATOM      6  C   UNL     1      16.906  -0.360 -14.012  1.00  0.00     0.146 A 
ATOM      7  O   UNL     1      18.275  -2.065 -16.828  1.00  0.00    -0.285 OA
ATOM      8  C   UNL     1      17.636  -0.568 -15.181  1.00  0.00     0.111 A 
ATOM      9  C   UNL     1      16.714   0.929 -13.515  1.00  0.00     0.094 A 
ATOM     10  C   UNL     1      18.265   0.530 -15.810  1.00  0.00     0.134 A 
ATOM     11  C   UNL     1      17.417   2.025 -14.065  1.00  0.00     0.123 A 
ATOM     12  C   UNL     1      18.214   1.820 -15.202  1.00  0.00     0.093 A 
BRANCH   3  13
ATOM     13  C   UNL     1      15.958  -3.619 -12.767  1.00  0.00     0.025 A 
ATOM     14  C   UNL     1      14.636  -4.077 -12.945  1.00  0.00     0.016 A 
ATOM     15  C   UNL     1      13.942  -4.618 -11.875  1.00  0.00     0.051 A 
ATOM     16  C   UNL     1      14.552  -4.788 -10.614  1.00  0.00     0.157 A 
ATOM     17  C   UNL     1      16.599  -3.798 -11.543  1.00  0.00     0.062 A 
ATOM     18  C   UNL     1      15.888  -4.354 -10.454  1.00  0.00     0.158 A 
BRANCH  16  19
ATOM     19  O   UNL     1      13.792  -5.330  -9.580  1.00  0.00    -0.504 OA
ATOM     20  H   UNL     1      13.631  -4.858  -8.708  1.00  0.00     0.293 HD
ENDBRANCH  16  19
BRANCH  18  21
ATOM     21  O   UNL     1      16.598  -4.572  -9.261  1.00  0.00    -0.504 OA
ATOM     22  H   UNL     1      16.973  -3.803  -8.661  1.00  0.00     0.293 HD
ENDBRANCH  18  21
ENDBRANCH   3  13
BRANCH  10  23
ATOM     23  O   UNL     1      18.975   0.390 -17.001  1.00  0.00    -0.507 OA
ATOM     24  H   UNL     1      18.639  -0.227 -17.771  1.00  0.00     0.293 HD
ENDBRANCH  10  23
BRANCH  11  25
ATOM     25  O   UNL     1      17.431   3.246 -13.375  1.00  0.00    -0.508 OA
ATOM     26  H   UNL     1      16.865   3.399 -12.532  1.00  0.00     0.293 HD
ENDBRANCH  11  25
ENDBRANCH   1   2
BRANCH   1  27
ATOM     27  C   UNL     1      16.992  -5.257 -15.700  1.00  0.00     0.339 C 
ATOM     28  C   UNL     1      17.667  -5.774 -17.014  1.00  0.00     0.214 C 
ATOM     29  O   UNL     1      16.632  -6.296 -14.723  1.00  0.00    -0.332 OA
ATOM     30  C   UNL     1      18.667  -6.816 -16.518  1.00  0.00     0.180 C 
ATOM     31  C   UNL     1      16.796  -7.707 -15.005  1.00  0.00     0.179 C 
ATOM     32  C   UNL     1      17.739  -8.008 -16.206  1.00  0.00     0.177 C 
BRANCH  28  33
ATOM     33  O   UNL     1      18.489  -4.814 -17.643  1.00  0.00    -0.384 OA
ATOM     34  H   UNL     1      18.543  -4.111 -16.938  1.00  0.00     0.211 HD
ENDBRANCH  28  33
BRANCH  30  35
ATOM     35  O   UNL     1      19.594  -7.355 -17.464  1.00  0.00    -0.387 OA
ATOM     36  H   UNL     1      20.404  -7.739 -16.994  1.00  0.00     0.211 HD
ENDBRANCH  30  35
BRANCH  31  37
ATOM     37  C   UNL     1      17.262  -8.419 -13.682  1.00  0.00     0.191 C 
BRANCH  37  38
ATOM     38  O   UNL     1      16.742  -9.745 -13.736  1.00  0.00    -0.394 OA
ATOM     39  H   UNL     1      17.529 -10.362 -13.664  1.00  0.00     0.210 HD
ENDBRANCH  37  38
ENDBRANCH  31  37
BRANCH  32  40
ATOM     40  O   UNL     1      18.431  -9.254 -16.108  1.00  0.00    -0.387 OA
ATOM     41  H   UNL     1      18.385  -9.655 -17.035  1.00  0.00     0.211 HD
ENDBRANCH  32  40
ENDBRANCH   1  27
TORSDOF 12
ENDMDL
MODEL 6
REMARK VINA RESULT:    -6.169      3.478      8.653
REMARK INTER + INTRA:         -10.526
REMARK INTER:                  -8.869
REMARK INTRA:                  -1.657
REMARK UNBOUND:                -1.472
REMARK SMILES O=c1c(O[C@@H]2O[C@H](CO)[C@H](O)[C@@H](O)[C@@H]2O)c(-c2ccc(O)c(O)c2)oc2cc(O)cc(O)c12
REMARK SMILES IDX 4 1 3 2 16 3 25 4 2 5 26 6 1 7 33 8 27 9 31 10 28 11 30 12
REMARK SMILES IDX 17 13 18 14 19 15 20 16 24 17 22 18 21 19 23 21 32 23 29 25
REMARK SMILES IDX 5 27 14 28 6 29 12 30 7 31 10 32 15 33 13 35 8 37 9 38 11 40
REMARK H PARENT 21 20 23 22 32 24 29 26 15 34 13 36 9 39 11 41
REMARK Flexibility Score: inf
ROOT
ATOM      1  O   UNL     1      15.822  -6.481 -12.903  1.00  0.00    -0.454 OA
ENDROOT
BRANCH   1   2
ATOM      2  C   UNL     1      14.621  -6.415 -12.173  1.00  0.00     0.214 A 
ATOM      3  C   UNL     1      14.348  -5.282 -11.319  1.00  0.00     0.180 A 
ATOM      4  O   UNL     1      13.104  -5.107 -10.848  1.00  0.00    -0.452 OA
ATOM      5  C   UNL     1      13.647  -7.407 -12.245  1.00  0.00     0.239 A 
ATOM      6  C   UNL     1      12.099  -5.916 -11.132  1.00  0.00     0.146 A 
ATOM      7  O   UNL     1      13.911  -8.562 -12.691  1.00  0.00    -0.285 OA
ATOM      8  C   UNL     1      12.336  -7.109 -11.814  1.00  0.00     0.111 A 
ATOM      9  C   UNL     1      10.823  -5.608 -10.664  1.00  0.00     0.094 A 
ATOM     10  C   UNL     1      11.251  -7.963 -12.113  1.00  0.00     0.134 A 
ATOM     11  C   UNL     1       9.708  -6.392 -11.041  1.00  0.00     0.123 A 
ATOM     12  C   UNL     1       9.921  -7.561 -11.788  1.00  0.00     0.093 A 
BRANCH   3  13
ATOM     13  C   UNL     1      15.218  -4.088 -11.092  1.00  0.00     0.025 A 
ATOM     14  C   UNL     1      15.186  -3.060 -12.056  1.00  0.00     0.016 A 
ATOM     15  C   UNL     1      16.229  -2.151 -12.133  1.00  0.00     0.051 A 
ATOM     16  C   UNL     1      17.303  -2.187 -11.217  1.00  0.00     0.157 A 
ATOM     17  C   UNL     1      16.249  -4.135 -10.156  1.00  0.00     0.062 A 
ATOM     18  C   UNL     1      17.310  -3.203 -10.235  1.00  0.00     0.158 A 
BRANCH  16  19
ATOM     19  O   UNL     1      18.322  -1.248 -11.359  1.00  0.00    -0.504 OA
ATOM     20  H   UNL     1      19.254  -1.390 -11.011  1.00  0.00     0.293 HD
ENDBRANCH  16  19
BRANCH  18  21
ATOM     21  O   UNL     1      18.291  -3.253  -9.230  1.00  0.00    -0.504 OA
ATOM     22  H   UNL     1      18.139  -2.915  -8.254  1.00  0.00     0.293 HD
ENDBRANCH  18  21
ENDBRANCH   3  13
BRANCH  10  23
ATOM     23  O   UNL     1      11.430  -9.186 -12.757  1.00  0.00    -0.507 OA
ATOM     24  H   UNL     1      12.066  -9.919 -12.376  1.00  0.00     0.293 HD
ENDBRANCH  10  23
BRANCH  11  25
ATOM     25  O   UNL     1       8.415  -5.905 -10.801  1.00  0.00    -0.508 OA
ATOM     26  H   UNL     1       7.702  -6.470 -10.325  1.00  0.00     0.293 HD
ENDBRANCH  11  25
ENDBRANCH   1   2
BRANCH   1  27
ATOM     27  C   UNL     1      15.993  -5.828 -14.154  1.00  0.00     0.339 C 
ATOM     28  C   UNL     1      17.492  -5.411 -14.317  1.00  0.00     0.214 C 
ATOM     29  O   UNL     1      15.439  -6.640 -15.248  1.00  0.00    -0.332 OA
ATOM     30  C   UNL     1      18.168  -6.687 -14.814  1.00  0.00     0.180 C 
ATOM     31  C   UNL     1      16.201  -6.943 -16.443  1.00  0.00     0.179 C 
ATOM     32  C   UNL     1      17.732  -6.707 -16.294  1.00  0.00     0.177 C 
BRANCH  28  33
ATOM     33  O   UNL     1      18.145  -5.159 -13.091  1.00  0.00    -0.384 OA
ATOM     34  H   UNL     1      18.293  -4.174 -13.148  1.00  0.00     0.211 HD
ENDBRANCH  28  33
BRANCH  30  35
ATOM     35  O   UNL     1      19.595  -6.701 -14.888  1.00  0.00    -0.387 OA
ATOM     36  H   UNL     1      19.999  -6.194 -14.110  1.00  0.00     0.211 HD
ENDBRANCH  30  35
BRANCH  31  37
ATOM     37  C   UNL     1      15.858  -8.413 -16.882  1.00  0.00     0.191 C 
BRANCH  37  38
ATOM     38  O   UNL     1      15.854  -8.415 -18.307  1.00  0.00    -0.394 OA
ATOM     39  H   UNL     1      16.521  -7.723 -18.594  1.00  0.00     0.210 HD
ENDBRANCH  37  38
ENDBRANCH  31  37
BRANCH  32  40
ATOM     40  O   UNL     1      18.537  -7.562 -17.110  1.00  0.00    -0.387 OA
ATOM     41  H   UNL     1      18.854  -6.977 -17.871  1.00  0.00     0.211 HD
ENDBRANCH  32  40
ENDBRANCH   1  27
TORSDOF 12
ENDMDL
MODEL 7
REMARK VINA RESULT:    -6.167      2.765      6.674
REMARK INTER + INTRA:         -10.522
REMARK INTER:                  -9.221
REMARK INTRA:                  -1.301
REMARK UNBOUND:                -1.472
REMARK SMILES O=c1c(O[C@@H]2O[C@H](CO)[C@H](O)[C@@H](O)[C@@H]2O)c(-c2ccc(O)c(O)c2)oc2cc(O)cc(O)c12
REMARK SMILES IDX 4 1 3 2 16 3 25 4 2 5 26 6 1 7 33 8 27 9 31 10 28 11 30 12
REMARK SMILES IDX 17 13 18 14 19 15 20 16 24 17 22 18 21 19 23 21 32 23 29 25
REMARK SMILES IDX 5 27 14 28 6 29 12 30 7 31 10 32 15 33 13 35 8 37 9 38 11 40
REMARK H PARENT 21 20 23 22 32 24 29 26 15 34 13 36 9 39 11 41
REMARK Flexibility Score: inf
ROOT
ATOM      1  O   UNL     1      17.583  -3.492 -11.794  1.00  0.00    -0.454 OA
ENDROOT
BRANCH   1   2
ATOM      2  C   UNL     1      16.918  -4.133 -12.855  1.00  0.00     0.214 A 
ATOM      3  C   UNL     1      16.339  -3.356 -13.927  1.00  0.00     0.180 A 
ATOM      4  O   UNL     1      15.951  -3.983 -15.048  1.00  0.00    -0.452 OA
ATOM      5  C   UNL     1      16.800  -5.517 -12.936  1.00  0.00     0.239 A 
ATOM      6  C   UNL     1      16.080  -5.284 -15.235  1.00  0.00     0.146 A 
ATOM      7  O   UNL     1      16.977  -6.256 -11.923  1.00  0.00    -0.285 OA
ATOM      8  C   UNL     1      16.480  -6.103 -14.180  1.00  0.00     0.111 A 
ATOM      9  C   UNL     1      15.726  -5.835 -16.466  1.00  0.00     0.094 A 
ATOM     10  C   UNL     1      16.616  -7.493 -14.395  1.00  0.00     0.134 A 
ATOM     11  C   UNL     1      15.954  -7.204 -16.735  1.00  0.00     0.123 A 
ATOM     12  C   UNL     1      16.422  -8.031 -15.703  1.00  0.00     0.093 A 
BRANCH   3  13
ATOM     13  C   UNL     1      16.353  -1.869 -14.079  1.00  0.00     0.025 A 
ATOM     14  C   UNL     1      15.175  -1.165 -13.757  1.00  0.00     0.016 A 
ATOM     15  C   UNL     1      14.978   0.114 -14.251  1.00  0.00     0.051 A 
ATOM     16  C   UNL     1      15.966   0.765 -15.020  1.00  0.00     0.157 A 
ATOM     17  C   UNL     1      17.360  -1.246 -14.812  1.00  0.00     0.062 A 
ATOM     18  C   UNL     1      17.157   0.062 -15.311  1.00  0.00     0.158 A 
BRANCH  16  19
ATOM     19  O   UNL     1      15.697   2.048 -15.491  1.00  0.00    -0.504 OA
ATOM     20  H   UNL     1      16.232   2.856 -15.226  1.00  0.00     0.293 HD
ENDBRANCH  16  19
BRANCH  18  21
ATOM     21  O   UNL     1      18.227   0.670 -15.990  1.00  0.00    -0.504 OA
ATOM     22  H   UNL     1      18.145   1.091 -16.942  1.00  0.00     0.293 HD
ENDBRANCH  18  21
ENDBRANCH   3  13
BRANCH  10  23
ATOM     23  O   UNL     1      16.974  -8.367 -13.370  1.00  0.00    -0.507 OA
ATOM     24  H   UNL     1      17.110  -8.037 -12.390  1.00  0.00     0.293 HD
ENDBRANCH  10  23
BRANCH  11  25
ATOM     25  O   UNL     1      15.860  -7.667 -18.056  1.00  0.00    -0.508 OA
ATOM     26  H   UNL     1      15.066  -7.427 -18.660  1.00  0.00     0.293 HD
ENDBRANCH  11  25
ENDBRANCH   1   2
BRANCH   1  27
ATOM     27  C   UNL     1      16.948  -2.529 -10.964  1.00  0.00     0.339 C 
ATOM     28  C   UNL     1      16.571  -3.194  -9.599  1.00  0.00     0.214 C 
ATOM     29  O   UNL     1      17.757  -1.304 -10.868  1.00  0.00    -0.332 OA
ATOM     30  C   UNL     1      17.868  -3.129  -8.796  1.00  0.00     0.180 C 
ATOM     31  C   UNL     1      18.091  -0.700  -9.594  1.00  0.00     0.179 C 
ATOM     32  C   UNL     1      17.893  -1.646  -8.374  1.00  0.00     0.177 C 
BRANCH  28  33
ATOM     33  O   UNL     1      16.322  -4.581  -9.695  1.00  0.00    -0.384 OA
ATOM     34  H   UNL     1      15.962  -4.650 -10.623  1.00  0.00     0.211 HD
ENDBRANCH  28  33
BRANCH  30  35
ATOM     35  O   UNL     1      17.918  -3.831  -7.551  1.00  0.00    -0.387 OA
ATOM     36  H   UNL     1      18.274  -4.769  -7.683  1.00  0.00     0.211 HD
ENDBRANCH  30  35
BRANCH  31  37
ATOM     37  C   UNL     1      19.558  -0.140  -9.688  1.00  0.00     0.191 C 
BRANCH  37  38
ATOM     38  O   UNL     1      19.608   0.995  -8.828  1.00  0.00    -0.394 OA
ATOM     39  H   UNL     1      18.677   1.367  -8.793  1.00  0.00     0.210 HD
ENDBRANCH  37  38
ENDBRANCH  31  37
BRANCH  32  40
ATOM     40  O   UNL     1      18.776  -1.383  -7.281  1.00  0.00    -0.387 OA
ATOM     41  H   UNL     1      18.413  -1.929  -6.511  1.00  0.00     0.211 HD
ENDBRANCH  32  40
ENDBRANCH   1  27
TORSDOF 12
ENDMDL
MODEL 8
REMARK VINA RESULT:    -6.159      3.270      7.038
REMARK INTER + INTRA:         -10.512
REMARK INTER:                  -8.750
REMARK INTRA:                  -1.762
REMARK UNBOUND:                -1.472
REMARK SMILES O=c1c(O[C@@H]2O[C@H](CO)[C@H](O)[C@@H](O)[C@@H]2O)c(-c2ccc(O)c(O)c2)oc2cc(O)cc(O)c12
REMARK SMILES IDX 4 1 3 2 16 3 25 4 2 5 26 6 1 7 33 8 27 9 31 10 28 11 30 12
REMARK SMILES IDX 17 13 18 14 19 15 20 16 24 17 22 18 21 19 23 21 32 23 29 25
REMARK SMILES IDX 5 27 14 28 6 29 12 30 7 31 10 32 15 33 13 35 8 37 9 38 11 40
REMARK H PARENT 21 20 23 22 32 24 29 26 15 34 13 36 9 39 11 41
REMARK Flexibility Score: inf
ROOT
ATOM      1  O   UNL     1      15.817  -4.981 -14.057  1.00  0.00    -0.454 OA
ENDROOT
BRANCH   1   2
ATOM      2  C   UNL     1      15.993  -4.280 -12.851  1.00  0.00     0.214 A 
ATOM      3  C   UNL     1      15.002  -4.372 -11.803  1.00  0.00     0.180 A 
ATOM      4  O   UNL     1      15.308  -3.923 -10.577  1.00  0.00    -0.452 OA
ATOM      5  C   UNL     1      17.112  -3.491 -12.600  1.00  0.00     0.239 A 
ATOM      6  C   UNL     1      16.483  -3.404 -10.265  1.00  0.00     0.146 A 
ATOM      7  O   UNL     1      17.860  -3.088 -13.539  1.00  0.00    -0.285 OA
ATOM      8  C   UNL     1      17.416  -3.141 -11.267  1.00  0.00     0.111 A 
ATOM      9  C   UNL     1      16.738  -3.040  -8.944  1.00  0.00     0.094 A 
ATOM     10  C   UNL     1      18.668  -2.587 -10.919  1.00  0.00     0.134 A 
ATOM     11  C   UNL     1      18.019  -2.584  -8.557  1.00  0.00     0.123 A 
ATOM     12  C   UNL     1      18.994  -2.379  -9.545  1.00  0.00     0.093 A 
BRANCH   3  13
ATOM     13  C   UNL     1      13.736  -5.166 -11.821  1.00  0.00     0.025 A 
ATOM     14  C   UNL     1      12.527  -4.479 -11.590  1.00  0.00     0.016 A 
ATOM     15  C   UNL     1      11.400  -5.179 -11.188  1.00  0.00     0.051 A 
ATOM     16  C   UNL     1      11.413  -6.585 -11.069  1.00  0.00     0.157 A 
ATOM     17  C   UNL     1      13.775  -6.557 -11.740  1.00  0.00     0.062 A 
ATOM     18  C   UNL     1      12.621  -7.268 -11.334  1.00  0.00     0.158 A 
BRANCH  16  19
ATOM     19  O   UNL     1      10.246  -7.222 -10.652  1.00  0.00    -0.504 OA
ATOM     20  H   UNL     1       9.676  -6.888  -9.895  1.00  0.00     0.293 HD
ENDBRANCH  16  19
BRANCH  18  21
ATOM     21  O   UNL     1      12.694  -8.671 -11.330  1.00  0.00    -0.504 OA
ATOM     22  H   UNL     1      13.590  -9.205 -11.297  1.00  0.00     0.293 HD
ENDBRANCH  18  21
ENDBRANCH   3  13
BRANCH  10  23
ATOM     23  O   UNL     1      19.626  -2.266 -11.879  1.00  0.00    -0.507 OA
ATOM     24  H   UNL     1      20.474  -1.708 -11.643  1.00  0.00     0.293 HD
ENDBRANCH  10  23
BRANCH  11  25
ATOM     25  O   UNL     1      18.334  -2.501  -7.193  1.00  0.00    -0.508 OA
ATOM     26  H   UNL     1      17.708  -2.871  -6.468  1.00  0.00     0.293 HD
ENDBRANCH  11  25
ENDBRANCH   1   2
BRANCH   1  27
ATOM     27  C   UNL     1      16.225  -6.332 -14.223  1.00  0.00     0.339 C 
ATOM     28  C   UNL     1      16.654  -6.562 -15.710  1.00  0.00     0.214 C 
ATOM     29  O   UNL     1      17.225  -6.705 -13.211  1.00  0.00    -0.332 OA
ATOM     30  C   UNL     1      18.093  -6.052 -15.752  1.00  0.00     0.180 C 
ATOM     31  C   UNL     1      18.479  -7.339 -13.566  1.00  0.00     0.179 C 
ATOM     32  C   UNL     1      18.849  -7.212 -15.072  1.00  0.00     0.177 C 
BRANCH  28  33
ATOM     33  O   UNL     1      15.988  -5.721 -16.628  1.00  0.00    -0.384 OA
ATOM     34  H   UNL     1      15.063  -5.719 -16.254  1.00  0.00     0.211 HD
ENDBRANCH  28  33
BRANCH  30  35
ATOM     35  O   UNL     1      18.726  -5.946 -17.030  1.00  0.00    -0.387 OA
ATOM     36  H   UNL     1      18.955  -4.982 -17.237  1.00  0.00     0.211 HD
ENDBRANCH  30  35
BRANCH  31  37
ATOM     37  C   UNL     1      19.599  -6.769 -12.621  1.00  0.00     0.191 C 
BRANCH  37  38
ATOM     38  O   UNL     1      19.633  -5.361 -12.845  1.00  0.00    -0.394 OA
ATOM     39  H   UNL     1      18.998  -5.179 -13.600  1.00  0.00     0.210 HD
ENDBRANCH  37  38
ENDBRANCH  31  37
BRANCH  32  40
ATOM     40  O   UNL     1      20.254  -7.200 -15.330  1.00  0.00    -0.387 OA
ATOM     41  H   UNL     1      20.665  -7.743 -14.582  1.00  0.00     0.211 HD
ENDBRANCH  32  40
ENDBRANCH   1  27
TORSDOF 12
ENDMDL
MODEL 9
REMARK VINA RESULT:    -6.102      3.877      7.726
REMARK INTER + INTRA:         -10.428
REMARK INTER:                  -9.059
REMARK INTRA:                  -1.369
REMARK UNBOUND:                -1.472
REMARK SMILES O=c1c(O[C@@H]2O[C@H](CO)[C@H](O)[C@@H](O)[C@@H]2O)c(-c2ccc(O)c(O)c2)oc2cc(O)cc(O)c12
REMARK SMILES IDX 4 1 3 2 16 3 25 4 2 5 26 6 1 7 33 8 27 9 31 10 28 11 30 12
REMARK SMILES IDX 17 13 18 14 19 15 20 16 24 17 22 18 21 19 23 21 32 23 29 25
REMARK SMILES IDX 5 27 14 28 6 29 12 30 7 31 10 32 15 33 13 35 8 37 9 38 11 40
REMARK H PARENT 21 20 23 22 32 24 29 26 15 34 13 36 9 39 11 41
REMARK Flexibility Score: inf
ROOT
ATOM      1  O   UNL     1      15.703  -1.197 -11.163  1.00  0.00    -0.454 OA
ENDROOT
BRANCH   1   2
ATOM      2  C   UNL     1      16.491  -1.538 -10.048  1.00  0.00     0.214 A 
ATOM      3  C   UNL     1      16.713  -2.924  -9.710  1.00  0.00     0.180 A 
ATOM      4  O   UNL     1      17.671  -3.232  -8.822  1.00  0.00    -0.452 OA
ATOM      5  C   UNL     1      17.099  -0.580  -9.241  1.00  0.00     0.239 A 
ATOM      6  C   UNL     1      18.440  -2.329  -8.240  1.00  0.00     0.146 A 
ATOM      7  O   UNL     1      16.720   0.628  -9.248  1.00  0.00    -0.285 OA
ATOM      8  C   UNL     1      18.165  -0.971  -8.403  1.00  0.00     0.111 A 
ATOM      9  C   UNL     1      19.464  -2.748  -7.393  1.00  0.00     0.094 A 
ATOM     10  C   UNL     1      18.997  -0.016  -7.776  1.00  0.00     0.134 A 
ATOM     11  C   UNL     1      20.371  -1.815  -6.841  1.00  0.00     0.123 A 
ATOM     12  C   UNL     1      20.150  -0.446  -7.053  1.00  0.00     0.093 A 
BRANCH   3  13
ATOM     13  C   UNL     1      16.193  -4.127 -10.428  1.00  0.00     0.025 A 
ATOM     14  C   UNL     1      17.022  -4.719 -11.403  1.00  0.00     0.016 A 
ATOM     15  C   UNL     1      16.471  -5.545 -12.369  1.00  0.00     0.051 A 
ATOM     16  C   UNL     1      15.097  -5.869 -12.362  1.00  0.00     0.157 A 
ATOM     17  C   UNL     1      14.839  -4.448 -10.376  1.00  0.00     0.062 A 
ATOM     18  C   UNL     1      14.280  -5.295 -11.362  1.00  0.00     0.158 A 
BRANCH  16  19
ATOM     19  O   UNL     1      14.610  -6.699 -13.370  1.00  0.00    -0.504 OA
ATOM     20  H   UNL     1      14.572  -6.428 -14.336  1.00  0.00     0.293 HD
ENDBRANCH  16  19
BRANCH  18  21
ATOM     21  O   UNL     1      12.924  -5.638 -11.229  1.00  0.00    -0.504 OA
ATOM     22  H   UNL     1      12.592  -6.554 -10.853  1.00  0.00     0.293 HD
ENDBRANCH  18  21
ENDBRANCH   3  13
BRANCH  10  23
ATOM     23  O   UNL     1      18.750   1.352  -7.870  1.00  0.00    -0.507 OA
ATOM     24  H   UNL     1      17.791   1.746  -7.759  1.00  0.00     0.293 HD
ENDBRANCH  10  23
BRANCH  11  25
ATOM     25  O   UNL     1      21.549  -2.279  -6.236  1.00  0.00    -0.508 OA
ATOM     26  H   UNL     1      21.551  -3.086  -5.602  1.00  0.00     0.293 HD
ENDBRANCH  11  25
ENDBRANCH   1   2
BRANCH   1  27
ATOM     27  C   UNL     1      16.048  -1.575 -12.488  1.00  0.00     0.339 C 
ATOM     28  C   UNL     1      14.748  -1.665 -13.354  1.00  0.00     0.214 C 
ATOM     29  O   UNL     1      17.105  -0.704 -13.023  1.00  0.00    -0.332 OA
ATOM     30  C   UNL     1      14.487  -0.217 -13.763  1.00  0.00     0.180 C 
ATOM     31  C   UNL     1      16.989  -0.057 -14.315  1.00  0.00     0.179 C 
ATOM     32  C   UNL     1      15.537  -0.020 -14.876  1.00  0.00     0.177 C 
BRANCH  28  33
ATOM     33  O   UNL     1      13.596  -2.000 -12.610  1.00  0.00    -0.384 OA
ATOM     34  H   UNL     1      12.873  -1.637 -13.194  1.00  0.00     0.211 HD
ENDBRANCH  28  33
BRANCH  30  35
ATOM     35  O   UNL     1      13.251   0.079 -14.416  1.00  0.00    -0.387 OA
ATOM     36  H   UNL     1      13.401   0.271 -15.399  1.00  0.00     0.211 HD
ENDBRANCH  30  35
BRANCH  31  37
ATOM     37  C   UNL     1      17.626   1.376 -14.203  1.00  0.00     0.191 C 
BRANCH  37  38
ATOM     38  O   UNL     1      18.159   1.678 -15.491  1.00  0.00    -0.394 OA
ATOM     39  H   UNL     1      19.113   1.371 -15.484  1.00  0.00     0.210 HD
ENDBRANCH  37  38
ENDBRANCH  31  37
BRANCH  32  40
ATOM     40  O   UNL     1      15.265   1.101 -15.720  1.00  0.00    -0.387 OA
ATOM     41  H   UNL     1      14.259   1.122 -15.814  1.00  0.00     0.211 HD
ENDBRANCH  32  40
ENDBRANCH   1  27
TORSDOF 12
ENDMDL
