MODEL 1
REMARK VINA RESULT:    -5.831      0.000      0.000
REMARK INTER + INTRA:         -12.144
REMARK INTER:                 -10.603
REMARK INTRA:                  -1.542
REMARK UNBOUND:                -1.542
REMARK SMILES CCCCCCCCCCCCCCCC(=O)[O-]
REMARK SMILES IDX 9 1 10 2 11 3 12 4 13 5 14 6 15 7 16 8 17 9 18 10 8 11 7 12
REMARK SMILES IDX 6 13 5 14 4 15 3 16 2 17 1 18
REMARK H PARENT
REMARK Flexibility Score: inf
ROOT
ATOM      1  C   UNL     1      10.201 -11.891  -7.594  1.00  0.00     0.000 C 
ENDROOT
BRANCH   1   2
ATOM      2  C   UNL     1      11.484 -12.421  -6.928  1.00  0.00     0.000 C 
BRANCH   2   3
ATOM      3  C   UNL     1      12.147 -11.382  -6.009  1.00  0.00     0.000 C 
BRANCH   3   4
ATOM      4  C   UNL     1      12.774 -12.018  -4.756  1.00  0.00     0.000 C 
BRANCH   4   5
ATOM      5  C   UNL     1      12.299 -13.462  -4.515  1.00  0.00     0.000 C 
BRANCH   5   6
ATOM      6  C   UNL     1      12.516 -13.996  -3.084  1.00  0.00     0.006 C 
BRANCH   6   7
ATOM      7  C   UNL     1      12.085 -13.031  -1.969  1.00  0.00     0.053 C 
BRANCH   7   8
ATOM      8  C   UNL     1      13.252 -12.544  -1.165  1.00  0.00     0.041 C 
ATOM      9  O   UNL     1      14.396 -13.038  -1.348  1.00  0.00    -0.550 OA
ATOM     10  O   UNL     1      13.069 -11.571  -0.191  1.00  0.00    -0.550 OA
ENDBRANCH   7   8
ENDBRANCH   6   7
ENDBRANCH   5   6
ENDBRANCH   4   5
ENDBRANCH   3   4
ENDBRANCH   2   3
ENDBRANCH   1   2
BRANCH   1  11
ATOM     11  C   UNL     1       8.954 -12.691  -7.186  1.00  0.00     0.000 C 
BRANCH  11  12
ATOM     12  C   UNL     1       8.986 -13.119  -5.707  1.00  0.00    -0.000 C 
BRANCH  12  13
ATOM     13  C   UNL     1       8.629 -11.970  -4.750  1.00  0.00    -0.000 C 
BRANCH  13  14
ATOM     14  C   UNL     1       8.832 -12.348  -3.273  1.00  0.00    -0.000 C 
BRANCH  14  15
ATOM     15  C   UNL     1       8.433 -11.220  -2.304  1.00  0.00    -0.000 C 
BRANCH  15  16
ATOM     16  C   UNL     1       7.792 -11.686  -0.985  1.00  0.00    -0.000 C 
BRANCH  16  17
ATOM     17  C   UNL     1       6.288 -11.967  -1.115  1.00  0.00    -0.003 C 
ATOM     18  C   UNL     1       5.539 -11.547   0.147  1.00  0.00     0.004 C 
ENDBRANCH  16  17
ENDBRANCH  15  16
ENDBRANCH  14  15
ENDBRANCH  13  14
ENDBRANCH  12  13
ENDBRANCH  11  12
ENDBRANCH   1  11
TORSDOF 14
ENDMDL
MODEL 2
REMARK VINA RESULT:    -5.794      2.407      2.743
REMARK INTER + INTRA:         -12.078
REMARK INTER:                 -10.224
REMARK INTRA:                  -1.853
REMARK UNBOUND:                -1.542
REMARK SMILES CCCCCCCCCCCCCCCC(=O)[O-]
REMARK SMILES IDX 9 1 10 2 11 3 12 4 13 5 14 6 15 7 16 8 17 9 18 10 8 11 7 12
REMARK SMILES IDX 6 13 5 14 4 15 3 16 2 17 1 18
REMARK H PARENT
REMARK Flexibility Score: inf
ROOT
ATOM      1  C   UNL     1       9.650 -12.257  -7.409  1.00  0.00     0.000 C 
ENDROOT
BRANCH   1   2
ATOM      2  C   UNL     1      10.968 -12.691  -6.742  1.00  0.00     0.000 C 
BRANCH   2   3
ATOM      3  C   UNL     1      11.924 -11.513  -6.497  1.00  0.00     0.000 C 
BRANCH   3   4
ATOM      4  C   UNL     1      12.972 -11.819  -5.413  1.00  0.00     0.000 C 
BRANCH   4   5
ATOM      5  C   UNL     1      12.356 -12.423  -4.138  1.00  0.00     0.000 C 
BRANCH   5   6
ATOM      6  C   UNL     1      12.768 -13.879  -3.835  1.00  0.00     0.006 C 
BRANCH   6   7
ATOM      7  C   UNL     1      11.595 -14.863  -3.709  1.00  0.00     0.053 C 
BRANCH   7   8
ATOM      8  C   UNL     1      11.565 -15.850  -4.836  1.00  0.00     0.041 C 
ATOM      9  O   UNL     1      12.471 -15.840  -5.709  1.00  0.00    -0.550 OA
ATOM     10  O   UNL     1      10.517 -16.756  -4.940  1.00  0.00    -0.550 OA
ENDBRANCH   7   8
ENDBRANCH   6   7
ENDBRANCH   5   6
ENDBRANCH   4   5
ENDBRANCH   3   4
ENDBRANCH   2   3
ENDBRANCH   1   2
BRANCH   1  11
ATOM     11  C   UNL     1       8.460 -12.294  -6.436  1.00  0.00     0.000 C 
BRANCH  11  12
ATOM     12  C   UNL     1       8.865 -12.767  -5.028  1.00  0.00    -0.000 C 
BRANCH  12  13
ATOM     13  C   UNL     1       8.800 -11.641  -3.983  1.00  0.00    -0.000 C 
BRANCH  13  14
ATOM     14  C   UNL     1       9.124 -12.135  -2.563  1.00  0.00    -0.000 C 
BRANCH  14  15
ATOM     15  C   UNL     1       8.396 -13.443  -2.203  1.00  0.00    -0.000 C 
BRANCH  15  16
ATOM     16  C   UNL     1       7.496 -13.369  -0.956  1.00  0.00    -0.000 C 
BRANCH  16  17
ATOM     17  C   UNL     1       6.212 -12.560  -1.190  1.00  0.00    -0.003 C 
ATOM     18  C   UNL     1       6.060 -11.456  -0.146  1.00  0.00     0.004 C 
ENDBRANCH  16  17
ENDBRANCH  15  16
ENDBRANCH  14  15
ENDBRANCH  13  14
ENDBRANCH  12  13
ENDBRANCH  11  12
ENDBRANCH   1  11
TORSDOF 14
ENDMDL
MODEL 3
REMARK VINA RESULT:    -5.766      2.745      5.403
REMARK INTER + INTRA:         -12.026
REMARK INTER:                 -10.045
REMARK INTRA:                  -1.981
REMARK UNBOUND:                -1.542
REMARK SMILES CCCCCCCCCCCCCCCC(=O)[O-]
REMARK SMILES IDX 9 1 10 2 11 3 12 4 13 5 14 6 15 7 16 8 17 9 18 10 8 11 7 12
REMARK SMILES IDX 6 13 5 14 4 15 3 16 2 17 1 18
REMARK H PARENT
REMARK Flexibility Score: inf
ROOT
ATOM      1  C   UNL     1       9.095 -12.994  -6.926  1.00  0.00     0.000 C 
ENDROOT
BRANCH   1   2
ATOM      2  C   UNL     1       9.223 -13.226  -5.410  1.00  0.00     0.000 C 
BRANCH   2   3
ATOM      3  C   UNL     1       8.678 -12.051  -4.583  1.00  0.00     0.000 C 
BRANCH   3   4
ATOM      4  C   UNL     1       9.147 -12.093  -3.118  1.00  0.00     0.000 C 
BRANCH   4   5
ATOM      5  C   UNL     1       8.747 -13.392  -2.397  1.00  0.00     0.000 C 
BRANCH   5   6
ATOM      6  C   UNL     1       7.431 -13.321  -1.594  1.00  0.00     0.006 C 
BRANCH   6   7
ATOM      7  C   UNL     1       7.496 -12.439  -0.338  1.00  0.00     0.053 C 
BRANCH   7   8
ATOM      8  C   UNL     1       6.511 -11.310  -0.392  1.00  0.00     0.041 C 
ATOM      9  O   UNL     1       5.727 -11.109   0.571  1.00  0.00    -0.550 OA
ATOM     10  O   UNL     1       6.437 -10.506  -1.522  1.00  0.00    -0.550 OA
ENDBRANCH   7   8
ENDBRANCH   6   7
ENDBRANCH   5   6
ENDBRANCH   4   5
ENDBRANCH   3   4
ENDBRANCH   2   3
ENDBRANCH   1   2
BRANCH   1  11
ATOM     11  C   UNL     1      10.181 -12.052  -7.470  1.00  0.00     0.000 C 
BRANCH  11  12
ATOM     12  C   UNL     1      11.581 -12.391  -6.926  1.00  0.00    -0.000 C 
BRANCH  12  13
ATOM     13  C   UNL     1      12.124 -11.316  -5.971  1.00  0.00    -0.000 C 
BRANCH  13  14
ATOM     14  C   UNL     1      13.181 -11.868  -5.001  1.00  0.00    -0.000 C 
BRANCH  14  15
ATOM     15  C   UNL     1      12.563 -12.538  -3.759  1.00  0.00    -0.000 C 
BRANCH  15  16
ATOM     16  C   UNL     1      12.981 -14.002  -3.530  1.00  0.00    -0.000 C 
BRANCH  16  17
ATOM     17  C   UNL     1      11.812 -14.988  -3.672  1.00  0.00    -0.003 C 
ATOM     18  C   UNL     1      11.897 -15.756  -4.987  1.00  0.00     0.004 C 
ENDBRANCH  16  17
ENDBRANCH  15  16
ENDBRANCH  14  15
ENDBRANCH  13  14
ENDBRANCH  12  13
ENDBRANCH  11  12
ENDBRANCH   1  11
TORSDOF 14
ENDMDL
MODEL 4
REMARK VINA RESULT:    -5.760      1.548      2.111
REMARK INTER + INTRA:         -12.015
REMARK INTER:                 -10.588
REMARK INTRA:                  -1.427
REMARK UNBOUND:                -1.542
REMARK SMILES CCCCCCCCCCCCCCCC(=O)[O-]
REMARK SMILES IDX 9 1 10 2 11 3 12 4 13 5 14 6 15 7 16 8 17 9 18 10 8 11 7 12
REMARK SMILES IDX 6 13 5 14 4 15 3 16 2 17 1 18
REMARK H PARENT
REMARK Flexibility Score: inf
ROOT
ATOM      1  C   UNL     1      11.317 -12.517  -6.748  1.00  0.00     0.000 C 
ENDROOT
BRANCH   1   2
ATOM      2  C   UNL     1      12.074 -11.368  -6.056  1.00  0.00     0.000 C 
BRANCH   2   3
ATOM      3  C   UNL     1      12.996 -11.860  -4.930  1.00  0.00     0.000 C 
BRANCH   3   4
ATOM      4  C   UNL     1      12.276 -12.795  -3.943  1.00  0.00     0.000 C 
BRANCH   4   5
ATOM      5  C   UNL     1      12.827 -12.693  -2.509  1.00  0.00     0.000 C 
BRANCH   5   6
ATOM      6  C   UNL     1      11.931 -13.309  -1.415  1.00  0.00     0.006 C 
BRANCH   6   7
ATOM      7  C   UNL     1      12.030 -12.622  -0.045  1.00  0.00     0.053 C 
BRANCH   7   8
ATOM      8  C   UNL     1      10.698 -12.130   0.435  1.00  0.00     0.041 C 
ATOM      9  O   UNL     1      10.124 -11.180  -0.158  1.00  0.00    -0.550 OA
ATOM     10  O   UNL     1      10.110 -12.698   1.558  1.00  0.00    -0.550 OA
ENDBRANCH   7   8
ENDBRANCH   6   7
ENDBRANCH   5   6
ENDBRANCH   4   5
ENDBRANCH   3   4
ENDBRANCH   2   3
ENDBRANCH   1   2
BRANCH   1  11
ATOM     11  C   UNL     1      10.118 -12.018  -7.570  1.00  0.00     0.000 C 
BRANCH  11  12
ATOM     12  C   UNL     1       8.779 -12.581  -7.060  1.00  0.00    -0.000 C 
BRANCH  12  13
ATOM     13  C   UNL     1       8.812 -12.924  -5.562  1.00  0.00    -0.000 C 
BRANCH  13  14
ATOM     14  C   UNL     1       8.350 -11.753  -4.679  1.00  0.00    -0.000 C 
BRANCH  14  15
ATOM     15  C   UNL     1       8.758 -11.917  -3.203  1.00  0.00    -0.000 C 
BRANCH  15  16
ATOM     16  C   UNL     1       7.599 -12.210  -2.233  1.00  0.00    -0.000 C 
BRANCH  16  17
ATOM     17  C   UNL     1       6.880 -10.939  -1.758  1.00  0.00    -0.003 C 
ATOM     18  C   UNL     1       6.142 -11.183  -0.444  1.00  0.00     0.004 C 
ENDBRANCH  16  17
ENDBRANCH  15  16
ENDBRANCH  14  15
ENDBRANCH  13  14
ENDBRANCH  12  13
ENDBRANCH  11  12
ENDBRANCH   1  11
TORSDOF 14
ENDMDL
MODEL 5
REMARK VINA RESULT:    -5.716      1.643      5.360
REMARK INTER + INTRA:         -11.936
REMARK INTER:                 -10.439
REMARK INTRA:                  -1.497
REMARK UNBOUND:                -1.542
REMARK SMILES CCCCCCCCCCCCCCCC(=O)[O-]
REMARK SMILES IDX 9 1 10 2 11 3 12 4 13 5 14 6 15 7 16 8 17 9 18 10 8 11 7 12
REMARK SMILES IDX 6 13 5 14 4 15 3 16 2 17 1 18
REMARK H PARENT
REMARK Flexibility Score: inf
ROOT
ATOM      1  C   UNL     1       7.435 -11.114  -3.734  1.00  0.00     0.000 C 
ENDROOT
BRANCH   1   2
ATOM      2  C   UNL     1       7.676 -10.478  -2.353  1.00  0.00     0.000 C 
BRANCH   2   3
ATOM      3  C   UNL     1       6.495 -10.689  -1.391  1.00  0.00     0.000 C 
BRANCH   3   4
ATOM      4  C   UNL     1       6.280 -12.171  -1.037  1.00  0.00     0.000 C 
BRANCH   4   5
ATOM      5  C   UNL     1       7.164 -12.643   0.131  1.00  0.00     0.000 C 
BRANCH   5   6
ATOM      6  C   UNL     1       8.238 -13.688  -0.238  1.00  0.00     0.006 C 
BRANCH   6   7
ATOM      7  C   UNL     1       9.566 -13.094  -0.731  1.00  0.00     0.053 C 
BRANCH   7   8
ATOM      8  C   UNL     1      10.389 -12.545   0.395  1.00  0.00     0.041 C 
ATOM      9  O   UNL     1      10.052 -12.763   1.588  1.00  0.00    -0.550 OA
ATOM     10  O   UNL     1      11.505 -11.765   0.124  1.00  0.00    -0.550 OA
ENDBRANCH   7   8
ENDBRANCH   6   7
ENDBRANCH   5   6
ENDBRANCH   4   5
ENDBRANCH   3   4
ENDBRANCH   2   3
ENDBRANCH   1   2
BRANCH   1  11
ATOM     11  C   UNL     1       8.633 -11.952  -4.211  1.00  0.00     0.000 C 
BRANCH  11  12
ATOM     12  C   UNL     1       8.539 -12.317  -5.704  1.00  0.00    -0.000 C 
BRANCH  12  13
ATOM     13  C   UNL     1       9.784 -13.063  -6.211  1.00  0.00    -0.000 C 
BRANCH  13  14
ATOM     14  C   UNL     1      10.534 -12.282  -7.304  1.00  0.00    -0.000 C 
BRANCH  14  15
ATOM     15  C   UNL     1      11.974 -11.917  -6.899  1.00  0.00    -0.000 C 
BRANCH  15  16
ATOM     16  C   UNL     1      12.134 -11.384  -5.463  1.00  0.00    -0.000 C 
BRANCH  16  17
ATOM     17  C   UNL     1      12.958 -12.320  -4.566  1.00  0.00    -0.003 C 
ATOM     18  C   UNL     1      12.176 -12.709  -3.314  1.00  0.00     0.004 C 
ENDBRANCH  16  17
ENDBRANCH  15  16
ENDBRANCH  14  15
ENDBRANCH  13  14
ENDBRANCH  12  13
ENDBRANCH  11  12
ENDBRANCH   1  11
TORSDOF 14
ENDMDL
MODEL 6
REMARK VINA RESULT:    -5.634      2.635      5.186
REMARK INTER + INTRA:         -11.786
REMARK INTER:                  -9.870
REMARK INTRA:                  -1.917
REMARK UNBOUND:                -1.542
REMARK SMILES CCCCCCCCCCCCCCCC(=O)[O-]
REMARK SMILES IDX 9 1 10 2 11 3 12 4 13 5 14 6 15 7 16 8 17 9 18 10 8 11 7 12
REMARK SMILES IDX 6 13 5 14 4 15 3 16 2 17 1 18
REMARK H PARENT
REMARK Flexibility Score: inf
ROOT
ATOM      1  C   UNL     1       9.974 -12.334  -7.233  1.00  0.00     0.000 C 
ENDROOT
BRANCH   1   2
ATOM      2  C   UNL     1       8.872 -12.863  -6.298  1.00  0.00     0.000 C 
BRANCH   2   3
ATOM      3  C   UNL     1       9.418 -13.809  -5.215  1.00  0.00     0.000 C 
BRANCH   3   4
ATOM      4  C   UNL     1       9.088 -13.328  -3.791  1.00  0.00     0.000 C 
BRANCH   4   5
ATOM      5  C   UNL     1       8.901 -11.802  -3.702  1.00  0.00     0.000 C 
BRANCH   5   6
ATOM      6  C   UNL     1       8.732 -11.242  -2.275  1.00  0.00     0.006 C 
BRANCH   6   7
ATOM      7  C   UNL     1       7.330 -10.696  -1.963  1.00  0.00     0.053 C 
BRANCH   7   8
ATOM      8  C   UNL     1       6.593 -11.565  -0.990  1.00  0.00     0.041 C 
ATOM      9  O   UNL     1       6.456 -11.199   0.206  1.00  0.00    -0.550 OA
ATOM     10  O   UNL     1       6.089 -12.794  -1.397  1.00  0.00    -0.550 OA
ENDBRANCH   7   8
ENDBRANCH   6   7
ENDBRANCH   5   6
ENDBRANCH   4   5
ENDBRANCH   3   4
ENDBRANCH   2   3
ENDBRANCH   1   2
BRANCH   1  11
ATOM     11  C   UNL     1      11.386 -12.611  -6.692  1.00  0.00     0.000 C 
BRANCH  11  12
ATOM     12  C   UNL     1      12.067 -11.342  -6.147  1.00  0.00    -0.000 C 
BRANCH  12  13
ATOM     13  C   UNL     1      13.175 -11.655  -5.128  1.00  0.00    -0.000 C 
BRANCH  13  14
ATOM     14  C   UNL     1      12.827 -12.854  -4.229  1.00  0.00    -0.000 C 
BRANCH  14  15
ATOM     15  C   UNL     1      12.516 -12.445  -2.778  1.00  0.00    -0.000 C 
BRANCH  15  16
ATOM     16  C   UNL     1      12.298 -13.615  -1.801  1.00  0.00    -0.000 C 
BRANCH  16  17
ATOM     17  C   UNL     1      13.043 -13.431  -0.471  1.00  0.00    -0.003 C 
ATOM     18  C   UNL     1      13.658 -12.038  -0.372  1.00  0.00     0.004 C 
ENDBRANCH  16  17
ENDBRANCH  15  16
ENDBRANCH  14  15
ENDBRANCH  13  14
ENDBRANCH  12  13
ENDBRANCH  11  12
ENDBRANCH   1  11
TORSDOF 14
ENDMDL
MODEL 7
REMARK VINA RESULT:    -5.633      1.322      2.023
REMARK INTER + INTRA:         -11.784
REMARK INTER:                  -9.920
REMARK INTRA:                  -1.864
REMARK UNBOUND:                -1.542
REMARK SMILES CCCCCCCCCCCCCCCC(=O)[O-]
REMARK SMILES IDX 9 1 10 2 11 3 12 4 13 5 14 6 15 7 16 8 17 9 18 10 8 11 7 12
REMARK SMILES IDX 6 13 5 14 4 15 3 16 2 17 1 18
REMARK H PARENT
REMARK Flexibility Score: inf
ROOT
ATOM      1  C   UNL     1       9.641 -12.372  -7.374  1.00  0.00     0.000 C 
ENDROOT
BRANCH   1   2
ATOM      2  C   UNL     1      10.926 -12.744  -6.612  1.00  0.00     0.000 C 
BRANCH   2   3
ATOM      3  C   UNL     1      11.914 -11.570  -6.509  1.00  0.00     0.000 C 
BRANCH   3   4
ATOM      4  C   UNL     1      12.702 -11.577  -5.187  1.00  0.00     0.000 C 
BRANCH   4   5
ATOM      5  C   UNL     1      12.534 -12.887  -4.396  1.00  0.00     0.000 C 
BRANCH   5   6
ATOM      6  C   UNL     1      11.921 -12.732  -2.989  1.00  0.00     0.006 C 
BRANCH   6   7
ATOM      7  C   UNL     1      12.630 -13.538  -1.890  1.00  0.00     0.053 C 
BRANCH   7   8
ATOM      8  C   UNL     1      13.530 -12.678  -1.055  1.00  0.00     0.041 C 
ATOM      9  O   UNL     1      13.123 -11.566  -0.627  1.00  0.00    -0.550 OA
ATOM     10  O   UNL     1      14.828 -13.089  -0.781  1.00  0.00    -0.550 OA
ENDBRANCH   7   8
ENDBRANCH   6   7
ENDBRANCH   5   6
ENDBRANCH   4   5
ENDBRANCH   3   4
ENDBRANCH   2   3
ENDBRANCH   1   2
BRANCH   1  11
ATOM     11  C   UNL     1       8.415 -12.291  -6.451  1.00  0.00     0.000 C 
BRANCH  11  12
ATOM     12  C   UNL     1       8.795 -12.353  -4.960  1.00  0.00    -0.000 C 
BRANCH  12  13
ATOM     13  C   UNL     1       7.913 -11.447  -4.085  1.00  0.00    -0.000 C 
BRANCH  13  14
ATOM     14  C   UNL     1       8.471 -11.279  -2.662  1.00  0.00    -0.000 C 
BRANCH  14  15
ATOM     15  C   UNL     1       7.852 -12.267  -1.655  1.00  0.00    -0.000 C 
BRANCH  15  16
ATOM     16  C   UNL     1       8.723 -13.492  -1.323  1.00  0.00    -0.000 C 
BRANCH  16  17
ATOM     17  C   UNL     1       8.079 -14.819  -1.751  1.00  0.00    -0.003 C 
ATOM     18  C   UNL     1       8.898 -15.499  -2.846  1.00  0.00     0.004 C 
ENDBRANCH  16  17
ENDBRANCH  15  16
ENDBRANCH  14  15
ENDBRANCH  13  14
ENDBRANCH  12  13
ENDBRANCH  11  12
ENDBRANCH   1  11
TORSDOF 14
ENDMDL
MODEL 8
REMARK VINA RESULT:    -5.622      1.805      4.363
REMARK INTER + INTRA:         -11.765
REMARK INTER:                  -9.775
REMARK INTRA:                  -1.990
REMARK UNBOUND:                -1.542
REMARK SMILES CCCCCCCCCCCCCCCC(=O)[O-]
REMARK SMILES IDX 9 1 10 2 11 3 12 4 13 5 14 6 15 7 16 8 17 9 18 10 8 11 7 12
REMARK SMILES IDX 6 13 5 14 4 15 3 16 2 17 1 18
REMARK H PARENT
REMARK Flexibility Score: inf
ROOT
ATOM      1  C   UNL     1       8.889 -12.392  -7.234  1.00  0.00     0.000 C 
ENDROOT
BRANCH   1   2
ATOM      2  C   UNL     1       8.877 -12.970  -5.807  1.00  0.00     0.000 C 
BRANCH   2   3
ATOM      3  C   UNL     1       8.356 -11.966  -4.766  1.00  0.00     0.000 C 
BRANCH   3   4
ATOM      4  C   UNL     1       9.188 -11.975  -3.471  1.00  0.00     0.000 C 
BRANCH   4   5
ATOM      5  C   UNL     1       8.412 -12.534  -2.265  1.00  0.00     0.000 C 
BRANCH   5   6
ATOM      6  C   UNL     1       9.041 -13.774  -1.596  1.00  0.00     0.006 C 
BRANCH   6   7
ATOM      7  C   UNL     1       8.885 -13.825  -0.069  1.00  0.00     0.053 C 
BRANCH   7   8
ATOM      8  C   UNL     1       9.907 -12.981   0.629  1.00  0.00     0.041 C 
ATOM      9  O   UNL     1      10.776 -13.518   1.364  1.00  0.00    -0.550 OA
ATOM     10  O   UNL     1       9.876 -11.598   0.495  1.00  0.00    -0.550 OA
ENDBRANCH   7   8
ENDBRANCH   6   7
ENDBRANCH   5   6
ENDBRANCH   4   5
ENDBRANCH   3   4
ENDBRANCH   2   3
ENDBRANCH   1   2
BRANCH   1  11
ATOM     11  C   UNL     1      10.304 -12.023  -7.706  1.00  0.00     0.000 C 
BRANCH  11  12
ATOM     12  C   UNL     1      11.398 -12.557  -6.762  1.00  0.00    -0.000 C 
BRANCH  12  13
ATOM     13  C   UNL     1      12.127 -11.436  -6.004  1.00  0.00    -0.000 C 
BRANCH  13  14
ATOM     14  C   UNL     1      12.893 -11.956  -4.777  1.00  0.00    -0.000 C 
BRANCH  14  15
ATOM     15  C   UNL     1      12.493 -13.390  -4.383  1.00  0.00    -0.000 C 
BRANCH  15  16
ATOM     16  C   UNL     1      12.551 -13.695  -2.875  1.00  0.00    -0.000 C 
BRANCH  16  17
ATOM     17  C   UNL     1      12.575 -12.428  -2.008  1.00  0.00    -0.003 C 
ATOM     18  C   UNL     1      13.564 -12.570  -0.854  1.00  0.00     0.004 C 
ENDBRANCH  16  17
ENDBRANCH  15  16
ENDBRANCH  14  15
ENDBRANCH  13  14
ENDBRANCH  12  13
ENDBRANCH  11  12
ENDBRANCH   1  11
TORSDOF 14
ENDMDL
MODEL 9
REMARK VINA RESULT:    -5.603      2.658      3.572
REMARK INTER + INTRA:         -11.730
REMARK INTER:                  -9.972
REMARK INTRA:                  -1.758
REMARK UNBOUND:                -1.542
REMARK SMILES CCCCCCCCCCCCCCCC(=O)[O-]
REMARK SMILES IDX 9 1 10 2 11 3 12 4 13 5 14 6 15 7 16 8 17 9 18 10 8 11 7 12
REMARK SMILES IDX 6 13 5 14 4 15 3 16 2 17 1 18
REMARK H PARENT
REMARK Flexibility Score: inf
ROOT
ATOM      1  C   UNL     1       8.836 -12.600  -5.593  1.00  0.00     0.000 C 
ENDROOT
BRANCH   1   2
ATOM      2  C   UNL     1      10.171 -12.474  -6.350  1.00  0.00     0.000 C 
BRANCH   2   3
ATOM      3  C   UNL     1      11.212 -11.646  -5.579  1.00  0.00     0.000 C 
BRANCH   3   4
ATOM      4  C   UNL     1      12.476 -12.456  -5.239  1.00  0.00     0.000 C 
BRANCH   4   5
ATOM      5  C   UNL     1      12.472 -12.996  -3.797  1.00  0.00     0.000 C 
BRANCH   5   6
ATOM      6  C   UNL     1      12.532 -14.532  -3.669  1.00  0.00     0.006 C 
BRANCH   6   7
ATOM      7  C   UNL     1      11.185 -15.243  -3.867  1.00  0.00     0.053 C 
BRANCH   7   8
ATOM      8  C   UNL     1      11.089 -15.902  -5.210  1.00  0.00     0.041 C 
ATOM      9  O   UNL     1       9.963 -16.133  -5.722  1.00  0.00    -0.550 OA
ATOM     10  O   UNL     1      12.243 -16.293  -5.877  1.00  0.00    -0.550 OA
ENDBRANCH   7   8
ENDBRANCH   6   7
ENDBRANCH   5   6
ENDBRANCH   4   5
ENDBRANCH   3   4
ENDBRANCH   2   3
ENDBRANCH   1   2
BRANCH   1  11
ATOM     11  C   UNL     1       8.913 -12.028  -4.168  1.00  0.00     0.000 C 
BRANCH  11  12
ATOM     12  C   UNL     1       7.700 -11.146  -3.821  1.00  0.00    -0.000 C 
BRANCH  12  13
ATOM     13  C   UNL     1       7.797 -10.529  -2.416  1.00  0.00    -0.000 C 
BRANCH  13  14
ATOM     14  C   UNL     1       6.512 -10.727  -1.595  1.00  0.00    -0.000 C 
BRANCH  14  15
ATOM     15  C   UNL     1       6.393 -12.142  -0.999  1.00  0.00    -0.000 C 
BRANCH  15  16
ATOM     16  C   UNL     1       7.713 -12.751  -0.492  1.00  0.00    -0.000 C 
BRANCH  16  17
ATOM     17  C   UNL     1       8.079 -14.063  -1.202  1.00  0.00    -0.003 C 
ATOM     18  C   UNL     1       7.901 -15.260  -0.272  1.00  0.00     0.004 C 
ENDBRANCH  16  17
ENDBRANCH  15  16
ENDBRANCH  14  15
ENDBRANCH  13  14
ENDBRANCH  12  13
ENDBRANCH  11  12
ENDBRANCH   1  11
TORSDOF 14
ENDMDL
