MODEL 1
REMARK VINA RESULT:    -3.706      0.000      0.000
REMARK INTER + INTRA:          -8.235
REMARK INTER:                  -6.306
REMARK INTRA:                  -1.929
REMARK UNBOUND:                -1.929
REMARK SMILES CCCCCCCCCCCCCC(=O)[O-]
REMARK SMILES IDX 8 1 9 2 10 3 11 4 12 5 13 6 14 7 15 8 16 9 7 10 6 11 5 12
REMARK SMILES IDX 4 13 3 14 2 15 1 16
REMARK H PARENT
REMARK Flexibility Score: inf
ROOT
ATOM      1  C   UNL     1     154.644 171.411 164.254  1.00  0.00     0.000 C 
ENDROOT
BRANCH   1   2
ATOM      2  C   UNL     1     154.550 171.503 165.786  1.00  0.00     0.000 C 
BRANCH   2   3
ATOM      3  C   UNL     1     155.672 172.355 166.397  1.00  0.00     0.000 C 
BRANCH   3   4
ATOM      4  C   UNL     1     155.446 173.847 166.108  1.00  0.00     0.000 C 
BRANCH   4   5
ATOM      5  C   UNL     1     156.717 174.554 165.611  1.00  0.00     0.006 C 
BRANCH   5   6
ATOM      6  C   UNL     1     158.001 173.883 166.114  1.00  0.00     0.053 C 
BRANCH   6   7
ATOM      7  C   UNL     1     159.200 174.683 165.714  1.00  0.00     0.041 C 
ATOM      8  O   UNL     1     159.142 175.461 164.726  1.00  0.00    -0.550 OA
ATOM      9  O   UNL     1     160.398 174.532 166.401  1.00  0.00    -0.550 OA
ENDBRANCH   6   7
ENDBRANCH   5   6
ENDBRANCH   4   5
ENDBRANCH   3   4
ENDBRANCH   2   3
ENDBRANCH   1   2
BRANCH   1  10
ATOM     10  C   UNL     1     153.277 171.545 163.567  1.00  0.00     0.000 C 
BRANCH  10  11
ATOM     11  C   UNL     1     153.312 172.636 162.485  1.00  0.00    -0.000 C 
BRANCH  11  12
ATOM     12  C   UNL     1     153.369 174.059 163.069  1.00  0.00    -0.000 C 
BRANCH  12  13
ATOM     13  C   UNL     1     154.556 174.913 162.586  1.00  0.00    -0.000 C 
BRANCH  13  14
ATOM     14  C   UNL     1     155.517 174.206 161.612  1.00  0.00    -0.000 C 
BRANCH  14  15
ATOM     15  C   UNL     1     157.008 174.399 161.958  1.00  0.00    -0.003 C 
ATOM     16  C   UNL     1     157.661 173.124 162.491  1.00  0.00     0.004 C 
ENDBRANCH  14  15
ENDBRANCH  13  14
ENDBRANCH  12  13
ENDBRANCH  11  12
ENDBRANCH  10  11
ENDBRANCH   1  10
TORSDOF 12
ENDMDL
MODEL 2
REMARK VINA RESULT:    -3.630      1.491      3.795
REMARK INTER + INTRA:          -8.105
REMARK INTER:                  -6.438
REMARK INTRA:                  -1.667
REMARK UNBOUND:                -1.929
REMARK SMILES CCCCCCCCCCCCCC(=O)[O-]
REMARK SMILES IDX 8 1 9 2 10 3 11 4 12 5 13 6 14 7 15 8 16 9 7 10 6 11 5 12
REMARK SMILES IDX 4 13 3 14 2 15 1 16
REMARK H PARENT
REMARK Flexibility Score: inf
ROOT
ATOM      1  C   UNL     1     155.801 173.853 162.494  1.00  0.00     0.000 C 
ENDROOT
BRANCH   1   2
ATOM      2  C   UNL     1     157.306 173.943 162.195  1.00  0.00     0.000 C 
BRANCH   2   3
ATOM      3  C   UNL     1     158.125 172.892 162.959  1.00  0.00     0.000 C 
BRANCH   3   4
ATOM      4  C   UNL     1     159.288 173.552 163.718  1.00  0.00     0.000 C 
BRANCH   4   5
ATOM      5  C   UNL     1     158.832 174.732 164.590  1.00  0.00     0.006 C 
BRANCH   5   6
ATOM      6  C   UNL     1     159.999 175.427 165.302  1.00  0.00     0.053 C 
BRANCH   6   7
ATOM      7  C   UNL     1     160.345 174.705 166.565  1.00  0.00     0.041 C 
ATOM      8  O   UNL     1     161.471 174.872 167.103  1.00  0.00    -0.550 OA
ATOM      9  O   UNL     1     159.443 173.807 167.122  1.00  0.00    -0.550 OA
ENDBRANCH   6   7
ENDBRANCH   5   6
ENDBRANCH   4   5
ENDBRANCH   3   4
ENDBRANCH   2   3
ENDBRANCH   1   2
BRANCH   1  10
ATOM     10  C   UNL     1     155.197 175.202 162.912  1.00  0.00     0.000 C 
BRANCH  10  11
ATOM     11  C   UNL     1     155.461 175.484 164.399  1.00  0.00    -0.000 C 
BRANCH  11  12
ATOM     12  C   UNL     1     154.795 174.456 165.332  1.00  0.00    -0.000 C 
BRANCH  12  13
ATOM     13  C   UNL     1     155.770 173.632 166.194  1.00  0.00    -0.000 C 
BRANCH  13  14
ATOM     14  C   UNL     1     155.516 172.113 166.197  1.00  0.00    -0.000 C 
BRANCH  14  15
ATOM     15  C   UNL     1     154.258 171.691 165.409  1.00  0.00    -0.003 C 
ATOM     16  C   UNL     1     154.590 170.868 164.164  1.00  0.00     0.004 C 
ENDBRANCH  14  15
ENDBRANCH  13  14
ENDBRANCH  12  13
ENDBRANCH  11  12
ENDBRANCH  10  11
ENDBRANCH   1  10
TORSDOF 12
ENDMDL
MODEL 3
REMARK VINA RESULT:    -3.628      1.768      4.073
REMARK INTER + INTRA:          -8.102
REMARK INTER:                  -6.225
REMARK INTRA:                  -1.878
REMARK UNBOUND:                -1.929
REMARK SMILES CCCCCCCCCCCCCC(=O)[O-]
REMARK SMILES IDX 8 1 9 2 10 3 11 4 12 5 13 6 14 7 15 8 16 9 7 10 6 11 5 12
REMARK SMILES IDX 4 13 3 14 2 15 1 16
REMARK H PARENT
REMARK Flexibility Score: inf
ROOT
ATOM      1  C   UNL     1     155.682 173.927 166.252  1.00  0.00     0.000 C 
ENDROOT
BRANCH   1   2
ATOM      2  C   UNL     1     156.731 174.567 165.329  1.00  0.00     0.000 C 
BRANCH   2   3
ATOM      3  C   UNL     1     158.124 173.940 165.491  1.00  0.00     0.000 C 
BRANCH   3   4
ATOM      4  C   UNL     1     158.694 173.517 164.128  1.00  0.00     0.000 C 
BRANCH   4   5
ATOM      5  C   UNL     1     157.622 173.457 163.029  1.00  0.00     0.006 C 
BRANCH   5   6
ATOM      6  C   UNL     1     158.135 173.957 161.673  1.00  0.00     0.053 C 
BRANCH   6   7
ATOM      7  C   UNL     1     157.625 175.335 161.397  1.00  0.00     0.041 C 
ATOM      8  O   UNL     1     157.375 176.121 162.348  1.00  0.00    -0.550 OA
ATOM      9  O   UNL     1     157.378 175.736 160.090  1.00  0.00    -0.550 OA
ENDBRANCH   6   7
ENDBRANCH   5   6
ENDBRANCH   4   5
ENDBRANCH   3   4
ENDBRANCH   2   3
ENDBRANCH   1   2
BRANCH   1  10
ATOM     10  C   UNL     1     156.070 172.509 166.698  1.00  0.00     0.000 C 
BRANCH  10  11
ATOM     11  C   UNL     1     154.956 171.505 166.367  1.00  0.00    -0.000 C 
BRANCH  11  12
ATOM     12  C   UNL     1     154.718 171.349 164.854  1.00  0.00    -0.000 C 
BRANCH  12  13
ATOM     13  C   UNL     1     153.261 171.559 164.399  1.00  0.00    -0.000 C 
BRANCH  13  14
ATOM     14  C   UNL     1     152.954 172.948 163.810  1.00  0.00    -0.000 C 
BRANCH  14  15
ATOM     15  C   UNL     1     154.048 173.475 162.858  1.00  0.00    -0.003 C 
ATOM     16  C   UNL     1     154.060 175.001 162.758  1.00  0.00     0.004 C 
ENDBRANCH  14  15
ENDBRANCH  13  14
ENDBRANCH  12  13
ENDBRANCH  11  12
ENDBRANCH  10  11
ENDBRANCH   1  10
TORSDOF 12
ENDMDL
MODEL 4
REMARK VINA RESULT:    -3.596      2.708      4.897
REMARK INTER + INTRA:          -8.047
REMARK INTER:                  -6.562
REMARK INTRA:                  -1.485
REMARK UNBOUND:                -1.929
REMARK SMILES CCCCCCCCCCCCCC(=O)[O-]
REMARK SMILES IDX 8 1 9 2 10 3 11 4 12 5 13 6 14 7 15 8 16 9 7 10 6 11 5 12
REMARK SMILES IDX 4 13 3 14 2 15 1 16
REMARK H PARENT
REMARK Flexibility Score: inf
ROOT
ATOM      1  C   UNL     1     157.515 173.878 165.867  1.00  0.00     0.000 C 
ENDROOT
BRANCH   1   2
ATOM      2  C   UNL     1     156.008 174.180 165.892  1.00  0.00     0.000 C 
BRANCH   2   3
ATOM      3  C   UNL     1     155.587 175.183 164.808  1.00  0.00     0.000 C 
BRANCH   3   4
ATOM      4  C   UNL     1     154.132 174.940 164.375  1.00  0.00     0.000 C 
BRANCH   4   5
ATOM      5  C   UNL     1     154.025 174.020 163.148  1.00  0.00     0.006 C 
BRANCH   5   6
ATOM      6  C   UNL     1     153.063 172.847 163.371  1.00  0.00     0.053 C 
BRANCH   6   7
ATOM      7  C   UNL     1     153.816 171.556 163.417  1.00  0.00     0.041 C 
ATOM      8  O   UNL     1     153.223 170.468 163.194  1.00  0.00    -0.550 OA
ATOM      9  O   UNL     1     155.163 171.548 163.757  1.00  0.00    -0.550 OA
ENDBRANCH   6   7
ENDBRANCH   5   6
ENDBRANCH   4   5
ENDBRANCH   3   4
ENDBRANCH   2   3
ENDBRANCH   1   2
BRANCH   1  10
ATOM     10  C   UNL     1     158.274 174.733 164.840  1.00  0.00     0.000 C 
BRANCH  10  11
ATOM     11  C   UNL     1     159.409 173.929 164.189  1.00  0.00    -0.000 C 
BRANCH  11  12
ATOM     12  C   UNL     1     158.946 173.124 162.961  1.00  0.00    -0.000 C 
BRANCH  12  13
ATOM     13  C   UNL     1     157.626 173.603 162.329  1.00  0.00    -0.000 C 
BRANCH  13  14
ATOM     14  C   UNL     1     157.783 174.581 161.150  1.00  0.00    -0.000 C 
BRANCH  14  15
ATOM     15  C   UNL     1     156.497 175.368 160.818  1.00  0.00    -0.003 C 
ATOM     16  C   UNL     1     155.796 174.851 159.562  1.00  0.00     0.004 C 
ENDBRANCH  14  15
ENDBRANCH  13  14
ENDBRANCH  12  13
ENDBRANCH  11  12
ENDBRANCH  10  11
ENDBRANCH   1  10
TORSDOF 12
ENDMDL
MODEL 5
REMARK VINA RESULT:    -3.581      2.593      4.270
REMARK INTER + INTRA:          -8.023
REMARK INTER:                  -6.489
REMARK INTRA:                  -1.534
REMARK UNBOUND:                -1.929
REMARK SMILES CCCCCCCCCCCCCC(=O)[O-]
REMARK SMILES IDX 8 1 9 2 10 3 11 4 12 5 13 6 14 7 15 8 16 9 7 10 6 11 5 12
REMARK SMILES IDX 4 13 3 14 2 15 1 16
REMARK H PARENT
REMARK Flexibility Score: inf
ROOT
ATOM      1  C   UNL     1     157.808 173.312 162.482  1.00  0.00     0.000 C 
ENDROOT
BRANCH   1   2
ATOM      2  C   UNL     1     158.660 173.569 163.736  1.00  0.00     0.000 C 
BRANCH   2   3
ATOM      3  C   UNL     1     157.968 174.501 164.742  1.00  0.00     0.000 C 
BRANCH   3   4
ATOM      4  C   UNL     1     157.954 173.875 166.146  1.00  0.00     0.000 C 
BRANCH   4   5
ATOM      5  C   UNL     1     156.541 173.476 166.602  1.00  0.00     0.006 C 
BRANCH   5   6
ATOM      6  C   UNL     1     156.554 172.375 167.670  1.00  0.00     0.053 C 
BRANCH   6   7
ATOM      7  C   UNL     1     155.225 171.693 167.732  1.00  0.00     0.041 C 
ATOM      8  O   UNL     1     155.124 170.474 167.434  1.00  0.00    -0.550 OA
ATOM      9  O   UNL     1     154.087 172.415 168.071  1.00  0.00    -0.550 OA
ENDBRANCH   6   7
ENDBRANCH   5   6
ENDBRANCH   4   5
ENDBRANCH   3   4
ENDBRANCH   2   3
ENDBRANCH   1   2
BRANCH   1  10
ATOM     10  C   UNL     1     157.806 174.503 161.512  1.00  0.00     0.000 C 
BRANCH  10  11
ATOM     11  C   UNL     1     156.447 175.220 161.525  1.00  0.00    -0.000 C 
BRANCH  11  12
ATOM     12  C   UNL     1     155.259 174.250 161.648  1.00  0.00    -0.000 C 
BRANCH  12  13
ATOM     13  C   UNL     1     154.372 174.461 162.890  1.00  0.00    -0.000 C 
BRANCH  13  14
ATOM     14  C   UNL     1     153.369 173.328 163.176  1.00  0.00    -0.000 C 
BRANCH  14  15
ATOM     15  C   UNL     1     153.780 172.414 164.350  1.00  0.00    -0.003 C 
ATOM     16  C   UNL     1     154.903 171.446 163.979  1.00  0.00     0.004 C 
ENDBRANCH  14  15
ENDBRANCH  13  14
ENDBRANCH  12  13
ENDBRANCH  11  12
ENDBRANCH  10  11
ENDBRANCH   1  10
TORSDOF 12
ENDMDL
MODEL 6
REMARK VINA RESULT:    -3.579      1.404      3.467
REMARK INTER + INTRA:          -8.018
REMARK INTER:                  -6.180
REMARK INTRA:                  -1.838
REMARK UNBOUND:                -1.929
REMARK SMILES CCCCCCCCCCCCCC(=O)[O-]
REMARK SMILES IDX 8 1 9 2 10 3 11 4 12 5 13 6 14 7 15 8 16 9 7 10 6 11 5 12
REMARK SMILES IDX 4 13 3 14 2 15 1 16
REMARK H PARENT
REMARK Flexibility Score: inf
ROOT
ATOM      1  C   UNL     1     154.239 173.501 162.368  1.00  0.00     0.000 C 
ENDROOT
BRANCH   1   2
ATOM      2  C   UNL     1     154.362 174.937 162.902  1.00  0.00     0.000 C 
BRANCH   2   3
ATOM      3  C   UNL     1     154.561 174.988 164.424  1.00  0.00     0.000 C 
BRANCH   3   4
ATOM      4  C   UNL     1     156.015 175.343 164.774  1.00  0.00     0.000 C 
BRANCH   4   5
ATOM      5  C   UNL     1     156.936 174.113 164.799  1.00  0.00     0.006 C 
BRANCH   5   6
ATOM      6  C   UNL     1     158.098 174.263 165.788  1.00  0.00     0.053 C 
BRANCH   6   7
ATOM      7  C   UNL     1     159.390 174.434 165.054  1.00  0.00     0.041 C 
ATOM      8  O   UNL     1     159.752 173.582 164.201  1.00  0.00    -0.550 OA
ATOM      9  O   UNL     1     160.220 175.509 165.349  1.00  0.00    -0.550 OA
ENDBRANCH   6   7
ENDBRANCH   5   6
ENDBRANCH   4   5
ENDBRANCH   3   4
ENDBRANCH   2   3
ENDBRANCH   1   2
BRANCH   1  10
ATOM     10  C   UNL     1     152.963 172.795 162.852  1.00  0.00     0.000 C 
BRANCH  10  11
ATOM     11  C   UNL     1     153.279 171.383 163.367  1.00  0.00    -0.000 C 
BRANCH  11  12
ATOM     12  C   UNL     1     154.679 171.273 163.997  1.00  0.00    -0.000 C 
BRANCH  12  13
ATOM     13  C   UNL     1     154.691 171.005 165.514  1.00  0.00    -0.000 C 
BRANCH  13  14
ATOM     14  C   UNL     1     153.938 172.043 166.367  1.00  0.00    -0.000 C 
BRANCH  14  15
ATOM     15  C   UNL     1     154.782 172.634 167.516  1.00  0.00    -0.003 C 
ATOM     16  C   UNL     1     156.056 171.833 167.786  1.00  0.00     0.004 C 
ENDBRANCH  14  15
ENDBRANCH  13  14
ENDBRANCH  12  13
ENDBRANCH  11  12
ENDBRANCH  10  11
ENDBRANCH   1  10
TORSDOF 12
ENDMDL
MODEL 7
REMARK VINA RESULT:    -3.559      2.467      5.105
REMARK INTER + INTRA:          -7.985
REMARK INTER:                  -6.301
REMARK INTRA:                  -1.684
REMARK UNBOUND:                -1.929
REMARK SMILES CCCCCCCCCCCCCC(=O)[O-]
REMARK SMILES IDX 8 1 9 2 10 3 11 4 12 5 13 6 14 7 15 8 16 9 7 10 6 11 5 12
REMARK SMILES IDX 4 13 3 14 2 15 1 16
REMARK H PARENT
REMARK Flexibility Score: inf
ROOT
ATOM      1  C   UNL     1     156.466 174.025 165.403  1.00  0.00     0.000 C 
ENDROOT
BRANCH   1   2
ATOM      2  C   UNL     1     157.288 173.496 164.217  1.00  0.00     0.000 C 
BRANCH   2   3
ATOM      3  C   UNL     1     158.052 174.607 163.482  1.00  0.00     0.000 C 
BRANCH   3   4
ATOM      4  C   UNL     1     158.314 174.217 162.019  1.00  0.00     0.000 C 
BRANCH   4   5
ATOM      5  C   UNL     1     157.436 175.000 161.031  1.00  0.00     0.006 C 
BRANCH   5   6
ATOM      6  C   UNL     1     156.182 174.225 160.610  1.00  0.00     0.053 C 
BRANCH   6   7
ATOM      7  C   UNL     1     154.948 174.975 160.999  1.00  0.00     0.041 C 
ATOM      8  O   UNL     1     153.923 174.932 160.270  1.00  0.00    -0.550 OA
ATOM      9  O   UNL     1     154.946 175.763 162.143  1.00  0.00    -0.550 OA
ENDBRANCH   6   7
ENDBRANCH   5   6
ENDBRANCH   4   5
ENDBRANCH   3   4
ENDBRANCH   2   3
ENDBRANCH   1   2
BRANCH   1  10
ATOM     10  C   UNL     1     156.677 173.204 166.684  1.00  0.00     0.000 C 
BRANCH  10  11
ATOM     11  C   UNL     1     155.332 172.755 167.275  1.00  0.00    -0.000 C 
BRANCH  11  12
ATOM     12  C   UNL     1     154.931 171.333 166.841  1.00  0.00    -0.000 C 
BRANCH  12  13
ATOM     13  C   UNL     1     153.892 171.268 165.705  1.00  0.00    -0.000 C 
BRANCH  13  14
ATOM     14  C   UNL     1     154.476 171.031 164.300  1.00  0.00    -0.000 C 
BRANCH  14  15
ATOM     15  C   UNL     1     154.062 172.100 163.266  1.00  0.00    -0.003 C 
ATOM     16  C   UNL     1     153.175 173.191 163.867  1.00  0.00     0.004 C 
ENDBRANCH  14  15
ENDBRANCH  13  14
ENDBRANCH  12  13
ENDBRANCH  11  12
ENDBRANCH  10  11
ENDBRANCH   1  10
TORSDOF 12
ENDMDL
MODEL 8
REMARK VINA RESULT:    -3.532      2.959      5.713
REMARK INTER + INTRA:          -7.939
REMARK INTER:                  -6.358
REMARK INTRA:                  -1.581
REMARK UNBOUND:                -1.929
REMARK SMILES CCCCCCCCCCCCCC(=O)[O-]
REMARK SMILES IDX 8 1 9 2 10 3 11 4 12 5 13 6 14 7 15 8 16 9 7 10 6 11 5 12
REMARK SMILES IDX 4 13 3 14 2 15 1 16
REMARK H PARENT
REMARK Flexibility Score: inf
ROOT
ATOM      1  C   UNL     1     157.606 172.913 162.854  1.00  0.00     0.000 C 
ENDROOT
BRANCH   1   2
ATOM      2  C   UNL     1     158.200 174.186 162.229  1.00  0.00     0.000 C 
BRANCH   2   3
ATOM      3  C   UNL     1     157.517 174.572 160.909  1.00  0.00     0.000 C 
BRANCH   3   4
ATOM      4  C   UNL     1     156.945 175.996 160.985  1.00  0.00     0.000 C 
BRANCH   4   5
ATOM      5  C   UNL     1     155.486 176.023 161.465  1.00  0.00     0.006 C 
BRANCH   5   6
ATOM      6  C   UNL     1     154.665 174.843 160.930  1.00  0.00     0.053 C 
BRANCH   6   7
ATOM      7  C   UNL     1     153.740 174.328 161.986  1.00  0.00     0.041 C 
ATOM      8  O   UNL     1     153.615 174.946 163.075  1.00  0.00    -0.550 OA
ATOM      9  O   UNL     1     153.053 173.137 161.788  1.00  0.00    -0.550 OA
ENDBRANCH   6   7
ENDBRANCH   5   6
ENDBRANCH   4   5
ENDBRANCH   3   4
ENDBRANCH   2   3
ENDBRANCH   1   2
BRANCH   1  10
ATOM     10  C   UNL     1     156.620 173.215 163.993  1.00  0.00     0.000 C 
BRANCH  10  11
ATOM     11  C   UNL     1     157.156 174.334 164.899  1.00  0.00    -0.000 C 
BRANCH  11  12
ATOM     12  C   UNL     1     157.600 173.825 166.282  1.00  0.00    -0.000 C 
BRANCH  12  13
ATOM     13  C   UNL     1     159.114 173.913 166.552  1.00  0.00    -0.000 C 
BRANCH  13  14
ATOM     14  C   UNL     1     159.919 174.710 165.508  1.00  0.00    -0.000 C 
BRANCH  14  15
ATOM     15  C   UNL     1     160.910 173.849 164.697  1.00  0.00    -0.003 C 
ATOM     16  C   UNL     1     162.099 173.373 165.531  1.00  0.00     0.004 C 
ENDBRANCH  14  15
ENDBRANCH  13  14
ENDBRANCH  12  13
ENDBRANCH  11  12
ENDBRANCH  10  11
ENDBRANCH   1  10
TORSDOF 12
ENDMDL
MODEL 9
REMARK VINA RESULT:    -3.452      2.544      5.457
REMARK INTER + INTRA:          -7.803
REMARK INTER:                  -6.401
REMARK INTRA:                  -1.402
REMARK UNBOUND:                -1.929
REMARK SMILES CCCCCCCCCCCCCC(=O)[O-]
REMARK SMILES IDX 8 1 9 2 10 3 11 4 12 5 13 6 14 7 15 8 16 9 7 10 6 11 5 12
REMARK SMILES IDX 4 13 3 14 2 15 1 16
REMARK H PARENT
REMARK Flexibility Score: inf
ROOT
ATOM      1  C   UNL     1     158.794 173.825 164.318  1.00  0.00     0.000 C 
ENDROOT
BRANCH   1   2
ATOM      2  C   UNL     1     158.862 173.463 162.825  1.00  0.00     0.000 C 
BRANCH   2   3
ATOM      3  C   UNL     1     158.115 174.469 161.937  1.00  0.00     0.000 C 
BRANCH   3   4
ATOM      4  C   UNL     1     156.832 173.847 161.364  1.00  0.00     0.000 C 
BRANCH   4   5
ATOM      5  C   UNL     1     155.821 174.904 160.892  1.00  0.00     0.006 C 
BRANCH   5   6
ATOM      6  C   UNL     1     155.041 175.535 162.051  1.00  0.00     0.053 C 
BRANCH   6   7
ATOM      7  C   UNL     1     153.980 174.601 162.538  1.00  0.00     0.041 C 
ATOM      8  O   UNL     1     153.646 174.597 163.752  1.00  0.00    -0.550 OA
ATOM      9  O   UNL     1     153.394 173.696 161.661  1.00  0.00    -0.550 OA
ENDBRANCH   6   7
ENDBRANCH   5   6
ENDBRANCH   4   5
ENDBRANCH   3   4
ENDBRANCH   2   3
ENDBRANCH   1   2
BRANCH   1  10
ATOM     10  C   UNL     1     157.943 175.076 164.586  1.00  0.00     0.000 C 
BRANCH  10  11
ATOM     11  C   UNL     1     156.672 174.716 165.371  1.00  0.00    -0.000 C 
BRANCH  11  12
ATOM     12  C   UNL     1     156.617 173.232 165.777  1.00  0.00    -0.000 C 
BRANCH  12  13
ATOM     13  C   UNL     1     155.405 172.838 166.642  1.00  0.00    -0.000 C 
BRANCH  13  14
ATOM     14  C   UNL     1     154.809 171.451 166.338  1.00  0.00    -0.000 C 
BRANCH  14  15
ATOM     15  C   UNL     1     153.860 171.434 165.120  1.00  0.00    -0.003 C 
ATOM     16  C   UNL     1     154.542 170.937 163.846  1.00  0.00     0.004 C 
ENDBRANCH  14  15
ENDBRANCH  13  14
ENDBRANCH  12  13
ENDBRANCH  11  12
ENDBRANCH  10  11
ENDBRANCH   1  10
TORSDOF 12
ENDMDL
