MODEL 1
REMARK VINA RESULT:    -3.969      0.000      0.000
REMARK INTER + INTRA:          -8.346
REMARK INTER:                  -7.218
REMARK INTRA:                  -1.128
REMARK UNBOUND:                -1.128
REMARK SMILES CCCCCCCCCCCCCCCC(=O)[O-]
REMARK SMILES IDX 9 1 10 2 11 3 12 4 13 5 14 6 15 7 16 8 17 9 18 10 8 11 7 12
REMARK SMILES IDX 6 13 5 14 4 15 3 16 2 17 1 18
REMARK H PARENT
REMARK Flexibility Score: inf
ROOT
ATOM      1  C   UNL     1       3.100  12.319  18.765  1.00  0.00     0.000 C 
ENDROOT
BRANCH   1   2
ATOM      2  C   UNL     1       2.395  13.638  19.125  1.00  0.00     0.000 C 
BRANCH   2   3
ATOM      3  C   UNL     1       2.186  14.548  17.903  1.00  0.00     0.000 C 
BRANCH   3   4
ATOM      4  C   UNL     1       1.664  15.943  18.288  1.00  0.00     0.000 C 
BRANCH   4   5
ATOM      5  C   UNL     1       0.154  16.097  18.034  1.00  0.00     0.000 C 
BRANCH   5   6
ATOM      6  C   UNL     1      -0.426  17.366  18.682  1.00  0.00     0.006 C 
BRANCH   6   7
ATOM      7  C   UNL     1       0.617  18.481  18.838  1.00  0.00     0.053 C 
BRANCH   7   8
ATOM      8  C   UNL     1       0.361  19.574  17.849  1.00  0.00     0.041 C 
ATOM      9  O   UNL     1       1.321  20.119  17.244  1.00  0.00    -0.550 OA
ATOM     10  O   UNL     1      -0.943  19.959  17.560  1.00  0.00    -0.550 OA
ENDBRANCH   7   8
ENDBRANCH   6   7
ENDBRANCH   5   6
ENDBRANCH   4   5
ENDBRANCH   3   4
ENDBRANCH   2   3
ENDBRANCH   1   2
BRANCH   1  11
ATOM     11  C   UNL     1       4.480  12.183  19.427  1.00  0.00     0.000 C 
BRANCH  11  12
ATOM     12  C   UNL     1       5.603  12.386  18.399  1.00  0.00    -0.000 C 
BRANCH  12  13
ATOM     13  C   UNL     1       5.096  12.327  16.950  1.00  0.00    -0.000 C 
BRANCH  13  14
ATOM     14  C   UNL     1       6.008  13.087  15.972  1.00  0.00    -0.000 C 
BRANCH  14  15
ATOM     15  C   UNL     1       5.548  12.967  14.507  1.00  0.00    -0.000 C 
BRANCH  15  16
ATOM     16  C   UNL     1       4.532  11.841  14.239  1.00  0.00    -0.000 C 
BRANCH  16  17
ATOM     17  C   UNL     1       3.210  12.355  13.653  1.00  0.00    -0.003 C 
ATOM     18  C   UNL     1       2.561  13.380  14.578  1.00  0.00     0.004 C 
ENDBRANCH  16  17
ENDBRANCH  15  16
ENDBRANCH  14  15
ENDBRANCH  13  14
ENDBRANCH  12  13
ENDBRANCH  11  12
ENDBRANCH   1  11
TORSDOF 14
ENDMDL
MODEL 2
REMARK VINA RESULT:    -3.914      3.024      7.677
REMARK INTER + INTRA:          -8.245
REMARK INTER:                  -7.096
REMARK INTRA:                  -1.149
REMARK UNBOUND:                -1.128
REMARK SMILES CCCCCCCCCCCCCCCC(=O)[O-]
REMARK SMILES IDX 9 1 10 2 11 3 12 4 13 5 14 6 15 7 16 8 17 9 18 10 8 11 7 12
REMARK SMILES IDX 6 13 5 14 4 15 3 16 2 17 1 18
REMARK H PARENT
REMARK Flexibility Score: inf
ROOT
ATOM      1  C   UNL     1       1.622  15.391  18.682  1.00  0.00     0.000 C 
ENDROOT
BRANCH   1   2
ATOM      2  C   UNL     1       2.404  14.390  17.815  1.00  0.00     0.000 C 
BRANCH   2   3
ATOM      3  C   UNL     1       2.854  13.150  18.606  1.00  0.00     0.000 C 
BRANCH   3   4
ATOM      4  C   UNL     1       3.541  12.100  17.716  1.00  0.00     0.000 C 
BRANCH   4   5
ATOM      5  C   UNL     1       4.976  12.502  17.332  1.00  0.00     0.000 C 
BRANCH   5   6
ATOM      6  C   UNL     1       5.083  12.980  15.873  1.00  0.00     0.006 C 
BRANCH   6   7
ATOM      7  C   UNL     1       4.612  11.922  14.867  1.00  0.00     0.053 C 
BRANCH   7   8
ATOM      8  C   UNL     1       3.436  12.429  14.092  1.00  0.00     0.041 C 
ATOM      9  O   UNL     1       2.817  13.455  14.479  1.00  0.00    -0.550 OA
ATOM     10  O   UNL     1       3.055  11.797  12.915  1.00  0.00    -0.550 OA
ENDBRANCH   7   8
ENDBRANCH   6   7
ENDBRANCH   5   6
ENDBRANCH   4   5
ENDBRANCH   3   4
ENDBRANCH   2   3
ENDBRANCH   1   2
BRANCH   1  11
ATOM     11  C   UNL     1       0.406  15.983  17.955  1.00  0.00     0.000 C 
BRANCH  11  12
ATOM     12  C   UNL     1      -0.846  15.924  18.844  1.00  0.00    -0.000 C 
BRANCH  12  13
ATOM     13  C   UNL     1      -1.598  17.263  18.895  1.00  0.00    -0.000 C 
BRANCH  13  14
ATOM     14  C   UNL     1      -1.307  18.057  20.179  1.00  0.00    -0.000 C 
BRANCH  14  15
ATOM     15  C   UNL     1      -0.718  19.452  19.900  1.00  0.00    -0.000 C 
BRANCH  15  16
ATOM     16  C   UNL     1      -1.103  20.055  18.537  1.00  0.00    -0.000 C 
BRANCH  16  17
ATOM     17  C   UNL     1       0.077  20.124  17.558  1.00  0.00    -0.003 C 
ATOM     18  C   UNL     1       1.360  19.611  18.206  1.00  0.00     0.004 C 
ENDBRANCH  16  17
ENDBRANCH  15  16
ENDBRANCH  14  15
ENDBRANCH  13  14
ENDBRANCH  12  13
ENDBRANCH  11  12
ENDBRANCH   1  11
TORSDOF 14
ENDMDL
MODEL 3
REMARK VINA RESULT:    -3.844      3.000      7.509
REMARK INTER + INTRA:          -8.118
REMARK INTER:                  -6.981
REMARK INTRA:                  -1.137
REMARK UNBOUND:                -1.128
REMARK SMILES CCCCCCCCCCCCCCCC(=O)[O-]
REMARK SMILES IDX 9 1 10 2 11 3 12 4 13 5 14 6 15 7 16 8 17 9 18 10 8 11 7 12
REMARK SMILES IDX 6 13 5 14 4 15 3 16 2 17 1 18
REMARK H PARENT
REMARK Flexibility Score: inf
ROOT
ATOM      1  C   UNL     1       2.227  14.605  17.890  1.00  0.00     0.000 C 
ENDROOT
BRANCH   1   2
ATOM      2  C   UNL     1       2.633  13.431  18.796  1.00  0.00     0.000 C 
BRANCH   2   3
ATOM      3  C   UNL     1       3.383  12.326  18.032  1.00  0.00     0.000 C 
BRANCH   3   4
ATOM      4  C   UNL     1       4.871  12.250  18.415  1.00  0.00     0.000 C 
BRANCH   4   5
ATOM      5  C   UNL     1       5.801  12.578  17.233  1.00  0.00     0.000 C 
BRANCH   5   6
ATOM      6  C   UNL     1       5.038  13.144  16.023  1.00  0.00     0.006 C 
BRANCH   6   7
ATOM      7  C   UNL     1       4.827  12.103  14.915  1.00  0.00     0.053 C 
BRANCH   7   8
ATOM      8  C   UNL     1       3.607  12.435  14.115  1.00  0.00     0.041 C 
ATOM      9  O   UNL     1       3.355  11.804  13.054  1.00  0.00    -0.550 OA
ATOM     10  O   UNL     1       2.723  13.406  14.565  1.00  0.00    -0.550 OA
ENDBRANCH   7   8
ENDBRANCH   6   7
ENDBRANCH   5   6
ENDBRANCH   4   5
ENDBRANCH   3   4
ENDBRANCH   2   3
ENDBRANCH   1   2
BRANCH   1  11
ATOM     11  C   UNL     1       1.484  15.714  18.650  1.00  0.00     0.000 C 
BRANCH  11  12
ATOM     12  C   UNL     1       0.148  16.046  17.968  1.00  0.00    -0.000 C 
BRANCH  12  13
ATOM     13  C   UNL     1      -1.036  16.025  18.947  1.00  0.00    -0.000 C 
BRANCH  13  14
ATOM     14  C   UNL     1      -1.737  17.389  19.058  1.00  0.00    -0.000 C 
BRANCH  14  15
ATOM     15  C   UNL     1      -1.122  18.292  20.142  1.00  0.00    -0.000 C 
BRANCH  15  16
ATOM     16  C   UNL     1      -0.695  19.689  19.655  1.00  0.00    -0.000 C 
BRANCH  16  17
ATOM     17  C   UNL     1      -0.296  19.710  18.173  1.00  0.00    -0.003 C 
ATOM     18  C   UNL     1       1.221  19.751  18.013  1.00  0.00     0.004 C 
ENDBRANCH  16  17
ENDBRANCH  15  16
ENDBRANCH  14  15
ENDBRANCH  13  14
ENDBRANCH  12  13
ENDBRANCH  11  12
ENDBRANCH   1  11
TORSDOF 14
ENDMDL
MODEL 4
REMARK VINA RESULT:    -3.732      3.222      6.898
REMARK INTER + INTRA:          -7.915
REMARK INTER:                  -6.532
REMARK INTRA:                  -1.383
REMARK UNBOUND:                -1.128
REMARK SMILES CCCCCCCCCCCCCCCC(=O)[O-]
REMARK SMILES IDX 9 1 10 2 11 3 12 4 13 5 14 6 15 7 16 8 17 9 18 10 8 11 7 12
REMARK SMILES IDX 6 13 5 14 4 15 3 16 2 17 1 18
REMARK H PARENT
REMARK Flexibility Score: inf
ROOT
ATOM      1  C   UNL     1       2.827  12.110  18.744  1.00  0.00     0.000 C 
ENDROOT
BRANCH   1   2
ATOM      2  C   UNL     1       4.164  11.649  19.349  1.00  0.00     0.000 C 
BRANCH   2   3
ATOM      3  C   UNL     1       5.276  12.701  19.196  1.00  0.00     0.000 C 
BRANCH   3   4
ATOM      4  C   UNL     1       6.286  12.337  18.095  1.00  0.00     0.000 C 
BRANCH   4   5
ATOM      5  C   UNL     1       5.998  13.062  16.768  1.00  0.00     0.000 C 
BRANCH   5   6
ATOM      6  C   UNL     1       5.244  12.174  15.763  1.00  0.00     0.006 C 
BRANCH   6   7
ATOM      7  C   UNL     1       4.694  12.966  14.570  1.00  0.00     0.053 C 
BRANCH   7   8
ATOM      8  C   UNL     1       3.671  12.157  13.836  1.00  0.00     0.041 C 
ATOM      9  O   UNL     1       2.447  12.425  13.955  1.00  0.00    -0.550 OA
ATOM     10  O   UNL     1       4.073  11.137  12.982  1.00  0.00    -0.550 OA
ENDBRANCH   7   8
ENDBRANCH   6   7
ENDBRANCH   5   6
ENDBRANCH   4   5
ENDBRANCH   3   4
ENDBRANCH   2   3
ENDBRANCH   1   2
BRANCH   1  11
ATOM     11  C   UNL     1       2.699  13.639  18.680  1.00  0.00     0.000 C 
BRANCH  11  12
ATOM     12  C   UNL     1       2.574  14.118  17.225  1.00  0.00    -0.000 C 
BRANCH  12  13
ATOM     13  C   UNL     1       1.580  15.279  17.070  1.00  0.00    -0.000 C 
BRANCH  13  14
ATOM     14  C   UNL     1       1.053  15.792  18.421  1.00  0.00    -0.000 C 
BRANCH  14  15
ATOM     15  C   UNL     1      -0.398  16.301  18.343  1.00  0.00    -0.000 C 
BRANCH  15  16
ATOM     16  C   UNL     1      -0.567  17.812  18.582  1.00  0.00    -0.000 C 
BRANCH  16  17
ATOM     17  C   UNL     1       0.763  18.527  18.858  1.00  0.00    -0.003 C 
ATOM     18  C   UNL     1       0.954  19.714  17.919  1.00  0.00     0.004 C 
ENDBRANCH  16  17
ENDBRANCH  15  16
ENDBRANCH  14  15
ENDBRANCH  13  14
ENDBRANCH  12  13
ENDBRANCH  11  12
ENDBRANCH   1  11
TORSDOF 14
ENDMDL
MODEL 5
REMARK VINA RESULT:    -3.622      1.452      3.472
REMARK INTER + INTRA:          -7.715
REMARK INTER:                  -6.781
REMARK INTRA:                  -0.934
REMARK UNBOUND:                -1.128
REMARK SMILES CCCCCCCCCCCCCCCC(=O)[O-]
REMARK SMILES IDX 9 1 10 2 11 3 12 4 13 5 14 6 15 7 16 8 17 9 18 10 8 11 7 12
REMARK SMILES IDX 6 13 5 14 4 15 3 16 2 17 1 18
REMARK H PARENT
REMARK Flexibility Score: inf
ROOT
ATOM      1  C   UNL     1       2.601  13.046  14.932  1.00  0.00     0.000 C 
ENDROOT
BRANCH   1   2
ATOM      2  C   UNL     1       2.341  14.293  15.793  1.00  0.00     0.000 C 
BRANCH   2   3
ATOM      3  C   UNL     1       2.858  14.135  17.233  1.00  0.00     0.000 C 
BRANCH   3   4
ATOM      4  C   UNL     1       1.936  14.804  18.267  1.00  0.00     0.000 C 
BRANCH   4   5
ATOM      5  C   UNL     1       1.075  15.922  17.653  1.00  0.00     0.000 C 
BRANCH   5   6
ATOM      6  C   UNL     1      -0.243  16.137  18.416  1.00  0.00     0.006 C 
BRANCH   6   7
ATOM      7  C   UNL     1      -0.709  17.599  18.392  1.00  0.00     0.053 C 
BRANCH   7   8
ATOM      8  C   UNL     1      -0.947  18.091  19.785  1.00  0.00     0.041 C 
ATOM      9  O   UNL     1      -0.501  19.213  20.145  1.00  0.00    -0.550 OA
ATOM     10  O   UNL     1      -1.704  17.334  20.670  1.00  0.00    -0.550 OA
ENDBRANCH   7   8
ENDBRANCH   6   7
ENDBRANCH   5   6
ENDBRANCH   4   5
ENDBRANCH   3   4
ENDBRANCH   2   3
ENDBRANCH   1   2
BRANCH   1  11
ATOM     11  C   UNL     1       3.874  13.165  14.080  1.00  0.00     0.000 C 
BRANCH  11  12
ATOM     12  C   UNL     1       5.018  12.337  14.684  1.00  0.00    -0.000 C 
BRANCH  12  13
ATOM     13  C   UNL     1       6.108  13.212  15.321  1.00  0.00    -0.000 C 
BRANCH  13  14
ATOM     14  C   UNL     1       6.441  12.789  16.762  1.00  0.00    -0.000 C 
BRANCH  14  15
ATOM     15  C   UNL     1       5.218  12.244  17.523  1.00  0.00    -0.000 C 
BRANCH  15  16
ATOM     16  C   UNL     1       5.339  12.290  19.057  1.00  0.00    -0.000 C 
BRANCH  16  17
ATOM     17  C   UNL     1       4.156  11.620  19.770  1.00  0.00    -0.003 C 
ATOM     18  C   UNL     1       3.087  11.184  18.772  1.00  0.00     0.004 C 
ENDBRANCH  16  17
ENDBRANCH  15  16
ENDBRANCH  14  15
ENDBRANCH  13  14
ENDBRANCH  12  13
ENDBRANCH  11  12
ENDBRANCH   1  11
TORSDOF 14
ENDMDL
MODEL 6
REMARK VINA RESULT:    -3.465      1.132      2.510
REMARK INTER + INTRA:          -7.430
REMARK INTER:                  -6.607
REMARK INTRA:                  -0.822
REMARK UNBOUND:                -1.128
REMARK SMILES CCCCCCCCCCCCCCCC(=O)[O-]
REMARK SMILES IDX 9 1 10 2 11 3 12 4 13 5 14 6 15 7 16 8 17 9 18 10 8 11 7 12
REMARK SMILES IDX 6 13 5 14 4 15 3 16 2 17 1 18
REMARK H PARENT
REMARK Flexibility Score: inf
ROOT
ATOM      1  C   UNL     1       1.817  15.326  18.659  1.00  0.00     0.000 C 
ENDROOT
BRANCH   1   2
ATOM      2  C   UNL     1       0.637  16.081  18.023  1.00  0.00     0.000 C 
BRANCH   2   3
ATOM      3  C   UNL     1      -0.636  16.020  18.884  1.00  0.00     0.000 C 
BRANCH   3   4
ATOM      4  C   UNL     1      -1.798  16.825  18.278  1.00  0.00     0.000 C 
BRANCH   4   5
ATOM      5  C   UNL     1      -2.125  18.091  19.089  1.00  0.00     0.000 C 
BRANCH   5   6
ATOM      6  C   UNL     1      -0.900  18.643  19.838  1.00  0.00     0.006 C 
BRANCH   6   7
ATOM      7  C   UNL     1      -0.522  20.061  19.390  1.00  0.00     0.053 C 
BRANCH   7   8
ATOM      8  C   UNL     1       0.218  20.016  18.090  1.00  0.00     0.041 C 
ATOM      9  O   UNL     1      -0.406  20.125  17.002  1.00  0.00    -0.550 OA
ATOM     10  O   UNL     1       1.603  19.904  18.083  1.00  0.00    -0.550 OA
ENDBRANCH   7   8
ENDBRANCH   6   7
ENDBRANCH   5   6
ENDBRANCH   4   5
ENDBRANCH   3   4
ENDBRANCH   2   3
ENDBRANCH   1   2
BRANCH   1  11
ATOM     11  C   UNL     1       2.266  14.116  17.827  1.00  0.00     0.000 C 
BRANCH  11  12
ATOM     12  C   UNL     1       2.744  12.973  18.736  1.00  0.00    -0.000 C 
BRANCH  12  13
ATOM     13  C   UNL     1       4.102  12.401  18.300  1.00  0.00    -0.000 C 
BRANCH  13  14
ATOM     14  C   UNL     1       4.146  12.057  16.802  1.00  0.00    -0.000 C 
BRANCH  14  15
ATOM     15  C   UNL     1       5.094  12.972  16.005  1.00  0.00    -0.000 C 
BRANCH  15  16
ATOM     16  C   UNL     1       4.893  12.938  14.478  1.00  0.00    -0.000 C 
BRANCH  16  17
ATOM     17  C   UNL     1       3.592  12.239  14.061  1.00  0.00    -0.003 C 
ATOM     18  C   UNL     1       3.833  11.273  12.905  1.00  0.00     0.004 C 
ENDBRANCH  16  17
ENDBRANCH  15  16
ENDBRANCH  14  15
ENDBRANCH  13  14
ENDBRANCH  12  13
ENDBRANCH  11  12
ENDBRANCH   1  11
TORSDOF 14
ENDMDL
MODEL 7
REMARK VINA RESULT:    -3.447      3.578      7.588
REMARK INTER + INTRA:          -7.396
REMARK INTER:                  -6.622
REMARK INTRA:                  -0.774
REMARK UNBOUND:                -1.128
REMARK SMILES CCCCCCCCCCCCCCCC(=O)[O-]
REMARK SMILES IDX 9 1 10 2 11 3 12 4 13 5 14 6 15 7 16 8 17 9 18 10 8 11 7 12
REMARK SMILES IDX 6 13 5 14 4 15 3 16 2 17 1 18
REMARK H PARENT
REMARK Flexibility Score: inf
ROOT
ATOM      1  C   UNL     1       2.371  13.855  18.133  1.00  0.00     0.000 C 
ENDROOT
BRANCH   1   2
ATOM      2  C   UNL     1       3.088  12.892  19.094  1.00  0.00     0.000 C 
BRANCH   2   3
ATOM      3  C   UNL     1       4.312  12.218  18.451  1.00  0.00     0.000 C 
BRANCH   3   4
ATOM      4  C   UNL     1       4.225  12.179  16.916  1.00  0.00     0.000 C 
BRANCH   4   5
ATOM      5  C   UNL     1       5.301  13.049  16.242  1.00  0.00     0.000 C 
BRANCH   5   6
ATOM      6  C   UNL     1       5.358  12.843  14.719  1.00  0.00     0.006 C 
BRANCH   6   7
ATOM      7  C   UNL     1       4.624  11.574  14.266  1.00  0.00     0.053 C 
BRANCH   7   8
ATOM      8  C   UNL     1       3.367  11.932  13.537  1.00  0.00     0.041 C 
ATOM      9  O   UNL     1       3.150  11.472  12.385  1.00  0.00    -0.550 OA
ATOM     10  O   UNL     1       2.413  12.735  14.150  1.00  0.00    -0.550 OA
ENDBRANCH   7   8
ENDBRANCH   6   7
ENDBRANCH   5   6
ENDBRANCH   4   5
ENDBRANCH   3   4
ENDBRANCH   2   3
ENDBRANCH   1   2
BRANCH   1  11
ATOM     11  C   UNL     1       1.984  15.183  18.801  1.00  0.00     0.000 C 
BRANCH  11  12
ATOM     12  C   UNL     1       1.059  16.006  17.891  1.00  0.00    -0.000 C 
BRANCH  12  13
ATOM     13  C   UNL     1      -0.028  16.756  18.676  1.00  0.00    -0.000 C 
BRANCH  13  14
ATOM     14  C   UNL     1      -1.446  16.272  18.333  1.00  0.00    -0.000 C 
BRANCH  14  15
ATOM     15  C   UNL     1      -2.125  15.530  19.499  1.00  0.00    -0.000 C 
BRANCH  15  16
ATOM     16  C   UNL     1      -2.089  16.273  20.847  1.00  0.00    -0.000 C 
BRANCH  16  17
ATOM     17  C   UNL     1      -1.997  15.325  22.050  1.00  0.00    -0.003 C 
ATOM     18  C   UNL     1      -1.885  13.872  21.598  1.00  0.00     0.004 C 
ENDBRANCH  16  17
ENDBRANCH  15  16
ENDBRANCH  14  15
ENDBRANCH  13  14
ENDBRANCH  12  13
ENDBRANCH  11  12
ENDBRANCH   1  11
TORSDOF 14
ENDMDL
MODEL 8
REMARK VINA RESULT:    -3.300      3.420      7.410
REMARK INTER + INTRA:          -7.129
REMARK INTER:                  -6.395
REMARK INTRA:                  -0.734
REMARK UNBOUND:                -1.128
REMARK SMILES CCCCCCCCCCCCCCCC(=O)[O-]
REMARK SMILES IDX 9 1 10 2 11 3 12 4 13 5 14 6 15 7 16 8 17 9 18 10 8 11 7 12
REMARK SMILES IDX 6 13 5 14 4 15 3 16 2 17 1 18
REMARK H PARENT
REMARK Flexibility Score: inf
ROOT
ATOM      1  C   UNL     1       2.383  14.537  16.047  1.00  0.00     0.000 C 
ENDROOT
BRANCH   1   2
ATOM      2  C   UNL     1       2.418  13.327  15.098  1.00  0.00     0.000 C 
BRANCH   2   3
ATOM      3  C   UNL     1       3.745  13.218  14.328  1.00  0.00     0.000 C 
BRANCH   3   4
ATOM      4  C   UNL     1       4.757  12.291  15.023  1.00  0.00     0.000 C 
BRANCH   4   5
ATOM      5  C   UNL     1       5.900  13.069  15.699  1.00  0.00     0.000 C 
BRANCH   5   6
ATOM      6  C   UNL     1       6.042  12.728  17.192  1.00  0.00     0.006 C 
BRANCH   6   7
ATOM      7  C   UNL     1       4.724  12.260  17.821  1.00  0.00     0.053 C 
BRANCH   7   8
ATOM      8  C   UNL     1       4.911  11.991  19.281  1.00  0.00     0.041 C 
ATOM      9  O   UNL     1       4.008  11.409  19.938  1.00  0.00    -0.550 OA
ATOM     10  O   UNL     1       6.102  12.338  19.905  1.00  0.00    -0.550 OA
ENDBRANCH   7   8
ENDBRANCH   6   7
ENDBRANCH   5   6
ENDBRANCH   4   5
ENDBRANCH   3   4
ENDBRANCH   2   3
ENDBRANCH   1   2
BRANCH   1  11
ATOM     11  C   UNL     1       2.497  14.136  17.525  1.00  0.00     0.000 C 
BRANCH  11  12
ATOM     12  C   UNL     1       1.798  15.165  18.428  1.00  0.00    -0.000 C 
BRANCH  12  13
ATOM     13  C   UNL     1       0.696  15.943  17.693  1.00  0.00    -0.000 C 
BRANCH  13  14
ATOM     14  C   UNL     1      -0.535  16.203  18.577  1.00  0.00    -0.000 C 
BRANCH  14  15
ATOM     15  C   UNL     1      -0.965  17.681  18.585  1.00  0.00    -0.000 C 
BRANCH  15  16
ATOM     16  C   UNL     1      -0.255  18.555  19.635  1.00  0.00    -0.000 C 
BRANCH  16  17
ATOM     17  C   UNL     1       0.166  19.925  19.087  1.00  0.00    -0.003 C 
ATOM     18  C   UNL     1       1.270  19.783  18.042  1.00  0.00     0.004 C 
ENDBRANCH  16  17
ENDBRANCH  15  16
ENDBRANCH  14  15
ENDBRANCH  13  14
ENDBRANCH  12  13
ENDBRANCH  11  12
ENDBRANCH   1  11
TORSDOF 14
ENDMDL
MODEL 9
REMARK VINA RESULT:    -2.939      3.298      7.734
REMARK INTER + INTRA:          -6.472
REMARK INTER:                  -5.300
REMARK INTRA:                  -1.171
REMARK UNBOUND:                -1.128
REMARK SMILES CCCCCCCCCCCCCCCC(=O)[O-]
REMARK SMILES IDX 9 1 10 2 11 3 12 4 13 5 14 6 15 7 16 8 17 9 18 10 8 11 7 12
REMARK SMILES IDX 6 13 5 14 4 15 3 16 2 17 1 18
REMARK H PARENT
REMARK Flexibility Score: inf
ROOT
ATOM      1  C   UNL     1       1.576  15.674  18.496  1.00  0.00     0.000 C 
ENDROOT
BRANCH   1   2
ATOM      2  C   UNL     1       2.070  14.375  17.837  1.00  0.00     0.000 C 
BRANCH   2   3
ATOM      3  C   UNL     1       2.829  14.630  16.524  1.00  0.00     0.000 C 
BRANCH   3   4
ATOM      4  C   UNL     1       2.361  13.711  15.383  1.00  0.00     0.000 C 
BRANCH   4   5
ATOM      5  C   UNL     1       3.516  13.280  14.463  1.00  0.00     0.000 C 
BRANCH   5   6
ATOM      6  C   UNL     1       4.494  12.315  15.156  1.00  0.00     0.006 C 
BRANCH   6   7
ATOM      7  C   UNL     1       5.693  13.037  15.785  1.00  0.00     0.053 C 
BRANCH   7   8
ATOM      8  C   UNL     1       5.854  12.628  17.215  1.00  0.00     0.041 C 
ATOM      9  O   UNL     1       6.980  12.710  17.774  1.00  0.00    -0.550 OA
ATOM     10  O   UNL     1       4.751  12.204  17.946  1.00  0.00    -0.550 OA
ENDBRANCH   7   8
ENDBRANCH   6   7
ENDBRANCH   5   6
ENDBRANCH   4   5
ENDBRANCH   3   4
ENDBRANCH   2   3
ENDBRANCH   1   2
BRANCH   1  11
ATOM     11  C   UNL     1       0.254  16.179  17.898  1.00  0.00     0.000 C 
BRANCH  11  12
ATOM     12  C   UNL     1      -0.920  15.903  18.851  1.00  0.00    -0.000 C 
BRANCH  12  13
ATOM     13  C   UNL     1      -1.780  17.151  19.103  1.00  0.00    -0.000 C 
BRANCH  13  14
ATOM     14  C   UNL     1      -1.221  18.038  20.228  1.00  0.00    -0.000 C 
BRANCH  14  15
ATOM     15  C   UNL     1      -0.953  19.484  19.773  1.00  0.00    -0.000 C 
BRANCH  15  16
ATOM     16  C   UNL     1      -1.296  19.773  18.300  1.00  0.00    -0.000 C 
BRANCH  16  17
ATOM     17  C   UNL     1      -0.055  20.044  17.439  1.00  0.00    -0.003 C 
ATOM     18  C   UNL     1       1.227  19.751  18.213  1.00  0.00     0.004 C 
ENDBRANCH  16  17
ENDBRANCH  15  16
ENDBRANCH  14  15
ENDBRANCH  13  14
ENDBRANCH  12  13
ENDBRANCH  11  12
ENDBRANCH   1  11
TORSDOF 14
ENDMDL
