MODEL 1
REMARK VINA RESULT:    -3.573      0.000      0.000
REMARK INTER + INTRA:         -12.386
REMARK INTER:                  -8.167
REMARK INTRA:                  -4.218
REMARK UNBOUND:                -4.218
REMARK SMILES CCCCCCCCCCCCCCCCCCCCCCCC(=O)[O-]
REMARK SMILES IDX 13 1 14 2 15 3 16 4 17 5 18 6 19 7 20 8 21 9 22 10 23 11
REMARK SMILES IDX 24 12 25 13 26 14 12 15 11 16 10 17 9 18 8 19 7 20 6 21 5 22
REMARK SMILES IDX 4 23 3 24 2 25 1 26
REMARK H PARENT
REMARK Flexibility Score: inf
ROOT
ATOM      1  C   UNL     1     131.161 146.364 121.858  1.00  0.00     0.000 C 
ENDROOT
BRANCH   1   2
ATOM      2  C   UNL     1     131.787 146.949 120.586  1.00  0.00     0.000 C 
BRANCH   2   3
ATOM      3  C   UNL     1     130.867 146.748 119.376  1.00  0.00     0.000 C 
BRANCH   3   4
ATOM      4  C   UNL     1     129.530 146.121 119.799  1.00  0.00     0.000 C 
BRANCH   4   5
ATOM      5  C   UNL     1     129.104 144.947 118.897  1.00  0.00     0.000 C 
BRANCH   5   6
ATOM      6  C   UNL     1     127.758 144.294 119.268  1.00  0.00     0.000 C 
BRANCH   6   7
ATOM      7  C   UNL     1     127.246 144.628 120.681  1.00  0.00     0.000 C 
BRANCH   7   8
ATOM      8  C   UNL     1     127.739 143.646 121.768  1.00  0.00     0.000 C 
BRANCH   8   9
ATOM      9  C   UNL     1     128.340 144.339 123.004  1.00  0.00     0.000 C 
BRANCH   9  10
ATOM     10  C   UNL     1     127.887 145.805 123.131  1.00  0.00     0.006 C 
BRANCH  10  11
ATOM     11  C   UNL     1     127.225 146.090 124.486  1.00  0.00     0.053 C 
BRANCH  11  12
ATOM     12  C   UNL     1     127.632 145.088 125.524  1.00  0.00     0.041 C 
ATOM     13  O   UNL     1     128.638 145.301 126.251  1.00  0.00    -0.550 OA
ATOM     14  O   UNL     1     126.878 143.938 125.712  1.00  0.00    -0.550 OA
ENDBRANCH  11  12
ENDBRANCH  10  11
ENDBRANCH   9  10
ENDBRANCH   8   9
ENDBRANCH   7   8
ENDBRANCH   6   7
ENDBRANCH   5   6
ENDBRANCH   4   5
ENDBRANCH   3   4
ENDBRANCH   2   3
ENDBRANCH   1   2
BRANCH   1  15
ATOM     15  C   UNL     1     132.241 145.802 122.795  1.00  0.00     0.000 C 
BRANCH  15  16
ATOM     16  C   UNL     1     133.655 146.272 122.415  1.00  0.00     0.000 C 
BRANCH  16  17
ATOM     17  C   UNL     1     134.747 145.292 122.877  1.00  0.00     0.000 C 
BRANCH  17  18
ATOM     18  C   UNL     1     136.102 145.562 122.201  1.00  0.00    -0.000 C 
BRANCH  18  19
ATOM     19  C   UNL     1     136.042 146.742 121.215  1.00  0.00    -0.000 C 
BRANCH  19  20
ATOM     20  C   UNL     1     136.267 146.307 119.759  1.00  0.00    -0.000 C 
BRANCH  20  21
ATOM     21  C   UNL     1     134.978 146.346 118.924  1.00  0.00    -0.000 C 
BRANCH  21  22
ATOM     22  C   UNL     1     134.621 144.950 118.395  1.00  0.00    -0.000 C 
BRANCH  22  23
ATOM     23  C   UNL     1     134.043 144.027 119.482  1.00  0.00    -0.000 C 
BRANCH  23  24
ATOM     24  C   UNL     1     132.628 143.485 119.197  1.00  0.00    -0.000 C 
BRANCH  24  25
ATOM     25  C   UNL     1     131.852 143.010 120.438  1.00  0.00    -0.003 C 
ATOM     26  C   UNL     1     130.849 141.901 120.126  1.00  0.00     0.004 C 
ENDBRANCH  24  25
ENDBRANCH  23  24
ENDBRANCH  22  23
ENDBRANCH  21  22
ENDBRANCH  20  21
ENDBRANCH  19  20
ENDBRANCH  18  19
ENDBRANCH  17  18
ENDBRANCH  16  17
ENDBRANCH  15  16
ENDBRANCH   1  15
TORSDOF 22
ENDMDL
MODEL 2
REMARK VINA RESULT:    -3.507      1.681      3.571
REMARK INTER + INTRA:         -12.236
REMARK INTER:                  -8.562
REMARK INTRA:                  -3.674
REMARK UNBOUND:                -4.218
REMARK SMILES CCCCCCCCCCCCCCCCCCCCCCCC(=O)[O-]
REMARK SMILES IDX 13 1 14 2 15 3 16 4 17 5 18 6 19 7 20 8 21 9 22 10 23 11
REMARK SMILES IDX 24 12 25 13 26 14 12 15 11 16 10 17 9 18 8 19 7 20 6 21 5 22
REMARK SMILES IDX 4 23 3 24 2 25 1 26
REMARK H PARENT
REMARK Flexibility Score: inf
ROOT
ATOM      1  C   UNL     1     128.546 146.389 124.228  1.00  0.00     0.000 C 
ENDROOT
BRANCH   1   2
ATOM      2  C   UNL     1     128.634 145.562 122.940  1.00  0.00     0.000 C 
BRANCH   2   3
ATOM      3  C   UNL     1     128.227 146.398 121.720  1.00  0.00     0.000 C 
BRANCH   3   4
ATOM      4  C   UNL     1     127.021 145.773 121.003  1.00  0.00     0.000 C 
BRANCH   4   5
ATOM      5  C   UNL     1     127.202 145.699 119.475  1.00  0.00     0.000 C 
BRANCH   5   6
ATOM      6  C   UNL     1     127.617 144.318 118.933  1.00  0.00     0.000 C 
BRANCH   6   7
ATOM      7  C   UNL     1     129.059 143.898 119.272  1.00  0.00     0.000 C 
BRANCH   7   8
ATOM      8  C   UNL     1     129.148 142.587 120.087  1.00  0.00     0.000 C 
BRANCH   8   9
ATOM      9  C   UNL     1     127.778 142.008 120.482  1.00  0.00     0.000 C 
BRANCH   9  10
ATOM     10  C   UNL     1     127.510 142.115 121.994  1.00  0.00     0.006 C 
BRANCH  10  11
ATOM     11  C   UNL     1     128.708 141.645 122.828  1.00  0.00     0.053 C 
BRANCH  11  12
ATOM     12  C   UNL     1     128.640 142.156 124.235  1.00  0.00     0.041 C 
ATOM     13  O   UNL     1     129.654 142.100 124.980  1.00  0.00    -0.550 OA
ATOM     14  O   UNL     1     127.469 142.729 124.711  1.00  0.00    -0.550 OA
ENDBRANCH  11  12
ENDBRANCH  10  11
ENDBRANCH   9  10
ENDBRANCH   8   9
ENDBRANCH   7   8
ENDBRANCH   6   7
ENDBRANCH   5   6
ENDBRANCH   4   5
ENDBRANCH   3   4
ENDBRANCH   2   3
ENDBRANCH   1   2
BRANCH   1  15
ATOM     15  C   UNL     1     129.946 146.756 124.743  1.00  0.00     0.000 C 
BRANCH  15  16
ATOM     16  C   UNL     1     130.804 145.519 125.053  1.00  0.00     0.000 C 
BRANCH  16  17
ATOM     17  C   UNL     1     132.199 145.589 124.406  1.00  0.00     0.000 C 
BRANCH  17  18
ATOM     18  C   UNL     1     132.433 146.912 123.658  1.00  0.00    -0.000 C 
BRANCH  18  19
ATOM     19  C   UNL     1     132.765 146.696 122.171  1.00  0.00    -0.000 C 
BRANCH  19  20
ATOM     20  C   UNL     1     132.094 145.442 121.592  1.00  0.00    -0.000 C 
BRANCH  20  21
ATOM     21  C   UNL     1     132.003 145.474 120.059  1.00  0.00    -0.000 C 
BRANCH  21  22
ATOM     22  C   UNL     1     132.693 144.250 119.440  1.00  0.00    -0.000 C 
BRANCH  22  23
ATOM     23  C   UNL     1     134.227 144.304 119.558  1.00  0.00    -0.000 C 
BRANCH  23  24
ATOM     24  C   UNL     1     134.935 145.167 118.495  1.00  0.00    -0.000 C 
BRANCH  24  25
ATOM     25  C   UNL     1     135.301 146.590 118.952  1.00  0.00    -0.003 C 
ATOM     26  C   UNL     1     136.022 146.616 120.299  1.00  0.00     0.004 C 
ENDBRANCH  24  25
ENDBRANCH  23  24
ENDBRANCH  22  23
ENDBRANCH  21  22
ENDBRANCH  20  21
ENDBRANCH  19  20
ENDBRANCH  18  19
ENDBRANCH  17  18
ENDBRANCH  16  17
ENDBRANCH  15  16
ENDBRANCH   1  15
TORSDOF 22
ENDMDL
MODEL 3
REMARK VINA RESULT:    -3.501      1.966      6.160
REMARK INTER + INTRA:         -12.222
REMARK INTER:                  -7.529
REMARK INTRA:                  -4.693
REMARK UNBOUND:                -4.218
REMARK SMILES CCCCCCCCCCCCCCCCCCCCCCCC(=O)[O-]
REMARK SMILES IDX 13 1 14 2 15 3 16 4 17 5 18 6 19 7 20 8 21 9 22 10 23 11
REMARK SMILES IDX 24 12 25 13 26 14 12 15 11 16 10 17 9 18 8 19 7 20 6 21 5 22
REMARK SMILES IDX 4 23 3 24 2 25 1 26
REMARK H PARENT
REMARK Flexibility Score: inf
ROOT
ATOM      1  C   UNL     1     134.086 143.062 118.780  1.00  0.00     0.000 C 
ENDROOT
BRANCH   1   2
ATOM      2  C   UNL     1     135.263 144.042 118.710  1.00  0.00     0.000 C 
BRANCH   2   3
ATOM      3  C   UNL     1     134.798 145.429 118.252  1.00  0.00     0.000 C 
BRANCH   3   4
ATOM      4  C   UNL     1     135.428 146.533 119.115  1.00  0.00     0.000 C 
BRANCH   4   5
ATOM      5  C   UNL     1     135.667 146.094 120.572  1.00  0.00     0.000 C 
BRANCH   5   6
ATOM      6  C   UNL     1     134.518 146.416 121.547  1.00  0.00     0.000 C 
BRANCH   6   7
ATOM      7  C   UNL     1     134.421 145.478 122.765  1.00  0.00     0.000 C 
BRANCH   7   8
ATOM      8  C   UNL     1     134.871 144.029 122.469  1.00  0.00     0.000 C 
BRANCH   8   9
ATOM      9  C   UNL     1     133.785 142.974 122.746  1.00  0.00     0.000 C 
BRANCH   9  10
ATOM     10  C   UNL     1     132.603 143.547 123.549  1.00  0.00     0.006 C 
BRANCH  10  11
ATOM     11  C   UNL     1     131.322 142.725 123.358  1.00  0.00     0.053 C 
BRANCH  11  12
ATOM     12  C   UNL     1     130.928 142.010 124.615  1.00  0.00     0.041 C 
ATOM     13  O   UNL     1     131.703 141.163 125.132  1.00  0.00    -0.550 OA
ATOM     14  O   UNL     1     129.721 142.307 125.234  1.00  0.00    -0.550 OA
ENDBRANCH  11  12
ENDBRANCH  10  11
ENDBRANCH   9  10
ENDBRANCH   8   9
ENDBRANCH   7   8
ENDBRANCH   6   7
ENDBRANCH   5   6
ENDBRANCH   4   5
ENDBRANCH   3   4
ENDBRANCH   2   3
ENDBRANCH   1   2
BRANCH   1  15
ATOM     15  C   UNL     1     132.827 143.751 119.326  1.00  0.00     0.000 C 
BRANCH  15  16
ATOM     16  C   UNL     1     131.720 142.750 119.696  1.00  0.00     0.000 C 
BRANCH  16  17
ATOM     17  C   UNL     1     130.316 143.257 119.323  1.00  0.00     0.000 C 
BRANCH  17  18
ATOM     18  C   UNL     1     129.210 142.589 120.157  1.00  0.00    -0.000 C 
BRANCH  18  19
ATOM     19  C   UNL     1     127.822 143.199 119.889  1.00  0.00    -0.000 C 
BRANCH  19  20
ATOM     20  C   UNL     1     127.880 144.403 118.938  1.00  0.00    -0.000 C 
BRANCH  20  21
ATOM     21  C   UNL     1     127.225 145.659 119.534  1.00  0.00    -0.000 C 
BRANCH  21  22
ATOM     22  C   UNL     1     127.182 145.584 121.067  1.00  0.00    -0.000 C 
BRANCH  22  23
ATOM     23  C   UNL     1     128.268 146.443 121.739  1.00  0.00    -0.000 C 
BRANCH  23  24
ATOM     24  C   UNL     1     129.523 145.673 122.196  1.00  0.00    -0.000 C 
BRANCH  24  25
ATOM     25  C   UNL     1     130.855 146.225 121.659  1.00  0.00    -0.003 C 
ATOM     26  C   UNL     1     130.765 146.689 120.207  1.00  0.00     0.004 C 
ENDBRANCH  24  25
ENDBRANCH  23  24
ENDBRANCH  22  23
ENDBRANCH  21  22
ENDBRANCH  20  21
ENDBRANCH  19  20
ENDBRANCH  18  19
ENDBRANCH  17  18
ENDBRANCH  16  17
ENDBRANCH  15  16
ENDBRANCH   1  15
TORSDOF 22
ENDMDL
MODEL 4
REMARK VINA RESULT:    -3.497      2.783      5.824
REMARK INTER + INTRA:         -12.212
REMARK INTER:                  -7.166
REMARK INTRA:                  -5.047
REMARK UNBOUND:                -4.218
REMARK SMILES CCCCCCCCCCCCCCCCCCCCCCCC(=O)[O-]
REMARK SMILES IDX 13 1 14 2 15 3 16 4 17 5 18 6 19 7 20 8 21 9 22 10 23 11
REMARK SMILES IDX 24 12 25 13 26 14 12 15 11 16 10 17 9 18 8 19 7 20 6 21 5 22
REMARK SMILES IDX 4 23 3 24 2 25 1 26
REMARK H PARENT
REMARK Flexibility Score: inf
ROOT
ATOM      1  C   UNL     1     130.972 142.682 124.130  1.00  0.00     0.000 C 
ENDROOT
BRANCH   1   2
ATOM      2  C   UNL     1     130.152 142.544 125.418  1.00  0.00     0.000 C 
BRANCH   2   3
ATOM      3  C   UNL     1     130.609 143.557 126.474  1.00  0.00     0.000 C 
BRANCH   3   4
ATOM      4  C   UNL     1     129.460 143.912 127.430  1.00  0.00     0.000 C 
BRANCH   4   5
ATOM      5  C   UNL     1     128.686 145.173 126.999  1.00  0.00     0.000 C 
BRANCH   5   6
ATOM      6  C   UNL     1     127.500 144.917 126.049  1.00  0.00     0.000 C 
BRANCH   6   7
ATOM      7  C   UNL     1     127.633 145.568 124.659  1.00  0.00     0.000 C 
BRANCH   7   8
ATOM      8  C   UNL     1     128.857 146.503 124.526  1.00  0.00     0.000 C 
BRANCH   8   9
ATOM      9  C   UNL     1     129.913 146.003 123.524  1.00  0.00     0.000 C 
BRANCH   9  10
ATOM     10  C   UNL     1     131.319 146.547 123.834  1.00  0.00     0.006 C 
BRANCH  10  11
ATOM     11  C   UNL     1     131.438 147.054 125.277  1.00  0.00     0.053 C 
BRANCH  11  12
ATOM     12  C   UNL     1     132.690 146.562 125.937  1.00  0.00     0.041 C 
ATOM     13  O   UNL     1     133.383 145.663 125.391  1.00  0.00    -0.550 OA
ATOM     14  O   UNL     1     133.111 147.123 127.135  1.00  0.00    -0.550 OA
ENDBRANCH  11  12
ENDBRANCH  10  11
ENDBRANCH   9  10
ENDBRANCH   8   9
ENDBRANCH   7   8
ENDBRANCH   6   7
ENDBRANCH   5   6
ENDBRANCH   4   5
ENDBRANCH   3   4
ENDBRANCH   2   3
ENDBRANCH   1   2
BRANCH   1  15
ATOM     15  C   UNL     1     130.110 142.382 122.894  1.00  0.00     0.000 C 
BRANCH  15  16
ATOM     16  C   UNL     1     128.608 142.336 123.219  1.00  0.00     0.000 C 
BRANCH  16  17
ATOM     17  C   UNL     1     127.728 142.556 121.976  1.00  0.00     0.000 C 
BRANCH  17  18
ATOM     18  C   UNL     1     128.259 143.681 121.072  1.00  0.00    -0.000 C 
BRANCH  18  19
ATOM     19  C   UNL     1     127.337 144.913 121.064  1.00  0.00    -0.000 C 
BRANCH  19  20
ATOM     20  C   UNL     1     127.786 145.981 120.056  1.00  0.00    -0.000 C 
BRANCH  20  21
ATOM     21  C   UNL     1     129.141 145.653 119.411  1.00  0.00    -0.000 C 
BRANCH  21  22
ATOM     22  C   UNL     1     130.251 146.554 119.972  1.00  0.00    -0.000 C 
BRANCH  22  23
ATOM     23  C   UNL     1     131.653 145.936 119.830  1.00  0.00    -0.000 C 
BRANCH  23  24
ATOM     24  C   UNL     1     131.932 144.729 120.748  1.00  0.00    -0.000 C 
BRANCH  24  25
ATOM     25  C   UNL     1     132.447 143.471 120.026  1.00  0.00    -0.003 C 
ATOM     26  C   UNL     1     131.330 142.662 119.369  1.00  0.00     0.004 C 
ENDBRANCH  24  25
ENDBRANCH  23  24
ENDBRANCH  22  23
ENDBRANCH  21  22
ENDBRANCH  20  21
ENDBRANCH  19  20
ENDBRANCH  18  19
ENDBRANCH  17  18
ENDBRANCH  16  17
ENDBRANCH  15  16
ENDBRANCH   1  15
TORSDOF 22
ENDMDL
MODEL 5
REMARK VINA RESULT:    -3.476      1.359      3.696
REMARK INTER + INTRA:         -12.165
REMARK INTER:                  -7.421
REMARK INTRA:                  -4.744
REMARK UNBOUND:                -4.218
REMARK SMILES CCCCCCCCCCCCCCCCCCCCCCCC(=O)[O-]
REMARK SMILES IDX 13 1 14 2 15 3 16 4 17 5 18 6 19 7 20 8 21 9 22 10 23 11
REMARK SMILES IDX 24 12 25 13 26 14 12 15 11 16 10 17 9 18 8 19 7 20 6 21 5 22
REMARK SMILES IDX 4 23 3 24 2 25 1 26
REMARK H PARENT
REMARK Flexibility Score: inf
ROOT
ATOM      1  C   UNL     1     131.100 142.104 120.442  1.00  0.00     0.000 C 
ENDROOT
BRANCH   1   2
ATOM      2  C   UNL     1     130.224 142.755 119.366  1.00  0.00     0.000 C 
BRANCH   2   3
ATOM      3  C   UNL     1     128.982 143.407 119.986  1.00  0.00     0.000 C 
BRANCH   3   4
ATOM      4  C   UNL     1     128.605 144.694 119.238  1.00  0.00     0.000 C 
BRANCH   4   5
ATOM      5  C   UNL     1     129.083 145.970 119.959  1.00  0.00     0.000 C 
BRANCH   5   6
ATOM      6  C   UNL     1     130.525 146.402 119.630  1.00  0.00     0.000 C 
BRANCH   6   7
ATOM      7  C   UNL     1     131.465 146.496 120.846  1.00  0.00     0.000 C 
BRANCH   7   8
ATOM      8  C   UNL     1     130.770 146.193 122.194  1.00  0.00     0.000 C 
BRANCH   8   9
ATOM      9  C   UNL     1     131.459 145.087 123.012  1.00  0.00     0.000 C 
BRANCH   9  10
ATOM     10  C   UNL     1     130.487 143.962 123.413  1.00  0.00     0.006 C 
BRANCH  10  11
ATOM     11  C   UNL     1     129.571 144.376 124.572  1.00  0.00     0.053 C 
BRANCH  11  12
ATOM     12  C   UNL     1     128.136 144.051 124.288  1.00  0.00     0.041 C 
ATOM     13  O   UNL     1     127.629 144.337 123.171  1.00  0.00    -0.550 OA
ATOM     14  O   UNL     1     127.369 143.399 125.244  1.00  0.00    -0.550 OA
ENDBRANCH  11  12
ENDBRANCH  10  11
ENDBRANCH   9  10
ENDBRANCH   8   9
ENDBRANCH   7   8
ENDBRANCH   6   7
ENDBRANCH   5   6
ENDBRANCH   4   5
ENDBRANCH   3   4
ENDBRANCH   2   3
ENDBRANCH   1   2
BRANCH   1  15
ATOM     15  C   UNL     1     132.531 142.660 120.397  1.00  0.00     0.000 C 
BRANCH  15  16
ATOM     16  C   UNL     1     132.822 143.439 119.104  1.00  0.00     0.000 C 
BRANCH  16  17
ATOM     17  C   UNL     1     134.189 143.082 118.493  1.00  0.00     0.000 C 
BRANCH  17  18
ATOM     18  C   UNL     1     135.109 144.306 118.358  1.00  0.00    -0.000 C 
BRANCH  18  19
ATOM     19  C   UNL     1     134.462 145.591 118.906  1.00  0.00    -0.000 C 
BRANCH  19  20
ATOM     20  C   UNL     1     135.475 146.731 119.089  1.00  0.00    -0.000 C 
BRANCH  20  21
ATOM     21  C   UNL     1     136.120 146.731 120.483  1.00  0.00    -0.000 C 
BRANCH  21  22
ATOM     22  C   UNL     1     135.096 146.354 121.564  1.00  0.00    -0.000 C 
BRANCH  22  23
ATOM     23  C   UNL     1     135.675 145.409 122.632  1.00  0.00    -0.000 C 
BRANCH  23  24
ATOM     24  C   UNL     1     135.066 143.992 122.651  1.00  0.00    -0.000 C 
BRANCH  24  25
ATOM     25  C   UNL     1     135.846 142.940 121.843  1.00  0.00    -0.003 C 
ATOM     26  C   UNL     1     137.271 143.380 121.510  1.00  0.00     0.004 C 
ENDBRANCH  24  25
ENDBRANCH  23  24
ENDBRANCH  22  23
ENDBRANCH  21  22
ENDBRANCH  20  21
ENDBRANCH  19  20
ENDBRANCH  18  19
ENDBRANCH  17  18
ENDBRANCH  16  17
ENDBRANCH  15  16
ENDBRANCH   1  15
TORSDOF 22
ENDMDL
MODEL 6
REMARK VINA RESULT:    -3.466      1.480      3.532
REMARK INTER + INTRA:         -12.142
REMARK INTER:                  -8.003
REMARK INTRA:                  -4.139
REMARK UNBOUND:                -4.218
REMARK SMILES CCCCCCCCCCCCCCCCCCCCCCCC(=O)[O-]
REMARK SMILES IDX 13 1 14 2 15 3 16 4 17 5 18 6 19 7 20 8 21 9 22 10 23 11
REMARK SMILES IDX 24 12 25 13 26 14 12 15 11 16 10 17 9 18 8 19 7 20 6 21 5 22
REMARK SMILES IDX 4 23 3 24 2 25 1 26
REMARK H PARENT
REMARK Flexibility Score: inf
ROOT
ATOM      1  C   UNL     1     132.642 146.906 119.381  1.00  0.00     0.000 C 
ENDROOT
BRANCH   1   2
ATOM      2  C   UNL     1     131.495 146.849 120.397  1.00  0.00     0.000 C 
BRANCH   2   3
ATOM      3  C   UNL     1     130.194 146.379 119.734  1.00  0.00     0.000 C 
BRANCH   3   4
ATOM      4  C   UNL     1     129.169 145.934 120.787  1.00  0.00     0.000 C 
BRANCH   4   5
ATOM      5  C   UNL     1     127.742 145.806 120.221  1.00  0.00     0.000 C 
BRANCH   5   6
ATOM      6  C   UNL     1     127.575 144.754 119.108  1.00  0.00     0.000 C 
BRANCH   6   7
ATOM      7  C   UNL     1     128.082 143.345 119.468  1.00  0.00     0.000 C 
BRANCH   7   8
ATOM      8  C   UNL     1     127.195 142.611 120.500  1.00  0.00     0.000 C 
BRANCH   8   9
ATOM      9  C   UNL     1     127.971 142.081 121.718  1.00  0.00     0.000 C 
BRANCH   9  10
ATOM     10  C   UNL     1     128.043 143.110 122.861  1.00  0.00     0.006 C 
BRANCH  10  11
ATOM     11  C   UNL     1     128.660 142.518 124.134  1.00  0.00     0.053 C 
BRANCH  11  12
ATOM     12  C   UNL     1     128.288 143.310 125.351  1.00  0.00     0.041 C 
ATOM     13  O   UNL     1     127.167 143.880 125.419  1.00  0.00    -0.550 OA
ATOM     14  O   UNL     1     129.166 143.388 126.424  1.00  0.00    -0.550 OA
ENDBRANCH  11  12
ENDBRANCH  10  11
ENDBRANCH   9  10
ENDBRANCH   8   9
ENDBRANCH   7   8
ENDBRANCH   6   7
ENDBRANCH   5   6
ENDBRANCH   4   5
ENDBRANCH   3   4
ENDBRANCH   2   3
ENDBRANCH   1   2
BRANCH   1  15
ATOM     15  C   UNL     1     133.947 146.375 119.994  1.00  0.00     0.000 C 
BRANCH  15  16
ATOM     16  C   UNL     1     135.050 146.165 118.943  1.00  0.00     0.000 C 
BRANCH  16  17
ATOM     17  C   UNL     1     134.968 144.785 118.268  1.00  0.00     0.000 C 
BRANCH  17  18
ATOM     18  C   UNL     1     134.514 143.682 119.239  1.00  0.00    -0.000 C 
BRANCH  18  19
ATOM     19  C   UNL     1     133.329 142.868 118.690  1.00  0.00    -0.000 C 
BRANCH  19  20
ATOM     20  C   UNL     1     131.982 143.318 119.275  1.00  0.00    -0.000 C 
BRANCH  20  21
ATOM     21  C   UNL     1     131.559 142.486 120.494  1.00  0.00    -0.000 C 
BRANCH  21  22
ATOM     22  C   UNL     1     131.492 143.355 121.758  1.00  0.00    -0.000 C 
BRANCH  22  23
ATOM     23  C   UNL     1     132.396 142.835 122.891  1.00  0.00    -0.000 C 
BRANCH  23  24
ATOM     24  C   UNL     1     133.877 143.251 122.789  1.00  0.00    -0.000 C 
BRANCH  24  25
ATOM     25  C   UNL     1     134.158 144.730 123.110  1.00  0.00    -0.003 C 
ATOM     26  C   UNL     1     135.649 145.043 123.218  1.00  0.00     0.004 C 
ENDBRANCH  24  25
ENDBRANCH  23  24
ENDBRANCH  22  23
ENDBRANCH  21  22
ENDBRANCH  20  21
ENDBRANCH  19  20
ENDBRANCH  18  19
ENDBRANCH  17  18
ENDBRANCH  16  17
ENDBRANCH  15  16
ENDBRANCH   1  15
TORSDOF 22
ENDMDL
MODEL 7
REMARK VINA RESULT:    -3.457      2.465      6.939
REMARK INTER + INTRA:         -12.122
REMARK INTER:                  -7.999
REMARK INTRA:                  -4.123
REMARK UNBOUND:                -4.218
REMARK SMILES CCCCCCCCCCCCCCCCCCCCCCCC(=O)[O-]
REMARK SMILES IDX 13 1 14 2 15 3 16 4 17 5 18 6 19 7 20 8 21 9 22 10 23 11
REMARK SMILES IDX 24 12 25 13 26 14 12 15 11 16 10 17 9 18 8 19 7 20 6 21 5 22
REMARK SMILES IDX 4 23 3 24 2 25 1 26
REMARK H PARENT
REMARK Flexibility Score: inf
ROOT
ATOM      1  C   UNL     1     132.234 142.819 120.415  1.00  0.00     0.000 C 
ENDROOT
BRANCH   1   2
ATOM      2  C   UNL     1     133.197 143.373 119.358  1.00  0.00     0.000 C 
BRANCH   2   3
ATOM      3  C   UNL     1     134.645 142.975 119.669  1.00  0.00     0.000 C 
BRANCH   3   4
ATOM      4  C   UNL     1     135.636 143.870 118.910  1.00  0.00     0.000 C 
BRANCH   4   5
ATOM      5  C   UNL     1     134.954 145.056 118.201  1.00  0.00     0.000 C 
BRANCH   5   6
ATOM      6  C   UNL     1     135.212 146.434 118.841  1.00  0.00     0.000 C 
BRANCH   6   7
ATOM      7  C   UNL     1     136.346 146.460 119.883  1.00  0.00     0.000 C 
BRANCH   7   8
ATOM      8  C   UNL     1     135.857 146.725 121.325  1.00  0.00     0.000 C 
BRANCH   8   9
ATOM      9  C   UNL     1     134.380 146.358 121.557  1.00  0.00     0.000 C 
BRANCH   9  10
ATOM     10  C   UNL     1     134.188 145.444 122.780  1.00  0.00     0.006 C 
BRANCH  10  11
ATOM     11  C   UNL     1     135.373 144.491 122.981  1.00  0.00     0.053 C 
BRANCH  11  12
ATOM     12  C   UNL     1     136.061 144.729 124.291  1.00  0.00     0.041 C 
ATOM     13  O   UNL     1     137.122 145.406 124.337  1.00  0.00    -0.550 OA
ATOM     14  O   UNL     1     135.510 144.233 125.465  1.00  0.00    -0.550 OA
ENDBRANCH  11  12
ENDBRANCH  10  11
ENDBRANCH   9  10
ENDBRANCH   8   9
ENDBRANCH   7   8
ENDBRANCH   6   7
ENDBRANCH   5   6
ENDBRANCH   4   5
ENDBRANCH   3   4
ENDBRANCH   2   3
ENDBRANCH   1   2
BRANCH   1  15
ATOM     15  C   UNL     1     130.876 142.465 119.791  1.00  0.00     0.000 C 
BRANCH  15  16
ATOM     16  C   UNL     1     129.897 141.862 120.811  1.00  0.00     0.000 C 
BRANCH  16  17
ATOM     17  C   UNL     1     128.441 141.874 120.312  1.00  0.00     0.000 C 
BRANCH  17  18
ATOM     18  C   UNL     1     127.691 143.153 120.720  1.00  0.00    -0.000 C 
BRANCH  18  19
ATOM     19  C   UNL     1     127.171 143.941 119.505  1.00  0.00    -0.000 C 
BRANCH  19  20
ATOM     20  C   UNL     1     128.264 144.790 118.839  1.00  0.00    -0.000 C 
BRANCH  20  21
ATOM     21  C   UNL     1     128.721 145.963 119.719  1.00  0.00    -0.000 C 
BRANCH  21  22
ATOM     22  C   UNL     1     130.249 146.109 119.694  1.00  0.00    -0.000 C 
BRANCH  22  23
ATOM     23  C   UNL     1     130.865 146.204 121.101  1.00  0.00    -0.000 C 
BRANCH  23  24
ATOM     24  C   UNL     1     130.124 145.409 122.195  1.00  0.00    -0.000 C 
BRANCH  24  25
ATOM     25  C   UNL     1     129.658 146.244 123.400  1.00  0.00    -0.003 C 
ATOM     26  C   UNL     1     128.187 146.649 123.311  1.00  0.00     0.004 C 
ENDBRANCH  24  25
ENDBRANCH  23  24
ENDBRANCH  22  23
ENDBRANCH  21  22
ENDBRANCH  20  21
ENDBRANCH  19  20
ENDBRANCH  18  19
ENDBRANCH  17  18
ENDBRANCH  16  17
ENDBRANCH  15  16
ENDBRANCH   1  15
TORSDOF 22
ENDMDL
MODEL 8
REMARK VINA RESULT:    -3.440      2.036      5.239
REMARK INTER + INTRA:         -12.082
REMARK INTER:                  -7.021
REMARK INTRA:                  -5.061
REMARK UNBOUND:                -4.218
REMARK SMILES CCCCCCCCCCCCCCCCCCCCCCCC(=O)[O-]
REMARK SMILES IDX 13 1 14 2 15 3 16 4 17 5 18 6 19 7 20 8 21 9 22 10 23 11
REMARK SMILES IDX 24 12 25 13 26 14 12 15 11 16 10 17 9 18 8 19 7 20 6 21 5 22
REMARK SMILES IDX 4 23 3 24 2 25 1 26
REMARK H PARENT
REMARK Flexibility Score: inf
ROOT
ATOM      1  C   UNL     1     130.912 146.315 122.544  1.00  0.00     0.000 C 
ENDROOT
BRANCH   1   2
ATOM      2  C   UNL     1     131.688 146.828 121.325  1.00  0.00     0.000 C 
BRANCH   2   3
ATOM      3  C   UNL     1     131.512 145.890 120.125  1.00  0.00     0.000 C 
BRANCH   3   4
ATOM      4  C   UNL     1     132.802 145.103 119.849  1.00  0.00     0.000 C 
BRANCH   4   5
ATOM      5  C   UNL     1     132.572 143.581 119.773  1.00  0.00     0.000 C 
BRANCH   5   6
ATOM      6  C   UNL     1     131.967 142.949 121.041  1.00  0.00     0.000 C 
BRANCH   6   7
ATOM      7  C   UNL     1     132.851 143.047 122.298  1.00  0.00     0.000 C 
BRANCH   7   8
ATOM      8  C   UNL     1     132.076 142.834 123.620  1.00  0.00     0.000 C 
BRANCH   8   9
ATOM      9  C   UNL     1     132.307 143.946 124.659  1.00  0.00     0.000 C 
BRANCH   9  10
ATOM     10  C   UNL     1     131.106 144.120 125.607  1.00  0.00     0.006 C 
BRANCH  10  11
ATOM     11  C   UNL     1     129.924 143.226 125.212  1.00  0.00     0.053 C 
BRANCH  11  12
ATOM     12  C   UNL     1     128.609 143.890 125.489  1.00  0.00     0.041 C 
ATOM     13  O   UNL     1     128.575 145.064 125.944  1.00  0.00    -0.550 OA
ATOM     14  O   UNL     1     127.423 143.225 125.211  1.00  0.00    -0.550 OA
ENDBRANCH  11  12
ENDBRANCH  10  11
ENDBRANCH   9  10
ENDBRANCH   8   9
ENDBRANCH   7   8
ENDBRANCH   6   7
ENDBRANCH   5   6
ENDBRANCH   4   5
ENDBRANCH   3   4
ENDBRANCH   2   3
ENDBRANCH   1   2
BRANCH   1  15
ATOM     15  C   UNL     1     129.637 145.576 122.113  1.00  0.00     0.000 C 
BRANCH  15  16
ATOM     16  C   UNL     1     128.357 146.265 122.614  1.00  0.00     0.000 C 
BRANCH  16  17
ATOM     17  C   UNL     1     127.164 146.060 121.665  1.00  0.00     0.000 C 
BRANCH  17  18
ATOM     18  C   UNL     1     127.511 146.391 120.204  1.00  0.00    -0.000 C 
BRANCH  18  19
ATOM     19  C   UNL     1     127.229 145.216 119.252  1.00  0.00    -0.000 C 
BRANCH  19  20
ATOM     20  C   UNL     1     128.496 144.418 118.907  1.00  0.00    -0.000 C 
BRANCH  20  21
ATOM     21  C   UNL     1     128.500 143.015 119.532  1.00  0.00    -0.000 C 
BRANCH  21  22
ATOM     22  C   UNL     1     127.147 142.699 120.186  1.00  0.00    -0.000 C 
BRANCH  22  23
ATOM     23  C   UNL     1     127.280 141.813 121.438  1.00  0.00    -0.000 C 
BRANCH  23  24
ATOM     24  C   UNL     1     128.629 141.919 122.175  1.00  0.00    -0.000 C 
BRANCH  24  25
ATOM     25  C   UNL     1     129.276 140.572 122.542  1.00  0.00    -0.003 C 
ATOM     26  C   UNL     1     129.936 139.884 121.349  1.00  0.00     0.004 C 
ENDBRANCH  24  25
ENDBRANCH  23  24
ENDBRANCH  22  23
ENDBRANCH  21  22
ENDBRANCH  20  21
ENDBRANCH  19  20
ENDBRANCH  18  19
ENDBRANCH  17  18
ENDBRANCH  16  17
ENDBRANCH  15  16
ENDBRANCH   1  15
TORSDOF 22
ENDMDL
MODEL 9
REMARK VINA RESULT:    -3.380      2.365      4.029
REMARK INTER + INTRA:         -11.944
REMARK INTER:                  -7.052
REMARK INTRA:                  -4.892
REMARK UNBOUND:                -4.218
REMARK SMILES CCCCCCCCCCCCCCCCCCCCCCCC(=O)[O-]
REMARK SMILES IDX 13 1 14 2 15 3 16 4 17 5 18 6 19 7 20 8 21 9 22 10 23 11
REMARK SMILES IDX 24 12 25 13 26 14 12 15 11 16 10 17 9 18 8 19 7 20 6 21 5 22
REMARK SMILES IDX 4 23 3 24 2 25 1 26
REMARK H PARENT
REMARK Flexibility Score: inf
ROOT
ATOM      1  C   UNL     1     131.040 144.515 120.103  1.00  0.00     0.000 C 
ENDROOT
BRANCH   1   2
ATOM      2  C   UNL     1     130.041 143.610 119.373  1.00  0.00     0.000 C 
BRANCH   2   3
ATOM      3  C   UNL     1     128.777 143.392 120.213  1.00  0.00     0.000 C 
BRANCH   3   4
ATOM      4  C   UNL     1     127.609 144.233 119.676  1.00  0.00     0.000 C 
BRANCH   4   5
ATOM      5  C   UNL     1     127.234 145.404 120.605  1.00  0.00     0.000 C 
BRANCH   5   6
ATOM      6  C   UNL     1     127.614 145.209 122.085  1.00  0.00     0.000 C 
BRANCH   6   7
ATOM      7  C   UNL     1     128.554 146.286 122.658  1.00  0.00     0.000 C 
BRANCH   7   8
ATOM      8  C   UNL     1     128.554 146.352 124.203  1.00  0.00     0.000 C 
BRANCH   8   9
ATOM      9  C   UNL     1     127.490 145.456 124.862  1.00  0.00     0.000 C 
BRANCH   9  10
ATOM     10  C   UNL     1     127.715 145.296 126.376  1.00  0.00     0.006 C 
BRANCH  10  11
ATOM     11  C   UNL     1     129.111 144.746 126.698  1.00  0.00     0.053 C 
BRANCH  11  12
ATOM     12  C   UNL     1     129.850 145.634 127.652  1.00  0.00     0.041 C 
ATOM     13  O   UNL     1     130.326 146.732 127.259  1.00  0.00    -0.550 OA
ATOM     14  O   UNL     1     129.982 145.266 128.984  1.00  0.00    -0.550 OA
ENDBRANCH  11  12
ENDBRANCH  10  11
ENDBRANCH   9  10
ENDBRANCH   8   9
ENDBRANCH   7   8
ENDBRANCH   6   7
ENDBRANCH   5   6
ENDBRANCH   4   5
ENDBRANCH   3   4
ENDBRANCH   2   3
ENDBRANCH   1   2
BRANCH   1  15
ATOM     15  C   UNL     1     130.830 145.988 119.719  1.00  0.00     0.000 C 
BRANCH  15  16
ATOM     16  C   UNL     1     131.563 146.954 120.665  1.00  0.00     0.000 C 
BRANCH  16  17
ATOM     17  C   UNL     1     132.557 146.234 121.593  1.00  0.00     0.000 C 
BRANCH  17  18
ATOM     18  C   UNL     1     132.880 147.051 122.855  1.00  0.00    -0.000 C 
BRANCH  18  19
ATOM     19  C   UNL     1     132.113 146.551 124.091  1.00  0.00    -0.000 C 
BRANCH  19  20
ATOM     20  C   UNL     1     132.986 145.697 125.023  1.00  0.00    -0.000 C 
BRANCH  20  21
ATOM     21  C   UNL     1     132.409 144.292 125.251  1.00  0.00    -0.000 C 
BRANCH  21  22
ATOM     22  C   UNL     1     132.988 143.289 124.243  1.00  0.00    -0.000 C 
BRANCH  22  23
ATOM     23  C   UNL     1     131.970 142.863 123.170  1.00  0.00    -0.000 C 
BRANCH  23  24
ATOM     24  C   UNL     1     130.496 143.155 123.513  1.00  0.00    -0.000 C 
BRANCH  24  25
ATOM     25  C   UNL     1     129.549 141.949 123.388  1.00  0.00    -0.003 C 
ATOM     26  C   UNL     1     128.333 142.047 124.308  1.00  0.00     0.004 C 
ENDBRANCH  24  25
ENDBRANCH  23  24
ENDBRANCH  22  23
ENDBRANCH  21  22
ENDBRANCH  20  21
ENDBRANCH  19  20
ENDBRANCH  18  19
ENDBRANCH  17  18
ENDBRANCH  16  17
ENDBRANCH  15  16
ENDBRANCH   1  15
TORSDOF 22
ENDMDL
