MODEL 1
REMARK VINA RESULT:    -4.201      0.000      0.000
REMARK INTER + INTRA:          -5.394
REMARK INTER:                  -6.166
REMARK INTRA:                   0.772
REMARK UNBOUND:                 0.772
REMARK SMILES O=c1c(O[C@H]2O[C@@H](CO)[C@H](O)[C@H](O)[C@@H]2O)c(-c2ccc(O)c(O)c2)oc2cc(O)cc(O)c12
REMARK SMILES IDX 4 1 3 2 16 3 25 4 2 5 26 6 1 7 33 8 27 9 31 10 28 11 30 12
REMARK SMILES IDX 17 13 18 14 19 15 20 16 24 17 22 18 21 19 23 21 32 23 29 25
REMARK SMILES IDX 5 27 14 28 6 29 12 30 7 31 10 32 15 33 13 35 8 37 9 38 11 40
REMARK H PARENT 21 20 23 22 32 24 29 26 15 34 13 36 9 39 11 41
REMARK Flexibility Score: inf
ROOT
ATOM      1  O   UNL     1     -10.907  10.045   5.155  1.00  0.00    -0.454 OA
ENDROOT
BRANCH   1   2
ATOM      2  C   UNL     1     -10.606   8.754   5.610  1.00  0.00     0.214 A 
ATOM      3  C   UNL     1      -9.318   8.410   6.064  1.00  0.00     0.180 A 
ATOM      4  O   UNL     1      -9.101   7.198   6.560  1.00  0.00    -0.452 OA
ATOM      5  C   UNL     1     -11.611   7.782   5.615  1.00  0.00     0.239 A 
ATOM      6  C   UNL     1     -10.035   6.257   6.629  1.00  0.00     0.146 A 
ATOM      7  O   UNL     1     -12.729   8.082   5.122  1.00  0.00    -0.285 OA
ATOM      8  C   UNL     1     -11.355   6.500   6.162  1.00  0.00     0.111 A 
ATOM      9  C   UNL     1      -9.685   5.014   7.159  1.00  0.00     0.094 A 
ATOM     10  C   UNL     1     -12.317   5.447   6.267  1.00  0.00     0.134 A 
ATOM     11  C   UNL     1     -10.620   3.987   7.231  1.00  0.00     0.123 A 
ATOM     12  C   UNL     1     -11.925   4.205   6.783  1.00  0.00     0.093 A 
BRANCH   3  13
ATOM     13  C   UNL     1      -8.175   9.347   5.993  1.00  0.00     0.025 A 
ATOM     14  C   UNL     1      -7.668   9.727   4.739  1.00  0.00     0.016 A 
ATOM     15  C   UNL     1      -6.593  10.615   4.651  1.00  0.00     0.051 A 
ATOM     16  C   UNL     1      -6.018  11.148   5.813  1.00  0.00     0.157 A 
ATOM     17  C   UNL     1      -7.612   9.903   7.155  1.00  0.00     0.062 A 
ATOM     18  C   UNL     1      -6.534  10.791   7.071  1.00  0.00     0.158 A 
BRANCH  16  19
ATOM     19  O   UNL     1      -4.943  12.029   5.722  1.00  0.00    -0.504 OA
ATOM     20  H   UNL     1      -4.683  12.461   4.842  1.00  0.00     0.293 HD
ENDBRANCH  16  19
BRANCH  18  21
ATOM     21  O   UNL     1      -5.990  11.311   8.245  1.00  0.00    -0.504 OA
ATOM     22  H   UNL     1      -5.004  11.522   8.335  1.00  0.00     0.293 HD
ENDBRANCH  18  21
ENDBRANCH   3  13
BRANCH  10  23
ATOM     23  O   UNL     1     -13.661   5.561   5.899  1.00  0.00    -0.507 OA
ATOM     24  H   UNL     1     -14.131   5.022   5.190  1.00  0.00     0.293 HD
ENDBRANCH  10  23
BRANCH  11  25
ATOM     25  O   UNL     1     -10.246   2.751   7.752  1.00  0.00    -0.508 OA
ATOM     26  H   UNL     1     -10.848   1.939   7.677  1.00  0.00     0.293 HD
ENDBRANCH  11  25
ENDBRANCH   1   2
BRANCH   1  27
ATOM     27  C   UNL     1     -11.535  11.033   5.976  1.00  0.00     0.339 C 
ATOM     28  C   UNL     1     -12.643  10.410   6.861  1.00  0.00     0.214 C 
ATOM     29  O   UNL     1     -12.009  12.117   5.187  1.00  0.00    -0.332 OA
ATOM     30  C   UNL     1     -13.861  10.013   6.016  1.00  0.00     0.180 C 
ATOM     31  C   UNL     1     -13.098  11.785   4.329  1.00  0.00     0.179 C 
ATOM     32  C   UNL     1     -14.302  11.155   5.083  1.00  0.00     0.177 C 
BRANCH  28  33
ATOM     33  O   UNL     1     -13.021  11.249   7.931  1.00  0.00    -0.384 OA
ATOM     34  H   UNL     1     -14.004  11.211   8.050  1.00  0.00     0.211 HD
ENDBRANCH  28  33
BRANCH  30  35
ATOM     35  O   UNL     1     -14.916   9.621   6.857  1.00  0.00    -0.387 OA
ATOM     36  H   UNL     1     -14.739  10.026   7.747  1.00  0.00     0.211 HD
ENDBRANCH  30  35
BRANCH  31  37
ATOM     37  C   UNL     1     -12.653  10.964   3.101  1.00  0.00     0.191 C 
BRANCH  37  38
ATOM     38  O   UNL     1     -11.556  11.585   2.487  1.00  0.00    -0.394 OA
ATOM     39  H   UNL     1     -11.919  12.074   1.704  1.00  0.00     0.210 HD
ENDBRANCH  37  38
ENDBRANCH  31  37
BRANCH  32  40
ATOM     40  O   UNL     1     -15.043  12.125   5.789  1.00  0.00    -0.387 OA
ATOM     41  H   UNL     1     -15.998  12.041   5.538  1.00  0.00     0.211 HD
ENDBRANCH  32  40
ENDBRANCH   1  27
TORSDOF 12
ENDMDL
MODEL 2
REMARK VINA RESULT:    -4.192      1.550      5.669
REMARK INTER + INTRA:          -5.380
REMARK INTER:                  -6.220
REMARK INTRA:                   0.840
REMARK UNBOUND:                 0.772
REMARK SMILES O=c1c(O[C@H]2O[C@@H](CO)[C@H](O)[C@H](O)[C@@H]2O)c(-c2ccc(O)c(O)c2)oc2cc(O)cc(O)c12
REMARK SMILES IDX 4 1 3 2 16 3 25 4 2 5 26 6 1 7 33 8 27 9 31 10 28 11 30 12
REMARK SMILES IDX 17 13 18 14 19 15 20 16 24 17 22 18 21 19 23 21 32 23 29 25
REMARK SMILES IDX 5 27 14 28 6 29 12 30 7 31 10 32 15 33 13 35 8 37 9 38 11 40
REMARK H PARENT 21 20 23 22 32 24 29 26 15 34 13 36 9 39 11 41
REMARK Flexibility Score: inf
ROOT
ATOM      1  O   UNL     1     -10.016   7.411   6.691  1.00  0.00    -0.454 OA
ENDROOT
BRANCH   1   2
ATOM      2  C   UNL     1     -10.800   8.393   6.071  1.00  0.00     0.214 A 
ATOM      3  C   UNL     1     -10.245   9.598   5.599  1.00  0.00     0.180 A 
ATOM      4  O   UNL     1     -11.013  10.462   4.949  1.00  0.00    -0.452 OA
ATOM      5  C   UNL     1     -12.172   8.170   5.915  1.00  0.00     0.239 A 
ATOM      6  C   UNL     1     -12.310  10.273   4.735  1.00  0.00     0.146 A 
ATOM      7  O   UNL     1     -12.665   7.130   6.424  1.00  0.00    -0.285 OA
ATOM      8  C   UNL     1     -12.967   9.104   5.206  1.00  0.00     0.111 A 
ATOM      9  C   UNL     1     -13.019  11.261   4.048  1.00  0.00     0.094 A 
ATOM     10  C   UNL     1     -14.364   8.958   4.940  1.00  0.00     0.134 A 
ATOM     11  C   UNL     1     -14.384  11.121   3.820  1.00  0.00     0.123 A 
ATOM     12  C   UNL     1     -15.049   9.978   4.268  1.00  0.00     0.093 A 
BRANCH   3  13
ATOM     13  C   UNL     1      -8.826   9.957   5.819  1.00  0.00     0.025 A 
ATOM     14  C   UNL     1      -7.836   9.411   4.985  1.00  0.00     0.016 A 
ATOM     15  C   UNL     1      -6.492   9.743   5.173  1.00  0.00     0.051 A 
ATOM     16  C   UNL     1      -6.118  10.636   6.186  1.00  0.00     0.157 A 
ATOM     17  C   UNL     1      -8.449  10.873   6.818  1.00  0.00     0.062 A 
ATOM     18  C   UNL     1      -7.104  11.205   7.010  1.00  0.00     0.158 A 
BRANCH  16  19
ATOM     19  O   UNL     1      -4.777  10.960   6.374  1.00  0.00    -0.504 OA
ATOM     20  H   UNL     1      -4.452  11.920   6.339  1.00  0.00     0.293 HD
ENDBRANCH  16  19
BRANCH  18  21
ATOM     21  O   UNL     1      -6.766  12.105   8.021  1.00  0.00    -0.504 OA
ATOM     22  H   UNL     1      -6.994  11.934   8.992  1.00  0.00     0.293 HD
ENDBRANCH  18  21
ENDBRANCH   3  13
BRANCH  10  23
ATOM     23  O   UNL     1     -15.125   7.839   5.295  1.00  0.00    -0.507 OA
ATOM     24  H   UNL     1     -15.254   7.008   4.739  1.00  0.00     0.293 HD
ENDBRANCH  10  23
BRANCH  11  25
ATOM     25  O   UNL     1     -15.074  12.125   3.144  1.00  0.00    -0.508 OA
ATOM     26  H   UNL     1     -15.066  13.085   3.468  1.00  0.00     0.293 HD
ENDBRANCH  11  25
ENDBRANCH   1   2
BRANCH   1  27
ATOM     27  C   UNL     1      -9.609   6.209   6.032  1.00  0.00     0.339 C 
ATOM     28  C   UNL     1     -10.817   5.478   5.396  1.00  0.00     0.214 C 
ATOM     29  O   UNL     1      -8.868   5.377   6.916  1.00  0.00    -0.332 OA
ATOM     30  C   UNL     1     -11.709   4.852   6.475  1.00  0.00     0.180 C 
ATOM     31  C   UNL     1      -9.636   4.823   7.981  1.00  0.00     0.179 C 
ATOM     32  C   UNL     1     -10.887   4.040   7.493  1.00  0.00     0.177 C 
BRANCH  28  33
ATOM     33  O   UNL     1     -10.429   4.517   4.439  1.00  0.00    -0.384 OA
ATOM     34  H   UNL     1     -11.233   4.169   3.975  1.00  0.00     0.211 HD
ENDBRANCH  28  33
BRANCH  30  35
ATOM     35  O   UNL     1     -12.691   4.047   5.873  1.00  0.00    -0.387 OA
ATOM     36  H   UNL     1     -13.489   4.622   5.735  1.00  0.00     0.211 HD
ENDBRANCH  30  35
BRANCH  31  37
ATOM     37  C   UNL     1      -9.956   5.859   9.078  1.00  0.00     0.191 C 
BRANCH  37  38
ATOM     38  O   UNL     1     -11.323   6.170   9.053  1.00  0.00    -0.394 OA
ATOM     39  H   UNL     1     -11.804   5.311   9.176  1.00  0.00     0.210 HD
ENDBRANCH  37  38
ENDBRANCH  31  37
BRANCH  32  40
ATOM     40  O   UNL     1     -10.544   2.777   6.970  1.00  0.00    -0.387 OA
ATOM     41  H   UNL     1     -11.309   2.161   7.099  1.00  0.00     0.211 HD
ENDBRANCH  32  40
ENDBRANCH   1  27
TORSDOF 12
ENDMDL
MODEL 3
REMARK VINA RESULT:    -2.800      1.330      1.903
REMARK INTER + INTRA:          -3.337
REMARK INTER:                  -4.086
REMARK INTRA:                   0.750
REMARK UNBOUND:                 0.772
REMARK SMILES O=c1c(O[C@H]2O[C@@H](CO)[C@H](O)[C@H](O)[C@@H]2O)c(-c2ccc(O)c(O)c2)oc2cc(O)cc(O)c12
REMARK SMILES IDX 4 1 3 2 16 3 25 4 2 5 26 6 1 7 33 8 27 9 31 10 28 11 30 12
REMARK SMILES IDX 17 13 18 14 19 15 20 16 24 17 22 18 21 19 23 21 32 23 29 25
REMARK SMILES IDX 5 27 14 28 6 29 12 30 7 31 10 32 15 33 13 35 8 37 9 38 11 40
REMARK H PARENT 21 20 23 22 32 24 29 26 15 34 13 36 9 39 11 41
REMARK Flexibility Score: inf
ROOT
ATOM      1  O   UNL     1     -11.504   9.677   5.076  1.00  0.00    -0.454 OA
ENDROOT
BRANCH   1   2
ATOM      2  C   UNL     1     -11.118   8.482   5.698  1.00  0.00     0.214 A 
ATOM      3  C   UNL     1      -9.810   8.286   6.181  1.00  0.00     0.180 A 
ATOM      4  O   UNL     1      -9.514   7.169   6.834  1.00  0.00    -0.452 OA
ATOM      5  C   UNL     1     -12.058   7.456   5.845  1.00  0.00     0.239 A 
ATOM      6  C   UNL     1     -10.384   6.188   7.039  1.00  0.00     0.146 A 
ATOM      7  O   UNL     1     -13.193   7.614   5.327  1.00  0.00    -0.285 OA
ATOM      8  C   UNL     1     -11.718   6.279   6.557  1.00  0.00     0.111 A 
ATOM      9  C   UNL     1      -9.952   5.053   7.729  1.00  0.00     0.094 A 
ATOM     10  C   UNL     1     -12.608   5.190   6.813  1.00  0.00     0.134 A 
ATOM     11  C   UNL     1     -10.819   3.987   7.948  1.00  0.00     0.123 A 
ATOM     12  C   UNL     1     -12.136   4.058   7.489  1.00  0.00     0.093 A 
BRANCH   3  13
ATOM     13  C   UNL     1      -8.730   9.276   5.972  1.00  0.00     0.025 A 
ATOM     14  C   UNL     1      -8.016   9.277   4.763  1.00  0.00     0.016 A 
ATOM     15  C   UNL     1      -6.997  10.208   4.544  1.00  0.00     0.051 A 
ATOM     16  C   UNL     1      -6.687  11.161   5.524  1.00  0.00     0.157 A 
ATOM     17  C   UNL     1      -8.433  10.250   6.942  1.00  0.00     0.062 A 
ATOM     18  C   UNL     1      -7.413  11.183   6.728  1.00  0.00     0.158 A 
BRANCH  16  19
ATOM     19  O   UNL     1      -5.667  12.085   5.305  1.00  0.00    -0.504 OA
ATOM     20  H   UNL     1      -4.695  11.853   5.478  1.00  0.00     0.293 HD
ENDBRANCH  16  19
BRANCH  18  21
ATOM     21  O   UNL     1      -7.135  12.124   7.719  1.00  0.00    -0.504 OA
ATOM     22  H   UNL     1      -6.783  11.859   8.630  1.00  0.00     0.293 HD
ENDBRANCH  18  21
ENDBRANCH   3  13
BRANCH  10  23
ATOM     23  O   UNL     1     -13.958   5.167   6.447  1.00  0.00    -0.507 OA
ATOM     24  H   UNL     1     -14.714   4.785   6.992  1.00  0.00     0.293 HD
ENDBRANCH  10  23
BRANCH  11  25
ATOM     25  O   UNL     1     -10.363   2.859   8.628  1.00  0.00    -0.508 OA
ATOM     26  H   UNL     1      -9.435   2.484   8.470  1.00  0.00     0.293 HD
ENDBRANCH  11  25
ENDBRANCH   1   2
BRANCH   1  27
ATOM     27  C   UNL     1     -12.848  10.166   5.095  1.00  0.00     0.339 C 
ATOM     28  C   UNL     1     -13.704   9.502   3.988  1.00  0.00     0.214 C 
ATOM     29  O   UNL     1     -12.868  11.586   5.025  1.00  0.00    -0.332 OA
ATOM     30  C   UNL     1     -13.298  10.013   2.600  1.00  0.00     0.180 C 
ATOM     31  C   UNL     1     -12.432  12.118   3.778  1.00  0.00     0.179 C 
ATOM     32  C   UNL     1     -13.216  11.550   2.562  1.00  0.00     0.177 C 
BRANCH  28  33
ATOM     33  O   UNL     1     -15.089   9.664   4.202  1.00  0.00    -0.384 OA
ATOM     34  H   UNL     1     -15.351  10.594   3.984  1.00  0.00     0.211 HD
ENDBRANCH  28  33
BRANCH  30  35
ATOM     35  O   UNL     1     -14.202   9.539   1.635  1.00  0.00    -0.387 OA
ATOM     36  H   UNL     1     -14.804  10.296   1.410  1.00  0.00     0.211 HD
ENDBRANCH  30  35
BRANCH  31  37
ATOM     37  C   UNL     1     -10.900  12.039   3.605  1.00  0.00     0.191 C 
BRANCH  37  38
ATOM     38  O   UNL     1     -10.276  12.125   4.857  1.00  0.00    -0.394 OA
ATOM     39  H   UNL     1      -9.441  11.593   4.786  1.00  0.00     0.210 HD
ENDBRANCH  37  38
ENDBRANCH  31  37
BRANCH  32  40
ATOM     40  O   UNL     1     -14.500  12.121   2.453  1.00  0.00    -0.387 OA
ATOM     41  H   UNL     1     -14.708  12.600   3.295  1.00  0.00     0.211 HD
ENDBRANCH  32  40
ENDBRANCH   1  27
TORSDOF 12
ENDMDL
