MODEL 1
REMARK VINA RESULT:     4.546      0.000      0.000
REMARK INTER + INTRA:           5.153
REMARK INTER:                   5.476
REMARK INTRA:                  -0.323
REMARK UNBOUND:                -0.323
REMARK SMILES O=c1c(O)c(-c2ccc(O)c(O)c2)oc2cc(O)cc(O)c12
REMARK SMILES IDX 5 1 3 2 2 3 1 4 22 5 20 6 19 7 17 8 16 9 15 10 14 11 6 12
REMARK SMILES IDX 7 13 8 14 9 15 13 16 11 17 10 18 12 20 4 22 21 24 18 26
REMARK H PARENT 10 19 12 21 4 23 21 25 18 27
REMARK Flexibility Score: inf
ROOT
ATOM      1  C   UNL     1     109.178 108.501 107.503  1.00  0.00     0.180 A 
ATOM      2  C   UNL     1     110.273 109.166 106.923  1.00  0.00     0.208 A 
ATOM      3  C   UNL     1     110.963 110.127 107.679  1.00  0.00     0.238 A 
ATOM      4  O   UNL     1     111.975 110.679 107.173  1.00  0.00    -0.285 OA
ATOM      5  C   UNL     1     110.541 110.424 108.997  1.00  0.00     0.111 A 
ATOM      6  C   UNL     1     111.143 111.408 109.838  1.00  0.00     0.134 A 
ATOM      7  C   UNL     1     110.726 111.525 111.170  1.00  0.00     0.093 A 
ATOM      8  C   UNL     1     109.689 110.741 111.673  1.00  0.00     0.123 A 
ATOM      9  C   UNL     1     109.054 109.817 110.841  1.00  0.00     0.094 A 
ATOM     10  C   UNL     1     109.472 109.652 109.518  1.00  0.00     0.146 A 
ATOM     11  O   UNL     1     108.848 108.754 108.764  1.00  0.00    -0.452 OA
ENDROOT
BRANCH   1  12
ATOM     12  C   UNL     1     108.385 107.494 106.762  1.00  0.00     0.025 A 
ATOM     13  C   UNL     1     107.281 107.907 106.001  1.00  0.00     0.016 A 
ATOM     14  C   UNL     1     106.531 106.976 105.278  1.00  0.00     0.051 A 
ATOM     15  C   UNL     1     106.881 105.622 105.291  1.00  0.00     0.157 A 
ATOM     16  C   UNL     1     108.749 106.135 106.758  1.00  0.00     0.062 A 
ATOM     17  C   UNL     1     107.998 105.199 106.031  1.00  0.00     0.158 A 
BRANCH  15  18
ATOM     18  O   UNL     1     106.113 104.716 104.561  1.00  0.00    -0.504 OA
ATOM     19  H   UNL     1     106.103 103.726 104.774  1.00  0.00     0.293 HD
ENDBRANCH  15  18
BRANCH  17  20
ATOM     20  O   UNL     1     108.362 103.853 106.037  1.00  0.00    -0.504 OA
ATOM     21  H   UNL     1     109.329 103.564 106.126  1.00  0.00     0.293 HD
ENDBRANCH  17  20
ENDBRANCH   1  12
BRANCH   2  22
ATOM     22  O   UNL     1     110.685 108.842 105.628  1.00  0.00    -0.502 OA
ATOM     23  H   UNL     1     110.055 108.449 104.939  1.00  0.00     0.293 HD
ENDBRANCH   2  22
BRANCH   6  24
ATOM     24  O   UNL     1     112.125 112.306 109.410  1.00  0.00    -0.507 OA
ATOM     25  H   UNL     1     111.977 113.293 109.265  1.00  0.00     0.293 HD
ENDBRANCH   6  24
BRANCH   8  26
ATOM     26  O   UNL     1     109.291 110.895 112.998  1.00  0.00    -0.508 OA
ATOM     27  H   UNL     1     109.810 110.475 113.760  1.00  0.00     0.293 HD
ENDBRANCH   8  26
TORSDOF 6
ENDMDL
MODEL 2
REMARK VINA RESULT:     5.936      0.681      1.489
REMARK INTER + INTRA:           6.827
REMARK INTER:                   7.124
REMARK INTRA:                  -0.297
REMARK UNBOUND:                -0.323
REMARK SMILES O=c1c(O)c(-c2ccc(O)c(O)c2)oc2cc(O)cc(O)c12
REMARK SMILES IDX 5 1 3 2 2 3 1 4 22 5 20 6 19 7 17 8 16 9 15 10 14 11 6 12
REMARK SMILES IDX 7 13 8 14 9 15 13 16 11 17 10 18 12 20 4 22 21 24 18 26
REMARK H PARENT 10 19 12 21 4 23 21 25 18 27
REMARK Flexibility Score: inf
ROOT
ATOM      1  C   UNL     1     109.131 108.480 107.499  1.00  0.00     0.180 A 
ATOM      2  C   UNL     1     110.278 109.124 107.006  1.00  0.00     0.208 A 
ATOM      3  C   UNL     1     110.966 110.022 107.838  1.00  0.00     0.238 A 
ATOM      4  O   UNL     1     112.023 110.554 107.410  1.00  0.00    -0.285 OA
ATOM      5  C   UNL     1     110.488 110.277 109.147  1.00  0.00     0.111 A 
ATOM      6  C   UNL     1     111.084 111.197 110.061  1.00  0.00     0.134 A 
ATOM      7  C   UNL     1     110.604 111.271 111.376  1.00  0.00     0.093 A 
ATOM      8  C   UNL     1     109.513 110.508 111.789  1.00  0.00     0.123 A 
ATOM      9  C   UNL     1     108.887 109.649 110.885  1.00  0.00     0.094 A 
ATOM     10  C   UNL     1     109.365 109.526 109.578  1.00  0.00     0.146 A 
ATOM     11  O   UNL     1     108.746 108.689 108.753  1.00  0.00    -0.452 OA
ENDROOT
BRANCH   1  12
ATOM     12  C   UNL     1     108.338 107.540 106.673  1.00  0.00     0.025 A 
ATOM     13  C   UNL     1     108.438 106.160 106.909  1.00  0.00     0.016 A 
ATOM     14  C   UNL     1     107.684 105.257 106.156  1.00  0.00     0.051 A 
ATOM     15  C   UNL     1     106.809 105.718 105.167  1.00  0.00     0.157 A 
ATOM     16  C   UNL     1     107.443 108.004 105.693  1.00  0.00     0.062 A 
ATOM     17  C   UNL     1     106.683 107.098 104.936  1.00  0.00     0.158 A 
BRANCH  15  18
ATOM     18  O   UNL     1     106.071 104.792 104.430  1.00  0.00    -0.504 OA
ATOM     19  H   UNL     1     106.300 103.806 104.422  1.00  0.00     0.293 HD
ENDBRANCH  15  18
BRANCH  17  20
ATOM     20  O   UNL     1     105.802 107.565 103.962  1.00  0.00    -0.504 OA
ATOM     21  H   UNL     1     105.603 108.553 103.856  1.00  0.00     0.293 HD
ENDBRANCH  17  20
ENDBRANCH   1  12
BRANCH   2  22
ATOM     22  O   UNL     1     110.744 108.843 105.718  1.00  0.00    -0.502 OA
ATOM     23  H   UNL     1     111.724 108.687 105.517  1.00  0.00     0.293 HD
ENDBRANCH   2  22
BRANCH   6  24
ATOM     24  O   UNL     1     112.120 112.072 109.725  1.00  0.00    -0.507 OA
ATOM     25  H   UNL     1     112.730 112.523 110.390  1.00  0.00     0.293 HD
ENDBRANCH   6  24
BRANCH   8  26
ATOM     26  O   UNL     1     109.054 110.619 113.099  1.00  0.00    -0.508 OA
ATOM     27  H   UNL     1     108.799 109.802 113.642  1.00  0.00     0.293 HD
ENDBRANCH   8  26
TORSDOF 6
ENDMDL
