MODEL 1
REMARK VINA RESULT:    -4.477      0.000      0.000
REMARK INTER + INTRA:         -10.467
REMARK INTER:                  -8.665
REMARK INTRA:                  -1.802
REMARK UNBOUND:                -1.802
REMARK SMILES CCCCCCCCCCCCCCCCCC(=O)[O-]
REMARK SMILES IDX 10 1 11 2 12 3 13 4 14 5 15 6 16 7 17 8 18 9 19 10 20 11
REMARK SMILES IDX 9 12 8 13 7 14 6 15 5 16 4 17 3 18 2 19 1 20
REMARK H PARENT
REMARK Flexibility Score: inf
ROOT
ATOM      1  C   UNL     1     -45.195 -35.628  36.788  1.00  0.00     0.000 C 
ENDROOT
BRANCH   1   2
ATOM      2  C   UNL     1     -45.411 -37.108  37.158  1.00  0.00     0.000 C 
BRANCH   2   3
ATOM      3  C   UNL     1     -46.101 -37.289  38.523  1.00  0.00     0.000 C 
BRANCH   3   4
ATOM      4  C   UNL     1     -46.149 -35.972  39.327  1.00  0.00     0.000 C 
BRANCH   4   5
ATOM      5  C   UNL     1     -44.822 -35.626  40.023  1.00  0.00     0.000 C 
BRANCH   5   6
ATOM      6  C   UNL     1     -44.667 -34.124  40.306  1.00  0.00     0.000 C 
BRANCH   6   7
ATOM      7  C   UNL     1     -43.242 -33.646  39.990  1.00  0.00     0.006 C 
BRANCH   7   8
ATOM      8  C   UNL     1     -43.232 -32.453  39.025  1.00  0.00     0.053 C 
BRANCH   8   9
ATOM      9  C   UNL     1     -43.652 -31.184  39.702  1.00  0.00     0.041 C 
ATOM     10  O   UNL     1     -44.805 -30.716  39.509  1.00  0.00    -0.550 OA
ATOM     11  O   UNL     1     -42.758 -30.495  40.512  1.00  0.00    -0.550 OA
ENDBRANCH   8   9
ENDBRANCH   7   8
ENDBRANCH   6   7
ENDBRANCH   5   6
ENDBRANCH   4   5
ENDBRANCH   3   4
ENDBRANCH   2   3
ENDBRANCH   1   2
BRANCH   1  12
ATOM     12  C   UNL     1     -43.860 -35.319  36.079  1.00  0.00     0.000 C 
BRANCH  12  13
ATOM     13  C   UNL     1     -42.601 -35.496  36.946  1.00  0.00    -0.000 C 
BRANCH  13  14
ATOM     14  C   UNL     1     -41.341 -35.808  36.120  1.00  0.00    -0.000 C 
BRANCH  14  15
ATOM     15  C   UNL     1     -40.044 -35.505  36.895  1.00  0.00    -0.000 C 
BRANCH  15  16
ATOM     16  C   UNL     1     -40.154 -34.352  37.915  1.00  0.00    -0.000 C 
BRANCH  16  17
ATOM     17  C   UNL     1     -39.818 -34.737  39.369  1.00  0.00    -0.000 C 
BRANCH  17  18
ATOM     18  C   UNL     1     -39.154 -36.121  39.482  1.00  0.00    -0.000 C 
BRANCH  18  19
ATOM     19  C   UNL     1     -38.414 -36.306  40.816  1.00  0.00    -0.003 C 
ATOM     20  C   UNL     1     -37.495 -37.528  40.815  1.00  0.00     0.004 C 
ENDBRANCH  18  19
ENDBRANCH  17  18
ENDBRANCH  16  17
ENDBRANCH  15  16
ENDBRANCH  14  15
ENDBRANCH  13  14
ENDBRANCH  12  13
ENDBRANCH   1  12
TORSDOF 16
ENDMDL
MODEL 2
REMARK VINA RESULT:    -4.463      2.483      4.376
REMARK INTER + INTRA:         -10.439
REMARK INTER:                  -8.104
REMARK INTRA:                  -2.335
REMARK UNBOUND:                -1.802
REMARK SMILES CCCCCCCCCCCCCCCCCC(=O)[O-]
REMARK SMILES IDX 10 1 11 2 12 3 13 4 14 5 15 6 16 7 17 8 18 9 19 10 20 11
REMARK SMILES IDX 9 12 8 13 7 14 6 15 5 16 4 17 3 18 2 19 1 20
REMARK H PARENT
REMARK Flexibility Score: inf
ROOT
ATOM      1  C   UNL     1     -45.121 -34.367  36.998  1.00  0.00     0.000 C 
ENDROOT
BRANCH   1   2
ATOM      2  C   UNL     1     -44.335 -35.593  37.500  1.00  0.00     0.000 C 
BRANCH   2   3
ATOM      3  C   UNL     1     -44.395 -36.782  36.525  1.00  0.00     0.000 C 
BRANCH   3   4
ATOM      4  C   UNL     1     -45.530 -37.767  36.881  1.00  0.00     0.000 C 
BRANCH   4   5
ATOM      5  C   UNL     1     -46.108 -37.558  38.291  1.00  0.00     0.000 C 
BRANCH   5   6
ATOM      6  C   UNL     1     -47.584 -37.136  38.278  1.00  0.00     0.000 C 
BRANCH   6   7
ATOM      7  C   UNL     1     -48.115 -36.935  39.706  1.00  0.00     0.006 C 
BRANCH   7   8
ATOM      8  C   UNL     1     -47.102 -36.210  40.602  1.00  0.00     0.053 C 
BRANCH   8   9
ATOM      9  C   UNL     1     -47.701 -34.999  41.253  1.00  0.00     0.041 C 
ATOM     10  O   UNL     1     -46.958 -34.064  41.651  1.00  0.00    -0.550 OA
ATOM     11  O   UNL     1     -49.073 -34.923  41.458  1.00  0.00    -0.550 OA
ENDBRANCH   8   9
ENDBRANCH   7   8
ENDBRANCH   6   7
ENDBRANCH   5   6
ENDBRANCH   4   5
ENDBRANCH   3   4
ENDBRANCH   2   3
ENDBRANCH   1   2
BRANCH   1  12
ATOM     12  C   UNL     1     -45.911 -33.606  38.083  1.00  0.00     0.000 C 
BRANCH  12  13
ATOM     13  C   UNL     1     -45.055 -32.781  39.059  1.00  0.00    -0.000 C 
BRANCH  13  14
ATOM     14  C   UNL     1     -43.891 -32.050  38.368  1.00  0.00    -0.000 C 
BRANCH  14  15
ATOM     15  C   UNL     1     -42.562 -32.215  39.130  1.00  0.00    -0.000 C 
BRANCH  15  16
ATOM     16  C   UNL     1     -42.383 -33.577  39.833  1.00  0.00    -0.000 C 
BRANCH  16  17
ATOM     17  C   UNL     1     -41.179 -34.406  39.344  1.00  0.00    -0.000 C 
BRANCH  17  18
ATOM     18  C   UNL     1     -40.752 -34.050  37.909  1.00  0.00    -0.000 C 
BRANCH  18  19
ATOM     19  C   UNL     1     -40.028 -35.212  37.210  1.00  0.00    -0.003 C 
ATOM     20  C   UNL     1     -40.869 -35.851  36.105  1.00  0.00     0.004 C 
ENDBRANCH  18  19
ENDBRANCH  17  18
ENDBRANCH  16  17
ENDBRANCH  15  16
ENDBRANCH  14  15
ENDBRANCH  13  14
ENDBRANCH  12  13
ENDBRANCH   1  12
TORSDOF 16
ENDMDL
MODEL 3
REMARK VINA RESULT:    -4.365      3.066      6.620
REMARK INTER + INTRA:         -10.250
REMARK INTER:                  -8.338
REMARK INTRA:                  -1.912
REMARK UNBOUND:                -1.802
REMARK SMILES CCCCCCCCCCCCCCCCCC(=O)[O-]
REMARK SMILES IDX 10 1 11 2 12 3 13 4 14 5 15 6 16 7 17 8 18 9 19 10 20 11
REMARK SMILES IDX 9 12 8 13 7 14 6 15 5 16 4 17 3 18 2 19 1 20
REMARK H PARENT
REMARK Flexibility Score: inf
ROOT
ATOM      1  C   UNL     1     -45.216 -33.737  36.998  1.00  0.00     0.000 C 
ENDROOT
BRANCH   1   2
ATOM      2  C   UNL     1     -45.711 -33.727  38.456  1.00  0.00     0.000 C 
BRANCH   2   3
ATOM      3  C   UNL     1     -44.805 -32.904  39.390  1.00  0.00     0.000 C 
BRANCH   3   4
ATOM      4  C   UNL     1     -43.759 -32.082  38.606  1.00  0.00     0.000 C 
BRANCH   4   5
ATOM      5  C   UNL     1     -42.322 -32.261  39.124  1.00  0.00     0.000 C 
BRANCH   5   6
ATOM      6  C   UNL     1     -42.079 -33.641  39.752  1.00  0.00     0.000 C 
BRANCH   6   7
ATOM      7  C   UNL     1     -41.767 -34.692  38.675  1.00  0.00     0.006 C 
BRANCH   7   8
ATOM      8  C   UNL     1     -40.366 -34.506  38.076  1.00  0.00     0.053 C 
BRANCH   8   9
ATOM      9  C   UNL     1     -40.101 -35.479  36.966  1.00  0.00     0.041 C 
ATOM     10  O   UNL     1     -38.942 -35.938  36.792  1.00  0.00    -0.550 OA
ATOM     11  O   UNL     1     -41.124 -35.845  36.100  1.00  0.00    -0.550 OA
ENDBRANCH   8   9
ENDBRANCH   7   8
ENDBRANCH   6   7
ENDBRANCH   5   6
ENDBRANCH   4   5
ENDBRANCH   3   4
ENDBRANCH   2   3
ENDBRANCH   1   2
BRANCH   1  12
ATOM     12  C   UNL     1     -44.652 -35.087  36.507  1.00  0.00     0.000 C 
BRANCH  12  13
ATOM     13  C   UNL     1     -44.773 -36.250  37.507  1.00  0.00    -0.000 C 
BRANCH  13  14
ATOM     14  C   UNL     1     -45.671 -37.391  36.998  1.00  0.00    -0.000 C 
BRANCH  14  15
ATOM     15  C   UNL     1     -46.989 -37.496  37.790  1.00  0.00    -0.000 C 
BRANCH  15  16
ATOM     16  C   UNL     1     -46.855 -37.238  39.306  1.00  0.00    -0.000 C 
BRANCH  16  17
ATOM     17  C   UNL     1     -47.933 -36.314  39.905  1.00  0.00    -0.000 C 
BRANCH  17  18
ATOM     18  C   UNL     1     -49.031 -37.086  40.657  1.00  0.00    -0.000 C 
BRANCH  18  19
ATOM     19  C   UNL     1     -49.933 -37.891  39.708  1.00  0.00    -0.003 C 
ATOM     20  C   UNL     1     -50.534 -39.129  40.375  1.00  0.00     0.004 C 
ENDBRANCH  18  19
ENDBRANCH  17  18
ENDBRANCH  16  17
ENDBRANCH  15  16
ENDBRANCH  14  15
ENDBRANCH  13  14
ENDBRANCH  12  13
ENDBRANCH   1  12
TORSDOF 16
ENDMDL
MODEL 4
REMARK VINA RESULT:    -4.305      4.944      8.944
REMARK INTER + INTRA:         -10.134
REMARK INTER:                  -7.624
REMARK INTRA:                  -2.510
REMARK UNBOUND:                -1.802
REMARK SMILES CCCCCCCCCCCCCCCCCC(=O)[O-]
REMARK SMILES IDX 10 1 11 2 12 3 13 4 14 5 15 6 16 7 17 8 18 9 19 10 20 11
REMARK SMILES IDX 9 12 8 13 7 14 6 15 5 16 4 17 3 18 2 19 1 20
REMARK H PARENT
REMARK Flexibility Score: inf
ROOT
ATOM      1  C   UNL     1     -40.659 -28.408  40.578  1.00  0.00     0.000 C 
ENDROOT
BRANCH   1   2
ATOM      2  C   UNL     1     -42.004 -28.581  41.308  1.00  0.00     0.000 C 
BRANCH   2   3
ATOM      3  C   UNL     1     -42.934 -29.593  40.616  1.00  0.00     0.000 C 
BRANCH   3   4
ATOM      4  C   UNL     1     -42.149 -30.619  39.771  1.00  0.00     0.000 C 
BRANCH   4   5
ATOM      5  C   UNL     1     -42.686 -30.779  38.339  1.00  0.00     0.000 C 
BRANCH   5   6
ATOM      6  C   UNL     1     -43.910 -29.894  38.056  1.00  0.00     0.000 C 
BRANCH   6   7
ATOM      7  C   UNL     1     -45.185 -30.740  37.924  1.00  0.00     0.006 C 
BRANCH   7   8
ATOM      8  C   UNL     1     -44.874 -32.238  37.799  1.00  0.00     0.053 C 
BRANCH   8   9
ATOM      9  C   UNL     1     -45.977 -32.980  37.103  1.00  0.00     0.041 C 
ATOM     10  O   UNL     1     -47.006 -32.366  36.718  1.00  0.00    -0.550 OA
ATOM     11  O   UNL     1     -45.886 -34.354  36.920  1.00  0.00    -0.550 OA
ENDBRANCH   8   9
ENDBRANCH   7   8
ENDBRANCH   6   7
ENDBRANCH   5   6
ENDBRANCH   4   5
ENDBRANCH   3   4
ENDBRANCH   2   3
ENDBRANCH   1   2
BRANCH   1  12
ATOM     12  C   UNL     1     -39.681 -27.411  41.236  1.00  0.00     0.000 C 
BRANCH  12  13
ATOM     13  C   UNL     1     -39.057 -26.379  40.281  1.00  0.00    -0.000 C 
BRANCH  13  14
ATOM     14  C   UNL     1     -39.062 -24.950  40.852  1.00  0.00    -0.000 C 
BRANCH  14  15
ATOM     15  C   UNL     1     -40.231 -24.715  41.828  1.00  0.00    -0.000 C 
BRANCH  15  16
ATOM     16  C   UNL     1     -41.497 -24.106  41.187  1.00  0.00    -0.000 C 
BRANCH  16  17
ATOM     17  C   UNL     1     -42.775 -24.952  41.345  1.00  0.00    -0.000 C 
BRANCH  17  18
ATOM     18  C   UNL     1     -43.341 -25.436  39.998  1.00  0.00    -0.000 C 
BRANCH  18  19
ATOM     19  C   UNL     1     -42.299 -25.369  38.869  1.00  0.00    -0.003 C 
ATOM     20  C   UNL     1     -42.403 -26.546  37.900  1.00  0.00     0.004 C 
ENDBRANCH  18  19
ENDBRANCH  17  18
ENDBRANCH  16  17
ENDBRANCH  15  16
ENDBRANCH  14  15
ENDBRANCH  13  14
ENDBRANCH  12  13
ENDBRANCH   1  12
TORSDOF 16
ENDMDL
MODEL 5
REMARK VINA RESULT:    -4.286      2.308      4.296
REMARK INTER + INTRA:         -10.097
REMARK INTER:                  -7.580
REMARK INTRA:                  -2.517
REMARK UNBOUND:                -1.802
REMARK SMILES CCCCCCCCCCCCCCCCCC(=O)[O-]
REMARK SMILES IDX 10 1 11 2 12 3 13 4 14 5 15 6 16 7 17 8 18 9 19 10 20 11
REMARK SMILES IDX 9 12 8 13 7 14 6 15 5 16 4 17 3 18 2 19 1 20
REMARK H PARENT
REMARK Flexibility Score: inf
ROOT
ATOM      1  C   UNL     1     -42.544 -35.495  36.144  1.00  0.00     0.000 C 
ENDROOT
BRANCH   1   2
ATOM      2  C   UNL     1     -43.592 -36.566  36.497  1.00  0.00     0.000 C 
BRANCH   2   3
ATOM      3  C   UNL     1     -44.946 -35.965  36.913  1.00  0.00     0.000 C 
BRANCH   3   4
ATOM      4  C   UNL     1     -44.997 -34.438  36.686  1.00  0.00     0.000 C 
BRANCH   4   5
ATOM      5  C   UNL     1     -46.280 -33.778  37.221  1.00  0.00     0.000 C 
BRANCH   5   6
ATOM      6  C   UNL     1     -46.341 -32.270  36.935  1.00  0.00     0.000 C 
BRANCH   6   7
ATOM      7  C   UNL     1     -47.096 -31.527  38.048  1.00  0.00     0.006 C 
BRANCH   7   8
ATOM      8  C   UNL     1     -48.002 -32.465  38.857  1.00  0.00     0.053 C 
BRANCH   8   9
ATOM      9  C   UNL     1     -48.040 -32.089  40.308  1.00  0.00     0.041 C 
ATOM     10  O   UNL     1     -47.354 -31.120  40.728  1.00  0.00    -0.550 OA
ATOM     11  O   UNL     1     -48.798 -32.834  41.203  1.00  0.00    -0.550 OA
ENDBRANCH   8   9
ENDBRANCH   7   8
ENDBRANCH   6   7
ENDBRANCH   5   6
ENDBRANCH   4   5
ENDBRANCH   3   4
ENDBRANCH   2   3
ENDBRANCH   1   2
BRANCH   1  12
ATOM     12  C   UNL     1     -41.108 -36.024  35.944  1.00  0.00     0.000 C 
BRANCH  12  13
ATOM     13  C   UNL     1     -40.084 -35.553  36.991  1.00  0.00    -0.000 C 
BRANCH  13  14
ATOM     14  C   UNL     1     -40.553 -34.316  37.776  1.00  0.00    -0.000 C 
BRANCH  14  15
ATOM     15  C   UNL     1     -40.922 -34.653  39.234  1.00  0.00    -0.000 C 
BRANCH  15  16
ATOM     16  C   UNL     1     -41.679 -33.537  39.985  1.00  0.00    -0.000 C 
BRANCH  16  17
ATOM     17  C   UNL     1     -42.687 -32.746  39.128  1.00  0.00    -0.000 C 
BRANCH  17  18
ATOM     18  C   UNL     1     -44.060 -32.597  39.807  1.00  0.00    -0.000 C 
BRANCH  18  19
ATOM     19  C   UNL     1     -44.246 -33.582  40.972  1.00  0.00    -0.003 C 
ATOM     20  C   UNL     1     -45.280 -34.666  40.669  1.00  0.00     0.004 C 
ENDBRANCH  18  19
ENDBRANCH  17  18
ENDBRANCH  16  17
ENDBRANCH  15  16
ENDBRANCH  14  15
ENDBRANCH  13  14
ENDBRANCH  12  13
ENDBRANCH   1  12
TORSDOF 16
ENDMDL
MODEL 6
REMARK VINA RESULT:    -4.274      2.733      4.732
REMARK INTER + INTRA:         -10.074
REMARK INTER:                  -7.688
REMARK INTRA:                  -2.386
REMARK UNBOUND:                -1.802
REMARK SMILES CCCCCCCCCCCCCCCCCC(=O)[O-]
REMARK SMILES IDX 10 1 11 2 12 3 13 4 14 5 15 6 16 7 17 8 18 9 19 10 20 11
REMARK SMILES IDX 9 12 8 13 7 14 6 15 5 16 4 17 3 18 2 19 1 20
REMARK H PARENT
REMARK Flexibility Score: inf
ROOT
ATOM      1  C   UNL     1     -42.404 -35.316  36.136  1.00  0.00     0.000 C 
ENDROOT
BRANCH   1   2
ATOM      2  C   UNL     1     -43.573 -36.255  36.488  1.00  0.00     0.000 C 
BRANCH   2   3
ATOM      3  C   UNL     1     -44.868 -35.495  36.828  1.00  0.00     0.000 C 
BRANCH   3   4
ATOM      4  C   UNL     1     -44.597 -34.018  37.190  1.00  0.00     0.000 C 
BRANCH   4   5
ATOM      5  C   UNL     1     -45.858 -33.138  37.171  1.00  0.00     0.000 C 
BRANCH   5   6
ATOM      6  C   UNL     1     -46.003 -32.274  38.433  1.00  0.00     0.000 C 
BRANCH   6   7
ATOM      7  C   UNL     1     -46.378 -33.133  39.650  1.00  0.00     0.006 C 
BRANCH   7   8
ATOM      8  C   UNL     1     -47.633 -33.978  39.398  1.00  0.00     0.053 C 
BRANCH   8   9
ATOM      9  C   UNL     1     -47.421 -35.416  39.765  1.00  0.00     0.041 C 
ATOM     10  O   UNL     1     -47.579 -36.319  38.901  1.00  0.00    -0.550 OA
ATOM     11  O   UNL     1     -47.090 -35.762  41.069  1.00  0.00    -0.550 OA
ENDBRANCH   8   9
ENDBRANCH   7   8
ENDBRANCH   6   7
ENDBRANCH   5   6
ENDBRANCH   4   5
ENDBRANCH   3   4
ENDBRANCH   2   3
ENDBRANCH   1   2
BRANCH   1  12
ATOM     12  C   UNL     1     -41.021 -35.997  36.055  1.00  0.00     0.000 C 
BRANCH  12  13
ATOM     13  C   UNL     1     -39.987 -35.503  37.082  1.00  0.00    -0.000 C 
BRANCH  13  14
ATOM     14  C   UNL     1     -40.444 -34.243  37.838  1.00  0.00    -0.000 C 
BRANCH  14  15
ATOM     15  C   UNL     1     -40.801 -34.540  39.307  1.00  0.00    -0.000 C 
BRANCH  15  16
ATOM     16  C   UNL     1     -41.950 -33.683  39.880  1.00  0.00    -0.000 C 
BRANCH  16  17
ATOM     17  C   UNL     1     -42.117 -32.299  39.223  1.00  0.00    -0.000 C 
BRANCH  17  18
ATOM     18  C   UNL     1     -42.497 -31.201  40.232  1.00  0.00    -0.000 C 
BRANCH  18  19
ATOM     19  C   UNL     1     -43.104 -29.965  39.550  1.00  0.00    -0.003 C 
ATOM     20  C   UNL     1     -43.057 -30.051  38.024  1.00  0.00     0.004 C 
ENDBRANCH  18  19
ENDBRANCH  17  18
ENDBRANCH  16  17
ENDBRANCH  15  16
ENDBRANCH  14  15
ENDBRANCH  13  14
ENDBRANCH  12  13
ENDBRANCH   1  12
TORSDOF 16
ENDMDL
MODEL 7
REMARK VINA RESULT:    -4.267      3.357      4.894
REMARK INTER + INTRA:         -10.059
REMARK INTER:                  -7.406
REMARK INTRA:                  -2.653
REMARK UNBOUND:                -1.802
REMARK SMILES CCCCCCCCCCCCCCCCCC(=O)[O-]
REMARK SMILES IDX 10 1 11 2 12 3 13 4 14 5 15 6 16 7 17 8 18 9 19 10 20 11
REMARK SMILES IDX 9 12 8 13 7 14 6 15 5 16 4 17 3 18 2 19 1 20
REMARK H PARENT
REMARK Flexibility Score: inf
ROOT
ATOM      1  C   UNL     1     -47.635 -37.403  39.918  1.00  0.00     0.000 C 
ENDROOT
BRANCH   1   2
ATOM      2  C   UNL     1     -47.904 -35.899  40.115  1.00  0.00     0.000 C 
BRANCH   2   3
ATOM      3  C   UNL     1     -46.738 -35.168  40.806  1.00  0.00     0.000 C 
BRANCH   3   4
ATOM      4  C   UNL     1     -46.566 -33.726  40.282  1.00  0.00     0.000 C 
BRANCH   4   5
ATOM      5  C   UNL     1     -47.495 -33.383  39.105  1.00  0.00     0.000 C 
BRANCH   5   6
ATOM      6  C   UNL     1     -47.621 -31.872  38.862  1.00  0.00     0.000 C 
BRANCH   6   7
ATOM      7  C   UNL     1     -46.514 -31.369  37.923  1.00  0.00     0.006 C 
BRANCH   7   8
ATOM      8  C   UNL     1     -46.812 -31.691  36.452  1.00  0.00     0.053 C 
BRANCH   8   9
ATOM      9  C   UNL     1     -47.967 -30.891  35.929  1.00  0.00     0.041 C 
ATOM     10  O   UNL     1     -47.947 -29.635  35.994  1.00  0.00    -0.550 OA
ATOM     11  O   UNL     1     -49.084 -31.535  35.410  1.00  0.00    -0.550 OA
ENDBRANCH   8   9
ENDBRANCH   7   8
ENDBRANCH   6   7
ENDBRANCH   5   6
ENDBRANCH   4   5
ENDBRANCH   3   4
ENDBRANCH   2   3
ENDBRANCH   1   2
BRANCH   1  12
ATOM     12  C   UNL     1     -46.396 -37.740  39.062  1.00  0.00     0.000 C 
BRANCH  12  13
ATOM     13  C   UNL     1     -46.482 -37.309  37.587  1.00  0.00    -0.000 C 
BRANCH  13  14
ATOM     14  C   UNL     1     -45.274 -37.770  36.754  1.00  0.00    -0.000 C 
BRANCH  14  15
ATOM     15  C   UNL     1     -44.242 -36.645  36.547  1.00  0.00    -0.000 C 
BRANCH  15  16
ATOM     16  C   UNL     1     -44.840 -35.224  36.472  1.00  0.00    -0.000 C 
BRANCH  16  17
ATOM     17  C   UNL     1     -44.321 -34.245  37.543  1.00  0.00    -0.000 C 
BRANCH  17  18
ATOM     18  C   UNL     1     -43.415 -34.924  38.585  1.00  0.00    -0.000 C 
BRANCH  18  19
ATOM     19  C   UNL     1     -42.885 -33.933  39.633  1.00  0.00    -0.003 C 
ATOM     20  C   UNL     1     -43.165 -32.477  39.262  1.00  0.00     0.004 C 
ENDBRANCH  18  19
ENDBRANCH  17  18
ENDBRANCH  16  17
ENDBRANCH  15  16
ENDBRANCH  14  15
ENDBRANCH  13  14
ENDBRANCH  12  13
ENDBRANCH   1  12
TORSDOF 16
ENDMDL
MODEL 8
REMARK VINA RESULT:    -4.241      1.682      5.404
REMARK INTER + INTRA:         -10.010
REMARK INTER:                  -7.890
REMARK INTRA:                  -2.121
REMARK UNBOUND:                -1.802
REMARK SMILES CCCCCCCCCCCCCCCCCC(=O)[O-]
REMARK SMILES IDX 10 1 11 2 12 3 13 4 14 5 15 6 16 7 17 8 18 9 19 10 20 11
REMARK SMILES IDX 9 12 8 13 7 14 6 15 5 16 4 17 3 18 2 19 1 20
REMARK H PARENT
REMARK Flexibility Score: inf
ROOT
ATOM      1  C   UNL     1     -41.536 -36.135  36.158  1.00  0.00     0.000 C 
ENDROOT
BRANCH   1   2
ATOM      2  C   UNL     1     -40.375 -35.187  36.513  1.00  0.00     0.000 C 
BRANCH   2   3
ATOM      3  C   UNL     1     -39.705 -35.537  37.854  1.00  0.00     0.000 C 
BRANCH   3   4
ATOM      4  C   UNL     1     -39.910 -34.429  38.911  1.00  0.00     0.000 C 
BRANCH   4   5
ATOM      5  C   UNL     1     -41.338 -34.375  39.477  1.00  0.00     0.000 C 
BRANCH   5   6
ATOM      6  C   UNL     1     -42.111 -33.123  39.035  1.00  0.00     0.000 C 
BRANCH   6   7
ATOM      7  C   UNL     1     -42.731 -32.401  40.242  1.00  0.00     0.006 C 
BRANCH   7   8
ATOM      8  C   UNL     1     -43.275 -31.015  39.869  1.00  0.00     0.053 C 
BRANCH   8   9
ATOM      9  C   UNL     1     -42.321 -29.922  40.247  1.00  0.00     0.041 C 
ATOM     10  O   UNL     1     -42.586 -29.157  41.211  1.00  0.00    -0.550 OA
ATOM     11  O   UNL     1     -41.162 -29.720  39.508  1.00  0.00    -0.550 OA
ENDBRANCH   8   9
ENDBRANCH   7   8
ENDBRANCH   6   7
ENDBRANCH   5   6
ENDBRANCH   4   5
ENDBRANCH   3   4
ENDBRANCH   2   3
ENDBRANCH   1   2
BRANCH   1  12
ATOM     12  C   UNL     1     -42.947 -35.536  36.335  1.00  0.00     0.000 C 
BRANCH  12  13
ATOM     13  C   UNL     1     -44.083 -36.565  36.471  1.00  0.00    -0.000 C 
BRANCH  13  14
ATOM     14  C   UNL     1     -45.364 -35.971  37.083  1.00  0.00    -0.000 C 
BRANCH  14  15
ATOM     15  C   UNL     1     -45.745 -36.648  38.413  1.00  0.00    -0.000 C 
BRANCH  15  16
ATOM     16  C   UNL     1     -46.140 -35.675  39.545  1.00  0.00    -0.000 C 
BRANCH  16  17
ATOM     17  C   UNL     1     -45.836 -34.191  39.261  1.00  0.00    -0.000 C 
BRANCH  17  18
ATOM     18  C   UNL     1     -47.107 -33.358  39.015  1.00  0.00    -0.000 C 
BRANCH  18  19
ATOM     19  C   UNL     1     -47.019 -32.525  37.727  1.00  0.00    -0.003 C 
ATOM     20  C   UNL     1     -45.580 -32.316  37.256  1.00  0.00     0.004 C 
ENDBRANCH  18  19
ENDBRANCH  17  18
ENDBRANCH  16  17
ENDBRANCH  15  16
ENDBRANCH  14  15
ENDBRANCH  13  14
ENDBRANCH  12  13
ENDBRANCH   1  12
TORSDOF 16
ENDMDL
MODEL 9
REMARK VINA RESULT:    -4.234      3.077      5.340
REMARK INTER + INTRA:          -9.996
REMARK INTER:                  -7.963
REMARK INTRA:                  -2.034
REMARK UNBOUND:                -1.802
REMARK SMILES CCCCCCCCCCCCCCCCCC(=O)[O-]
REMARK SMILES IDX 10 1 11 2 12 3 13 4 14 5 15 6 16 7 17 8 18 9 19 10 20 11
REMARK SMILES IDX 9 12 8 13 7 14 6 15 5 16 4 17 3 18 2 19 1 20
REMARK H PARENT
REMARK Flexibility Score: inf
ROOT
ATOM      1  C   UNL     1     -45.434 -30.075  38.762  1.00  0.00     0.000 C 
ENDROOT
BRANCH   1   2
ATOM      2  C   UNL     1     -46.240 -31.336  38.400  1.00  0.00     0.000 C 
BRANCH   2   3
ATOM      3  C   UNL     1     -45.602 -32.146  37.256  1.00  0.00     0.000 C 
BRANCH   3   4
ATOM      4  C   UNL     1     -46.019 -33.632  37.295  1.00  0.00     0.000 C 
BRANCH   4   5
ATOM      5  C   UNL     1     -45.476 -34.393  38.517  1.00  0.00     0.000 C 
BRANCH   5   6
ATOM      6  C   UNL     1     -44.647 -35.628  38.135  1.00  0.00     0.000 C 
BRANCH   6   7
ATOM      7  C   UNL     1     -45.250 -36.340  36.914  1.00  0.00     0.006 C 
BRANCH   7   8
ATOM      8  C   UNL     1     -45.772 -37.741  37.262  1.00  0.00     0.053 C 
BRANCH   8   9
ATOM      9  C   UNL     1     -46.670 -37.719  38.462  1.00  0.00     0.041 C 
ATOM     10  O   UNL     1     -46.332 -38.320  39.515  1.00  0.00    -0.550 OA
ATOM     11  O   UNL     1     -47.898 -37.071  38.404  1.00  0.00    -0.550 OA
ENDBRANCH   8   9
ENDBRANCH   7   8
ENDBRANCH   6   7
ENDBRANCH   5   6
ENDBRANCH   4   5
ENDBRANCH   3   4
ENDBRANCH   2   3
ENDBRANCH   1   2
BRANCH   1  12
ATOM     12  C   UNL     1     -44.208 -29.801  37.866  1.00  0.00     0.000 C 
BRANCH  12  13
ATOM     13  C   UNL     1     -42.845 -30.121  38.505  1.00  0.00    -0.000 C 
BRANCH  13  14
ATOM     14  C   UNL     1     -42.970 -30.810  39.875  1.00  0.00    -0.000 C 
BRANCH  14  15
ATOM     15  C   UNL     1     -42.679 -32.321  39.798  1.00  0.00    -0.000 C 
BRANCH  15  16
ATOM     16  C   UNL     1     -41.530 -32.712  38.844  1.00  0.00    -0.000 C 
BRANCH  16  17
ATOM     17  C   UNL     1     -41.399 -34.222  38.570  1.00  0.00    -0.000 C 
BRANCH  17  18
ATOM     18  C   UNL     1     -39.999 -34.619  38.068  1.00  0.00    -0.000 C 
BRANCH  18  19
ATOM     19  C   UNL     1     -40.058 -35.615  36.899  1.00  0.00    -0.003 C 
ATOM     20  C   UNL     1     -41.418 -35.625  36.201  1.00  0.00     0.004 C 
ENDBRANCH  18  19
ENDBRANCH  17  18
ENDBRANCH  16  17
ENDBRANCH  15  16
ENDBRANCH  14  15
ENDBRANCH  13  14
ENDBRANCH  12  13
ENDBRANCH   1  12
TORSDOF 16
ENDMDL
