MODEL 1
REMARK VINA RESULT:    -4.537      0.000      0.000
REMARK INTER + INTRA:          -9.553
REMARK INTER:                  -8.251
REMARK INTRA:                  -1.302
REMARK UNBOUND:                -1.302
REMARK SMILES CCCCCCCCCCCCCCCC(=O)[O-]
REMARK SMILES IDX 9 1 10 2 11 3 12 4 13 5 14 6 15 7 16 8 17 9 18 10 8 11 7 12
REMARK SMILES IDX 6 13 5 14 4 15 3 16 2 17 1 18
REMARK H PARENT
REMARK Flexibility Score: inf
ROOT
ATOM      1  C   UNL     1      -1.899   2.071  -2.752  1.00  0.00     0.000 C 
ENDROOT
BRANCH   1   2
ATOM      2  C   UNL     1      -1.756   2.534  -4.207  1.00  0.00     0.000 C 
BRANCH   2   3
ATOM      3  C   UNL     1      -0.432   3.281  -4.419  1.00  0.00     0.000 C 
BRANCH   3   4
ATOM      4  C   UNL     1       0.428   3.335  -3.145  1.00  0.00     0.000 C 
BRANCH   4   5
ATOM      5  C   UNL     1       1.683   2.456  -3.240  1.00  0.00     0.000 C 
BRANCH   5   6
ATOM      6  C   UNL     1       2.542   2.855  -4.449  1.00  0.00     0.006 C 
BRANCH   6   7
ATOM      7  C   UNL     1       3.873   2.092  -4.495  1.00  0.00     0.053 C 
BRANCH   7   8
ATOM      8  C   UNL     1       4.829   2.578  -3.449  1.00  0.00     0.041 C 
ATOM      9  O   UNL     1       4.948   1.954  -2.361  1.00  0.00    -0.550 OA
ATOM     10  O   UNL     1       5.616   3.697  -3.690  1.00  0.00    -0.550 OA
ENDBRANCH   7   8
ENDBRANCH   6   7
ENDBRANCH   5   6
ENDBRANCH   4   5
ENDBRANCH   3   4
ENDBRANCH   2   3
ENDBRANCH   1   2
BRANCH   1  11
ATOM     11  C   UNL     1      -3.165   2.656  -2.109  1.00  0.00     0.000 C 
BRANCH  11  12
ATOM     12  C   UNL     1      -4.205   3.119  -3.145  1.00  0.00    -0.000 C 
BRANCH  12  13
ATOM     13  C   UNL     1      -5.663   2.757  -2.807  1.00  0.00    -0.000 C 
BRANCH  13  14
ATOM     14  C   UNL     1      -6.233   1.664  -3.728  1.00  0.00    -0.000 C 
BRANCH  14  15
ATOM     15  C   UNL     1      -5.134   0.881  -4.465  1.00  0.00    -0.000 C 
BRANCH  15  16
ATOM     16  C   UNL     1      -5.028  -0.577  -3.986  1.00  0.00    -0.000 C 
BRANCH  16  17
ATOM     17  C   UNL     1      -3.616  -0.934  -3.496  1.00  0.00    -0.003 C 
ATOM     18  C   UNL     1      -3.346  -2.439  -3.520  1.00  0.00     0.004 C 
ENDBRANCH  16  17
ENDBRANCH  15  16
ENDBRANCH  14  15
ENDBRANCH  13  14
ENDBRANCH  12  13
ENDBRANCH  11  12
ENDBRANCH   1  11
TORSDOF 14
ENDMDL
MODEL 2
REMARK VINA RESULT:    -4.488      1.575      2.935
REMARK INTER + INTRA:          -9.464
REMARK INTER:                  -7.425
REMARK INTRA:                  -2.038
REMARK UNBOUND:                -1.302
REMARK SMILES CCCCCCCCCCCCCCCC(=O)[O-]
REMARK SMILES IDX 9 1 10 2 11 3 12 4 13 5 14 6 15 7 16 8 17 9 18 10 8 11 7 12
REMARK SMILES IDX 6 13 5 14 4 15 3 16 2 17 1 18
REMARK H PARENT
REMARK Flexibility Score: inf
ROOT
ATOM      1  C   UNL     1      -1.975   2.214  -2.535  1.00  0.00     0.000 C 
ENDROOT
BRANCH   1   2
ATOM      2  C   UNL     1      -0.621   2.447  -3.217  1.00  0.00     0.000 C 
BRANCH   2   3
ATOM      3  C   UNL     1      -0.009   3.786  -2.783  1.00  0.00     0.000 C 
BRANCH   3   4
ATOM      4  C   UNL     1       1.469   3.920  -3.185  1.00  0.00     0.000 C 
BRANCH   4   5
ATOM      5  C   UNL     1       1.787   3.217  -4.513  1.00  0.00     0.000 C 
BRANCH   5   6
ATOM      6  C   UNL     1       3.060   2.366  -4.391  1.00  0.00     0.006 C 
BRANCH   6   7
ATOM      7  C   UNL     1       3.370   1.986  -2.937  1.00  0.00     0.053 C 
BRANCH   7   8
ATOM      8  C   UNL     1       4.692   2.531  -2.489  1.00  0.00     0.041 C 
ATOM      9  O   UNL     1       5.072   2.372  -1.299  1.00  0.00    -0.550 OA
ATOM     10  O   UNL     1       5.520   3.183  -3.394  1.00  0.00    -0.550 OA
ENDBRANCH   7   8
ENDBRANCH   6   7
ENDBRANCH   5   6
ENDBRANCH   4   5
ENDBRANCH   3   4
ENDBRANCH   2   3
ENDBRANCH   1   2
BRANCH   1  11
ATOM     11  C   UNL     1      -2.810   1.181  -3.305  1.00  0.00     0.000 C 
BRANCH  11  12
ATOM     12  C   UNL     1      -4.269   1.624  -3.515  1.00  0.00    -0.000 C 
BRANCH  12  13
ATOM     13  C   UNL     1      -4.615   3.012  -2.945  1.00  0.00    -0.000 C 
BRANCH  13  14
ATOM     14  C   UNL     1      -4.977   4.031  -4.040  1.00  0.00    -0.000 C 
BRANCH  14  15
ATOM     15  C   UNL     1      -4.053   3.933  -5.265  1.00  0.00    -0.000 C 
BRANCH  15  16
ATOM     16  C   UNL     1      -2.794   4.807  -5.124  1.00  0.00    -0.000 C 
BRANCH  16  17
ATOM     17  C   UNL     1      -1.666   4.371  -6.072  1.00  0.00    -0.003 C 
ATOM     18  C   UNL     1      -1.848   2.943  -6.586  1.00  0.00     0.004 C 
ENDBRANCH  16  17
ENDBRANCH  15  16
ENDBRANCH  14  15
ENDBRANCH  13  14
ENDBRANCH  12  13
ENDBRANCH  11  12
ENDBRANCH   1  11
TORSDOF 14
ENDMDL
MODEL 3
REMARK VINA RESULT:    -4.448      1.716      3.333
REMARK INTER + INTRA:          -9.391
REMARK INTER:                  -7.965
REMARK INTRA:                  -1.426
REMARK UNBOUND:                -1.302
REMARK SMILES CCCCCCCCCCCCCCCC(=O)[O-]
REMARK SMILES IDX 9 1 10 2 11 3 12 4 13 5 14 6 15 7 16 8 17 9 18 10 8 11 7 12
REMARK SMILES IDX 6 13 5 14 4 15 3 16 2 17 1 18
REMARK H PARENT
REMARK Flexibility Score: inf
ROOT
ATOM      1  C   UNL     1      -0.734   2.905  -4.229  1.00  0.00     0.000 C 
ENDROOT
BRANCH   1   2
ATOM      2  C   UNL     1       0.705   3.264  -4.620  1.00  0.00     0.000 C 
BRANCH   2   3
ATOM      3  C   UNL     1       1.634   3.223  -3.398  1.00  0.00     0.000 C 
BRANCH   3   4
ATOM      4  C   UNL     1       2.427   1.909  -3.302  1.00  0.00     0.000 C 
BRANCH   4   5
ATOM      5  C   UNL     1       3.669   1.901  -4.205  1.00  0.00     0.000 C 
BRANCH   5   6
ATOM      6  C   UNL     1       4.700   2.935  -3.728  1.00  0.00     0.006 C 
BRANCH   6   7
ATOM      7  C   UNL     1       5.436   2.482  -2.460  1.00  0.00     0.053 C 
BRANCH   7   8
ATOM      8  C   UNL     1       5.180   3.404  -1.308  1.00  0.00     0.041 C 
ATOM      9  O   UNL     1       4.763   4.575  -1.513  1.00  0.00    -0.550 OA
ATOM     10  O   UNL     1       5.367   2.960  -0.004  1.00  0.00    -0.550 OA
ENDBRANCH   7   8
ENDBRANCH   6   7
ENDBRANCH   5   6
ENDBRANCH   4   5
ENDBRANCH   3   4
ENDBRANCH   2   3
ENDBRANCH   1   2
BRANCH   1  11
ATOM     11  C   UNL     1      -0.920   2.955  -2.706  1.00  0.00     0.000 C 
BRANCH  11  12
ATOM     12  C   UNL     1      -2.301   2.449  -2.252  1.00  0.00    -0.000 C 
BRANCH  12  13
ATOM     13  C   UNL     1      -2.918   1.358  -3.146  1.00  0.00    -0.000 C 
BRANCH  13  14
ATOM     14  C   UNL     1      -4.445   1.493  -3.283  1.00  0.00    -0.000 C 
BRANCH  14  15
ATOM     15  C   UNL     1      -4.956   2.876  -2.848  1.00  0.00    -0.000 C 
BRANCH  15  16
ATOM     16  C   UNL     1      -5.670   3.624  -3.987  1.00  0.00    -0.000 C 
BRANCH  16  17
ATOM     17  C   UNL     1      -4.729   3.946  -5.159  1.00  0.00    -0.003 C 
ATOM     18  C   UNL     1      -3.697   5.018  -4.810  1.00  0.00     0.004 C 
ENDBRANCH  16  17
ENDBRANCH  15  16
ENDBRANCH  14  15
ENDBRANCH  13  14
ENDBRANCH  12  13
ENDBRANCH  11  12
ENDBRANCH   1  11
TORSDOF 14
ENDMDL
MODEL 4
REMARK VINA RESULT:    -4.439      2.503      3.990
REMARK INTER + INTRA:          -9.373
REMARK INTER:                  -7.670
REMARK INTRA:                  -1.703
REMARK UNBOUND:                -1.302
REMARK SMILES CCCCCCCCCCCCCCCC(=O)[O-]
REMARK SMILES IDX 9 1 10 2 11 3 12 4 13 5 14 6 15 7 16 8 17 9 18 10 8 11 7 12
REMARK SMILES IDX 6 13 5 14 4 15 3 16 2 17 1 18
REMARK H PARENT
REMARK Flexibility Score: inf
ROOT
ATOM      1  C   UNL     1      -0.098   3.651  -3.117  1.00  0.00     0.000 C 
ENDROOT
BRANCH   1   2
ATOM      2  C   UNL     1       1.184   3.398  -3.920  1.00  0.00     0.000 C 
BRANCH   2   3
ATOM      3  C   UNL     1       2.104   2.408  -3.190  1.00  0.00     0.000 C 
BRANCH   3   4
ATOM      4  C   UNL     1       3.183   1.815  -4.110  1.00  0.00     0.000 C 
BRANCH   4   5
ATOM      5  C   UNL     1       4.448   2.682  -4.174  1.00  0.00     0.000 C 
BRANCH   5   6
ATOM      6  C   UNL     1       4.591   3.342  -5.554  1.00  0.00     0.006 C 
BRANCH   6   7
ATOM      7  C   UNL     1       3.714   2.667  -6.616  1.00  0.00     0.053 C 
BRANCH   7   8
ATOM      8  C   UNL     1       4.515   1.780  -7.519  1.00  0.00     0.041 C 
ATOM      9  O   UNL     1       5.446   2.261  -8.217  1.00  0.00    -0.550 OA
ATOM     10  O   UNL     1       4.258   0.415  -7.562  1.00  0.00    -0.550 OA
ENDBRANCH   7   8
ENDBRANCH   6   7
ENDBRANCH   5   6
ENDBRANCH   4   5
ENDBRANCH   3   4
ENDBRANCH   2   3
ENDBRANCH   1   2
BRANCH   1  11
ATOM     11  C   UNL     1      -0.855   2.341  -2.860  1.00  0.00     0.000 C 
BRANCH  11  12
ATOM     12  C   UNL     1      -2.228   2.559  -2.200  1.00  0.00    -0.000 C 
BRANCH  12  13
ATOM     13  C   UNL     1      -3.430   2.052  -3.018  1.00  0.00    -0.000 C 
BRANCH  13  14
ATOM     14  C   UNL     1      -3.012   1.389  -4.342  1.00  0.00    -0.000 C 
BRANCH  14  15
ATOM     15  C   UNL     1      -3.363   2.248  -5.568  1.00  0.00    -0.000 C 
BRANCH  15  16
ATOM     16  C   UNL     1      -2.114   2.702  -6.344  1.00  0.00    -0.000 C 
BRANCH  16  17
ATOM     17  C   UNL     1      -1.806   4.194  -6.142  1.00  0.00    -0.003 C 
ATOM     18  C   UNL     1      -2.921   4.931  -5.402  1.00  0.00     0.004 C 
ENDBRANCH  16  17
ENDBRANCH  15  16
ENDBRANCH  14  15
ENDBRANCH  13  14
ENDBRANCH  12  13
ENDBRANCH  11  12
ENDBRANCH   1  11
TORSDOF 14
ENDMDL
MODEL 5
REMARK VINA RESULT:    -4.413      1.165      1.678
REMARK INTER + INTRA:          -9.327
REMARK INTER:                  -8.029
REMARK INTRA:                  -1.299
REMARK UNBOUND:                -1.302
REMARK SMILES CCCCCCCCCCCCCCCC(=O)[O-]
REMARK SMILES IDX 9 1 10 2 11 3 12 4 13 5 14 6 15 7 16 8 17 9 18 10 8 11 7 12
REMARK SMILES IDX 6 13 5 14 4 15 3 16 2 17 1 18
REMARK H PARENT
REMARK Flexibility Score: inf
ROOT
ATOM      1  C   UNL     1      -1.691   3.596  -4.265  1.00  0.00     0.000 C 
ENDROOT
BRANCH   1   2
ATOM      2  C   UNL     1      -1.269   2.930  -5.581  1.00  0.00     0.000 C 
BRANCH   2   3
ATOM      3  C   UNL     1      -0.333   3.845  -6.385  1.00  0.00     0.000 C 
BRANCH   3   4
ATOM      4  C   UNL     1       0.837   4.381  -5.544  1.00  0.00     0.000 C 
BRANCH   4   5
ATOM      5  C   UNL     1       2.025   3.410  -5.496  1.00  0.00     0.000 C 
BRANCH   5   6
ATOM      6  C   UNL     1       2.295   2.944  -4.058  1.00  0.00     0.006 C 
BRANCH   6   7
ATOM      7  C   UNL     1       3.601   2.147  -3.940  1.00  0.00     0.053 C 
BRANCH   7   8
ATOM      8  C   UNL     1       4.452   2.637  -2.808  1.00  0.00     0.041 C 
ATOM      9  O   UNL     1       4.222   3.758  -2.282  1.00  0.00    -0.550 OA
ATOM     10  O   UNL     1       5.477   1.841  -2.312  1.00  0.00    -0.550 OA
ENDBRANCH   7   8
ENDBRANCH   6   7
ENDBRANCH   5   6
ENDBRANCH   4   5
ENDBRANCH   3   4
ENDBRANCH   2   3
ENDBRANCH   1   2
BRANCH   1  11
ATOM     11  C   UNL     1      -1.331   2.714  -3.061  1.00  0.00     0.000 C 
BRANCH  11  12
ATOM     12  C   UNL     1      -2.558   2.311  -2.223  1.00  0.00    -0.000 C 
BRANCH  12  13
ATOM     13  C   UNL     1      -3.913   2.759  -2.799  1.00  0.00    -0.000 C 
BRANCH  13  14
ATOM     14  C   UNL     1      -4.776   1.579  -3.280  1.00  0.00    -0.000 C 
BRANCH  14  15
ATOM     15  C   UNL     1      -4.099   0.772  -4.400  1.00  0.00    -0.000 C 
BRANCH  15  16
ATOM     16  C   UNL     1      -4.563  -0.695  -4.430  1.00  0.00    -0.000 C 
BRANCH  16  17
ATOM     17  C   UNL     1      -4.004  -1.513  -3.256  1.00  0.00    -0.003 C 
ATOM     18  C   UNL     1      -3.026  -2.598  -3.705  1.00  0.00     0.004 C 
ENDBRANCH  16  17
ENDBRANCH  15  16
ENDBRANCH  14  15
ENDBRANCH  13  14
ENDBRANCH  12  13
ENDBRANCH  11  12
ENDBRANCH   1  11
TORSDOF 14
ENDMDL
MODEL 6
REMARK VINA RESULT:    -4.387      1.335      2.189
REMARK INTER + INTRA:          -9.279
REMARK INTER:                  -7.523
REMARK INTRA:                  -1.756
REMARK UNBOUND:                -1.302
REMARK SMILES CCCCCCCCCCCCCCCC(=O)[O-]
REMARK SMILES IDX 9 1 10 2 11 3 12 4 13 5 14 6 15 7 16 8 17 9 18 10 8 11 7 12
REMARK SMILES IDX 6 13 5 14 4 15 3 16 2 17 1 18
REMARK H PARENT
REMARK Flexibility Score: inf
ROOT
ATOM      1  C   UNL     1      -3.024   4.220  -5.516  1.00  0.00     0.000 C 
ENDROOT
BRANCH   1   2
ATOM      2  C   UNL     1      -2.158   3.044  -5.984  1.00  0.00     0.000 C 
BRANCH   2   3
ATOM      3  C   UNL     1      -0.718   3.182  -5.468  1.00  0.00     0.000 C 
BRANCH   3   4
ATOM      4  C   UNL     1      -0.592   4.213  -4.335  1.00  0.00     0.000 C 
BRANCH   4   5
ATOM      5  C   UNL     1      -0.037   3.603  -3.039  1.00  0.00     0.000 C 
BRANCH   5   6
ATOM      6  C   UNL     1       1.201   2.740  -3.325  1.00  0.00     0.006 C 
BRANCH   6   7
ATOM      7  C   UNL     1       2.492   3.568  -3.362  1.00  0.00     0.053 C 
BRANCH   7   8
ATOM      8  C   UNL     1       3.712   2.699  -3.349  1.00  0.00     0.041 C 
ATOM      9  O   UNL     1       4.459   2.640  -4.361  1.00  0.00    -0.550 OA
ATOM     10  O   UNL     1       4.044   1.981  -2.207  1.00  0.00    -0.550 OA
ENDBRANCH   7   8
ENDBRANCH   6   7
ENDBRANCH   5   6
ENDBRANCH   4   5
ENDBRANCH   3   4
ENDBRANCH   2   3
ENDBRANCH   1   2
BRANCH   1  11
ATOM     11  C   UNL     1      -4.463   3.765  -5.230  1.00  0.00     0.000 C 
BRANCH  11  12
ATOM     12  C   UNL     1      -4.915   4.072  -3.791  1.00  0.00    -0.000 C 
BRANCH  12  13
ATOM     13  C   UNL     1      -4.850   2.878  -2.821  1.00  0.00    -0.000 C 
BRANCH  13  14
ATOM     14  C   UNL     1      -3.422   2.591  -2.324  1.00  0.00    -0.000 C 
BRANCH  14  15
ATOM     15  C   UNL     1      -2.839   1.300  -2.922  1.00  0.00    -0.000 C 
BRANCH  15  16
ATOM     16  C   UNL     1      -3.920   0.401  -3.547  1.00  0.00    -0.000 C 
BRANCH  16  17
ATOM     17  C   UNL     1      -3.574  -1.093  -3.443  1.00  0.00    -0.003 C 
ATOM     18  C   UNL     1      -4.739  -1.997  -3.846  1.00  0.00     0.004 C 
ENDBRANCH  16  17
ENDBRANCH  15  16
ENDBRANCH  14  15
ENDBRANCH  13  14
ENDBRANCH  12  13
ENDBRANCH  11  12
ENDBRANCH   1  11
TORSDOF 14
ENDMDL
MODEL 7
REMARK VINA RESULT:    -4.376      1.038      2.294
REMARK INTER + INTRA:          -9.260
REMARK INTER:                  -7.822
REMARK INTRA:                  -1.438
REMARK UNBOUND:                -1.302
REMARK SMILES CCCCCCCCCCCCCCCC(=O)[O-]
REMARK SMILES IDX 9 1 10 2 11 3 12 4 13 5 14 6 15 7 16 8 17 9 18 10 8 11 7 12
REMARK SMILES IDX 6 13 5 14 4 15 3 16 2 17 1 18
REMARK H PARENT
REMARK Flexibility Score: inf
ROOT
ATOM      1  C   UNL     1      -0.481   3.717  -4.504  1.00  0.00     0.000 C 
ENDROOT
BRANCH   1   2
ATOM      2  C   UNL     1       0.333   3.850  -3.211  1.00  0.00     0.000 C 
BRANCH   2   3
ATOM      3  C   UNL     1       1.811   3.513  -3.455  1.00  0.00     0.000 C 
BRANCH   3   4
ATOM      4  C   UNL     1       2.099   2.006  -3.357  1.00  0.00     0.000 C 
BRANCH   4   5
ATOM      5  C   UNL     1       3.582   1.670  -3.571  1.00  0.00     0.000 C 
BRANCH   5   6
ATOM      6  C   UNL     1       4.309   2.825  -4.277  1.00  0.00     0.006 C 
BRANCH   6   7
ATOM      7  C   UNL     1       5.558   3.281  -3.511  1.00  0.00     0.053 C 
BRANCH   7   8
ATOM      8  C   UNL     1       5.244   3.624  -2.087  1.00  0.00     0.041 C 
ATOM      9  O   UNL     1       4.654   4.701  -1.810  1.00  0.00    -0.550 OA
ATOM     10  O   UNL     1       5.570   2.736  -1.069  1.00  0.00    -0.550 OA
ENDBRANCH   7   8
ENDBRANCH   6   7
ENDBRANCH   5   6
ENDBRANCH   4   5
ENDBRANCH   3   4
ENDBRANCH   2   3
ENDBRANCH   1   2
BRANCH   1  11
ATOM     11  C   UNL     1      -1.636   2.721  -4.328  1.00  0.00     0.000 C 
BRANCH  11  12
ATOM     12  C   UNL     1      -1.729   2.154  -2.900  1.00  0.00    -0.000 C 
BRANCH  12  13
ATOM     13  C   UNL     1      -2.988   2.569  -2.118  1.00  0.00    -0.000 C 
BRANCH  13  14
ATOM     14  C   UNL     1      -4.191   2.855  -3.034  1.00  0.00    -0.000 C 
BRANCH  14  15
ATOM     15  C   UNL     1      -5.065   1.612  -3.264  1.00  0.00    -0.000 C 
BRANCH  15  16
ATOM     16  C   UNL     1      -4.819   0.966  -4.639  1.00  0.00    -0.000 C 
BRANCH  16  17
ATOM     17  C   UNL     1      -4.685  -0.563  -4.556  1.00  0.00    -0.003 C 
ATOM     18  C   UNL     1      -3.845  -1.016  -3.362  1.00  0.00     0.004 C 
ENDBRANCH  16  17
ENDBRANCH  15  16
ENDBRANCH  14  15
ENDBRANCH  13  14
ENDBRANCH  12  13
ENDBRANCH  11  12
ENDBRANCH   1  11
TORSDOF 14
ENDMDL
MODEL 8
REMARK VINA RESULT:    -4.346      1.963      2.900
REMARK INTER + INTRA:          -9.205
REMARK INTER:                  -8.074
REMARK INTRA:                  -1.131
REMARK UNBOUND:                -1.302
REMARK SMILES CCCCCCCCCCCCCCCC(=O)[O-]
REMARK SMILES IDX 9 1 10 2 11 3 12 4 13 5 14 6 15 7 16 8 17 9 18 10 8 11 7 12
REMARK SMILES IDX 6 13 5 14 4 15 3 16 2 17 1 18
REMARK H PARENT
REMARK Flexibility Score: inf
ROOT
ATOM      1  C   UNL     1      -0.160   3.102  -4.405  1.00  0.00     0.000 C 
ENDROOT
BRANCH   1   2
ATOM      2  C   UNL     1       0.671   2.957  -3.124  1.00  0.00     0.000 C 
BRANCH   2   3
ATOM      3  C   UNL     1       2.142   3.320  -3.378  1.00  0.00     0.000 C 
BRANCH   3   4
ATOM      4  C   UNL     1       3.100   2.158  -3.070  1.00  0.00     0.000 C 
BRANCH   4   5
ATOM      5  C   UNL     1       3.729   1.558  -4.336  1.00  0.00     0.000 C 
BRANCH   5   6
ATOM      6  C   UNL     1       4.007   2.650  -5.380  1.00  0.00     0.006 C 
BRANCH   6   7
ATOM      7  C   UNL     1       4.061   2.089  -6.808  1.00  0.00     0.053 C 
BRANCH   7   8
ATOM      8  C   UNL     1       4.810   2.997  -7.735  1.00  0.00     0.041 C 
ATOM      9  O   UNL     1       5.868   2.601  -8.291  1.00  0.00    -0.550 OA
ATOM     10  O   UNL     1       4.320   4.267  -8.013  1.00  0.00    -0.550 OA
ENDBRANCH   7   8
ENDBRANCH   6   7
ENDBRANCH   5   6
ENDBRANCH   4   5
ENDBRANCH   3   4
ENDBRANCH   2   3
ENDBRANCH   1   2
BRANCH   1  11
ATOM     11  C   UNL     1      -1.614   2.668  -4.171  1.00  0.00     0.000 C 
BRANCH  11  12
ATOM     12  C   UNL     1      -1.907   2.316  -2.702  1.00  0.00    -0.000 C 
BRANCH  12  13
ATOM     13  C   UNL     1      -3.348   2.600  -2.241  1.00  0.00    -0.000 C 
BRANCH  13  14
ATOM     14  C   UNL     1      -4.357   2.592  -3.403  1.00  0.00    -0.000 C 
BRANCH  14  15
ATOM     15  C   UNL     1      -5.580   1.705  -3.115  1.00  0.00    -0.000 C 
BRANCH  15  16
ATOM     16  C   UNL     1      -5.632   0.464  -4.022  1.00  0.00    -0.000 C 
BRANCH  16  17
ATOM     17  C   UNL     1      -4.233  -0.074  -4.365  1.00  0.00    -0.003 C 
ATOM     18  C   UNL     1      -3.780  -1.183  -3.416  1.00  0.00     0.004 C 
ENDBRANCH  16  17
ENDBRANCH  15  16
ENDBRANCH  14  15
ENDBRANCH  13  14
ENDBRANCH  12  13
ENDBRANCH  11  12
ENDBRANCH   1  11
TORSDOF 14
ENDMDL
MODEL 9
REMARK VINA RESULT:    -4.313      1.804      3.512
REMARK INTER + INTRA:          -9.145
REMARK INTER:                  -7.000
REMARK INTRA:                  -2.145
REMARK UNBOUND:                -1.302
REMARK SMILES CCCCCCCCCCCCCCCC(=O)[O-]
REMARK SMILES IDX 9 1 10 2 11 3 12 4 13 5 14 6 15 7 16 8 17 9 18 10 8 11 7 12
REMARK SMILES IDX 6 13 5 14 4 15 3 16 2 17 1 18
REMARK H PARENT
REMARK Flexibility Score: inf
ROOT
ATOM      1  C   UNL     1      -0.894   6.129  -5.223  1.00  0.00     0.000 C 
ENDROOT
BRANCH   1   2
ATOM      2  C   UNL     1       0.107   6.300  -4.074  1.00  0.00     0.000 C 
BRANCH   2   3
ATOM      3  C   UNL     1       1.369   5.459  -4.315  1.00  0.00     0.000 C 
BRANCH   3   4
ATOM      4  C   UNL     1       1.608   5.163  -5.805  1.00  0.00     0.000 C 
BRANCH   4   5
ATOM      5  C   UNL     1       2.026   3.708  -6.060  1.00  0.00     0.000 C 
BRANCH   5   6
ATOM      6  C   UNL     1       2.332   2.986  -4.739  1.00  0.00     0.006 C 
BRANCH   6   7
ATOM      7  C   UNL     1       3.741   2.378  -4.721  1.00  0.00     0.053 C 
BRANCH   7   8
ATOM      8  C   UNL     1       4.183   2.038  -3.330  1.00  0.00     0.041 C 
ATOM      9  O   UNL     1       5.356   2.302  -2.956  1.00  0.00    -0.550 OA
ATOM     10  O   UNL     1       3.289   1.461  -2.437  1.00  0.00    -0.550 OA
ENDBRANCH   7   8
ENDBRANCH   6   7
ENDBRANCH   5   6
ENDBRANCH   4   5
ENDBRANCH   3   4
ENDBRANCH   2   3
ENDBRANCH   1   2
BRANCH   1  11
ATOM     11  C   UNL     1      -2.015   5.153  -4.837  1.00  0.00     0.000 C 
BRANCH  11  12
ATOM     12  C   UNL     1      -1.953   3.828  -5.618  1.00  0.00    -0.000 C 
BRANCH  12  13
ATOM     13  C   UNL     1      -1.382   2.635  -4.829  1.00  0.00    -0.000 C 
BRANCH  13  14
ATOM     14  C   UNL     1      -1.183   2.949  -3.336  1.00  0.00    -0.000 C 
BRANCH  14  15
ATOM     15  C   UNL     1      -2.268   2.315  -2.450  1.00  0.00    -0.000 C 
BRANCH  15  16
ATOM     16  C   UNL     1      -3.069   1.229  -3.189  1.00  0.00    -0.000 C 
BRANCH  16  17
ATOM     17  C   UNL     1      -4.566   1.563  -3.282  1.00  0.00    -0.003 C 
ATOM     18  C   UNL     1      -4.899   2.940  -2.708  1.00  0.00     0.004 C 
ENDBRANCH  16  17
ENDBRANCH  15  16
ENDBRANCH  14  15
ENDBRANCH  13  14
ENDBRANCH  12  13
ENDBRANCH  11  12
ENDBRANCH   1  11
TORSDOF 14
ENDMDL
