MODEL 1
REMARK VINA RESULT:    -8.252      0.000      0.000
REMARK INTER + INTRA:          -9.161
REMARK INTER:                  -8.975
REMARK INTRA:                  -0.185
REMARK UNBOUND:                -0.185
REMARK SMILES C[C@@H]1[C@@H](C)CC[C@@]2(C(=O)[O-])CC[C@]3(C)C(=CC[C@H]4[C@]5(C)CC[C@@H](O)C(C)(C)[C@H]5CC[C@@]43C)[C@@H]12
REMARK SMILES IDX 7 1 6 2 11 3 33 4 5 5 12 6 15 7 2 8 3 9 13 10 16 11 1 12
REMARK SMILES IDX 4 13 14 14 31 15 17 16 18 17 30 18 32 19 19 20 29 21 28 22
REMARK SMILES IDX 21 23 20 24 25 25 22 26 23 27 26 28 27 29 8 30 9 31 10 32
REMARK SMILES IDX 24 33
REMARK H PARENT 24 34
REMARK Flexibility Score: inf
ROOT
ATOM      1  C   UNL     1      64.640   4.870  -0.171  1.00  0.00     0.017 C 
ATOM      2  C   UNL     1      64.189   5.943   0.852  1.00  0.00     0.014 C 
ATOM      3  C   UNL     1      66.113   4.409   0.150  1.00  0.00     0.014 C 
ATOM      4  C   UNL     1      63.606   3.676  -0.200  1.00  0.00     0.030 C 
ATOM      5  C   UNL     1      63.909   5.362   2.233  1.00  0.00     0.004 C 
ATOM      6  C   UNL     1      66.328   2.886   0.239  1.00  0.00     0.013 C 
ATOM      7  C   UNL     1      64.170   2.504  -1.018  1.00  0.00    -0.063 C 
ATOM      8  C   UNL     1      63.091   3.184   1.208  1.00  0.00    -0.003 C 
ATOM      9  C   UNL     1      62.750   4.365   2.165  1.00  0.00    -0.011 C 
ATOM     10  C   UNL     1      65.647   2.074  -0.906  1.00  0.00    -0.006 C 
ATOM     11  C   UNL     1      63.352   1.802  -1.837  1.00  0.00    -0.027 C 
ATOM     12  C   UNL     1      61.844   2.282   1.050  1.00  0.00     0.008 C 
ATOM     13  C   UNL     1      62.421   3.889   3.593  1.00  0.00     0.008 C 
ATOM     14  C   UNL     1      66.300   2.571  -2.245  1.00  0.00     0.017 C 
ATOM     15  C   UNL     1      65.795   0.446  -0.705  1.00  0.00    -0.020 C 
ATOM     16  C   UNL     1      63.712   0.385  -2.217  1.00  0.00     0.032 C 
ATOM     17  C   UNL     1      64.396  -0.253  -0.982  1.00  0.00     0.006 C 
ATOM     18  C   UNL     1      66.184   0.025   0.750  1.00  0.00     0.008 C 
ATOM     19  C   UNL     1      66.941  -0.084  -1.630  1.00  0.00     0.012 C 
ATOM     20  C   UNL     1      64.309  -1.826  -0.804  1.00  0.00    -0.025 C 
ATOM     21  C   UNL     1      66.167  -1.505   1.002  1.00  0.00     0.005 C 
ATOM     22  C   UNL     1      64.786  -2.134   0.674  1.00  0.00     0.003 C 
ATOM     23  C   UNL     1      62.816  -2.283  -0.907  1.00  0.00     0.010 C 
ATOM     24  C   UNL     1      65.119  -2.557  -1.916  1.00  0.00     0.012 C 
ATOM     25  C   UNL     1      64.575  -3.618   1.176  1.00  0.00    -0.006 C 
ATOM     26  C   UNL     1      62.570  -3.732  -0.452  1.00  0.00     0.033 C 
ATOM     27  C   UNL     1      63.072  -3.995   0.976  1.00  0.00     0.120 C 
ATOM     28  C   UNL     1      65.504  -4.642   0.477  1.00  0.00     0.014 C 
ATOM     29  C   UNL     1      64.867  -3.707   2.700  1.00  0.00     0.014 C 
ENDROOT
BRANCH   1  30
ATOM     30  C   UNL     1      64.654   5.589  -1.523  1.00  0.00     0.048 C 
ATOM     31  O   UNL     1      63.673   5.532  -2.313  1.00  0.00    -0.550 OA
ATOM     32  O   UNL     1      65.767   6.336  -1.896  1.00  0.00    -0.550 OA
ENDBRANCH   1  30
BRANCH  27  33
ATOM     33  O   UNL     1      62.858  -5.348   1.300  1.00  0.00    -0.393 OA
ATOM     34  H   UNL     1      63.157  -5.884   0.521  1.00  0.00     0.210 HD
ENDBRANCH  27  33
TORSDOF 2
ENDMDL
MODEL 2
REMARK VINA RESULT:    -7.917      2.080      7.692
REMARK INTER + INTRA:          -8.796
REMARK INTER:                  -8.555
REMARK INTRA:                  -0.241
REMARK UNBOUND:                -0.185
REMARK SMILES C[C@@H]1[C@@H](C)CC[C@@]2(C(=O)[O-])CC[C@]3(C)C(=CC[C@H]4[C@]5(C)CC[C@@H](O)C(C)(C)[C@H]5CC[C@@]43C)[C@@H]12
REMARK SMILES IDX 7 1 6 2 11 3 33 4 5 5 12 6 15 7 2 8 3 9 13 10 16 11 1 12
REMARK SMILES IDX 4 13 14 14 31 15 17 16 18 17 30 18 32 19 19 20 29 21 28 22
REMARK SMILES IDX 21 23 20 24 25 25 22 26 23 27 26 28 27 29 8 30 9 31 10 32
REMARK SMILES IDX 24 33
REMARK H PARENT 24 34
REMARK Flexibility Score: inf
ROOT
ATOM      1  C   UNL     1      64.669  -1.739  -0.944  1.00  0.00     0.017 C 
ATOM      2  C   UNL     1      65.612  -2.964  -1.049  1.00  0.00     0.014 C 
ATOM      3  C   UNL     1      64.260  -1.503   0.561  1.00  0.00     0.014 C 
ATOM      4  C   UNL     1      65.342  -0.474  -1.612  1.00  0.00     0.030 C 
ATOM      5  C   UNL     1      67.011  -2.679  -0.514  1.00  0.00     0.004 C 
ATOM      6  C   UNL     1      64.446  -0.065   1.082  1.00  0.00     0.013 C 
ATOM      7  C   UNL     1      64.528   0.790  -1.294  1.00  0.00    -0.063 C 
ATOM      8  C   UNL     1      66.869  -0.260  -1.284  1.00  0.00    -0.003 C 
ATOM      9  C   UNL     1      67.685  -1.586  -1.346  1.00  0.00    -0.011 C 
ATOM     10  C   UNL     1      63.936   1.041   0.107  1.00  0.00    -0.006 C 
ATOM     11  C   UNL     1      64.350   1.731  -2.251  1.00  0.00    -0.027 C 
ATOM     12  C   UNL     1      67.498   0.769  -2.252  1.00  0.00     0.008 C 
ATOM     13  C   UNL     1      69.134  -1.409  -0.853  1.00  0.00     0.008 C 
ATOM     14  C   UNL     1      62.396   0.794  -0.070  1.00  0.00     0.017 C 
ATOM     15  C   UNL     1      64.266   2.563   0.646  1.00  0.00    -0.020 C 
ATOM     16  C   UNL     1      64.048   3.156  -1.850  1.00  0.00     0.032 C 
ATOM     17  C   UNL     1      64.842   3.436  -0.549  1.00  0.00     0.006 C 
ATOM     18  C   UNL     1      65.366   2.612   1.757  1.00  0.00     0.008 C 
ATOM     19  C   UNL     1      62.975   3.173   1.287  1.00  0.00     0.012 C 
ATOM     20  C   UNL     1      65.264   4.932  -0.234  1.00  0.00    -0.025 C 
ATOM     21  C   UNL     1      65.809   4.042   2.159  1.00  0.00     0.005 C 
ATOM     22  C   UNL     1      66.322   4.857   0.941  1.00  0.00     0.003 C 
ATOM     23  C   UNL     1      66.001   5.540  -1.473  1.00  0.00     0.010 C 
ATOM     24  C   UNL     1      64.014   5.810   0.069  1.00  0.00     0.012 C 
ATOM     25  C   UNL     1      67.070   6.206   1.289  1.00  0.00    -0.006 C 
ATOM     26  C   UNL     1      66.720   6.869  -1.185  1.00  0.00     0.033 C 
ATOM     27  C   UNL     1      67.717   6.760  -0.021  1.00  0.00     0.120 C 
ATOM     28  C   UNL     1      66.151   7.266   1.948  1.00  0.00     0.014 C 
ATOM     29  C   UNL     1      68.228   5.927   2.285  1.00  0.00     0.014 C 
ENDROOT
BRANCH   1  30
ATOM     30  C   UNL     1      63.410  -2.138  -1.719  1.00  0.00     0.048 C 
ATOM     31  O   UNL     1      63.349  -2.049  -2.975  1.00  0.00    -0.550 OA
ATOM     32  O   UNL     1      62.301  -2.623  -1.032  1.00  0.00    -0.550 OA
ENDBRANCH   1  30
BRANCH  27  33
ATOM     33  O   UNL     1      68.295   8.021   0.213  1.00  0.00    -0.393 OA
ATOM     34  H   UNL     1      67.591   8.595   0.612  1.00  0.00     0.210 HD
ENDBRANCH  27  33
TORSDOF 2
ENDMDL
MODEL 3
REMARK VINA RESULT:    -7.858      2.936      7.562
REMARK INTER + INTRA:          -8.733
REMARK INTER:                  -8.493
REMARK INTRA:                  -0.240
REMARK UNBOUND:                -0.185
REMARK SMILES C[C@@H]1[C@@H](C)CC[C@@]2(C(=O)[O-])CC[C@]3(C)C(=CC[C@H]4[C@]5(C)CC[C@@H](O)C(C)(C)[C@H]5CC[C@@]43C)[C@@H]12
REMARK SMILES IDX 7 1 6 2 11 3 33 4 5 5 12 6 15 7 2 8 3 9 13 10 16 11 1 12
REMARK SMILES IDX 4 13 14 14 31 15 17 16 18 17 30 18 32 19 19 20 29 21 28 22
REMARK SMILES IDX 21 23 20 24 25 25 22 26 23 27 26 28 27 29 8 30 9 31 10 32
REMARK SMILES IDX 24 33
REMARK H PARENT 24 34
REMARK Flexibility Score: inf
ROOT
ATOM      1  C   UNL     1      63.957  -3.396  -0.618  1.00  0.00     0.017 C 
ATOM      2  C   UNL     1      65.157  -3.845  -1.490  1.00  0.00     0.014 C 
ATOM      3  C   UNL     1      64.026  -4.097   0.793  1.00  0.00     0.014 C 
ATOM      4  C   UNL     1      63.909  -1.818  -0.528  1.00  0.00     0.030 C 
ATOM      5  C   UNL     1      66.477  -3.232  -1.037  1.00  0.00     0.004 C 
ATOM      6  C   UNL     1      63.892  -3.160   2.007  1.00  0.00     0.013 C 
ATOM      7  C   UNL     1      62.883  -1.379   0.527  1.00  0.00    -0.063 C 
ATOM      8  C   UNL     1      65.297  -1.106  -0.298  1.00  0.00    -0.003 C 
ATOM      9  C   UNL     1      66.432  -1.709  -1.177  1.00  0.00    -0.011 C 
ATOM     10  C   UNL     1      62.750  -2.105   1.881  1.00  0.00    -0.006 C 
ATOM     11  C   UNL     1      62.093  -0.305   0.288  1.00  0.00    -0.027 C 
ATOM     12  C   UNL     1      65.187   0.411  -0.582  1.00  0.00     0.008 C 
ATOM     13  C   UNL     1      67.818  -1.137  -0.824  1.00  0.00     0.008 C 
ATOM     14  C   UNL     1      61.412  -2.918   1.757  1.00  0.00     0.017 C 
ATOM     15  C   UNL     1      62.721  -1.044   3.142  1.00  0.00    -0.020 C 
ATOM     16  C   UNL     1      61.493   0.455   1.448  1.00  0.00     0.032 C 
ATOM     17  C   UNL     1      62.539   0.433   2.590  1.00  0.00     0.006 C 
ATOM     18  C   UNL     1      64.050  -1.014   3.967  1.00  0.00     0.008 C 
ATOM     19  C   UNL     1      61.598  -1.469   4.145  1.00  0.00     0.012 C 
ATOM     20  C   UNL     1      62.526   1.618   3.644  1.00  0.00    -0.025 C 
ATOM     21  C   UNL     1      64.105   0.091   5.054  1.00  0.00     0.005 C 
ATOM     22  C   UNL     1      63.879   1.506   4.457  1.00  0.00     0.003 C 
ATOM     23  C   UNL     1      62.557   2.989   2.890  1.00  0.00     0.010 C 
ATOM     24  C   UNL     1      61.236   1.572   4.516  1.00  0.00     0.012 C 
ATOM     25  C   UNL     1      64.212   2.714   5.420  1.00  0.00    -0.006 C 
ATOM     26  C   UNL     1      62.852   4.196   3.797  1.00  0.00     0.033 C 
ATOM     27  C   UNL     1      64.159   4.035   4.588  1.00  0.00     0.120 C 
ATOM     28  C   UNL     1      63.275   2.794   6.652  1.00  0.00     0.014 C 
ATOM     29  C   UNL     1      65.661   2.575   5.962  1.00  0.00     0.014 C 
ENDROOT
BRANCH   1  30
ATOM     30  C   UNL     1      62.717  -3.921  -1.347  1.00  0.00     0.048 C 
ATOM     31  O   UNL     1      62.235  -3.324  -2.348  1.00  0.00    -0.550 OA
ATOM     32  O   UNL     1      62.103  -5.091  -0.910  1.00  0.00    -0.550 OA
ENDBRANCH   1  30
BRANCH  27  33
ATOM     33  O   UNL     1      64.333   5.152   5.427  1.00  0.00    -0.393 OA
ATOM     34  H   UNL     1      64.278   4.824   6.362  1.00  0.00     0.210 HD
ENDBRANCH  27  33
TORSDOF 2
ENDMDL
MODEL 4
REMARK VINA RESULT:    -7.828      2.455      4.998
REMARK INTER + INTRA:          -8.700
REMARK INTER:                  -8.460
REMARK INTRA:                  -0.240
REMARK UNBOUND:                -0.185
REMARK SMILES C[C@@H]1[C@@H](C)CC[C@@]2(C(=O)[O-])CC[C@]3(C)C(=CC[C@H]4[C@]5(C)CC[C@@H](O)C(C)(C)[C@H]5CC[C@@]43C)[C@@H]12
REMARK SMILES IDX 7 1 6 2 11 3 33 4 5 5 12 6 15 7 2 8 3 9 13 10 16 11 1 12
REMARK SMILES IDX 4 13 14 14 31 15 17 16 18 17 30 18 32 19 19 20 29 21 28 22
REMARK SMILES IDX 21 23 20 24 25 25 22 26 23 27 26 28 27 29 8 30 9 31 10 32
REMARK SMILES IDX 24 33
REMARK H PARENT 24 34
REMARK Flexibility Score: inf
ROOT
ATOM      1  C   UNL     1      66.306   4.766  -1.429  1.00  0.00     0.017 C 
ATOM      2  C   UNL     1      67.278   4.485  -2.603  1.00  0.00     0.014 C 
ATOM      3  C   UNL     1      64.815   4.676  -1.933  1.00  0.00     0.014 C 
ATOM      4  C   UNL     1      66.615   3.793  -0.222  1.00  0.00     0.030 C 
ATOM      5  C   UNL     1      67.303   3.017  -3.010  1.00  0.00     0.004 C 
ATOM      6  C   UNL     1      63.883   3.782  -1.094  1.00  0.00     0.013 C 
ATOM      7  C   UNL     1      65.507   3.894   0.837  1.00  0.00    -0.063 C 
ATOM      8  C   UNL     1      66.890   2.290  -0.610  1.00  0.00    -0.003 C 
ATOM      9  C   UNL     1      67.816   2.154  -1.855  1.00  0.00    -0.011 C 
ATOM     10  C   UNL     1      64.018   3.982   0.447  1.00  0.00    -0.006 C 
ATOM     11  C   UNL     1      65.832   3.871   2.152  1.00  0.00    -0.027 C 
ATOM     12  C   UNL     1      67.522   1.525   0.578  1.00  0.00     0.008 C 
ATOM     13  C   UNL     1      67.939   0.697  -2.341  1.00  0.00     0.008 C 
ATOM     14  C   UNL     1      63.628   5.477   0.731  1.00  0.00     0.017 C 
ATOM     15  C   UNL     1      63.097   2.922   1.309  1.00  0.00    -0.020 C 
ATOM     16  C   UNL     1      64.801   3.437   3.168  1.00  0.00     0.032 C 
ATOM     17  C   UNL     1      63.954   2.323   2.504  1.00  0.00     0.006 C 
ATOM     18  C   UNL     1      62.624   1.682   0.480  1.00  0.00     0.008 C 
ATOM     19  C   UNL     1      61.795   3.645   1.789  1.00  0.00     0.012 C 
ATOM     20  C   UNL     1      63.264   1.244   3.439  1.00  0.00    -0.025 C 
ATOM     21  C   UNL     1      61.899   0.594   1.312  1.00  0.00     0.005 C 
ATOM     22  C   UNL     1      62.773   0.079   2.488  1.00  0.00     0.003 C 
ATOM     23  C   UNL     1      64.332   0.627   4.403  1.00  0.00     0.010 C 
ATOM     24  C   UNL     1      62.145   1.895   4.306  1.00  0.00     0.012 C 
ATOM     25  C   UNL     1      62.250  -1.229   3.205  1.00  0.00    -0.006 C 
ATOM     26  C   UNL     1      63.854  -0.634   5.143  1.00  0.00     0.033 C 
ATOM     27  C   UNL     1      63.360  -1.728   4.185  1.00  0.00     0.120 C 
ATOM     28  C   UNL     1      60.903  -1.028   3.945  1.00  0.00     0.014 C 
ATOM     29  C   UNL     1      62.028  -2.354   2.157  1.00  0.00     0.014 C 
ENDROOT
BRANCH   1  30
ATOM     30  C   UNL     1      66.581   6.216  -1.022  1.00  0.00     0.048 C 
ATOM     31  O   UNL     1      67.531   6.519  -0.250  1.00  0.00    -0.550 OA
ATOM     32  O   UNL     1      65.776   7.237  -1.519  1.00  0.00    -0.550 OA
ENDBRANCH   1  30
BRANCH  27  33
ATOM     33  O   UNL     1      62.895  -2.825   4.935  1.00  0.00    -0.393 OA
ATOM     34  H   UNL     1      63.398  -2.827   5.790  1.00  0.00     0.210 HD
ENDBRANCH  27  33
TORSDOF 2
ENDMDL
MODEL 5
REMARK VINA RESULT:    -7.787      3.539      5.483
REMARK INTER + INTRA:          -8.655
REMARK INTER:                  -8.435
REMARK INTRA:                  -0.220
REMARK UNBOUND:                -0.185
REMARK SMILES C[C@@H]1[C@@H](C)CC[C@@]2(C(=O)[O-])CC[C@]3(C)C(=CC[C@H]4[C@]5(C)CC[C@@H](O)C(C)(C)[C@H]5CC[C@@]43C)[C@@H]12
REMARK SMILES IDX 7 1 6 2 11 3 33 4 5 5 12 6 15 7 2 8 3 9 13 10 16 11 1 12
REMARK SMILES IDX 4 13 14 14 31 15 17 16 18 17 30 18 32 19 19 20 29 21 28 22
REMARK SMILES IDX 21 23 20 24 25 25 22 26 23 27 26 28 27 29 8 30 9 31 10 32
REMARK SMILES IDX 24 33
REMARK H PARENT 24 34
REMARK Flexibility Score: inf
ROOT
ATOM      1  C   UNL     1      63.339   3.082   5.068  1.00  0.00     0.017 C 
ATOM      2  C   UNL     1      64.031   4.469   5.061  1.00  0.00     0.014 C 
ATOM      3  C   UNL     1      61.966   3.163   4.297  1.00  0.00     0.014 C 
ATOM      4  C   UNL     1      64.316   1.983   4.488  1.00  0.00     0.030 C 
ATOM      5  C   UNL     1      64.601   4.836   3.696  1.00  0.00     0.004 C 
ATOM      6  C   UNL     1      61.744   2.085   3.220  1.00  0.00     0.013 C 
ATOM      7  C   UNL     1      63.557   0.666   4.261  1.00  0.00    -0.063 C 
ATOM      8  C   UNL     1      65.122   2.399   3.198  1.00  0.00    -0.003 C 
ATOM      9  C   UNL     1      65.694   3.845   3.291  1.00  0.00    -0.011 C 
ATOM     10  C   UNL     1      62.134   0.642   3.667  1.00  0.00    -0.006 C 
ATOM     11  C   UNL     1      64.156  -0.512   4.555  1.00  0.00    -0.027 C 
ATOM     12  C   UNL     1      66.282   1.410   2.936  1.00  0.00     0.008 C 
ATOM     13  C   UNL     1      66.325   4.315   1.967  1.00  0.00     0.008 C 
ATOM     14  C   UNL     1      61.208   0.295   4.886  1.00  0.00     0.017 C 
ATOM     15  C   UNL     1      62.001  -0.459   2.448  1.00  0.00    -0.020 C 
ATOM     16  C   UNL     1      63.690  -1.777   3.874  1.00  0.00     0.032 C 
ATOM     17  C   UNL     1      63.287  -1.390   2.429  1.00  0.00     0.006 C 
ATOM     18  C   UNL     1      61.939   0.186   1.024  1.00  0.00     0.008 C 
ATOM     19  C   UNL     1      60.666  -1.257   2.620  1.00  0.00     0.012 C 
ATOM     20  C   UNL     1      63.378  -2.499   1.300  1.00  0.00    -0.025 C 
ATOM     21  C   UNL     1      61.980  -0.834  -0.144  1.00  0.00     0.005 C 
ATOM     22  C   UNL     1      63.239  -1.740  -0.082  1.00  0.00     0.003 C 
ATOM     23  C   UNL     1      64.800  -3.152   1.321  1.00  0.00     0.010 C 
ATOM     24  C   UNL     1      62.324  -3.622   1.537  1.00  0.00     0.012 C 
ATOM     25  C   UNL     1      63.526  -2.600  -1.377  1.00  0.00    -0.006 C 
ATOM     26  C   UNL     1      65.111  -4.020   0.090  1.00  0.00     0.033 C 
ATOM     27  C   UNL     1      64.937  -3.254  -1.230  1.00  0.00     0.120 C 
ATOM     28  C   UNL     1      62.441  -3.671  -1.657  1.00  0.00     0.014 C 
ATOM     29  C   UNL     1      63.580  -1.674  -2.624  1.00  0.00     0.014 C 
ENDROOT
BRANCH   1  30
ATOM     30  C   UNL     1      63.038   2.795   6.542  1.00  0.00     0.048 C 
ATOM     31  O   UNL     1      61.956   3.158   7.079  1.00  0.00    -0.550 OA
ATOM     32  O   UNL     1      63.969   2.109   7.316  1.00  0.00    -0.550 OA
ENDBRANCH   1  30
BRANCH  27  33
ATOM     33  O   UNL     1      65.189  -4.124  -2.308  1.00  0.00    -0.393 OA
ATOM     34  H   UNL     1      65.215  -3.569  -3.130  1.00  0.00     0.210 HD
ENDBRANCH  27  33
TORSDOF 2
ENDMDL
MODEL 6
REMARK VINA RESULT:    -7.786      3.800      5.717
REMARK INTER + INTRA:          -8.654
REMARK INTER:                  -8.780
REMARK INTRA:                   0.126
REMARK UNBOUND:                -0.185
REMARK SMILES C[C@@H]1[C@@H](C)CC[C@@]2(C(=O)[O-])CC[C@]3(C)C(=CC[C@H]4[C@]5(C)CC[C@@H](O)C(C)(C)[C@H]5CC[C@@]43C)[C@@H]12
REMARK SMILES IDX 7 1 6 2 11 3 33 4 5 5 12 6 15 7 2 8 3 9 13 10 16 11 1 12
REMARK SMILES IDX 4 13 14 14 31 15 17 16 18 17 30 18 32 19 19 20 29 21 28 22
REMARK SMILES IDX 21 23 20 24 25 25 22 26 23 27 26 28 27 29 8 30 9 31 10 32
REMARK SMILES IDX 24 33
REMARK H PARENT 24 34
REMARK Flexibility Score: inf
ROOT
ATOM      1  C   UNL     1      63.848   2.836   6.514  1.00  0.00     0.017 C 
ATOM      2  C   UNL     1      64.769   2.580   7.734  1.00  0.00     0.014 C 
ATOM      3  C   UNL     1      64.545   3.838   5.516  1.00  0.00     0.014 C 
ATOM      4  C   UNL     1      63.444   1.464   5.840  1.00  0.00     0.030 C 
ATOM      5  C   UNL     1      65.970   1.705   7.394  1.00  0.00     0.004 C 
ATOM      6  C   UNL     1      64.588   3.387   4.044  1.00  0.00     0.013 C 
ATOM      7  C   UNL     1      62.744   1.720   4.496  1.00  0.00    -0.063 C 
ATOM      8  C   UNL     1      64.609   0.414   5.678  1.00  0.00    -0.003 C 
ATOM      9  C   UNL     1      65.507   0.317   6.948  1.00  0.00    -0.011 C 
ATOM     10  C   UNL     1      63.244   2.798   3.513  1.00  0.00    -0.006 C 
ATOM     11  C   UNL     1      61.680   0.962   4.139  1.00  0.00    -0.027 C 
ATOM     12  C   UNL     1      64.042  -0.987   5.349  1.00  0.00     0.008 C 
ATOM     13  C   UNL     1      66.745  -0.572   6.727  1.00  0.00     0.008 C 
ATOM     14  C   UNL     1      62.185   3.952   3.627  1.00  0.00     0.017 C 
ATOM     15  C   UNL     1      63.369   2.214   1.978  1.00  0.00    -0.020 C 
ATOM     16  C   UNL     1      61.325   0.815   2.678  1.00  0.00     0.032 C 
ATOM     17  C   UNL     1      62.657   0.797   1.889  1.00  0.00     0.006 C 
ATOM     18  C   UNL     1      64.843   1.963   1.519  1.00  0.00     0.008 C 
ATOM     19  C   UNL     1      62.776   3.264   0.980  1.00  0.00     0.012 C 
ATOM     20  C   UNL     1      62.697   0.037   0.498  1.00  0.00    -0.025 C 
ATOM     21  C   UNL     1      64.975   1.261   0.143  1.00  0.00     0.005 C 
ATOM     22  C   UNL     1      64.225  -0.098   0.108  1.00  0.00     0.003 C 
ATOM     23  C   UNL     1      62.141  -1.414   0.678  1.00  0.00     0.010 C 
ATOM     24  C   UNL     1      61.816   0.768  -0.559  1.00  0.00     0.012 C 
ATOM     25  C   UNL     1      64.545  -1.023  -1.134  1.00  0.00    -0.006 C 
ATOM     26  C   UNL     1      62.407  -2.341  -0.520  1.00  0.00     0.033 C 
ATOM     27  C   UNL     1      63.898  -2.423  -0.883  1.00  0.00     0.120 C 
ATOM     28  C   UNL     1      64.072  -0.425  -2.483  1.00  0.00     0.014 C 
ATOM     29  C   UNL     1      66.078  -1.243  -1.247  1.00  0.00     0.014 C 
ENDROOT
BRANCH   1  30
ATOM     30  C   UNL     1      62.608   3.527   7.089  1.00  0.00     0.048 C 
ATOM     31  O   UNL     1      61.443   3.136   6.808  1.00  0.00    -0.550 OA
ATOM     32  O   UNL     1      62.758   4.607   7.953  1.00  0.00    -0.550 OA
ENDBRANCH   1  30
BRANCH  27  33
ATOM     33  O   UNL     1      64.055  -3.246  -2.014  1.00  0.00    -0.393 OA
ATOM     34  H   UNL     1      64.123  -4.180  -1.686  1.00  0.00     0.210 HD
ENDBRANCH  27  33
TORSDOF 2
ENDMDL
MODEL 7
REMARK VINA RESULT:    -7.735      3.164      6.508
REMARK INTER + INTRA:          -8.598
REMARK INTER:                  -8.368
REMARK INTRA:                  -0.230
REMARK UNBOUND:                -0.185
REMARK SMILES C[C@@H]1[C@@H](C)CC[C@@]2(C(=O)[O-])CC[C@]3(C)C(=CC[C@H]4[C@]5(C)CC[C@@H](O)C(C)(C)[C@H]5CC[C@@]43C)[C@@H]12
REMARK SMILES IDX 7 1 6 2 11 3 33 4 5 5 12 6 15 7 2 8 3 9 13 10 16 11 1 12
REMARK SMILES IDX 4 13 14 14 31 15 17 16 18 17 30 18 32 19 19 20 29 21 28 22
REMARK SMILES IDX 21 23 20 24 25 25 22 26 23 27 26 28 27 29 8 30 9 31 10 32
REMARK SMILES IDX 24 33
REMARK H PARENT 24 34
REMARK Flexibility Score: inf
ROOT
ATOM      1  C   UNL     1      65.506   1.864  -1.901  1.00  0.00     0.017 C 
ATOM      2  C   UNL     1      64.749   0.875  -2.824  1.00  0.00     0.014 C 
ATOM      3  C   UNL     1      64.710   3.222  -1.801  1.00  0.00     0.014 C 
ATOM      4  C   UNL     1      65.779   1.196  -0.494  1.00  0.00     0.030 C 
ATOM      5  C   UNL     1      63.490   0.311  -2.176  1.00  0.00     0.004 C 
ATOM      6  C   UNL     1      64.459   3.740  -0.373  1.00  0.00     0.013 C 
ATOM      7  C   UNL     1      66.301   2.246   0.498  1.00  0.00    -0.063 C 
ATOM      8  C   UNL     1      64.574   0.387   0.121  1.00  0.00    -0.003 C 
ATOM      9  C   UNL     1      63.851  -0.504  -0.933  1.00  0.00    -0.011 C 
ATOM     10  C   UNL     1      65.704   3.667   0.565  1.00  0.00    -0.006 C 
ATOM     11  C   UNL     1      67.287   1.917   1.367  1.00  0.00    -0.027 C 
ATOM     12  C   UNL     1      65.055  -0.502   1.293  1.00  0.00     0.008 C 
ATOM     13  C   UNL     1      62.571  -1.154  -0.375  1.00  0.00     0.008 C 
ATOM     14  C   UNL     1      66.801   4.581  -0.088  1.00  0.00     0.017 C 
ATOM     15  C   UNL     1      65.361   4.112   2.114  1.00  0.00    -0.020 C 
ATOM     16  C   UNL     1      67.441   2.695   2.652  1.00  0.00     0.032 C 
ATOM     17  C   UNL     1      66.015   3.076   3.123  1.00  0.00     0.006 C 
ATOM     18  C   UNL     1      63.832   4.102   2.446  1.00  0.00     0.008 C 
ATOM     19  C   UNL     1      65.843   5.583   2.344  1.00  0.00     0.012 C 
ATOM     20  C   UNL     1      65.770   3.300   4.673  1.00  0.00    -0.025 C 
ATOM     21  C   UNL     1      63.499   4.357   3.939  1.00  0.00     0.005 C 
ATOM     22  C   UNL     1      64.201   3.336   4.875  1.00  0.00     0.003 C 
ATOM     23  C   UNL     1      66.305   2.065   5.472  1.00  0.00     0.010 C 
ATOM     24  C   UNL     1      66.522   4.568   5.177  1.00  0.00     0.012 C 
ATOM     25  C   UNL     1      63.693   3.323   6.372  1.00  0.00    -0.006 C 
ATOM     26  C   UNL     1      65.856   2.027   6.943  1.00  0.00     0.033 C 
ATOM     27  C   UNL     1      64.329   2.092   7.095  1.00  0.00     0.120 C 
ATOM     28  C   UNL     1      63.998   4.636   7.137  1.00  0.00     0.014 C 
ATOM     29  C   UNL     1      62.153   3.125   6.407  1.00  0.00     0.014 C 
ENDROOT
BRANCH   1  30
ATOM     30  C   UNL     1      66.830   2.144  -2.618  1.00  0.00     0.048 C 
ATOM     31  O   UNL     1      67.039   3.231  -3.221  1.00  0.00    -0.550 OA
ATOM     32  O   UNL     1      67.839   1.186  -2.603  1.00  0.00    -0.550 OA
ENDBRANCH   1  30
BRANCH  27  33
ATOM     33  O   UNL     1      64.000   2.103   8.463  1.00  0.00    -0.393 OA
ATOM     34  H   UNL     1      63.406   1.325   8.626  1.00  0.00     0.210 HD
ENDBRANCH  27  33
TORSDOF 2
ENDMDL
MODEL 8
REMARK VINA RESULT:    -7.679      3.654      6.205
REMARK INTER + INTRA:          -8.538
REMARK INTER:                  -8.325
REMARK INTRA:                  -0.214
REMARK UNBOUND:                -0.185
REMARK SMILES C[C@@H]1[C@@H](C)CC[C@@]2(C(=O)[O-])CC[C@]3(C)C(=CC[C@H]4[C@]5(C)CC[C@@H](O)C(C)(C)[C@H]5CC[C@@]43C)[C@@H]12
REMARK SMILES IDX 7 1 6 2 11 3 33 4 5 5 12 6 15 7 2 8 3 9 13 10 16 11 1 12
REMARK SMILES IDX 4 13 14 14 31 15 17 16 18 17 30 18 32 19 19 20 29 21 28 22
REMARK SMILES IDX 21 23 20 24 25 25 22 26 23 27 26 28 27 29 8 30 9 31 10 32
REMARK SMILES IDX 24 33
REMARK H PARENT 24 34
REMARK Flexibility Score: inf
ROOT
ATOM      1  C   UNL     1      64.769   3.345   6.508  1.00  0.00     0.017 C 
ATOM      2  C   UNL     1      65.047   2.363   7.674  1.00  0.00     0.014 C 
ATOM      3  C   UNL     1      66.124   3.955   5.983  1.00  0.00     0.014 C 
ATOM      4  C   UNL     1      63.930   2.625   5.378  1.00  0.00     0.030 C 
ATOM      5  C   UNL     1      65.675   1.056   7.206  1.00  0.00     0.004 C 
ATOM      6  C   UNL     1      66.341   3.878   4.460  1.00  0.00     0.013 C 
ATOM      7  C   UNL     1      63.865   3.508   4.122  1.00  0.00    -0.063 C 
ATOM      8  C   UNL     1      64.389   1.161   5.016  1.00  0.00    -0.003 C 
ATOM      9  C   UNL     1      64.716   0.308   6.278  1.00  0.00    -0.011 C 
ATOM     10  C   UNL     1      65.095   4.286   3.613  1.00  0.00    -0.006 C 
ATOM     11  C   UNL     1      62.713   3.584   3.415  1.00  0.00    -0.027 C 
ATOM     12  C   UNL     1      63.306   0.438   4.182  1.00  0.00     0.008 C 
ATOM     13  C   UNL     1      65.333  -1.058   5.922  1.00  0.00     0.008 C 
ATOM     14  C   UNL     1      64.788   5.782   3.977  1.00  0.00     0.017 C 
ATOM     15  C   UNL     1      65.328   4.071   1.996  1.00  0.00    -0.020 C 
ATOM     16  C   UNL     1      62.756   3.975   1.956  1.00  0.00     0.032 C 
ATOM     17  C   UNL     1      64.052   3.368   1.365  1.00  0.00     0.006 C 
ATOM     18  C   UNL     1      66.529   3.129   1.654  1.00  0.00     0.008 C 
ATOM     19  C   UNL     1      65.658   5.451   1.337  1.00  0.00     0.012 C 
ATOM     20  C   UNL     1      64.086   3.031  -0.184  1.00  0.00    -0.025 C 
ATOM     21  C   UNL     1      66.663   2.782   0.149  1.00  0.00     0.005 C 
ATOM     22  C   UNL     1      65.370   2.136  -0.417  1.00  0.00     0.003 C 
ATOM     23  C   UNL     1      62.844   2.155  -0.557  1.00  0.00     0.010 C 
ATOM     24  C   UNL     1      64.036   4.334  -1.037  1.00  0.00     0.012 C 
ATOM     25  C   UNL     1      65.506   1.477  -1.848  1.00  0.00    -0.006 C 
ATOM     26  C   UNL     1      62.924   1.516  -1.954  1.00  0.00     0.033 C 
ATOM     27  C   UNL     1      64.197   0.679  -2.148  1.00  0.00     0.120 C 
ATOM     28  C   UNL     1      65.803   2.503  -2.971  1.00  0.00     0.014 C 
ATOM     29  C   UNL     1      66.675   0.453  -1.850  1.00  0.00     0.014 C 
ENDROOT
BRANCH   1  30
ATOM     30  C   UNL     1      63.950   4.480   7.131  1.00  0.00     0.048 C 
ATOM     31  O   UNL     1      64.446   5.621   7.332  1.00  0.00    -0.550 OA
ATOM     32  O   UNL     1      62.620   4.262   7.478  1.00  0.00    -0.550 OA
ENDBRANCH   1  30
BRANCH  27  33
ATOM     33  O   UNL     1      64.222   0.171  -3.461  1.00  0.00    -0.393 OA
ATOM     34  H   UNL     1      64.898  -0.555  -3.478  1.00  0.00     0.210 HD
ENDBRANCH  27  33
TORSDOF 2
ENDMDL
MODEL 9
REMARK VINA RESULT:    -7.642      2.453      7.830
REMARK INTER + INTRA:          -8.497
REMARK INTER:                  -8.333
REMARK INTRA:                  -0.164
REMARK UNBOUND:                -0.185
REMARK SMILES C[C@@H]1[C@@H](C)CC[C@@]2(C(=O)[O-])CC[C@]3(C)C(=CC[C@H]4[C@]5(C)CC[C@@H](O)C(C)(C)[C@H]5CC[C@@]43C)[C@@H]12
REMARK SMILES IDX 7 1 6 2 11 3 33 4 5 5 12 6 15 7 2 8 3 9 13 10 16 11 1 12
REMARK SMILES IDX 4 13 14 14 31 15 17 16 18 17 30 18 32 19 19 20 29 21 28 22
REMARK SMILES IDX 21 23 20 24 25 25 22 26 23 27 26 28 27 29 8 30 9 31 10 32
REMARK SMILES IDX 24 33
REMARK H PARENT 24 34
REMARK Flexibility Score: inf
ROOT
ATOM      1  C   UNL     1      63.585  -4.554   0.401  1.00  0.00     0.017 C 
ATOM      2  C   UNL     1      64.288  -5.882   0.781  1.00  0.00     0.014 C 
ATOM      3  C   UNL     1      63.563  -3.583   1.643  1.00  0.00     0.014 C 
ATOM      4  C   UNL     1      64.271  -3.919  -0.874  1.00  0.00     0.030 C 
ATOM      5  C   UNL     1      65.798  -5.728   0.929  1.00  0.00     0.004 C 
ATOM      6  C   UNL     1      64.073  -2.154   1.379  1.00  0.00     0.013 C 
ATOM      7  C   UNL     1      63.747  -2.494  -1.104  1.00  0.00    -0.063 C 
ATOM      8  C   UNL     1      65.848  -3.950  -0.886  1.00  0.00    -0.003 C 
ATOM      9  C   UNL     1      66.423  -5.315  -0.405  1.00  0.00    -0.011 C 
ATOM     10  C   UNL     1      63.527  -1.512   0.065  1.00  0.00    -0.006 C 
ATOM     11  C   UNL     1      63.501  -2.065  -2.364  1.00  0.00    -0.027 C 
ATOM     12  C   UNL     1      66.390  -3.641  -2.302  1.00  0.00     0.008 C 
ATOM     13  C   UNL     1      67.955  -5.285  -0.247  1.00  0.00     0.008 C 
ATOM     14  C   UNL     1      61.967  -1.440   0.226  1.00  0.00     0.017 C 
ATOM     15  C   UNL     1      64.192  -0.036  -0.244  1.00  0.00    -0.020 C 
ATOM     16  C   UNL     1      63.511  -0.584  -2.665  1.00  0.00     0.032 C 
ATOM     17  C   UNL     1      64.608   0.049  -1.774  1.00  0.00     0.006 C 
ATOM     18  C   UNL     1      65.507   0.241   0.556  1.00  0.00     0.008 C 
ATOM     19  C   UNL     1      63.182   1.081   0.182  1.00  0.00     0.012 C 
ATOM     20  C   UNL     1      65.308   1.381  -2.275  1.00  0.00    -0.025 C 
ATOM     21  C   UNL     1      66.236   1.550   0.158  1.00  0.00     0.005 C 
ATOM     22  C   UNL     1      66.579   1.590  -1.355  1.00  0.00     0.003 C 
ATOM     23  C   UNL     1      65.830   1.180  -3.737  1.00  0.00     0.010 C 
ATOM     24  C   UNL     1      64.302   2.570  -2.277  1.00  0.00     0.012 C 
ATOM     25  C   UNL     1      67.577   2.732  -1.799  1.00  0.00    -0.006 C 
ATOM     26  C   UNL     1      66.785   2.285  -4.219  1.00  0.00     0.033 C 
ATOM     27  C   UNL     1      67.989   2.474  -3.284  1.00  0.00     0.120 C 
ATOM     28  C   UNL     1      66.997   4.158  -1.622  1.00  0.00     0.014 C 
ATOM     29  C   UNL     1      68.874   2.661  -0.948  1.00  0.00     0.014 C 
ENDROOT
BRANCH   1  30
ATOM     30  C   UNL     1      62.140  -4.946   0.082  1.00  0.00     0.048 C 
ATOM     31  O   UNL     1      61.744  -5.107  -1.104  1.00  0.00    -0.550 OA
ATOM     32  O   UNL     1      61.233  -5.143   1.119  1.00  0.00    -0.550 OA
ENDBRANCH   1  30
BRANCH  27  33
ATOM     33  O   UNL     1      68.786   3.531  -3.763  1.00  0.00    -0.393 OA
ATOM     34  H   UNL     1      69.317   3.174  -4.522  1.00  0.00     0.210 HD
ENDBRANCH  27  33
TORSDOF 2
ENDMDL
