MODEL 1
REMARK VINA RESULT:    -5.131      0.000      0.000
REMARK INTER + INTRA:         -15.567
REMARK INTER:                 -11.730
REMARK INTRA:                  -3.838
REMARK UNBOUND:                -3.838
REMARK SMILES CCCCCCCCCCCCCCCCCCCCCCCC(=O)[O-]
REMARK SMILES IDX 13 1 14 2 15 3 16 4 17 5 18 6 19 7 20 8 21 9 22 10 23 11
REMARK SMILES IDX 24 12 25 13 26 14 12 15 11 16 10 17 9 18 8 19 7 20 6 21 5 22
REMARK SMILES IDX 4 23 3 24 2 25 1 26
REMARK H PARENT
REMARK Flexibility Score: inf
ROOT
ATOM      1  C   UNL     1      24.364  41.939 149.737  1.00  0.00     0.000 C 
ENDROOT
BRANCH   1   2
ATOM      2  C   UNL     1      25.339  41.509 150.847  1.00  0.00     0.000 C 
BRANCH   2   3
ATOM      3  C   UNL     1      26.806  41.853 150.524  1.00  0.00     0.000 C 
BRANCH   3   4
ATOM      4  C   UNL     1      27.747  40.638 150.397  1.00  0.00     0.000 C 
BRANCH   4   5
ATOM      5  C   UNL     1      27.075  39.314 150.801  1.00  0.00     0.000 C 
BRANCH   5   6
ATOM      6  C   UNL     1      26.843  38.370 149.609  1.00  0.00     0.000 C 
BRANCH   6   7
ATOM      7  C   UNL     1      27.664  38.701 148.345  1.00  0.00     0.000 C 
BRANCH   7   8
ATOM      8  C   UNL     1      27.318  37.871 147.095  1.00  0.00     0.000 C 
BRANCH   8   9
ATOM      9  C   UNL     1      28.506  37.055 146.566  1.00  0.00     0.000 C 
BRANCH   9  10
ATOM     10  C   UNL     1      29.543  37.966 145.892  1.00  0.00     0.006 C 
BRANCH  10  11
ATOM     11  C   UNL     1      29.020  38.569 144.582  1.00  0.00     0.053 C 
BRANCH  11  12
ATOM     12  C   UNL     1      29.084  40.067 144.598  1.00  0.00     0.041 C 
ATOM     13  O   UNL     1      29.056  40.690 145.692  1.00  0.00    -0.550 OA
ATOM     14  O   UNL     1      29.231  40.770 143.411  1.00  0.00    -0.550 OA
ENDBRANCH  11  12
ENDBRANCH  10  11
ENDBRANCH   9  10
ENDBRANCH   8   9
ENDBRANCH   7   8
ENDBRANCH   6   7
ENDBRANCH   5   6
ENDBRANCH   4   5
ENDBRANCH   3   4
ENDBRANCH   2   3
ENDBRANCH   1   2
BRANCH   1  15
ATOM     15  C   UNL     1      24.807  41.445 148.352  1.00  0.00     0.000 C 
BRANCH  15  16
ATOM     16  C   UNL     1      23.675  40.714 147.603  1.00  0.00     0.000 C 
BRANCH  16  17
ATOM     17  C   UNL     1      23.888  39.186 147.565  1.00  0.00     0.000 C 
BRANCH  17  18
ATOM     18  C   UNL     1      23.180  38.436 148.709  1.00  0.00    -0.000 C 
BRANCH  18  19
ATOM     19  C   UNL     1      23.675  36.993 148.872  1.00  0.00    -0.000 C 
BRANCH  19  20
ATOM     20  C   UNL     1      24.015  36.364 147.515  1.00  0.00    -0.000 C 
BRANCH  20  21
ATOM     21  C   UNL     1      23.837  34.843 147.562  1.00  0.00    -0.000 C 
BRANCH  21  22
ATOM     22  C   UNL     1      24.350  34.266 148.889  1.00  0.00    -0.000 C 
BRANCH  22  23
ATOM     23  C   UNL     1      25.617  33.407 148.718  1.00  0.00    -0.000 C 
BRANCH  23  24
ATOM     24  C   UNL     1      26.870  34.174 148.244  1.00  0.00    -0.000 C 
BRANCH  24  25
ATOM     25  C   UNL     1      27.986  34.307 149.294  1.00  0.00    -0.003 C 
ATOM     26  C   UNL     1      27.525  35.015 150.567  1.00  0.00     0.004 C 
ENDBRANCH  24  25
ENDBRANCH  23  24
ENDBRANCH  22  23
ENDBRANCH  21  22
ENDBRANCH  20  21
ENDBRANCH  19  20
ENDBRANCH  18  19
ENDBRANCH  17  18
ENDBRANCH  16  17
ENDBRANCH  15  16
ENDBRANCH   1  15
TORSDOF 22
ENDMDL
MODEL 2
REMARK VINA RESULT:    -5.108      0.891      5.283
REMARK INTER + INTRA:         -15.515
REMARK INTER:                 -11.473
REMARK INTRA:                  -4.042
REMARK UNBOUND:                -3.838
REMARK SMILES CCCCCCCCCCCCCCCCCCCCCCCC(=O)[O-]
REMARK SMILES IDX 13 1 14 2 15 3 16 4 17 5 18 6 19 7 20 8 21 9 22 10 23 11
REMARK SMILES IDX 24 12 25 13 26 14 12 15 11 16 10 17 9 18 8 19 7 20 6 21 5 22
REMARK SMILES IDX 4 23 3 24 2 25 1 26
REMARK H PARENT
REMARK Flexibility Score: inf
ROOT
ATOM      1  C   UNL     1      24.063  34.590 147.259  1.00  0.00     0.000 C 
ENDROOT
BRANCH   1   2
ATOM      2  C   UNL     1      24.020  33.891 148.629  1.00  0.00     0.000 C 
BRANCH   2   3
ATOM      3  C   UNL     1      25.335  33.166 148.975  1.00  0.00     0.000 C 
BRANCH   3   4
ATOM      4  C   UNL     1      26.580  33.680 148.224  1.00  0.00     0.000 C 
BRANCH   4   5
ATOM      5  C   UNL     1      27.753  34.008 149.163  1.00  0.00     0.000 C 
BRANCH   5   6
ATOM      6  C   UNL     1      27.382  35.025 150.256  1.00  0.00     0.000 C 
BRANCH   6   7
ATOM      7  C   UNL     1      27.275  36.488 149.777  1.00  0.00     0.000 C 
BRANCH   7   8
ATOM      8  C   UNL     1      28.164  36.857 148.576  1.00  0.00     0.000 C 
BRANCH   8   9
ATOM      9  C   UNL     1      27.360  37.178 147.306  1.00  0.00     0.000 C 
BRANCH   9  10
ATOM     10  C   UNL     1      28.280  37.254 146.078  1.00  0.00     0.006 C 
BRANCH  10  11
ATOM     11  C   UNL     1      29.238  38.451 146.145  1.00  0.00     0.053 C 
BRANCH  11  12
ATOM     12  C   UNL     1      28.735  39.607 145.335  1.00  0.00     0.041 C 
ATOM     13  O   UNL     1      27.959  40.453 145.851  1.00  0.00    -0.550 OA
ATOM     14  O   UNL     1      29.169  39.781 144.028  1.00  0.00    -0.550 OA
ENDBRANCH  11  12
ENDBRANCH  10  11
ENDBRANCH   9  10
ENDBRANCH   8   9
ENDBRANCH   7   8
ENDBRANCH   6   7
ENDBRANCH   5   6
ENDBRANCH   4   5
ENDBRANCH   3   4
ENDBRANCH   2   3
ENDBRANCH   1   2
BRANCH   1  15
ATOM     15  C   UNL     1      23.845  36.106 147.373  1.00  0.00     0.000 C 
BRANCH  15  16
ATOM     16  C   UNL     1      23.768  36.576 148.838  1.00  0.00     0.000 C 
BRANCH  16  17
ATOM     17  C   UNL     1      23.983  38.097 148.979  1.00  0.00     0.000 C 
BRANCH  17  18
ATOM     18  C   UNL     1      24.120  38.828 147.630  1.00  0.00    -0.000 C 
BRANCH  18  19
ATOM     19  C   UNL     1      23.548  40.251 147.662  1.00  0.00    -0.000 C 
BRANCH  19  20
ATOM     20  C   UNL     1      24.662  41.302 147.578  1.00  0.00    -0.000 C 
BRANCH  20  21
ATOM     21  C   UNL     1      24.326  42.521 148.444  1.00  0.00    -0.000 C 
BRANCH  21  22
ATOM     22  C   UNL     1      24.180  42.127 149.920  1.00  0.00    -0.000 C 
BRANCH  22  23
ATOM     23  C   UNL     1      25.535  41.880 150.611  1.00  0.00    -0.000 C 
BRANCH  23  24
ATOM     24  C   UNL     1      25.840  40.404 150.945  1.00  0.00    -0.000 C 
BRANCH  24  25
ATOM     25  C   UNL     1      27.333  40.036 150.960  1.00  0.00    -0.003 C 
ATOM     26  C   UNL     1      28.026  40.309 149.626  1.00  0.00     0.004 C 
ENDBRANCH  24  25
ENDBRANCH  23  24
ENDBRANCH  22  23
ENDBRANCH  21  22
ENDBRANCH  20  21
ENDBRANCH  19  20
ENDBRANCH  18  19
ENDBRANCH  17  18
ENDBRANCH  16  17
ENDBRANCH  15  16
ENDBRANCH   1  15
TORSDOF 22
ENDMDL
MODEL 3
REMARK VINA RESULT:    -5.048      1.424      3.019
REMARK INTER + INTRA:         -15.377
REMARK INTER:                 -10.906
REMARK INTRA:                  -4.471
REMARK UNBOUND:                -3.838
REMARK SMILES CCCCCCCCCCCCCCCCCCCCCCCC(=O)[O-]
REMARK SMILES IDX 13 1 14 2 15 3 16 4 17 5 18 6 19 7 20 8 21 9 22 10 23 11
REMARK SMILES IDX 24 12 25 13 26 14 12 15 11 16 10 17 9 18 8 19 7 20 6 21 5 22
REMARK SMILES IDX 4 23 3 24 2 25 1 26
REMARK H PARENT
REMARK Flexibility Score: inf
ROOT
ATOM      1  C   UNL     1      25.258  40.577 147.336  1.00  0.00     0.000 C 
ENDROOT
BRANCH   1   2
ATOM      2  C   UNL     1      23.961  41.257 147.808  1.00  0.00     0.000 C 
BRANCH   2   3
ATOM      3  C   UNL     1      24.180  42.708 148.278  1.00  0.00     0.000 C 
BRANCH   3   4
ATOM      4  C   UNL     1      25.644  43.077 148.594  1.00  0.00     0.000 C 
BRANCH   4   5
ATOM      5  C   UNL     1      25.862  43.453 150.069  1.00  0.00     0.000 C 
BRANCH   5   6
ATOM      6  C   UNL     1      26.888  42.548 150.775  1.00  0.00     0.000 C 
BRANCH   6   7
ATOM      7  C   UNL     1      26.379  41.134 151.125  1.00  0.00     0.000 C 
BRANCH   7   8
ATOM      8  C   UNL     1      27.302  39.975 150.704  1.00  0.00     0.000 C 
BRANCH   8   9
ATOM      9  C   UNL     1      28.660  40.451 150.166  1.00  0.00     0.000 C 
BRANCH   9  10
ATOM     10  C   UNL     1      28.959  39.822 148.797  1.00  0.00     0.006 C 
BRANCH  10  11
ATOM     11  C   UNL     1      28.731  40.807 147.644  1.00  0.00     0.053 C 
BRANCH  11  12
ATOM     12  C   UNL     1      29.079  40.198 146.319  1.00  0.00     0.041 C 
ATOM     13  O   UNL     1      30.003  40.688 145.619  1.00  0.00    -0.550 OA
ATOM     14  O   UNL     1      28.420  39.056 145.885  1.00  0.00    -0.550 OA
ENDBRANCH  11  12
ENDBRANCH  10  11
ENDBRANCH   9  10
ENDBRANCH   8   9
ENDBRANCH   7   8
ENDBRANCH   6   7
ENDBRANCH   5   6
ENDBRANCH   4   5
ENDBRANCH   3   4
ENDBRANCH   2   3
ENDBRANCH   1   2
BRANCH   1  15
ATOM     15  C   UNL     1      25.321  39.099 147.744  1.00  0.00     0.000 C 
BRANCH  15  16
ATOM     16  C   UNL     1      24.348  38.767 148.892  1.00  0.00     0.000 C 
BRANCH  16  17
ATOM     17  C   UNL     1      23.718  37.367 148.743  1.00  0.00     0.000 C 
BRANCH  17  18
ATOM     18  C   UNL     1      23.808  36.800 147.314  1.00  0.00    -0.000 C 
BRANCH  18  19
ATOM     19  C   UNL     1      23.258  35.372 147.203  1.00  0.00    -0.000 C 
BRANCH  19  20
ATOM     20  C   UNL     1      24.388  34.335 147.247  1.00  0.00    -0.000 C 
BRANCH  20  21
ATOM     21  C   UNL     1      24.175  33.348 148.400  1.00  0.00    -0.000 C 
BRANCH  21  22
ATOM     22  C   UNL     1      24.964  33.774 149.646  1.00  0.00    -0.000 C 
BRANCH  22  23
ATOM     23  C   UNL     1      26.450  34.047 149.348  1.00  0.00    -0.000 C 
BRANCH  23  24
ATOM     24  C   UNL     1      27.115  35.107 150.252  1.00  0.00    -0.000 C 
BRANCH  24  25
ATOM     25  C   UNL     1      27.329  36.481 149.594  1.00  0.00    -0.003 C 
ATOM     26  C   UNL     1      27.682  36.382 148.111  1.00  0.00     0.004 C 
ENDBRANCH  24  25
ENDBRANCH  23  24
ENDBRANCH  22  23
ENDBRANCH  21  22
ENDBRANCH  20  21
ENDBRANCH  19  20
ENDBRANCH  18  19
ENDBRANCH  17  18
ENDBRANCH  16  17
ENDBRANCH  15  16
ENDBRANCH   1  15
TORSDOF 22
ENDMDL
MODEL 4
REMARK VINA RESULT:    -5.016      3.152      6.662
REMARK INTER + INTRA:         -15.305
REMARK INTER:                 -10.988
REMARK INTRA:                  -4.317
REMARK UNBOUND:                -3.838
REMARK SMILES CCCCCCCCCCCCCCCCCCCCCCCC(=O)[O-]
REMARK SMILES IDX 13 1 14 2 15 3 16 4 17 5 18 6 19 7 20 8 21 9 22 10 23 11
REMARK SMILES IDX 24 12 25 13 26 14 12 15 11 16 10 17 9 18 8 19 7 20 6 21 5 22
REMARK SMILES IDX 4 23 3 24 2 25 1 26
REMARK H PARENT
REMARK Flexibility Score: inf
ROOT
ATOM      1  C   UNL     1      28.025  39.199 149.642  1.00  0.00     0.000 C 
ENDROOT
BRANCH   1   2
ATOM      2  C   UNL     1      27.121  40.246 150.316  1.00  0.00     0.000 C 
BRANCH   2   3
ATOM      3  C   UNL     1      25.763  39.670 150.759  1.00  0.00     0.000 C 
BRANCH   3   4
ATOM      4  C   UNL     1      24.529  40.384 150.170  1.00  0.00     0.000 C 
BRANCH   4   5
ATOM      5  C   UNL     1      24.862  41.226 148.926  1.00  0.00     0.000 C 
BRANCH   5   6
ATOM      6  C   UNL     1      24.449  40.542 147.610  1.00  0.00     0.000 C 
BRANCH   6   7
ATOM      7  C   UNL     1      23.554  39.296 147.774  1.00  0.00     0.000 C 
BRANCH   7   8
ATOM      8  C   UNL     1      24.211  37.956 147.397  1.00  0.00     0.000 C 
BRANCH   8   9
ATOM      9  C   UNL     1      23.978  36.855 148.444  1.00  0.00     0.000 C 
BRANCH   9  10
ATOM     10  C   UNL     1      23.914  35.471 147.780  1.00  0.00     0.006 C 
BRANCH  10  11
ATOM     11  C   UNL     1      25.052  34.552 148.243  1.00  0.00     0.053 C 
BRANCH  11  12
ATOM     12  C   UNL     1      24.528  33.287 148.852  1.00  0.00     0.041 C 
ATOM     13  O   UNL     1      24.320  33.220 150.092  1.00  0.00    -0.550 OA
ATOM     14  O   UNL     1      24.217  32.203 148.044  1.00  0.00    -0.550 OA
ENDBRANCH  11  12
ENDBRANCH  10  11
ENDBRANCH   9  10
ENDBRANCH   8   9
ENDBRANCH   7   8
ENDBRANCH   6   7
ENDBRANCH   5   6
ENDBRANCH   4   5
ENDBRANCH   3   4
ENDBRANCH   2   3
ENDBRANCH   1   2
BRANCH   1  15
ATOM     15  C   UNL     1      27.415  37.791 149.684  1.00  0.00     0.000 C 
BRANCH  15  16
ATOM     16  C   UNL     1      27.735  36.978 148.414  1.00  0.00     0.000 C 
BRANCH  16  17
ATOM     17  C   UNL     1      27.762  37.855 147.146  1.00  0.00     0.000 C 
BRANCH  17  18
ATOM     18  C   UNL     1      28.789  37.392 146.097  1.00  0.00    -0.000 C 
BRANCH  18  19
ATOM     19  C   UNL     1      29.983  38.347 145.970  1.00  0.00    -0.000 C 
BRANCH  19  20
ATOM     20  C   UNL     1      30.228  38.742 144.508  1.00  0.00    -0.000 C 
BRANCH  20  21
ATOM     21  C   UNL     1      28.974  39.379 143.899  1.00  0.00    -0.000 C 
BRANCH  21  22
ATOM     22  C   UNL     1      29.219  40.852 143.542  1.00  0.00    -0.000 C 
BRANCH  22  23
ATOM     23  C   UNL     1      28.325  41.818 144.342  1.00  0.00    -0.000 C 
BRANCH  23  24
ATOM     24  C   UNL     1      27.599  41.191 145.550  1.00  0.00    -0.000 C 
BRANCH  24  25
ATOM     25  C   UNL     1      27.892  41.860 146.904  1.00  0.00    -0.003 C 
ATOM     26  C   UNL     1      29.349  41.710 147.339  1.00  0.00     0.004 C 
ENDBRANCH  24  25
ENDBRANCH  23  24
ENDBRANCH  22  23
ENDBRANCH  21  22
ENDBRANCH  20  21
ENDBRANCH  19  20
ENDBRANCH  18  19
ENDBRANCH  17  18
ENDBRANCH  16  17
ENDBRANCH  15  16
ENDBRANCH   1  15
TORSDOF 22
ENDMDL
MODEL 5
REMARK VINA RESULT:    -5.007      2.623      6.180
REMARK INTER + INTRA:         -15.285
REMARK INTER:                 -10.736
REMARK INTRA:                  -4.549
REMARK UNBOUND:                -3.838
REMARK SMILES CCCCCCCCCCCCCCCCCCCCCCCC(=O)[O-]
REMARK SMILES IDX 13 1 14 2 15 3 16 4 17 5 18 6 19 7 20 8 21 9 22 10 23 11
REMARK SMILES IDX 24 12 25 13 26 14 12 15 11 16 10 17 9 18 8 19 7 20 6 21 5 22
REMARK SMILES IDX 4 23 3 24 2 25 1 26
REMARK H PARENT
REMARK Flexibility Score: inf
ROOT
ATOM      1  C   UNL     1      28.120  40.890 144.956  1.00  0.00     0.000 C 
ENDROOT
BRANCH   1   2
ATOM      2  C   UNL     1      27.829  41.096 146.453  1.00  0.00     0.000 C 
BRANCH   2   3
ATOM      3  C   UNL     1      26.323  41.187 146.764  1.00  0.00     0.000 C 
BRANCH   3   4
ATOM      4  C   UNL     1      25.676  39.874 147.249  1.00  0.00     0.000 C 
BRANCH   4   5
ATOM      5  C   UNL     1      24.237  40.067 147.757  1.00  0.00     0.000 C 
BRANCH   5   6
ATOM      6  C   UNL     1      24.010  39.472 149.158  1.00  0.00     0.000 C 
BRANCH   6   7
ATOM      7  C   UNL     1      23.592  37.987 149.176  1.00  0.00     0.000 C 
BRANCH   7   8
ATOM      8  C   UNL     1      22.931  37.470 147.885  1.00  0.00     0.000 C 
BRANCH   8   9
ATOM      9  C   UNL     1      23.584  36.189 147.344  1.00  0.00     0.000 C 
BRANCH   9  10
ATOM     10  C   UNL     1      25.058  36.104 147.767  1.00  0.00     0.006 C 
BRANCH  10  11
ATOM     11  C   UNL     1      25.731  34.818 147.270  1.00  0.00     0.053 C 
BRANCH  11  12
ATOM     12  C   UNL     1      26.166  33.946 148.409  1.00  0.00     0.041 C 
ATOM     13  O   UNL     1      25.379  33.711 149.363  1.00  0.00    -0.550 OA
ATOM     14  O   UNL     1      27.418  33.348 148.389  1.00  0.00    -0.550 OA
ENDBRANCH  11  12
ENDBRANCH  10  11
ENDBRANCH   9  10
ENDBRANCH   8   9
ENDBRANCH   7   8
ENDBRANCH   6   7
ENDBRANCH   5   6
ENDBRANCH   4   5
ENDBRANCH   3   4
ENDBRANCH   2   3
ENDBRANCH   1   2
BRANCH   1  15
ATOM     15  C   UNL     1      29.456  40.173 144.717  1.00  0.00     0.000 C 
BRANCH  15  16
ATOM     16  C   UNL     1      29.278  38.654 144.528  1.00  0.00     0.000 C 
BRANCH  16  17
ATOM     17  C   UNL     1      29.594  37.861 145.814  1.00  0.00     0.000 C 
BRANCH  17  18
ATOM     18  C   UNL     1      28.344  37.290 146.508  1.00  0.00    -0.000 C 
BRANCH  18  19
ATOM     19  C   UNL     1      28.570  36.996 147.997  1.00  0.00    -0.000 C 
BRANCH  19  20
ATOM     20  C   UNL     1      28.460  38.272 148.840  1.00  0.00    -0.000 C 
BRANCH  20  21
ATOM     21  C   UNL     1      27.440  38.090 149.970  1.00  0.00    -0.000 C 
BRANCH  21  22
ATOM     22  C   UNL     1      27.235  39.399 150.746  1.00  0.00    -0.000 C 
BRANCH  22  23
ATOM     23  C   UNL     1      28.051  40.571 150.169  1.00  0.00    -0.000 C 
BRANCH  23  24
ATOM     24  C   UNL     1      27.492  41.975 150.482  1.00  0.00    -0.000 C 
BRANCH  24  25
ATOM     25  C   UNL     1      25.981  42.026 150.764  1.00  0.00    -0.003 C 
ATOM     26  C   UNL     1      25.241  43.020 149.870  1.00  0.00     0.004 C 
ENDBRANCH  24  25
ENDBRANCH  23  24
ENDBRANCH  22  23
ENDBRANCH  21  22
ENDBRANCH  20  21
ENDBRANCH  19  20
ENDBRANCH  18  19
ENDBRANCH  17  18
ENDBRANCH  16  17
ENDBRANCH  15  16
ENDBRANCH   1  15
TORSDOF 22
ENDMDL
MODEL 6
REMARK VINA RESULT:    -4.987      2.297      4.977
REMARK INTER + INTRA:         -15.239
REMARK INTER:                 -11.064
REMARK INTRA:                  -4.175
REMARK UNBOUND:                -3.838
REMARK SMILES CCCCCCCCCCCCCCCCCCCCCCCC(=O)[O-]
REMARK SMILES IDX 13 1 14 2 15 3 16 4 17 5 18 6 19 7 20 8 21 9 22 10 23 11
REMARK SMILES IDX 24 12 25 13 26 14 12 15 11 16 10 17 9 18 8 19 7 20 6 21 5 22
REMARK SMILES IDX 4 23 3 24 2 25 1 26
REMARK H PARENT
REMARK Flexibility Score: inf
ROOT
ATOM      1  C   UNL     1      29.508  40.256 145.852  1.00  0.00     0.000 C 
ENDROOT
BRANCH   1   2
ATOM      2  C   UNL     1      28.836  39.100 145.091  1.00  0.00     0.000 C 
BRANCH   2   3
ATOM      3  C   UNL     1      29.116  37.722 145.721  1.00  0.00     0.000 C 
BRANCH   3   4
ATOM      4  C   UNL     1      28.011  37.198 146.660  1.00  0.00     0.000 C 
BRANCH   4   5
ATOM      5  C   UNL     1      28.470  37.094 148.125  1.00  0.00     0.000 C 
BRANCH   5   6
ATOM      6  C   UNL     1      28.183  38.369 148.937  1.00  0.00     0.000 C 
BRANCH   6   7
ATOM      7  C   UNL     1      27.123  38.211 150.047  1.00  0.00     0.000 C 
BRANCH   7   8
ATOM      8  C   UNL     1      26.751  39.504 150.796  1.00  0.00     0.000 C 
BRANCH   8   9
ATOM      9  C   UNL     1      27.585  40.717 150.356  1.00  0.00     0.000 C 
BRANCH   9  10
ATOM     10  C   UNL     1      26.927  42.029 150.807  1.00  0.00     0.006 C 
BRANCH  10  11
ATOM     11  C   UNL     1      25.396  41.930 150.837  1.00  0.00     0.053 C 
BRANCH  11  12
ATOM     12  C   UNL     1      24.751  43.230 150.461  1.00  0.00     0.041 C 
ATOM     13  O   UNL     1      25.315  44.004 149.644  1.00  0.00    -0.550 OA
ATOM     14  O   UNL     1      23.502  43.559 150.969  1.00  0.00    -0.550 OA
ENDBRANCH  11  12
ENDBRANCH  10  11
ENDBRANCH   9  10
ENDBRANCH   8   9
ENDBRANCH   7   8
ENDBRANCH   6   7
ENDBRANCH   5   6
ENDBRANCH   4   5
ENDBRANCH   3   4
ENDBRANCH   2   3
ENDBRANCH   1   2
BRANCH   1  15
ATOM     15  C   UNL     1      28.489  41.277 146.377  1.00  0.00     0.000 C 
BRANCH  15  16
ATOM     16  C   UNL     1      27.040  40.762 146.274  1.00  0.00     0.000 C 
BRANCH  16  17
ATOM     17  C   UNL     1      26.065  41.573 147.153  1.00  0.00     0.000 C 
BRANCH  17  18
ATOM     18  C   UNL     1      24.726  40.858 147.409  1.00  0.00    -0.000 C 
BRANCH  18  19
ATOM     19  C   UNL     1      24.863  39.330 147.446  1.00  0.00    -0.000 C 
BRANCH  19  20
ATOM     20  C   UNL     1      23.642  38.678 148.108  1.00  0.00    -0.000 C 
BRANCH  20  21
ATOM     21  C   UNL     1      23.932  37.214 148.458  1.00  0.00    -0.000 C 
BRANCH  21  22
ATOM     22  C   UNL     1      23.573  36.284 147.290  1.00  0.00    -0.000 C 
BRANCH  22  23
ATOM     23  C   UNL     1      23.969  34.819 147.549  1.00  0.00    -0.000 C 
BRANCH  23  24
ATOM     24  C   UNL     1      24.369  34.495 149.004  1.00  0.00    -0.000 C 
BRANCH  24  25
ATOM     25  C   UNL     1      25.689  33.721 149.158  1.00  0.00    -0.003 C 
ATOM     26  C   UNL     1      26.790  34.549 149.821  1.00  0.00     0.004 C 
ENDBRANCH  24  25
ENDBRANCH  23  24
ENDBRANCH  22  23
ENDBRANCH  21  22
ENDBRANCH  20  21
ENDBRANCH  19  20
ENDBRANCH  18  19
ENDBRANCH  17  18
ENDBRANCH  16  17
ENDBRANCH  15  16
ENDBRANCH   1  15
TORSDOF 22
ENDMDL
MODEL 7
REMARK VINA RESULT:    -4.984      2.415      5.733
REMARK INTER + INTRA:         -15.233
REMARK INTER:                 -11.265
REMARK INTRA:                  -3.968
REMARK UNBOUND:                -3.838
REMARK SMILES CCCCCCCCCCCCCCCCCCCCCCCC(=O)[O-]
REMARK SMILES IDX 13 1 14 2 15 3 16 4 17 5 18 6 19 7 20 8 21 9 22 10 23 11
REMARK SMILES IDX 24 12 25 13 26 14 12 15 11 16 10 17 9 18 8 19 7 20 6 21 5 22
REMARK SMILES IDX 4 23 3 24 2 25 1 26
REMARK H PARENT
REMARK Flexibility Score: inf
ROOT
ATOM      1  C   UNL     1      24.199  36.333 147.434  1.00  0.00     0.000 C 
ENDROOT
BRANCH   1   2
ATOM      2  C   UNL     1      23.704  36.721 148.838  1.00  0.00     0.000 C 
BRANCH   2   3
ATOM      3  C   UNL     1      23.195  38.173 148.915  1.00  0.00     0.000 C 
BRANCH   3   4
ATOM      4  C   UNL     1      23.362  38.992 147.619  1.00  0.00     0.000 C 
BRANCH   4   5
ATOM      5  C   UNL     1      24.000  40.372 147.860  1.00  0.00     0.000 C 
BRANCH   5   6
ATOM      6  C   UNL     1      25.371  40.527 147.179  1.00  0.00     0.000 C 
BRANCH   6   7
ATOM      7  C   UNL     1      26.576  40.072 148.027  1.00  0.00     0.000 C 
BRANCH   7   8
ATOM      8  C   UNL     1      26.346  40.059 149.550  1.00  0.00     0.000 C 
BRANCH   8   9
ATOM      9  C   UNL     1      27.398  40.867 150.325  1.00  0.00     0.000 C 
BRANCH   9  10
ATOM     10  C   UNL     1      26.774  42.125 150.949  1.00  0.00     0.006 C 
BRANCH  10  11
ATOM     11  C   UNL     1      26.468  43.202 149.900  1.00  0.00     0.053 C 
BRANCH  11  12
ATOM     12  C   UNL     1      25.022  43.595 149.917  1.00  0.00     0.041 C 
ATOM     13  O   UNL     1      24.654  44.678 149.390  1.00  0.00    -0.550 OA
ATOM     14  O   UNL     1      24.076  42.742 150.466  1.00  0.00    -0.550 OA
ENDBRANCH  11  12
ENDBRANCH  10  11
ENDBRANCH   9  10
ENDBRANCH   8   9
ENDBRANCH   7   8
ENDBRANCH   6   7
ENDBRANCH   5   6
ENDBRANCH   4   5
ENDBRANCH   3   4
ENDBRANCH   2   3
ENDBRANCH   1   2
BRANCH   1  15
ATOM     15  C   UNL     1      24.548  34.842 147.332  1.00  0.00     0.000 C 
BRANCH  15  16
ATOM     16  C   UNL     1      24.151  34.061 148.600  1.00  0.00     0.000 C 
BRANCH  16  17
ATOM     17  C   UNL     1      25.375  33.482 149.341  1.00  0.00     0.000 C 
BRANCH  17  18
ATOM     18  C   UNL     1      26.652  33.438 148.481  1.00  0.00    -0.000 C 
BRANCH  18  19
ATOM     19  C   UNL     1      27.836  34.163 149.135  1.00  0.00    -0.000 C 
BRANCH  19  20
ATOM     20  C   UNL     1      27.357  35.232 150.125  1.00  0.00    -0.000 C 
BRANCH  20  21
ATOM     21  C   UNL     1      27.362  36.618 149.472  1.00  0.00    -0.000 C 
BRANCH  21  22
ATOM     22  C   UNL     1      28.379  36.685 148.323  1.00  0.00    -0.000 C 
BRANCH  22  23
ATOM     23  C   UNL     1      27.717  36.914 146.952  1.00  0.00    -0.000 C 
BRANCH  23  24
ATOM     24  C   UNL     1      28.633  37.540 145.879  1.00  0.00    -0.000 C 
BRANCH  24  25
ATOM     25  C   UNL     1      29.994  38.036 146.395  1.00  0.00    -0.003 C 
ATOM     26  C   UNL     1      30.007  39.535 146.695  1.00  0.00     0.004 C 
ENDBRANCH  24  25
ENDBRANCH  23  24
ENDBRANCH  22  23
ENDBRANCH  21  22
ENDBRANCH  20  21
ENDBRANCH  19  20
ENDBRANCH  18  19
ENDBRANCH  17  18
ENDBRANCH  16  17
ENDBRANCH  15  16
ENDBRANCH   1  15
TORSDOF 22
ENDMDL
MODEL 8
REMARK VINA RESULT:    -4.912      1.785      3.789
REMARK INTER + INTRA:         -15.066
REMARK INTER:                 -10.980
REMARK INTRA:                  -4.086
REMARK UNBOUND:                -3.838
REMARK SMILES CCCCCCCCCCCCCCCCCCCCCCCC(=O)[O-]
REMARK SMILES IDX 13 1 14 2 15 3 16 4 17 5 18 6 19 7 20 8 21 9 22 10 23 11
REMARK SMILES IDX 24 12 25 13 26 14 12 15 11 16 10 17 9 18 8 19 7 20 6 21 5 22
REMARK SMILES IDX 4 23 3 24 2 25 1 26
REMARK H PARENT
REMARK Flexibility Score: inf
ROOT
ATOM      1  C   UNL     1      24.767  39.212 147.446  1.00  0.00     0.000 C 
ENDROOT
BRANCH   1   2
ATOM      2  C   UNL     1      25.111  40.699 147.259  1.00  0.00     0.000 C 
BRANCH   2   3
ATOM      3  C   UNL     1      24.016  41.641 147.797  1.00  0.00     0.000 C 
BRANCH   3   4
ATOM      4  C   UNL     1      24.384  42.397 149.090  1.00  0.00     0.000 C 
BRANCH   4   5
ATOM      5  C   UNL     1      24.303  41.512 150.345  1.00  0.00     0.000 C 
BRANCH   5   6
ATOM      6  C   UNL     1      25.659  41.349 151.054  1.00  0.00     0.000 C 
BRANCH   6   7
ATOM      7  C   UNL     1      26.218  39.911 151.068  1.00  0.00     0.000 C 
BRANCH   7   8
ATOM      8  C   UNL     1      27.379  39.642 150.093  1.00  0.00     0.000 C 
BRANCH   8   9
ATOM      9  C   UNL     1      27.856  40.906 149.361  1.00  0.00     0.000 C 
BRANCH   9  10
ATOM     10  C   UNL     1      29.390  40.991 149.356  1.00  0.00     0.006 C 
BRANCH  10  11
ATOM     11  C   UNL     1      30.008  40.245 148.166  1.00  0.00     0.053 C 
BRANCH  11  12
ATOM     12  C   UNL     1      31.079  39.293 148.607  1.00  0.00     0.041 C 
ATOM     13  O   UNL     1      31.566  39.379 149.765  1.00  0.00    -0.550 OA
ATOM     14  O   UNL     1      31.499  38.279 147.759  1.00  0.00    -0.550 OA
ENDBRANCH  11  12
ENDBRANCH  10  11
ENDBRANCH   9  10
ENDBRANCH   8   9
ENDBRANCH   7   8
ENDBRANCH   6   7
ENDBRANCH   5   6
ENDBRANCH   4   5
ENDBRANCH   3   4
ENDBRANCH   2   3
ENDBRANCH   1   2
BRANCH   1  15
ATOM     15  C   UNL     1      23.276  38.991 147.741  1.00  0.00     0.000 C 
BRANCH  15  16
ATOM     16  C   UNL     1      23.045  37.874 148.777  1.00  0.00     0.000 C 
BRANCH  16  17
ATOM     17  C   UNL     1      24.023  36.695 148.598  1.00  0.00     0.000 C 
BRANCH  17  18
ATOM     18  C   UNL     1      23.668  35.772 147.418  1.00  0.00    -0.000 C 
BRANCH  18  19
ATOM     19  C   UNL     1      24.484  34.473 147.410  1.00  0.00    -0.000 C 
BRANCH  19  20
ATOM     20  C   UNL     1      25.078  34.179 148.793  1.00  0.00    -0.000 C 
BRANCH  20  21
ATOM     21  C   UNL     1      26.561  33.811 148.681  1.00  0.00    -0.000 C 
BRANCH  21  22
ATOM     22  C   UNL     1      27.399  34.568 149.722  1.00  0.00    -0.000 C 
BRANCH  22  23
ATOM     23  C   UNL     1      27.418  36.089 149.484  1.00  0.00    -0.000 C 
BRANCH  23  24
ATOM     24  C   UNL     1      28.337  36.562 148.338  1.00  0.00    -0.000 C 
BRANCH  24  25
ATOM     25  C   UNL     1      27.609  36.960 147.043  1.00  0.00    -0.003 C 
ATOM     26  C   UNL     1      28.552  37.525 145.980  1.00  0.00     0.004 C 
ENDBRANCH  24  25
ENDBRANCH  23  24
ENDBRANCH  22  23
ENDBRANCH  21  22
ENDBRANCH  20  21
ENDBRANCH  19  20
ENDBRANCH  18  19
ENDBRANCH  17  18
ENDBRANCH  16  17
ENDBRANCH  15  16
ENDBRANCH   1  15
TORSDOF 22
ENDMDL
MODEL 9
REMARK VINA RESULT:    -4.317      2.261      4.391
REMARK INTER + INTRA:         -13.706
REMARK INTER:                  -9.331
REMARK INTRA:                  -4.374
REMARK UNBOUND:                -3.838
REMARK SMILES CCCCCCCCCCCCCCCCCCCCCCCC(=O)[O-]
REMARK SMILES IDX 13 1 14 2 15 3 16 4 17 5 18 6 19 7 20 8 21 9 22 10 23 11
REMARK SMILES IDX 24 12 25 13 26 14 12 15 11 16 10 17 9 18 8 19 7 20 6 21 5 22
REMARK SMILES IDX 4 23 3 24 2 25 1 26
REMARK H PARENT
REMARK Flexibility Score: inf
ROOT
ATOM      1  C   UNL     1      26.758  40.462 146.923  1.00  0.00     0.000 C 
ENDROOT
BRANCH   1   2
ATOM      2  C   UNL     1      25.343  40.107 147.413  1.00  0.00     0.000 C 
BRANCH   2   3
ATOM      3  C   UNL     1      24.567  41.329 147.941  1.00  0.00     0.000 C 
BRANCH   3   4
ATOM      4  C   UNL     1      24.419  41.393 149.475  1.00  0.00     0.000 C 
BRANCH   4   5
ATOM      5  C   UNL     1      24.400  40.003 150.134  1.00  0.00     0.000 C 
BRANCH   5   6
ATOM      6  C   UNL     1      25.616  39.751 151.042  1.00  0.00     0.000 C 
BRANCH   6   7
ATOM      7  C   UNL     1      26.621  40.919 151.125  1.00  0.00     0.000 C 
BRANCH   7   8
ATOM      8  C   UNL     1      27.961  40.691 150.402  1.00  0.00     0.000 C 
BRANCH   8   9
ATOM      9  C   UNL     1      28.555  41.980 149.812  1.00  0.00     0.000 C 
BRANCH   9  10
ATOM     10  C   UNL     1      29.701  41.662 148.840  1.00  0.00     0.006 C 
BRANCH  10  11
ATOM     11  C   UNL     1      30.292  40.266 149.076  1.00  0.00     0.053 C 
BRANCH  11  12
ATOM     12  C   UNL     1      31.537  40.326 149.909  1.00  0.00     0.041 C 
ATOM     13  O   UNL     1      32.236  39.294 150.079  1.00  0.00    -0.550 OA
ATOM     14  O   UNL     1      31.953  41.534 150.451  1.00  0.00    -0.550 OA
ENDBRANCH  11  12
ENDBRANCH  10  11
ENDBRANCH   9  10
ENDBRANCH   8   9
ENDBRANCH   7   8
ENDBRANCH   6   7
ENDBRANCH   5   6
ENDBRANCH   4   5
ENDBRANCH   3   4
ENDBRANCH   2   3
ENDBRANCH   1   2
BRANCH   1  15
ATOM     15  C   UNL     1      27.656  39.223 146.792  1.00  0.00     0.000 C 
BRANCH  15  16
ATOM     16  C   UNL     1      27.014  37.968 147.414  1.00  0.00     0.000 C 
BRANCH  16  17
ATOM     17  C   UNL     1      27.976  37.226 148.365  1.00  0.00     0.000 C 
BRANCH  17  18
ATOM     18  C   UNL     1      27.385  36.970 149.764  1.00  0.00    -0.000 C 
BRANCH  18  19
ATOM     19  C   UNL     1      27.387  35.485 150.149  1.00  0.00    -0.000 C 
BRANCH  19  20
ATOM     20  C   UNL     1      27.841  34.606 148.977  1.00  0.00    -0.000 C 
BRANCH  20  21
ATOM     21  C   UNL     1      26.720  33.655 148.543  1.00  0.00    -0.000 C 
BRANCH  21  22
ATOM     22  C   UNL     1      25.818  34.309 147.487  1.00  0.00    -0.000 C 
BRANCH  22  23
ATOM     23  C   UNL     1      24.331  34.308 147.887  1.00  0.00    -0.000 C 
BRANCH  23  24
ATOM     24  C   UNL     1      23.435  35.274 147.082  1.00  0.00    -0.000 C 
BRANCH  24  25
ATOM     25  C   UNL     1      23.579  36.759 147.457  1.00  0.00    -0.003 C 
ATOM     26  C   UNL     1      23.759  36.978 148.959  1.00  0.00     0.004 C 
ENDBRANCH  24  25
ENDBRANCH  23  24
ENDBRANCH  22  23
ENDBRANCH  21  22
ENDBRANCH  20  21
ENDBRANCH  19  20
ENDBRANCH  18  19
ENDBRANCH  17  18
ENDBRANCH  16  17
ENDBRANCH  15  16
ENDBRANCH   1  15
TORSDOF 22
ENDMDL
