MODEL 1
REMARK VINA RESULT:    32.914      0.000      0.000
REMARK INTER + INTRA:          35.932
REMARK INTER:                  35.800
REMARK INTRA:                   0.131
REMARK UNBOUND:                 0.131
REMARK SMILES C[C@H]1[C@H](C)CC[C@@]2(C(=O)[O-])CC[C@]3(C)C(=CC[C@H]4[C@@]5(C)CC[C@@H](O)C(C)(C)[C@@H]5CC[C@]43C)[C@@H]12
REMARK SMILES IDX 7 1 6 2 11 3 33 4 5 5 12 6 15 7 2 8 3 9 13 10 16 11 1 12
REMARK SMILES IDX 4 13 14 14 31 15 17 16 18 17 30 18 32 19 19 20 29 21 28 22
REMARK SMILES IDX 21 23 20 24 25 25 22 26 23 27 26 28 27 29 8 30 9 31 10 32
REMARK SMILES IDX 24 33
REMARK H PARENT 24 34
REMARK Flexibility Score: inf
ROOT
ATOM      1  C   UNL     1      17.635   0.666  -2.692  1.00  0.00     0.017 C 
ATOM      2  C   UNL     1      17.488  -0.123  -1.363  1.00  0.00     0.014 C 
ATOM      3  C   UNL     1      16.967  -0.124  -3.860  1.00  0.00     0.014 C 
ATOM      4  C   UNL     1      16.991   2.081  -2.493  1.00  0.00     0.030 C 
ATOM      5  C   UNL     1      18.238   0.558  -0.207  1.00  0.00     0.004 C 
ATOM      6  C   UNL     1      15.431  -0.020  -3.960  1.00  0.00     0.013 C 
ATOM      7  C   UNL     1      15.444   1.987  -2.585  1.00  0.00    -0.063 C 
ATOM      8  C   UNL     1      17.642   2.835  -1.270  1.00  0.00    -0.003 C 
ATOM      9  C   UNL     1      17.754   1.998   0.051  1.00  0.00    -0.011 C 
ATOM     10  C   UNL     1      14.863   1.439  -3.895  1.00  0.00    -0.006 C 
ATOM     11  C   UNL     1      14.697   2.005  -1.473  1.00  0.00    -0.027 C 
ATOM     12  C   UNL     1      17.040   4.239  -1.055  1.00  0.00     0.008 C 
ATOM     13  C   UNL     1      18.701   2.674   1.058  1.00  0.00     0.008 C 
ATOM     14  C   UNL     1      15.438   2.284  -5.086  1.00  0.00     0.017 C 
ATOM     15  C   UNL     1      13.235   1.446  -3.965  1.00  0.00    -0.020 C 
ATOM     16  C   UNL     1      13.238   1.745  -1.395  1.00  0.00     0.032 C 
ATOM     17  C   UNL     1      12.586   0.996  -2.586  1.00  0.00     0.006 C 
ATOM     18  C   UNL     1      12.685   2.872  -4.300  1.00  0.00     0.008 C 
ATOM     19  C   UNL     1      12.809   0.478  -5.123  1.00  0.00     0.012 C 
ATOM     20  C   UNL     1      10.979   1.108  -2.516  1.00  0.00    -0.025 C 
ATOM     21  C   UNL     1      11.147   2.999  -4.283  1.00  0.00     0.005 C 
ATOM     22  C   UNL     1      10.536   2.567  -2.932  1.00  0.00     0.003 C 
ATOM     23  C   UNL     1      10.457   0.858  -1.055  1.00  0.00     0.010 C 
ATOM     24  C   UNL     1      10.349  -0.012  -3.410  1.00  0.00     0.012 C 
ATOM     25  C   UNL     1       8.999   2.906  -2.748  1.00  0.00    -0.006 C 
ATOM     26  C   UNL     1       8.950   1.131  -0.868  1.00  0.00     0.033 C 
ATOM     27  C   UNL     1       8.566   2.561  -1.285  1.00  0.00     0.120 C 
ATOM     28  C   UNL     1       8.759   4.428  -2.964  1.00  0.00     0.014 C 
ATOM     29  C   UNL     1       8.071   2.177  -3.756  1.00  0.00     0.014 C 
ENDROOT
BRANCH   1  30
ATOM     30  C   UNL     1      19.113   0.769  -3.066  1.00  0.00     0.048 C 
ATOM     31  O   UNL     1      19.945  -0.084  -2.655  1.00  0.00    -0.550 OA
ATOM     32  O   UNL     1      19.584   1.880  -3.760  1.00  0.00    -0.550 OA
ENDBRANCH   1  30
BRANCH  27  33
ATOM     33  O   UNL     1       9.147   3.472  -0.381  1.00  0.00    -0.393 OA
ATOM     34  H   UNL     1      10.042   3.709  -0.739  1.00  0.00     0.210 HD
ENDBRANCH  27  33
TORSDOF 2
ENDMDL
