MODEL 1
REMARK VINA RESULT:    -6.069      0.000      0.000
REMARK INTER + INTRA:         -17.689
REMARK INTER:                 -16.004
REMARK INTRA:                  -1.685
REMARK UNBOUND:                -1.685
REMARK SMILES CCCCCCCCCCCCCCCCCCCCCCCCCCCCCC(=O)[O-]
REMARK SMILES IDX 16 1 17 2 18 3 19 4 20 5 21 6 22 7 23 8 24 9 25 10 26 11
REMARK SMILES IDX 27 12 28 13 29 14 30 15 31 16 32 17 15 18 14 19 13 20 12 21
REMARK SMILES IDX 11 22 10 23 9 24 8 25 7 26 6 27 5 28 4 29 3 30 2 31 1 32
REMARK H PARENT
REMARK Flexibility Score: inf
ROOT
ATOM      1  C   UNL     1      12.127  -8.103   2.852  1.00  0.00     0.000 C 
ENDROOT
BRANCH   1   2
ATOM      2  C   UNL     1      12.789  -9.043   1.821  1.00  0.00     0.000 C 
BRANCH   2   3
ATOM      3  C   UNL     1      12.776  -8.502   0.378  1.00  0.00     0.000 C 
BRANCH   3   4
ATOM      4  C   UNL     1      13.988  -8.898  -0.481  1.00  0.00     0.000 C 
BRANCH   4   5
ATOM      5  C   UNL     1      14.464  -7.759  -1.397  1.00  0.00     0.000 C 
BRANCH   5   6
ATOM      6  C   UNL     1      14.178  -8.030  -2.885  1.00  0.00     0.000 C 
BRANCH   6   7
ATOM      7  C   UNL     1      12.723  -8.421  -3.218  1.00  0.00     0.000 C 
BRANCH   7   8
ATOM      8  C   UNL     1      12.560  -9.567  -4.233  1.00  0.00     0.000 C 
BRANCH   8   9
ATOM      9  C   UNL     1      11.676  -9.186  -5.434  1.00  0.00     0.000 C 
BRANCH   9  10
ATOM     10  C   UNL     1      12.325  -9.539  -6.784  1.00  0.00     0.000 C 
BRANCH  10  11
ATOM     11  C   UNL     1      11.334  -9.756  -7.943  1.00  0.00     0.000 C 
BRANCH  11  12
ATOM     12  C   UNL     1       9.878  -9.470  -7.544  1.00  0.00     0.000 C 
BRANCH  12  13
ATOM     13  C   UNL     1       8.960 -10.637  -7.940  1.00  0.00     0.006 C 
BRANCH  13  14
ATOM     14  C   UNL     1       9.317 -11.937  -7.205  1.00  0.00     0.053 C 
BRANCH  14  15
ATOM     15  C   UNL     1       8.104 -12.758  -6.893  1.00  0.00     0.041 C 
ATOM     16  O   UNL     1       7.822 -13.048  -5.697  1.00  0.00    -0.550 OA
ATOM     17  O   UNL     1       7.312 -13.248  -7.923  1.00  0.00    -0.550 OA
ENDBRANCH  14  15
ENDBRANCH  13  14
ENDBRANCH  12  13
ENDBRANCH  11  12
ENDBRANCH  10  11
ENDBRANCH   9  10
ENDBRANCH   8   9
ENDBRANCH   7   8
ENDBRANCH   6   7
ENDBRANCH   5   6
ENDBRANCH   4   5
ENDBRANCH   3   4
ENDBRANCH   2   3
ENDBRANCH   1   2
BRANCH   1  18
ATOM     18  C   UNL     1      11.478  -8.870   4.019  1.00  0.00     0.000 C 
BRANCH  18  19
ATOM     19  C   UNL     1      12.461  -9.819   4.720  1.00  0.00     0.000 C 
BRANCH  19  20
ATOM     20  C   UNL     1      11.805 -11.142   5.152  1.00  0.00     0.000 C 
BRANCH  20  21
ATOM     21  C   UNL     1      10.543 -11.470   4.337  1.00  0.00     0.000 C 
BRANCH  21  22
ATOM     22  C   UNL     1       9.647 -12.509   5.028  1.00  0.00     0.000 C 
BRANCH  22  23
ATOM     23  C   UNL     1       8.901 -11.890   6.218  1.00  0.00     0.000 C 
BRANCH  23  24
ATOM     24  C   UNL     1       8.099 -12.927   7.023  1.00  0.00    -0.000 C 
BRANCH  24  25
ATOM     25  C   UNL     1       8.733 -14.332   7.095  1.00  0.00    -0.000 C 
BRANCH  25  26
ATOM     26  C   UNL     1       7.758 -15.500   6.858  1.00  0.00    -0.000 C 
BRANCH  26  27
ATOM     27  C   UNL     1       7.610 -15.858   5.369  1.00  0.00    -0.000 C 
BRANCH  27  28
ATOM     28  C   UNL     1       6.171 -15.676   4.857  1.00  0.00    -0.000 C 
BRANCH  28  29
ATOM     29  C   UNL     1       5.700 -16.852   3.988  1.00  0.00    -0.000 C 
BRANCH  29  30
ATOM     30  C   UNL     1       4.172 -16.991   4.036  1.00  0.00    -0.000 C 
BRANCH  30  31
ATOM     31  C   UNL     1       3.682 -18.327   3.455  1.00  0.00    -0.003 C 
ATOM     32  C   UNL     1       4.830 -19.267   3.087  1.00  0.00     0.004 C 
ENDBRANCH  30  31
ENDBRANCH  29  30
ENDBRANCH  28  29
ENDBRANCH  27  28
ENDBRANCH  26  27
ENDBRANCH  25  26
ENDBRANCH  24  25
ENDBRANCH  23  24
ENDBRANCH  22  23
ENDBRANCH  21  22
ENDBRANCH  20  21
ENDBRANCH  19  20
ENDBRANCH  18  19
ENDBRANCH   1  18
TORSDOF 28
ENDMDL
MODEL 2
REMARK VINA RESULT:    -6.064      4.176     11.604
REMARK INTER + INTRA:         -17.675
REMARK INTER:                 -15.692
REMARK INTRA:                  -1.983
REMARK UNBOUND:                -1.685
REMARK SMILES CCCCCCCCCCCCCCCCCCCCCCCCCCCCCC(=O)[O-]
REMARK SMILES IDX 16 1 17 2 18 3 19 4 20 5 21 6 22 7 23 8 24 9 25 10 26 11
REMARK SMILES IDX 27 12 28 13 29 14 30 15 31 16 32 17 15 18 14 19 13 20 12 21
REMARK SMILES IDX 11 22 10 23 9 24 8 25 7 26 6 27 5 28 4 29 3 30 2 31 1 32
REMARK H PARENT
REMARK Flexibility Score: inf
ROOT
ATOM      1  C   UNL     1       5.556 -18.358   3.621  1.00  0.00     0.000 C 
ENDROOT
BRANCH   1   2
ATOM      2  C   UNL     1       5.778 -16.835   3.725  1.00  0.00     0.000 C 
BRANCH   2   3
ATOM      3  C   UNL     1       7.124 -16.438   4.364  1.00  0.00     0.000 C 
BRANCH   3   4
ATOM      4  C   UNL     1       7.033 -15.387   5.482  1.00  0.00     0.000 C 
BRANCH   4   5
ATOM      5  C   UNL     1       8.103 -15.584   6.570  1.00  0.00     0.000 C 
BRANCH   5   6
ATOM      6  C   UNL     1       8.681 -14.255   7.086  1.00  0.00     0.000 C 
BRANCH   6   7
ATOM      7  C   UNL     1       7.877 -12.993   6.709  1.00  0.00     0.000 C 
BRANCH   7   8
ATOM      8  C   UNL     1       8.686 -11.865   6.043  1.00  0.00     0.000 C 
BRANCH   8   9
ATOM      9  C   UNL     1      10.041 -12.342   5.489  1.00  0.00     0.000 C 
BRANCH   9  10
ATOM     10  C   UNL     1      10.807 -11.229   4.753  1.00  0.00     0.000 C 
BRANCH  10  11
ATOM     11  C   UNL     1      12.183 -10.884   5.351  1.00  0.00     0.000 C 
BRANCH  11  12
ATOM     12  C   UNL     1      12.778  -9.591   4.771  1.00  0.00     0.000 C 
BRANCH  12  13
ATOM     13  C   UNL     1      11.710  -8.782   4.019  1.00  0.00     0.006 C 
BRANCH  13  14
ATOM     14  C   UNL     1      12.261  -8.130   2.743  1.00  0.00     0.053 C 
BRANCH  14  15
ATOM     15  C   UNL     1      12.231  -9.066   1.574  1.00  0.00     0.041 C 
ATOM     16  O   UNL     1      11.159  -9.254   0.937  1.00  0.00    -0.550 OA
ATOM     17  O   UNL     1      13.374  -9.770   1.219  1.00  0.00    -0.550 OA
ENDBRANCH  14  15
ENDBRANCH  13  14
ENDBRANCH  12  13
ENDBRANCH  11  12
ENDBRANCH  10  11
ENDBRANCH   9  10
ENDBRANCH   8   9
ENDBRANCH   7   8
ENDBRANCH   6   7
ENDBRANCH   5   6
ENDBRANCH   4   5
ENDBRANCH   3   4
ENDBRANCH   2   3
ENDBRANCH   1   2
BRANCH   1  18
ATOM     18  C   UNL     1       4.063 -18.736   3.577  1.00  0.00     0.000 C 
BRANCH  18  19
ATOM     19  C   UNL     1       3.633 -19.279   2.206  1.00  0.00     0.000 C 
BRANCH  19  20
ATOM     20  C   UNL     1       3.541 -18.179   1.134  1.00  0.00     0.000 C 
BRANCH  20  21
ATOM     21  C   UNL     1       4.705 -18.232   0.131  1.00  0.00     0.000 C 
BRANCH  21  22
ATOM     22  C   UNL     1       4.229 -18.408  -1.318  1.00  0.00     0.000 C 
BRANCH  22  23
ATOM     23  C   UNL     1       2.860 -17.747  -1.535  1.00  0.00     0.000 C 
BRANCH  23  24
ATOM     24  C   UNL     1       2.345 -17.900  -2.976  1.00  0.00    -0.000 C 
BRANCH  24  25
ATOM     25  C   UNL     1       3.209 -18.794  -3.888  1.00  0.00    -0.000 C 
BRANCH  25  26
ATOM     26  C   UNL     1       3.950 -18.052  -5.016  1.00  0.00    -0.000 C 
BRANCH  26  27
ATOM     27  C   UNL     1       4.376 -16.630  -4.613  1.00  0.00    -0.000 C 
BRANCH  27  28
ATOM     28  C   UNL     1       5.873 -16.372  -4.848  1.00  0.00    -0.000 C 
BRANCH  28  29
ATOM     29  C   UNL     1       6.284 -16.572  -6.315  1.00  0.00    -0.000 C 
BRANCH  29  30
ATOM     30  C   UNL     1       6.667 -15.234  -6.964  1.00  0.00    -0.000 C 
BRANCH  30  31
ATOM     31  C   UNL     1       5.760 -14.872  -8.150  1.00  0.00    -0.003 C 
ATOM     32  C   UNL     1       4.364 -14.429  -7.713  1.00  0.00     0.004 C 
ENDBRANCH  30  31
ENDBRANCH  29  30
ENDBRANCH  28  29
ENDBRANCH  27  28
ENDBRANCH  26  27
ENDBRANCH  25  26
ENDBRANCH  24  25
ENDBRANCH  23  24
ENDBRANCH  22  23
ENDBRANCH  21  22
ENDBRANCH  20  21
ENDBRANCH  19  20
ENDBRANCH  18  19
ENDBRANCH   1  18
TORSDOF 28
ENDMDL
MODEL 3
REMARK VINA RESULT:    -6.034      4.702      9.292
REMARK INTER + INTRA:         -17.597
REMARK INTER:                 -13.705
REMARK INTRA:                  -3.891
REMARK UNBOUND:                -1.685
REMARK SMILES CCCCCCCCCCCCCCCCCCCCCCCCCCCCCC(=O)[O-]
REMARK SMILES IDX 16 1 17 2 18 3 19 4 20 5 21 6 22 7 23 8 24 9 25 10 26 11
REMARK SMILES IDX 27 12 28 13 29 14 30 15 31 16 32 17 15 18 14 19 13 20 12 21
REMARK SMILES IDX 11 22 10 23 9 24 8 25 7 26 6 27 5 28 4 29 3 30 2 31 1 32
REMARK H PARENT
REMARK Flexibility Score: inf
ROOT
ATOM      1  C   UNL     1       3.864 -16.404   4.092  1.00  0.00     0.000 C 
ENDROOT
BRANCH   1   2
ATOM      2  C   UNL     1       3.467 -17.876   3.855  1.00  0.00     0.000 C 
BRANCH   2   3
ATOM      3  C   UNL     1       4.657 -18.808   3.553  1.00  0.00     0.000 C 
BRANCH   3   4
ATOM      4  C   UNL     1       5.388 -18.529   2.231  1.00  0.00     0.000 C 
BRANCH   4   5
ATOM      5  C   UNL     1       4.473 -18.675   1.004  1.00  0.00     0.000 C 
BRANCH   5   6
ATOM      6  C   UNL     1       4.760 -17.625  -0.084  1.00  0.00     0.000 C 
BRANCH   6   7
ATOM      7  C   UNL     1       3.515 -16.945  -0.692  1.00  0.00     0.000 C 
BRANCH   7   8
ATOM      8  C   UNL     1       2.593 -17.864  -1.515  1.00  0.00     0.000 C 
BRANCH   8   9
ATOM      9  C   UNL     1       2.427 -17.399  -2.973  1.00  0.00     0.000 C 
BRANCH   9  10
ATOM     10  C   UNL     1       3.405 -18.098  -3.934  1.00  0.00     0.000 C 
BRANCH  10  11
ATOM     11  C   UNL     1       4.074 -17.172  -4.966  1.00  0.00     0.000 C 
BRANCH  11  12
ATOM     12  C   UNL     1       4.547 -15.844  -4.356  1.00  0.00     0.000 C 
BRANCH  12  13
ATOM     13  C   UNL     1       5.319 -15.008  -5.388  1.00  0.00     0.006 C 
BRANCH  13  14
ATOM     14  C   UNL     1       5.457 -15.727  -6.737  1.00  0.00     0.053 C 
BRANCH  14  15
ATOM     15  C   UNL     1       5.331 -14.784  -7.894  1.00  0.00     0.041 C 
ATOM     16  O   UNL     1       4.243 -14.184  -8.110  1.00  0.00    -0.550 OA
ATOM     17  O   UNL     1       6.399 -14.605  -8.764  1.00  0.00    -0.550 OA
ENDBRANCH  14  15
ENDBRANCH  13  14
ENDBRANCH  12  13
ENDBRANCH  11  12
ENDBRANCH  10  11
ENDBRANCH   9  10
ENDBRANCH   8   9
ENDBRANCH   7   8
ENDBRANCH   6   7
ENDBRANCH   5   6
ENDBRANCH   4   5
ENDBRANCH   3   4
ENDBRANCH   2   3
ENDBRANCH   1   2
BRANCH   1  18
ATOM     18  C   UNL     1       3.531 -15.500   2.890  1.00  0.00     0.000 C 
BRANCH  18  19
ATOM     19  C   UNL     1       4.767 -14.780   2.334  1.00  0.00     0.000 C 
BRANCH  19  20
ATOM     20  C   UNL     1       5.860 -14.567   3.396  1.00  0.00     0.000 C 
BRANCH  20  21
ATOM     21  C   UNL     1       7.169 -15.295   3.052  1.00  0.00     0.000 C 
BRANCH  21  22
ATOM     22  C   UNL     1       7.792 -15.997   4.268  1.00  0.00     0.000 C 
BRANCH  22  23
ATOM     23  C   UNL     1       7.028 -15.655   5.555  1.00  0.00     0.000 C 
BRANCH  23  24
ATOM     24  C   UNL     1       7.933 -15.640   6.799  1.00  0.00    -0.000 C 
BRANCH  24  25
ATOM     25  C   UNL     1       8.674 -14.312   7.054  1.00  0.00    -0.000 C 
BRANCH  25  26
ATOM     26  C   UNL     1       7.817 -13.044   6.883  1.00  0.00    -0.000 C 
BRANCH  26  27
ATOM     27  C   UNL     1       8.540 -11.939   6.094  1.00  0.00    -0.000 C 
BRANCH  27  28
ATOM     28  C   UNL     1       8.333 -12.063   4.576  1.00  0.00    -0.000 C 
BRANCH  28  29
ATOM     29  C   UNL     1       9.627 -12.427   3.831  1.00  0.00    -0.000 C 
BRANCH  29  30
ATOM     30  C   UNL     1      10.647 -11.282   3.912  1.00  0.00    -0.000 C 
BRANCH  30  31
ATOM     31  C   UNL     1      11.776 -11.567   4.914  1.00  0.00    -0.003 C 
ATOM     32  C   UNL     1      12.552 -10.308   5.303  1.00  0.00     0.004 C 
ENDBRANCH  30  31
ENDBRANCH  29  30
ENDBRANCH  28  29
ENDBRANCH  27  28
ENDBRANCH  26  27
ENDBRANCH  25  26
ENDBRANCH  24  25
ENDBRANCH  23  24
ENDBRANCH  22  23
ENDBRANCH  21  22
ENDBRANCH  20  21
ENDBRANCH  19  20
ENDBRANCH  18  19
ENDBRANCH   1  18
TORSDOF 28
ENDMDL
MODEL 4
REMARK VINA RESULT:    -6.027      5.320      9.526
REMARK INTER + INTRA:         -17.577
REMARK INTER:                 -13.584
REMARK INTRA:                  -3.993
REMARK UNBOUND:                -1.685
REMARK SMILES CCCCCCCCCCCCCCCCCCCCCCCCCCCCCC(=O)[O-]
REMARK SMILES IDX 16 1 17 2 18 3 19 4 20 5 21 6 22 7 23 8 24 9 25 10 26 11
REMARK SMILES IDX 27 12 28 13 29 14 30 15 31 16 32 17 15 18 14 19 13 20 12 21
REMARK SMILES IDX 11 22 10 23 9 24 8 25 7 26 6 27 5 28 4 29 3 30 2 31 1 32
REMARK H PARENT
REMARK Flexibility Score: inf
ROOT
ATOM      1  C   UNL     1       8.802 -13.894  -6.699  1.00  0.00     0.000 C 
ENDROOT
BRANCH   1   2
ATOM      2  C   UNL     1      10.089 -13.080  -6.452  1.00  0.00     0.000 C 
BRANCH   2   3
ATOM      3  C   UNL     1      10.592 -12.308  -7.688  1.00  0.00     0.000 C 
BRANCH   3   4
ATOM      4  C   UNL     1      11.361 -11.012  -7.383  1.00  0.00     0.000 C 
BRANCH   4   5
ATOM      5  C   UNL     1      10.742  -9.780  -8.064  1.00  0.00     0.000 C 
BRANCH   5   6
ATOM      6  C   UNL     1       9.206  -9.757  -7.973  1.00  0.00     0.000 C 
BRANCH   6   7
ATOM      7  C   UNL     1       8.630  -9.172  -6.666  1.00  0.00     0.000 C 
BRANCH   7   8
ATOM      8  C   UNL     1       7.984 -10.192  -5.711  1.00  0.00     0.000 C 
BRANCH   8   9
ATOM      9  C   UNL     1       8.699 -10.279  -4.351  1.00  0.00     0.000 C 
BRANCH   9  10
ATOM     10  C   UNL     1       9.719  -9.146  -4.142  1.00  0.00     0.000 C 
BRANCH  10  11
ATOM     11  C   UNL     1      11.189  -9.599  -4.080  1.00  0.00     0.000 C 
BRANCH  11  12
ATOM     12  C   UNL     1      12.160  -8.555  -4.653  1.00  0.00     0.000 C 
BRANCH  12  13
ATOM     13  C   UNL     1      12.569  -7.536  -3.579  1.00  0.00     0.006 C 
BRANCH  13  14
ATOM     14  C   UNL     1      13.153  -8.207  -2.328  1.00  0.00     0.053 C 
BRANCH  14  15
ATOM     15  C   UNL     1      14.508  -8.793  -2.585  1.00  0.00     0.041 C 
ATOM     16  O   UNL     1      14.645 -10.038  -2.733  1.00  0.00    -0.550 OA
ATOM     17  O   UNL     1      15.626  -7.970  -2.610  1.00  0.00    -0.550 OA
ENDBRANCH  14  15
ENDBRANCH  13  14
ENDBRANCH  12  13
ENDBRANCH  11  12
ENDBRANCH  10  11
ENDBRANCH   9  10
ENDBRANCH   8   9
ENDBRANCH   7   8
ENDBRANCH   6   7
ENDBRANCH   5   6
ENDBRANCH   4   5
ENDBRANCH   3   4
ENDBRANCH   2   3
ENDBRANCH   1   2
BRANCH   1  18
ATOM     18  C   UNL     1       7.897 -13.260  -7.772  1.00  0.00     0.000 C 
BRANCH  18  19
ATOM     19  C   UNL     1       7.598 -14.219  -8.933  1.00  0.00     0.000 C 
BRANCH  19  20
ATOM     20  C   UNL     1       6.446 -15.190  -8.620  1.00  0.00     0.000 C 
BRANCH  20  21
ATOM     21  C   UNL     1       5.194 -14.472  -8.092  1.00  0.00     0.000 C 
BRANCH  21  22
ATOM     22  C   UNL     1       4.567 -15.186  -6.885  1.00  0.00     0.000 C 
BRANCH  22  23
ATOM     23  C   UNL     1       5.580 -15.330  -5.741  1.00  0.00     0.000 C 
BRANCH  23  24
ATOM     24  C   UNL     1       5.489 -16.692  -5.031  1.00  0.00    -0.000 C 
BRANCH  24  25
ATOM     25  C   UNL     1       4.072 -17.298  -4.957  1.00  0.00    -0.000 C 
BRANCH  25  26
ATOM     26  C   UNL     1       3.969 -18.620  -4.176  1.00  0.00    -0.000 C 
BRANCH  26  27
ATOM     27  C   UNL     1       2.636 -18.764  -3.422  1.00  0.00    -0.000 C 
BRANCH  27  28
ATOM     28  C   UNL     1       2.361 -17.584  -2.475  1.00  0.00    -0.000 C 
BRANCH  28  29
ATOM     29  C   UNL     1       3.127 -17.700  -1.149  1.00  0.00    -0.000 C 
BRANCH  29  30
ATOM     30  C   UNL     1       3.854 -16.389  -0.818  1.00  0.00    -0.000 C 
BRANCH  30  31
ATOM     31  C   UNL     1       5.277 -16.342  -1.394  1.00  0.00    -0.003 C 
ATOM     32  C   UNL     1       6.334 -16.039  -0.332  1.00  0.00     0.004 C 
ENDBRANCH  30  31
ENDBRANCH  29  30
ENDBRANCH  28  29
ENDBRANCH  27  28
ENDBRANCH  26  27
ENDBRANCH  25  26
ENDBRANCH  24  25
ENDBRANCH  23  24
ENDBRANCH  22  23
ENDBRANCH  21  22
ENDBRANCH  20  21
ENDBRANCH  19  20
ENDBRANCH  18  19
ENDBRANCH   1  18
TORSDOF 28
ENDMDL
MODEL 5
REMARK VINA RESULT:    -6.015      3.578      7.646
REMARK INTER + INTRA:         -17.544
REMARK INTER:                 -15.203
REMARK INTRA:                  -2.341
REMARK UNBOUND:                -1.685
REMARK SMILES CCCCCCCCCCCCCCCCCCCCCCCCCCCCCC(=O)[O-]
REMARK SMILES IDX 16 1 17 2 18 3 19 4 20 5 21 6 22 7 23 8 24 9 25 10 26 11
REMARK SMILES IDX 27 12 28 13 29 14 30 15 31 16 32 17 15 18 14 19 13 20 12 21
REMARK SMILES IDX 11 22 10 23 9 24 8 25 7 26 6 27 5 28 4 29 3 30 2 31 1 32
REMARK H PARENT
REMARK Flexibility Score: inf
ROOT
ATOM      1  C   UNL     1       9.687 -15.229   6.087  1.00  0.00     0.000 C 
ENDROOT
BRANCH   1   2
ATOM      2  C   UNL     1      10.325 -14.012   5.384  1.00  0.00     0.000 C 
BRANCH   2   3
ATOM      3  C   UNL     1       9.515 -12.708   5.528  1.00  0.00     0.000 C 
BRANCH   3   4
ATOM      4  C   UNL     1      10.235 -11.435   5.054  1.00  0.00     0.000 C 
BRANCH   4   5
ATOM      5  C   UNL     1      11.755 -11.627   4.920  1.00  0.00     0.000 C 
BRANCH   5   6
ATOM      6  C   UNL     1      12.556 -10.409   5.412  1.00  0.00     0.000 C 
BRANCH   6   7
ATOM      7  C   UNL     1      13.076  -9.468   4.304  1.00  0.00     0.000 C 
BRANCH   7   8
ATOM      8  C   UNL     1      12.177  -8.260   3.983  1.00  0.00     0.000 C 
BRANCH   8   9
ATOM      9  C   UNL     1      11.243  -8.506   2.785  1.00  0.00     0.000 C 
BRANCH   9  10
ATOM     10  C   UNL     1      11.909  -9.337   1.674  1.00  0.00     0.000 C 
BRANCH  10  11
ATOM     11  C   UNL     1      12.527  -8.513   0.529  1.00  0.00     0.000 C 
BRANCH  11  12
ATOM     12  C   UNL     1      13.933  -8.994   0.140  1.00  0.00     0.000 C 
BRANCH  12  13
ATOM     13  C   UNL     1      14.075  -9.104  -1.386  1.00  0.00     0.006 C 
BRANCH  13  14
ATOM     14  C   UNL     1      14.209  -7.732  -2.061  1.00  0.00     0.053 C 
BRANCH  14  15
ATOM     15  C   UNL     1      13.021  -7.405  -2.913  1.00  0.00     0.041 C 
ATOM     16  O   UNL     1      12.750  -8.110  -3.924  1.00  0.00    -0.550 OA
ATOM     17  O   UNL     1      12.243  -6.293  -2.622  1.00  0.00    -0.550 OA
ENDBRANCH  14  15
ENDBRANCH  13  14
ENDBRANCH  12  13
ENDBRANCH  11  12
ENDBRANCH  10  11
ENDBRANCH   9  10
ENDBRANCH   8   9
ENDBRANCH   7   8
ENDBRANCH   6   7
ENDBRANCH   5   6
ENDBRANCH   4   5
ENDBRANCH   3   4
ENDBRANCH   2   3
ENDBRANCH   1   2
BRANCH   1  18
ATOM     18  C   UNL     1       8.340 -14.890   6.752  1.00  0.00     0.000 C 
BRANCH  18  19
ATOM     19  C   UNL     1       7.172 -15.692   6.160  1.00  0.00     0.000 C 
BRANCH  19  20
ATOM     20  C   UNL     1       7.038 -15.511   4.637  1.00  0.00     0.000 C 
BRANCH  20  21
ATOM     21  C   UNL     1       5.962 -16.423   4.026  1.00  0.00     0.000 C 
BRANCH  21  22
ATOM     22  C   UNL     1       4.536 -15.936   4.322  1.00  0.00     0.000 C 
BRANCH  22  23
ATOM     23  C   UNL     1       3.492 -16.857   3.676  1.00  0.00     0.000 C 
BRANCH  23  24
ATOM     24  C   UNL     1       3.867 -18.345   3.775  1.00  0.00    -0.000 C 
BRANCH  24  25
ATOM     25  C   UNL     1       3.897 -19.104   2.432  1.00  0.00    -0.000 C 
BRANCH  25  26
ATOM     26  C   UNL     1       3.745 -18.219   1.181  1.00  0.00    -0.000 C 
BRANCH  26  27
ATOM     27  C   UNL     1       4.770 -18.557   0.084  1.00  0.00    -0.000 C 
BRANCH  27  28
ATOM     28  C   UNL     1       5.225 -17.317  -0.703  1.00  0.00    -0.000 C 
BRANCH  28  29
ATOM     29  C   UNL     1       4.586 -17.235  -2.097  1.00  0.00    -0.000 C 
BRANCH  29  30
ATOM     30  C   UNL     1       4.018 -18.597  -2.522  1.00  0.00    -0.000 C 
BRANCH  30  31
ATOM     31  C   UNL     1       2.636 -18.481  -3.183  1.00  0.00    -0.003 C 
ATOM     32  C   UNL     1       1.717 -17.494  -2.462  1.00  0.00     0.004 C 
ENDBRANCH  30  31
ENDBRANCH  29  30
ENDBRANCH  28  29
ENDBRANCH  27  28
ENDBRANCH  26  27
ENDBRANCH  25  26
ENDBRANCH  24  25
ENDBRANCH  23  24
ENDBRANCH  22  23
ENDBRANCH  21  22
ENDBRANCH  20  21
ENDBRANCH  19  20
ENDBRANCH  18  19
ENDBRANCH   1  18
TORSDOF 28
ENDMDL
MODEL 6
REMARK VINA RESULT:    -5.955      3.501      9.046
REMARK INTER + INTRA:         -17.387
REMARK INTER:                 -15.397
REMARK INTRA:                  -1.990
REMARK UNBOUND:                -1.685
REMARK SMILES CCCCCCCCCCCCCCCCCCCCCCCCCCCCCC(=O)[O-]
REMARK SMILES IDX 16 1 17 2 18 3 19 4 20 5 21 6 22 7 23 8 24 9 25 10 26 11
REMARK SMILES IDX 27 12 28 13 29 14 30 15 31 16 32 17 15 18 14 19 13 20 12 21
REMARK SMILES IDX 11 22 10 23 9 24 8 25 7 26 6 27 5 28 4 29 3 30 2 31 1 32
REMARK H PARENT
REMARK Flexibility Score: inf
ROOT
ATOM      1  C   UNL     1       2.926 -17.761  -1.461  1.00  0.00     0.000 C 
ENDROOT
BRANCH   1   2
ATOM      2  C   UNL     1       2.370 -17.860  -2.898  1.00  0.00     0.000 C 
BRANCH   2   3
ATOM      3  C   UNL     1       3.115 -18.872  -3.791  1.00  0.00     0.000 C 
BRANCH   3   4
ATOM      4  C   UNL     1       3.909 -18.257  -4.956  1.00  0.00     0.000 C 
BRANCH   4   5
ATOM      5  C   UNL     1       4.224 -16.767  -4.737  1.00  0.00     0.000 C 
BRANCH   5   6
ATOM      6  C   UNL     1       5.143 -16.186  -5.827  1.00  0.00     0.000 C 
BRANCH   6   7
ATOM      7  C   UNL     1       4.548 -15.017  -6.639  1.00  0.00     0.000 C 
BRANCH   7   8
ATOM      8  C   UNL     1       5.035 -14.905  -8.096  1.00  0.00     0.000 C 
BRANCH   8   9
ATOM      9  C   UNL     1       6.499 -15.345  -8.276  1.00  0.00     0.000 C 
BRANCH   9  10
ATOM     10  C   UNL     1       7.371 -14.256  -8.925  1.00  0.00     0.000 C 
BRANCH  10  11
ATOM     11  C   UNL     1       8.427 -13.631  -7.996  1.00  0.00     0.000 C 
BRANCH  11  12
ATOM     12  C   UNL     1       8.098 -12.181  -7.608  1.00  0.00     0.000 C 
BRANCH  12  13
ATOM     13  C   UNL     1       9.315 -11.491  -6.972  1.00  0.00     0.006 C 
BRANCH  13  14
ATOM     14  C   UNL     1       9.788 -10.277  -7.783  1.00  0.00     0.053 C 
BRANCH  14  15
ATOM     15  C   UNL     1      11.088  -9.732  -7.274  1.00  0.00     0.041 C 
ATOM     16  O   UNL     1      11.188  -9.340  -6.079  1.00  0.00    -0.550 OA
ATOM     17  O   UNL     1      12.173  -9.610  -8.131  1.00  0.00    -0.550 OA
ENDBRANCH  14  15
ENDBRANCH  13  14
ENDBRANCH  12  13
ENDBRANCH  11  12
ENDBRANCH  10  11
ENDBRANCH   9  10
ENDBRANCH   8   9
ENDBRANCH   7   8
ENDBRANCH   6   7
ENDBRANCH   5   6
ENDBRANCH   4   5
ENDBRANCH   3   4
ENDBRANCH   2   3
ENDBRANCH   1   2
BRANCH   1  18
ATOM     18  C   UNL     1       4.344 -18.347  -1.334  1.00  0.00     0.000 C 
BRANCH  18  19
ATOM     19  C   UNL     1       4.932 -18.165   0.073  1.00  0.00     0.000 C 
BRANCH  19  20
ATOM     20  C   UNL     1       3.851 -17.938   1.145  1.00  0.00     0.000 C 
BRANCH  20  21
ATOM     21  C   UNL     1       3.821 -19.055   2.200  1.00  0.00     0.000 C 
BRANCH  21  22
ATOM     22  C   UNL     1       4.114 -18.539   3.616  1.00  0.00     0.000 C 
BRANCH  22  23
ATOM     23  C   UNL     1       3.304 -17.270   3.920  1.00  0.00     0.000 C 
BRANCH  23  24
ATOM     24  C   UNL     1       4.191 -16.075   4.308  1.00  0.00    -0.000 C 
BRANCH  24  25
ATOM     25  C   UNL     1       5.648 -16.432   4.669  1.00  0.00    -0.000 C 
BRANCH  25  26
ATOM     26  C   UNL     1       6.713 -15.871   3.709  1.00  0.00    -0.000 C 
BRANCH  26  27
ATOM     27  C   UNL     1       7.997 -15.433   4.434  1.00  0.00    -0.000 C 
BRANCH  27  28
ATOM     28  C   UNL     1       7.929 -15.668   5.952  1.00  0.00    -0.000 C 
BRANCH  28  29
ATOM     29  C   UNL     1       7.967 -14.359   6.755  1.00  0.00    -0.000 C 
BRANCH  29  30
ATOM     30  C   UNL     1       8.071 -13.145   5.820  1.00  0.00    -0.000 C 
BRANCH  30  31
ATOM     31  C   UNL     1       9.400 -12.390   5.979  1.00  0.00    -0.003 C 
ATOM     32  C   UNL     1       9.777 -11.588   4.733  1.00  0.00     0.004 C 
ENDBRANCH  30  31
ENDBRANCH  29  30
ENDBRANCH  28  29
ENDBRANCH  27  28
ENDBRANCH  26  27
ENDBRANCH  25  26
ENDBRANCH  24  25
ENDBRANCH  23  24
ENDBRANCH  22  23
ENDBRANCH  21  22
ENDBRANCH  20  21
ENDBRANCH  19  20
ENDBRANCH  18  19
ENDBRANCH   1  18
TORSDOF 28
ENDMDL
MODEL 7
REMARK VINA RESULT:    -5.886      2.734      6.263
REMARK INTER + INTRA:         -17.206
REMARK INTER:                 -15.129
REMARK INTRA:                  -2.077
REMARK UNBOUND:                -1.685
REMARK SMILES CCCCCCCCCCCCCCCCCCCCCCCCCCCCCC(=O)[O-]
REMARK SMILES IDX 16 1 17 2 18 3 19 4 20 5 21 6 22 7 23 8 24 9 25 10 26 11
REMARK SMILES IDX 27 12 28 13 29 14 30 15 31 16 32 17 15 18 14 19 13 20 12 21
REMARK SMILES IDX 11 22 10 23 9 24 8 25 7 26 6 27 5 28 4 29 3 30 2 31 1 32
REMARK H PARENT
REMARK Flexibility Score: inf
ROOT
ATOM      1  C   UNL     1      14.245  -9.711  -3.311  1.00  0.00     0.000 C 
ENDROOT
BRANCH   1   2
ATOM      2  C   UNL     1      12.796  -9.304  -3.653  1.00  0.00     0.000 C 
BRANCH   2   3
ATOM      3  C   UNL     1      12.202 -10.049  -4.865  1.00  0.00     0.000 C 
BRANCH   3   4
ATOM      4  C   UNL     1      11.692  -9.150  -6.002  1.00  0.00     0.000 C 
BRANCH   4   5
ATOM      5  C   UNL     1      12.178  -9.609  -7.386  1.00  0.00     0.000 C 
BRANCH   5   6
ATOM      6  C   UNL     1      11.069 -10.285  -8.214  1.00  0.00     0.000 C 
BRANCH   6   7
ATOM      7  C   UNL     1       9.630  -9.843  -7.876  1.00  0.00     0.000 C 
BRANCH   7   8
ATOM      8  C   UNL     1       8.750 -10.910  -7.199  1.00  0.00     0.000 C 
BRANCH   8   9
ATOM      9  C   UNL     1       9.057 -12.339  -7.683  1.00  0.00     0.000 C 
BRANCH   9  10
ATOM     10  C   UNL     1       7.814 -13.246  -7.682  1.00  0.00     0.000 C 
BRANCH  10  11
ATOM     11  C   UNL     1       7.617 -14.077  -8.963  1.00  0.00     0.000 C 
BRANCH  11  12
ATOM     12  C   UNL     1       6.600 -15.216  -8.784  1.00  0.00     0.000 C 
BRANCH  12  13
ATOM     13  C   UNL     1       5.507 -14.825  -7.778  1.00  0.00     0.006 C 
BRANCH  13  14
ATOM     14  C   UNL     1       5.481 -15.750  -6.554  1.00  0.00     0.053 C 
BRANCH  14  15
ATOM     15  C   UNL     1       5.049 -15.030  -5.313  1.00  0.00     0.041 C 
ATOM     16  O   UNL     1       4.368 -15.629  -4.435  1.00  0.00    -0.550 OA
ATOM     17  O   UNL     1       5.353 -13.686  -5.148  1.00  0.00    -0.550 OA
ENDBRANCH  14  15
ENDBRANCH  13  14
ENDBRANCH  12  13
ENDBRANCH  11  12
ENDBRANCH  10  11
ENDBRANCH   9  10
ENDBRANCH   8   9
ENDBRANCH   7   8
ENDBRANCH   6   7
ENDBRANCH   5   6
ENDBRANCH   4   5
ENDBRANCH   3   4
ENDBRANCH   2   3
ENDBRANCH   1   2
BRANCH   1  18
ATOM     18  C   UNL     1      15.086  -8.528  -2.797  1.00  0.00     0.000 C 
BRANCH  18  19
ATOM     19  C   UNL     1      14.275  -7.568  -1.915  1.00  0.00     0.000 C 
BRANCH  19  20
ATOM     20  C   UNL     1      14.177  -8.042  -0.454  1.00  0.00     0.000 C 
BRANCH  20  21
ATOM     21  C   UNL     1      12.774  -8.553  -0.090  1.00  0.00     0.000 C 
BRANCH  21  22
ATOM     22  C   UNL     1      12.806  -9.918   0.612  1.00  0.00     0.000 C 
BRANCH  22  23
ATOM     23  C   UNL     1      13.248  -9.777   2.075  1.00  0.00     0.000 C 
BRANCH  23  24
ATOM     24  C   UNL     1      12.484  -8.673   2.826  1.00  0.00    -0.000 C 
BRANCH  24  25
ATOM     25  C   UNL     1      12.497  -8.797   4.363  1.00  0.00    -0.000 C 
BRANCH  25  26
ATOM     26  C   UNL     1      12.920 -10.175   4.902  1.00  0.00    -0.000 C 
BRANCH  26  27
ATOM     27  C   UNL     1      11.732 -11.002   5.423  1.00  0.00    -0.000 C 
BRANCH  27  28
ATOM     28  C   UNL     1      11.076 -11.853   4.324  1.00  0.00    -0.000 C 
BRANCH  28  29
ATOM     29  C   UNL     1       9.573 -12.067   4.560  1.00  0.00    -0.000 C 
BRANCH  29  30
ATOM     30  C   UNL     1       9.295 -13.489   5.070  1.00  0.00    -0.000 C 
BRANCH  30  31
ATOM     31  C   UNL     1       8.750 -13.506   6.506  1.00  0.00    -0.003 C 
ATOM     32  C   UNL     1       8.023 -12.213   6.877  1.00  0.00     0.004 C 
ENDBRANCH  30  31
ENDBRANCH  29  30
ENDBRANCH  28  29
ENDBRANCH  27  28
ENDBRANCH  26  27
ENDBRANCH  25  26
ENDBRANCH  24  25
ENDBRANCH  23  24
ENDBRANCH  22  23
ENDBRANCH  21  22
ENDBRANCH  20  21
ENDBRANCH  19  20
ENDBRANCH  18  19
ENDBRANCH   1  18
TORSDOF 28
ENDMDL
MODEL 8
REMARK VINA RESULT:    -5.884      4.377     12.346
REMARK INTER + INTRA:         -17.200
REMARK INTER:                 -15.235
REMARK INTRA:                  -1.965
REMARK UNBOUND:                -1.685
REMARK SMILES CCCCCCCCCCCCCCCCCCCCCCCCCCCCCC(=O)[O-]
REMARK SMILES IDX 16 1 17 2 18 3 19 4 20 5 21 6 22 7 23 8 24 9 25 10 26 11
REMARK SMILES IDX 27 12 28 13 29 14 30 15 31 16 32 17 15 18 14 19 13 20 12 21
REMARK SMILES IDX 11 22 10 23 9 24 8 25 7 26 6 27 5 28 4 29 3 30 2 31 1 32
REMARK H PARENT
REMARK Flexibility Score: inf
ROOT
ATOM      1  C   UNL     1       4.231 -18.698   3.503  1.00  0.00     0.000 C 
ENDROOT
BRANCH   1   2
ATOM      2  C   UNL     1       3.732 -17.325   4.001  1.00  0.00     0.000 C 
BRANCH   2   3
ATOM      3  C   UNL     1       4.861 -16.341   4.367  1.00  0.00     0.000 C 
BRANCH   3   4
ATOM      4  C   UNL     1       6.287 -16.889   4.201  1.00  0.00     0.000 C 
BRANCH   4   5
ATOM      5  C   UNL     1       7.361 -15.913   4.711  1.00  0.00     0.000 C 
BRANCH   5   6
ATOM      6  C   UNL     1       7.238 -15.625   6.218  1.00  0.00     0.000 C 
BRANCH   6   7
ATOM      7  C   UNL     1       8.421 -14.855   6.842  1.00  0.00     0.000 C 
BRANCH   7   8
ATOM      8  C   UNL     1       9.809 -15.192   6.268  1.00  0.00     0.000 C 
BRANCH   8   9
ATOM      9  C   UNL     1      10.426 -14.034   5.464  1.00  0.00     0.000 C 
BRANCH   9  10
ATOM     10  C   UNL     1       9.598 -12.740   5.557  1.00  0.00     0.000 C 
BRANCH  10  11
ATOM     11  C   UNL     1      10.240 -11.510   4.891  1.00  0.00     0.000 C 
BRANCH  11  12
ATOM     12  C   UNL     1      11.743 -11.387   5.188  1.00  0.00     0.000 C 
BRANCH  12  13
ATOM     13  C   UNL     1      12.262  -9.986   4.832  1.00  0.00     0.006 C 
BRANCH  13  14
ATOM     14  C   UNL     1      13.673 -10.022   4.227  1.00  0.00     0.053 C 
BRANCH  14  15
ATOM     15  C   UNL     1      13.668 -10.533   2.818  1.00  0.00     0.041 C 
ATOM     16  O   UNL     1      13.299  -9.786   1.871  1.00  0.00    -0.550 OA
ATOM     17  O   UNL     1      14.021 -11.851   2.557  1.00  0.00    -0.550 OA
ENDBRANCH  14  15
ENDBRANCH  13  14
ENDBRANCH  12  13
ENDBRANCH  11  12
ENDBRANCH  10  11
ENDBRANCH   9  10
ENDBRANCH   8   9
ENDBRANCH   7   8
ENDBRANCH   6   7
ENDBRANCH   5   6
ENDBRANCH   4   5
ENDBRANCH   3   4
ENDBRANCH   2   3
ENDBRANCH   1   2
BRANCH   1  18
ATOM     18  C   UNL     1       3.914 -18.938   2.015  1.00  0.00     0.000 C 
BRANCH  18  19
ATOM     19  C   UNL     1       3.864 -17.634   1.206  1.00  0.00     0.000 C 
BRANCH  19  20
ATOM     20  C   UNL     1       4.078 -17.861  -0.301  1.00  0.00     0.000 C 
BRANCH  20  21
ATOM     21  C   UNL     1       2.757 -17.896  -1.087  1.00  0.00     0.000 C 
BRANCH  21  22
ATOM     22  C   UNL     1       2.898 -17.321  -2.504  1.00  0.00     0.000 C 
BRANCH  22  23
ATOM     23  C   UNL     1       2.727 -18.417  -3.566  1.00  0.00     0.000 C 
BRANCH  23  24
ATOM     24  C   UNL     1       3.876 -18.443  -4.587  1.00  0.00    -0.000 C 
BRANCH  24  25
ATOM     25  C   UNL     1       5.043 -17.480  -4.283  1.00  0.00    -0.000 C 
BRANCH  25  26
ATOM     26  C   UNL     1       5.607 -16.734  -5.506  1.00  0.00    -0.000 C 
BRANCH  26  27
ATOM     27  C   UNL     1       5.021 -15.320  -5.664  1.00  0.00    -0.000 C 
BRANCH  27  28
ATOM     28  C   UNL     1       4.146 -15.180  -6.920  1.00  0.00    -0.000 C 
BRANCH  28  29
ATOM     29  C   UNL     1       4.843 -14.396  -8.042  1.00  0.00    -0.000 C 
BRANCH  29  30
ATOM     30  C   UNL     1       6.104 -13.693  -7.518  1.00  0.00    -0.000 C 
BRANCH  30  31
ATOM     31  C   UNL     1       7.398 -14.321  -8.059  1.00  0.00    -0.003 C 
ATOM     32  C   UNL     1       8.468 -14.492  -6.980  1.00  0.00     0.004 C 
ENDBRANCH  30  31
ENDBRANCH  29  30
ENDBRANCH  28  29
ENDBRANCH  27  28
ENDBRANCH  26  27
ENDBRANCH  25  26
ENDBRANCH  24  25
ENDBRANCH  23  24
ENDBRANCH  22  23
ENDBRANCH  21  22
ENDBRANCH  20  21
ENDBRANCH  19  20
ENDBRANCH  18  19
ENDBRANCH   1  18
TORSDOF 28
ENDMDL
MODEL 9
REMARK VINA RESULT:    -5.856      5.613     11.943
REMARK INTER + INTRA:         -17.125
REMARK INTER:                 -12.952
REMARK INTRA:                  -4.173
REMARK UNBOUND:                -1.685
REMARK SMILES CCCCCCCCCCCCCCCCCCCCCCCCCCCCCC(=O)[O-]
REMARK SMILES IDX 16 1 17 2 18 3 19 4 20 5 21 6 22 7 23 8 24 9 25 10 26 11
REMARK SMILES IDX 27 12 28 13 29 14 30 15 31 16 32 17 15 18 14 19 13 20 12 21
REMARK SMILES IDX 11 22 10 23 9 24 8 25 7 26 6 27 5 28 4 29 3 30 2 31 1 32
REMARK H PARENT
REMARK Flexibility Score: inf
ROOT
ATOM      1  C   UNL     1       3.787 -17.380   3.992  1.00  0.00     0.000 C 
ENDROOT
BRANCH   1   2
ATOM      2  C   UNL     1       3.621 -18.353   2.806  1.00  0.00     0.000 C 
BRANCH   2   3
ATOM      3  C   UNL     1       4.934 -19.020   2.351  1.00  0.00     0.000 C 
BRANCH   3   4
ATOM      4  C   UNL     1       6.164 -18.703   3.217  1.00  0.00     0.000 C 
BRANCH   4   5
ATOM      5  C   UNL     1       7.185 -17.808   2.494  1.00  0.00     0.000 C 
BRANCH   5   6
ATOM      6  C   UNL     1       7.475 -16.500   3.252  1.00  0.00     0.000 C 
BRANCH   6   7
ATOM      7  C   UNL     1       7.342 -16.583   4.788  1.00  0.00     0.000 C 
BRANCH   7   8
ATOM      8  C   UNL     1       7.169 -15.235   5.512  1.00  0.00     0.000 C 
BRANCH   8   9
ATOM      9  C   UNL     1       7.950 -15.159   6.835  1.00  0.00     0.000 C 
BRANCH   9  10
ATOM     10  C   UNL     1       8.325 -13.717   7.222  1.00  0.00     0.000 C 
BRANCH  10  11
ATOM     11  C   UNL     1       8.141 -12.676   6.102  1.00  0.00     0.000 C 
BRANCH  11  12
ATOM     12  C   UNL     1       9.469 -12.062   5.635  1.00  0.00     0.000 C 
BRANCH  12  13
ATOM     13  C   UNL     1       9.491 -11.892   4.108  1.00  0.00     0.006 C 
BRANCH  13  14
ATOM     14  C   UNL     1       9.297 -13.224   3.369  1.00  0.00     0.053 C 
BRANCH  14  15
ATOM     15  C   UNL     1      10.509 -14.100   3.460  1.00  0.00     0.041 C 
ATOM     16  O   UNL     1      11.435 -13.994   2.611  1.00  0.00    -0.550 OA
ATOM     17  O   UNL     1      10.593 -15.069   4.452  1.00  0.00    -0.550 OA
ENDBRANCH  14  15
ENDBRANCH  13  14
ENDBRANCH  12  13
ENDBRANCH  11  12
ENDBRANCH  10  11
ENDBRANCH   9  10
ENDBRANCH   8   9
ENDBRANCH   7   8
ENDBRANCH   6   7
ENDBRANCH   5   6
ENDBRANCH   4   5
ENDBRANCH   3   4
ENDBRANCH   2   3
ENDBRANCH   1   2
BRANCH   1  18
ATOM     18  C   UNL     1       3.869 -15.909   3.543  1.00  0.00     0.000 C 
BRANCH  18  19
ATOM     19  C   UNL     1       3.504 -15.723   2.063  1.00  0.00     0.000 C 
BRANCH  19  20
ATOM     20  C   UNL     1       4.701 -15.271   1.208  1.00  0.00     0.000 C 
BRANCH  20  21
ATOM     21  C   UNL     1       4.896 -16.141  -0.044  1.00  0.00     0.000 C 
BRANCH  21  22
ATOM     22  C   UNL     1       3.595 -16.338  -0.835  1.00  0.00     0.000 C 
BRANCH  22  23
ATOM     23  C   UNL     1       3.407 -17.809  -1.233  1.00  0.00     0.000 C 
BRANCH  23  24
ATOM     24  C   UNL     1       2.514 -17.982  -2.473  1.00  0.00    -0.000 C 
BRANCH  24  25
ATOM     25  C   UNL     1       3.110 -18.861  -3.592  1.00  0.00    -0.000 C 
BRANCH  25  26
ATOM     26  C   UNL     1       3.821 -18.089  -4.718  1.00  0.00    -0.000 C 
BRANCH  26  27
ATOM     27  C   UNL     1       5.233 -17.623  -4.321  1.00  0.00    -0.000 C 
BRANCH  27  28
ATOM     28  C   UNL     1       5.708 -16.411  -5.139  1.00  0.00    -0.000 C 
BRANCH  28  29
ATOM     29  C   UNL     1       4.550 -15.675  -5.831  1.00  0.00    -0.000 C 
BRANCH  29  30
ATOM     30  C   UNL     1       4.966 -15.186  -7.226  1.00  0.00    -0.000 C 
BRANCH  30  31
ATOM     31  C   UNL     1       6.433 -15.506  -7.550  1.00  0.00    -0.003 C 
ATOM     32  C   UNL     1       6.753 -15.370  -9.039  1.00  0.00     0.004 C 
ENDBRANCH  30  31
ENDBRANCH  29  30
ENDBRANCH  28  29
ENDBRANCH  27  28
ENDBRANCH  26  27
ENDBRANCH  25  26
ENDBRANCH  24  25
ENDBRANCH  23  24
ENDBRANCH  22  23
ENDBRANCH  21  22
ENDBRANCH  20  21
ENDBRANCH  19  20
ENDBRANCH  18  19
ENDBRANCH   1  18
TORSDOF 28
ENDMDL
