MODEL 1
REMARK VINA RESULT:    -3.043      0.000      0.000
REMARK INTER + INTRA:          -6.171
REMARK INTER:                  -4.822
REMARK INTRA:                  -1.349
REMARK UNBOUND:                -1.349
REMARK SMILES CCCCCCCCCCCC(=O)[O-]
REMARK SMILES IDX 7 1 8 2 9 3 10 4 11 5 12 6 13 7 14 8 6 9 5 10 4 11 3 12 2 13
REMARK SMILES IDX 1 14
REMARK H PARENT
REMARK Flexibility Score: inf
ROOT
ATOM      1  C   UNL     1      -8.092  -5.945   9.329  1.00  0.00     0.000 C 
ENDROOT
BRANCH   1   2
ATOM      2  C   UNL     1      -8.936  -4.831   9.965  1.00  0.00     0.000 C 
BRANCH   2   3
ATOM      3  C   UNL     1     -10.297  -4.707   9.265  1.00  0.00     0.000 C 
BRANCH   3   4
ATOM      4  C   UNL     1     -10.446  -3.394   8.473  1.00  0.00     0.006 C 
BRANCH   4   5
ATOM      5  C   UNL     1      -9.333  -2.367   8.734  1.00  0.00     0.053 C 
BRANCH   5   6
ATOM      6  C   UNL     1      -8.603  -1.995   7.480  1.00  0.00     0.041 C 
ATOM      7  O   UNL     1      -9.060  -2.333   6.357  1.00  0.00    -0.550 OA
ATOM      8  O   UNL     1      -7.435  -1.245   7.551  1.00  0.00    -0.550 OA
ENDBRANCH   5   6
ENDBRANCH   4   5
ENDBRANCH   3   4
ENDBRANCH   2   3
ENDBRANCH   1   2
BRANCH   1   9
ATOM      9  C   UNL     1      -7.235  -5.454   8.148  1.00  0.00     0.000 C 
BRANCH   9  10
ATOM     10  C   UNL     1      -7.725  -5.888   6.753  1.00  0.00    -0.000 C 
BRANCH  10  11
ATOM     11  C   UNL     1      -8.358  -7.291   6.749  1.00  0.00    -0.000 C 
BRANCH  11  12
ATOM     12  C   UNL     1      -9.890  -7.257   6.605  1.00  0.00    -0.000 C 
BRANCH  12  13
ATOM     13  C   UNL     1     -10.408  -6.747   5.249  1.00  0.00    -0.003 C 
ATOM     14  C   UNL     1     -11.125  -5.401   5.347  1.00  0.00     0.004 C 
ENDBRANCH  12  13
ENDBRANCH  11  12
ENDBRANCH  10  11
ENDBRANCH   9  10
ENDBRANCH   1   9
TORSDOF 10
ENDMDL
MODEL 2
REMARK VINA RESULT:    -3.037      1.356      3.638
REMARK INTER + INTRA:          -6.162
REMARK INTER:                  -5.083
REMARK INTRA:                  -1.079
REMARK UNBOUND:                -1.349
REMARK SMILES CCCCCCCCCCCC(=O)[O-]
REMARK SMILES IDX 7 1 8 2 9 3 10 4 11 5 12 6 13 7 14 8 6 9 5 10 4 11 3 12 2 13
REMARK SMILES IDX 1 14
REMARK H PARENT
REMARK Flexibility Score: inf
ROOT
ATOM      1  C   UNL     1      -9.617  -6.976   6.037  1.00  0.00     0.000 C 
ENDROOT
BRANCH   1   2
ATOM      2  C   UNL     1     -10.382  -5.646   5.996  1.00  0.00     0.000 C 
BRANCH   2   3
ATOM      3  C   UNL     1     -10.882  -5.257   7.395  1.00  0.00     0.000 C 
BRANCH   3   4
ATOM      4  C   UNL     1     -10.608  -3.780   7.739  1.00  0.00     0.006 C 
BRANCH   4   5
ATOM      5  C   UNL     1      -9.129  -3.453   7.998  1.00  0.00     0.053 C 
BRANCH   5   6
ATOM      6  C   UNL     1      -8.615  -2.395   7.071  1.00  0.00     0.041 C 
ATOM      7  O   UNL     1      -7.912  -1.451   7.515  1.00  0.00    -0.550 OA
ATOM      8  O   UNL     1      -8.882  -2.473   5.709  1.00  0.00    -0.550 OA
ENDBRANCH   5   6
ENDBRANCH   4   5
ENDBRANCH   3   4
ENDBRANCH   2   3
ENDBRANCH   1   2
BRANCH   1   9
ATOM      9  C   UNL     1      -8.260  -6.870   6.758  1.00  0.00     0.000 C 
BRANCH   9  10
ATOM     10  C   UNL     1      -8.145  -7.673   8.068  1.00  0.00    -0.000 C 
BRANCH  10  11
ATOM     11  C   UNL     1      -8.219  -6.787   9.324  1.00  0.00    -0.000 C 
BRANCH  11  12
ATOM     12  C   UNL     1      -6.833  -6.472   9.917  1.00  0.00    -0.000 C 
BRANCH  12  13
ATOM     13  C   UNL     1      -6.250  -5.103   9.523  1.00  0.00    -0.003 C 
ATOM     14  C   UNL     1      -4.723  -5.062   9.581  1.00  0.00     0.004 C 
ENDBRANCH  12  13
ENDBRANCH  11  12
ENDBRANCH  10  11
ENDBRANCH   9  10
ENDBRANCH   1   9
TORSDOF 10
ENDMDL
MODEL 3
REMARK VINA RESULT:    -2.949      1.411      2.760
REMARK INTER + INTRA:          -6.022
REMARK INTER:                  -4.627
REMARK INTRA:                  -1.396
REMARK UNBOUND:                -1.349
REMARK SMILES CCCCCCCCCCCC(=O)[O-]
REMARK SMILES IDX 7 1 8 2 9 3 10 4 11 5 12 6 13 7 14 8 6 9 5 10 4 11 3 12 2 13
REMARK SMILES IDX 1 14
REMARK H PARENT
REMARK Flexibility Score: inf
ROOT
ATOM      1  C   UNL     1      -7.742  -5.780   6.971  1.00  0.00     0.000 C 
ENDROOT
BRANCH   1   2
ATOM      2  C   UNL     1      -7.409  -5.740   8.470  1.00  0.00     0.000 C 
BRANCH   2   3
ATOM      3  C   UNL     1      -8.293  -4.720   9.201  1.00  0.00     0.000 C 
BRANCH   3   4
ATOM      4  C   UNL     1      -9.498  -4.259   8.359  1.00  0.00     0.006 C 
BRANCH   4   5
ATOM      5  C   UNL     1      -9.641  -2.734   8.238  1.00  0.00     0.053 C 
BRANCH   5   6
ATOM      6  C   UNL     1      -8.722  -2.161   7.204  1.00  0.00     0.041 C 
ATOM      7  O   UNL     1      -7.768  -1.416   7.547  1.00  0.00    -0.550 OA
ATOM      8  O   UNL     1      -8.899  -2.479   5.862  1.00  0.00    -0.550 OA
ENDBRANCH   5   6
ENDBRANCH   4   5
ENDBRANCH   3   4
ENDBRANCH   2   3
ENDBRANCH   1   2
BRANCH   1   9
ATOM      9  C   UNL     1      -8.260  -7.153   6.505  1.00  0.00     0.000 C 
BRANCH   9  10
ATOM     10  C   UNL     1      -9.705  -7.165   5.972  1.00  0.00    -0.000 C 
BRANCH  10  11
ATOM     11  C   UNL     1     -10.630  -8.105   6.764  1.00  0.00    -0.000 C 
BRANCH  11  12
ATOM     12  C   UNL     1     -10.712  -7.744   8.259  1.00  0.00    -0.000 C 
BRANCH  12  13
ATOM     13  C   UNL     1     -10.352  -8.885   9.227  1.00  0.00    -0.003 C 
ATOM     14  C   UNL     1      -9.002  -8.686   9.913  1.00  0.00     0.004 C 
ENDBRANCH  12  13
ENDBRANCH  11  12
ENDBRANCH  10  11
ENDBRANCH   9  10
ENDBRANCH   1   9
TORSDOF 10
ENDMDL
MODEL 4
REMARK VINA RESULT:    -2.895      1.143      2.801
REMARK INTER + INTRA:          -5.936
REMARK INTER:                  -4.762
REMARK INTRA:                  -1.173
REMARK UNBOUND:                -1.349
REMARK SMILES CCCCCCCCCCCC(=O)[O-]
REMARK SMILES IDX 7 1 8 2 9 3 10 4 11 5 12 6 13 7 14 8 6 9 5 10 4 11 3 12 2 13
REMARK SMILES IDX 1 14
REMARK H PARENT
REMARK Flexibility Score: inf
ROOT
ATOM      1  C   UNL     1     -10.118  -4.545   6.477  1.00  0.00     0.000 C 
ENDROOT
BRANCH   1   2
ATOM      2  C   UNL     1     -11.090  -4.249   7.629  1.00  0.00     0.000 C 
BRANCH   2   3
ATOM      3  C   UNL     1     -10.389  -3.472   8.752  1.00  0.00     0.000 C 
BRANCH   3   4
ATOM      4  C   UNL     1     -10.591  -1.949   8.643  1.00  0.00     0.006 C 
BRANCH   4   5
ATOM      5  C   UNL     1      -9.333  -1.119   8.946  1.00  0.00     0.053 C 
BRANCH   5   6
ATOM      6  C   UNL     1      -8.111  -1.690   8.296  1.00  0.00     0.041 C 
ATOM      7  O   UNL     1      -8.002  -1.692   7.042  1.00  0.00    -0.550 OA
ATOM      8  O   UNL     1      -7.075  -2.187   9.078  1.00  0.00    -0.550 OA
ENDBRANCH   5   6
ENDBRANCH   4   5
ENDBRANCH   3   4
ENDBRANCH   2   3
ENDBRANCH   1   2
BRANCH   1   9
ATOM      9  C   UNL     1     -10.580  -5.711   5.583  1.00  0.00     0.000 C 
BRANCH   9  10
ATOM     10  C   UNL     1     -10.119  -7.110   6.033  1.00  0.00    -0.000 C 
BRANCH  10  11
ATOM     11  C   UNL     1      -8.629  -7.157   6.417  1.00  0.00    -0.000 C 
BRANCH  11  12
ATOM     12  C   UNL     1      -8.382  -7.840   7.775  1.00  0.00    -0.000 C 
BRANCH  12  13
ATOM     13  C   UNL     1      -8.069  -6.883   8.939  1.00  0.00    -0.003 C 
ATOM     14  C   UNL     1      -7.319  -5.626   8.498  1.00  0.00     0.004 C 
ENDBRANCH  12  13
ENDBRANCH  11  12
ENDBRANCH  10  11
ENDBRANCH   9  10
ENDBRANCH   1   9
TORSDOF 10
ENDMDL
MODEL 5
REMARK VINA RESULT:    -2.857     20.330     21.857
REMARK INTER + INTRA:          -5.876
REMARK INTER:                  -5.019
REMARK INTRA:                  -0.856
REMARK UNBOUND:                -1.349
REMARK SMILES CCCCCCCCCCCC(=O)[O-]
REMARK SMILES IDX 7 1 8 2 9 3 10 4 11 5 12 6 13 7 14 8 6 9 5 10 4 11 3 12 2 13
REMARK SMILES IDX 1 14
REMARK H PARENT
REMARK Flexibility Score: inf
ROOT
ATOM      1  C   UNL     1       8.671  -4.622  -7.855  1.00  0.00     0.000 C 
ENDROOT
BRANCH   1   2
ATOM      2  C   UNL     1       8.270  -4.749  -6.379  1.00  0.00     0.000 C 
BRANCH   2   3
ATOM      3  C   UNL     1       7.597  -6.101  -6.106  1.00  0.00     0.000 C 
BRANCH   3   4
ATOM      4  C   UNL     1       6.852  -6.658  -7.335  1.00  0.00     0.006 C 
BRANCH   4   5
ATOM      5  C   UNL     1       5.336  -6.818  -7.140  1.00  0.00     0.053 C 
BRANCH   5   6
ATOM      6  C   UNL     1       4.864  -6.195  -5.863  1.00  0.00     0.041 C 
ATOM      7  O   UNL     1       4.565  -6.919  -4.877  1.00  0.00    -0.550 OA
ATOM      8  O   UNL     1       4.786  -4.812  -5.749  1.00  0.00    -0.550 OA
ENDBRANCH   5   6
ENDBRANCH   4   5
ENDBRANCH   3   4
ENDBRANCH   2   3
ENDBRANCH   1   2
BRANCH   1   9
ATOM      9  C   UNL     1       7.834  -3.580  -8.621  1.00  0.00     0.000 C 
BRANCH   9  10
ATOM     10  C   UNL     1       7.387  -4.003 -10.033  1.00  0.00    -0.000 C 
BRANCH  10  11
ATOM     11  C   UNL     1       5.911  -4.433 -10.092  1.00  0.00    -0.000 C 
BRANCH  11  12
ATOM     12  C   UNL     1       5.032  -3.698  -9.064  1.00  0.00    -0.000 C 
BRANCH  12  13
ATOM     13  C   UNL     1       3.748  -3.070  -9.634  1.00  0.00    -0.003 C 
ATOM     14  C   UNL     1       3.715  -1.547  -9.503  1.00  0.00     0.004 C 
ENDBRANCH  12  13
ENDBRANCH  11  12
ENDBRANCH  10  11
ENDBRANCH   9  10
ENDBRANCH   1   9
TORSDOF 10
ENDMDL
MODEL 6
REMARK VINA RESULT:    -2.855     20.382     21.868
REMARK INTER + INTRA:          -5.873
REMARK INTER:                  -4.777
REMARK INTRA:                  -1.097
REMARK UNBOUND:                -1.349
REMARK SMILES CCCCCCCCCCCC(=O)[O-]
REMARK SMILES IDX 7 1 8 2 9 3 10 4 11 5 12 6 13 7 14 8 6 9 5 10 4 11 3 12 2 13
REMARK SMILES IDX 1 14
REMARK H PARENT
REMARK Flexibility Score: inf
ROOT
ATOM      1  C   UNL     1       5.366  -5.304  -6.433  1.00  0.00     0.000 C 
ENDROOT
BRANCH   1   2
ATOM      2  C   UNL     1       5.292  -5.228  -7.965  1.00  0.00     0.000 C 
BRANCH   2   3
ATOM      3  C   UNL     1       6.342  -4.253  -8.517  1.00  0.00     0.000 C 
BRANCH   3   4
ATOM      4  C   UNL     1       5.913  -3.599  -9.844  1.00  0.00     0.006 C 
BRANCH   4   5
ATOM      5  C   UNL     1       4.393  -3.441 -10.010  1.00  0.00     0.053 C 
BRANCH   5   6
ATOM      6  C   UNL     1       3.908  -2.110  -9.525  1.00  0.00     0.041 C 
ATOM      7  O   UNL     1       3.072  -2.044  -8.587  1.00  0.00    -0.550 OA
ATOM      8  O   UNL     1       4.407  -0.941 -10.087  1.00  0.00    -0.550 OA
ENDBRANCH   5   6
ENDBRANCH   4   5
ENDBRANCH   3   4
ENDBRANCH   2   3
ENDBRANCH   1   2
BRANCH   1   9
ATOM      9  C   UNL     1       5.037  -6.704  -5.881  1.00  0.00     0.000 C 
BRANCH   9  10
ATOM     10  C   UNL     1       6.252  -7.621  -5.648  1.00  0.00    -0.000 C 
BRANCH  10  11
ATOM     11  C   UNL     1       6.499  -8.598  -6.811  1.00  0.00    -0.000 C 
BRANCH  11  12
ATOM     12  C   UNL     1       7.958  -8.584  -7.304  1.00  0.00    -0.000 C 
BRANCH  12  13
ATOM     13  C   UNL     1       8.303  -7.452  -8.287  1.00  0.00    -0.003 C 
ATOM     14  C   UNL     1       7.620  -7.607  -9.646  1.00  0.00     0.004 C 
ENDBRANCH  12  13
ENDBRANCH  11  12
ENDBRANCH  10  11
ENDBRANCH   9  10
ENDBRANCH   1   9
TORSDOF 10
ENDMDL
MODEL 7
REMARK VINA RESULT:    -2.836     20.157     21.711
REMARK INTER + INTRA:          -5.843
REMARK INTER:                  -4.668
REMARK INTRA:                  -1.175
REMARK UNBOUND:                -1.349
REMARK SMILES CCCCCCCCCCCC(=O)[O-]
REMARK SMILES IDX 7 1 8 2 9 3 10 4 11 5 12 6 13 7 14 8 6 9 5 10 4 11 3 12 2 13
REMARK SMILES IDX 1 14
REMARK H PARENT
REMARK Flexibility Score: inf
ROOT
ATOM      1  C   UNL     1       5.016  -6.462  -6.655  1.00  0.00     0.000 C 
ENDROOT
BRANCH   1   2
ATOM      2  C   UNL     1       4.864  -7.098  -8.044  1.00  0.00     0.000 C 
BRANCH   2   3
ATOM      3  C   UNL     1       5.279  -6.114  -9.147  1.00  0.00     0.000 C 
BRANCH   3   4
ATOM      4  C   UNL     1       4.996  -4.646  -8.777  1.00  0.00     0.006 C 
BRANCH   4   5
ATOM      5  C   UNL     1       4.206  -3.865  -9.839  1.00  0.00     0.053 C 
BRANCH   5   6
ATOM      6  C   UNL     1       4.065  -2.417  -9.486  1.00  0.00     0.041 C 
ATOM      7  O   UNL     1       4.802  -1.556 -10.033  1.00  0.00    -0.550 OA
ATOM      8  O   UNL     1       3.094  -2.013  -8.577  1.00  0.00    -0.550 OA
ENDBRANCH   5   6
ENDBRANCH   4   5
ENDBRANCH   3   4
ENDBRANCH   2   3
ENDBRANCH   1   2
BRANCH   1   9
ATOM      9  C   UNL     1       5.748  -7.372  -5.651  1.00  0.00     0.000 C 
BRANCH   9  10
ATOM     10  C   UNL     1       6.826  -8.290  -6.259  1.00  0.00    -0.000 C 
BRANCH  10  11
ATOM     11  C   UNL     1       8.174  -7.578  -6.467  1.00  0.00    -0.000 C 
BRANCH  11  12
ATOM     12  C   UNL     1       8.447  -6.492  -5.411  1.00  0.00    -0.000 C 
BRANCH  12  13
ATOM     13  C   UNL     1       8.592  -5.064  -5.966  1.00  0.00    -0.003 C 
ATOM     14  C   UNL     1       8.503  -5.001  -7.491  1.00  0.00     0.004 C 
ENDBRANCH  12  13
ENDBRANCH  11  12
ENDBRANCH  10  11
ENDBRANCH   9  10
ENDBRANCH   1   9
TORSDOF 10
ENDMDL
MODEL 8
REMARK VINA RESULT:    -2.619      1.981      4.466
REMARK INTER + INTRA:          -5.498
REMARK INTER:                  -4.385
REMARK INTRA:                  -1.114
REMARK UNBOUND:                -1.349
REMARK SMILES CCCCCCCCCCCC(=O)[O-]
REMARK SMILES IDX 7 1 8 2 9 3 10 4 11 5 12 6 13 7 14 8 6 9 5 10 4 11 3 12 2 13
REMARK SMILES IDX 1 14
REMARK H PARENT
REMARK Flexibility Score: inf
ROOT
ATOM      1  C   UNL     1      -8.556  -4.628   7.022  1.00  0.00     0.000 C 
ENDROOT
BRANCH   1   2
ATOM      2  C   UNL     1      -7.778  -5.946   7.145  1.00  0.00     0.000 C 
BRANCH   2   3
ATOM      3  C   UNL     1      -8.130  -6.670   8.453  1.00  0.00     0.000 C 
BRANCH   3   4
ATOM      4  C   UNL     1      -7.684  -5.893   9.706  1.00  0.00     0.006 C 
BRANCH   4   5
ATOM      5  C   UNL     1      -6.160  -5.786   9.877  1.00  0.00     0.053 C 
BRANCH   5   6
ATOM      6  C   UNL     1      -5.664  -4.390   9.656  1.00  0.00     0.041 C 
ATOM      7  O   UNL     1      -4.440  -4.176   9.459  1.00  0.00    -0.550 OA
ATOM      8  O   UNL     1      -6.561  -3.328   9.632  1.00  0.00    -0.550 OA
ENDBRANCH   5   6
ENDBRANCH   4   5
ENDBRANCH   3   4
ENDBRANCH   2   3
ENDBRANCH   1   2
BRANCH   1   9
ATOM      9  C   UNL     1      -9.973  -4.814   6.450  1.00  0.00     0.000 C 
BRANCH   9  10
ATOM     10  C   UNL     1     -11.124  -4.508   7.428  1.00  0.00    -0.000 C 
BRANCH  10  11
ATOM     11  C   UNL     1     -10.647  -3.821   8.720  1.00  0.00    -0.000 C 
BRANCH  11  12
ATOM     12  C   UNL     1     -11.093  -2.350   8.814  1.00  0.00    -0.000 C 
BRANCH  12  13
ATOM     13  C   UNL     1      -9.980  -1.353   9.180  1.00  0.00    -0.003 C 
ATOM     14  C   UNL     1      -8.883  -1.262   8.119  1.00  0.00     0.004 C 
ENDBRANCH  12  13
ENDBRANCH  11  12
ENDBRANCH  10  11
ENDBRANCH   9  10
ENDBRANCH   1   9
TORSDOF 10
ENDMDL
MODEL 9
REMARK VINA RESULT:    -2.609     14.464     16.434
REMARK INTER + INTRA:          -5.483
REMARK INTER:                  -4.476
REMARK INTRA:                  -1.007
REMARK UNBOUND:                -1.349
REMARK SMILES CCCCCCCCCCCC(=O)[O-]
REMARK SMILES IDX 7 1 8 2 9 3 10 4 11 5 12 6 13 7 14 8 6 9 5 10 4 11 3 12 2 13
REMARK SMILES IDX 1 14
REMARK H PARENT
REMARK Flexibility Score: inf
ROOT
ATOM      1  C   UNL     1       8.457  -7.251   5.078  1.00  0.00     0.000 C 
ENDROOT
BRANCH   1   2
ATOM      2  C   UNL     1       7.306  -7.528   4.100  1.00  0.00     0.000 C 
BRANCH   2   3
ATOM      3  C   UNL     1       6.213  -6.457   4.222  1.00  0.00     0.000 C 
BRANCH   3   4
ATOM      4  C   UNL     1       4.966  -6.775   3.374  1.00  0.00     0.006 C 
BRANCH   4   5
ATOM      5  C   UNL     1       4.686  -8.276   3.198  1.00  0.00     0.053 C 
BRANCH   5   6
ATOM      6  C   UNL     1       3.258  -8.544   2.835  1.00  0.00     0.041 C 
ATOM      7  O   UNL     1       2.451  -8.963   3.705  1.00  0.00    -0.550 OA
ATOM      8  O   UNL     1       2.810  -8.297   1.542  1.00  0.00    -0.550 OA
ENDBRANCH   5   6
ENDBRANCH   4   5
ENDBRANCH   3   4
ENDBRANCH   2   3
ENDBRANCH   1   2
BRANCH   1   9
ATOM      9  C   UNL     1       8.522  -5.781   5.533  1.00  0.00     0.000 C 
BRANCH   9  10
ATOM     10  C   UNL     1       9.124  -5.551   6.932  1.00  0.00    -0.000 C 
BRANCH  10  11
ATOM     11  C   UNL     1       8.768  -6.666   7.931  1.00  0.00    -0.000 C 
BRANCH  11  12
ATOM     12  C   UNL     1       7.528  -6.335   8.781  1.00  0.00    -0.000 C 
BRANCH  12  13
ATOM     13  C   UNL     1       6.286  -7.195   8.488  1.00  0.00    -0.003 C 
ATOM     14  C   UNL     1       6.631  -8.573   7.923  1.00  0.00     0.004 C 
ENDBRANCH  12  13
ENDBRANCH  11  12
ENDBRANCH  10  11
ENDBRANCH   9  10
ENDBRANCH   1   9
TORSDOF 10
ENDMDL
