MODEL 1
REMARK VINA RESULT:    -6.991      0.000      0.000
REMARK INTER + INTRA:          -8.480
REMARK INTER:                  -8.217
REMARK INTRA:                  -0.263
REMARK UNBOUND:                -0.263
REMARK SMILES O=c1cc(-c2ccc(O)c(O)c2)oc2cc(O)cc(O)c12
REMARK SMILES IDX 4 1 3 2 2 3 1 4 21 5 19 6 18 7 16 8 15 9 14 10 13 11 5 12
REMARK SMILES IDX 6 13 7 14 8 15 12 16 10 17 9 18 11 20 20 22 17 24
REMARK H PARENT 9 19 11 21 20 23 17 25
REMARK Flexibility Score: inf
ROOT
ATOM      1  C   UNL     1       5.289  15.892  18.661  1.00  0.00     0.138 A 
ATOM      2  C   UNL     1       4.789  17.153  18.312  1.00  0.00     0.100 A 
ATOM      3  C   UNL     1       4.337  17.380  17.010  1.00  0.00     0.197 A 
ATOM      4  O   UNL     1       3.836  18.503  16.744  1.00  0.00    -0.289 OA
ATOM      5  C   UNL     1       4.417  16.346  16.048  1.00  0.00     0.107 A 
ATOM      6  C   UNL     1       4.024  16.476  14.682  1.00  0.00     0.134 A 
ATOM      7  C   UNL     1       4.040  15.350  13.850  1.00  0.00     0.093 A 
ATOM      8  C   UNL     1       4.491  14.113  14.319  1.00  0.00     0.123 A 
ATOM      9  C   UNL     1       4.928  13.990  15.635  1.00  0.00     0.094 A 
ATOM     10  C   UNL     1       4.891  15.086  16.500  1.00  0.00     0.146 A 
ATOM     11  O   UNL     1       5.303  14.922  17.752  1.00  0.00    -0.456 OA
ENDROOT
BRANCH   1  12
ATOM     12  C   UNL     1       5.785  15.596  20.030  1.00  0.00     0.021 A 
ATOM     13  C   UNL     1       4.933  15.092  21.031  1.00  0.00     0.016 A 
ATOM     14  C   UNL     1       5.423  14.830  22.313  1.00  0.00     0.051 A 
ATOM     15  C   UNL     1       6.767  15.076  22.619  1.00  0.00     0.157 A 
ATOM     16  C   UNL     1       7.129  15.853  20.350  1.00  0.00     0.062 A 
ATOM     17  C   UNL     1       7.622  15.590  21.636  1.00  0.00     0.158 A 
BRANCH  15  18
ATOM     18  O   UNL     1       7.259  14.816  23.897  1.00  0.00    -0.504 OA
ATOM     19  H   UNL     1       6.794  15.165  24.726  1.00  0.00     0.293 HD
ENDBRANCH  15  18
BRANCH  17  20
ATOM     20  O   UNL     1       8.958  15.838  21.945  1.00  0.00    -0.504 OA
ATOM     21  H   UNL     1       9.711  15.474  21.373  1.00  0.00     0.293 HD
ENDBRANCH  17  20
ENDBRANCH   1  12
BRANCH   6  22
ATOM     22  O   UNL     1       3.638  17.683  14.091  1.00  0.00    -0.507 OA
ATOM     23  H   UNL     1       4.144  18.154  13.358  1.00  0.00     0.293 HD
ENDBRANCH   6  22
BRANCH   8  24
ATOM     24  O   UNL     1       4.517  13.001  13.479  1.00  0.00    -0.508 OA
ATOM     25  H   UNL     1       3.665  12.593  13.113  1.00  0.00     0.293 HD
ENDBRANCH   8  24
TORSDOF 5
ENDMDL
MODEL 2
REMARK VINA RESULT:    -6.983      1.298      3.002
REMARK INTER + INTRA:          -8.471
REMARK INTER:                  -8.195
REMARK INTRA:                  -0.275
REMARK UNBOUND:                -0.263
REMARK SMILES O=c1cc(-c2ccc(O)c(O)c2)oc2cc(O)cc(O)c12
REMARK SMILES IDX 4 1 3 2 2 3 1 4 21 5 19 6 18 7 16 8 15 9 14 10 13 11 5 12
REMARK SMILES IDX 6 13 7 14 8 15 12 16 10 17 9 18 11 20 20 22 17 24
REMARK H PARENT 9 19 11 21 20 23 17 25
REMARK Flexibility Score: inf
ROOT
ATOM      1  C   UNL     1       5.812  15.188  18.044  1.00  0.00     0.138 A 
ATOM      2  C   UNL     1       5.871  13.858  17.608  1.00  0.00     0.100 A 
ATOM      3  C   UNL     1       5.360  13.519  16.354  1.00  0.00     0.197 A 
ATOM      4  O   UNL     1       5.484  12.328  15.966  1.00  0.00    -0.289 OA
ATOM      5  C   UNL     1       4.759  14.514  15.548  1.00  0.00     0.107 A 
ATOM      6  C   UNL     1       4.168  14.275  14.270  1.00  0.00     0.134 A 
ATOM      7  C   UNL     1       3.708  15.358  13.511  1.00  0.00     0.093 A 
ATOM      8  C   UNL     1       3.761  16.663  14.009  1.00  0.00     0.123 A 
ATOM      9  C   UNL     1       4.285  16.898  15.277  1.00  0.00     0.094 A 
ATOM     10  C   UNL     1       4.786  15.843  16.044  1.00  0.00     0.146 A 
ATOM     11  O   UNL     1       5.291  16.113  17.244  1.00  0.00    -0.456 OA
ENDROOT
BRANCH   1  12
ATOM     12  C   UNL     1       6.339  15.605  19.369  1.00  0.00     0.021 A 
ATOM     13  C   UNL     1       7.161  16.738  19.514  1.00  0.00     0.016 A 
ATOM     14  C   UNL     1       7.651  17.102  20.772  1.00  0.00     0.051 A 
ATOM     15  C   UNL     1       7.335  16.337  21.901  1.00  0.00     0.157 A 
ATOM     16  C   UNL     1       6.038  14.835  20.507  1.00  0.00     0.062 A 
ATOM     17  C   UNL     1       6.528  15.201  21.768  1.00  0.00     0.158 A 
BRANCH  15  18
ATOM     18  O   UNL     1       7.821  16.698  23.157  1.00  0.00    -0.504 OA
ATOM     19  H   UNL     1       7.987  16.009  23.879  1.00  0.00     0.293 HD
ENDBRANCH  15  18
BRANCH  17  20
ATOM     20  O   UNL     1       6.219  14.439  22.894  1.00  0.00    -0.504 OA
ATOM     21  H   UNL     1       5.309  14.008  23.008  1.00  0.00     0.293 HD
ENDBRANCH  17  20
ENDBRANCH   1  12
BRANCH   6  22
ATOM     22  O   UNL     1       3.990  13.004  13.716  1.00  0.00    -0.507 OA
ATOM     23  H   UNL     1       3.125  12.660  13.329  1.00  0.00     0.293 HD
ENDBRANCH   6  22
BRANCH   8  24
ATOM     24  O   UNL     1       3.285  17.733  13.253  1.00  0.00    -0.508 OA
ATOM     25  H   UNL     1       2.293  17.912  13.154  1.00  0.00     0.293 HD
ENDBRANCH   8  24
TORSDOF 5
ENDMDL
MODEL 3
REMARK VINA RESULT:    -6.924      1.229      2.847
REMARK INTER + INTRA:          -8.401
REMARK INTER:                  -8.137
REMARK INTRA:                  -0.264
REMARK UNBOUND:                -0.263
REMARK SMILES O=c1cc(-c2ccc(O)c(O)c2)oc2cc(O)cc(O)c12
REMARK SMILES IDX 4 1 3 2 2 3 1 4 21 5 19 6 18 7 16 8 15 9 14 10 13 11 5 12
REMARK SMILES IDX 6 13 7 14 8 15 12 16 10 17 9 18 11 20 20 22 17 24
REMARK H PARENT 9 19 11 21 20 23 17 25
REMARK Flexibility Score: inf
ROOT
ATOM      1  C   UNL     1       5.381  15.810  18.637  1.00  0.00     0.138 A 
ATOM      2  C   UNL     1       5.395  14.835  17.631  1.00  0.00     0.100 A 
ATOM      3  C   UNL     1       4.939  15.156  16.351  1.00  0.00     0.197 A 
ATOM      4  O   UNL     1       5.023  14.278  15.453  1.00  0.00    -0.289 OA
ATOM      5  C   UNL     1       4.439  16.454  16.088  1.00  0.00     0.107 A 
ATOM      6  C   UNL     1       3.912  16.882  14.832  1.00  0.00     0.134 A 
ATOM      7  C   UNL     1       3.554  18.224  14.657  1.00  0.00     0.093 A 
ATOM      8  C   UNL     1       3.647  19.139  15.709  1.00  0.00     0.123 A 
ATOM      9  C   UNL     1       4.108  18.718  16.953  1.00  0.00     0.094 A 
ATOM     10  C   UNL     1       4.507  17.393  17.150  1.00  0.00     0.146 A 
ATOM     11  O   UNL     1       4.956  17.036  18.349  1.00  0.00    -0.456 OA
ENDROOT
BRANCH   1  12
ATOM     12  C   UNL     1       5.851  15.522  20.015  1.00  0.00     0.021 A 
ATOM     13  C   UNL     1       4.988  14.999  20.997  1.00  0.00     0.016 A 
ATOM     14  C   UNL     1       5.455  14.745  22.290  1.00  0.00     0.051 A 
ATOM     15  C   UNL     1       6.786  15.018  22.625  1.00  0.00     0.157 A 
ATOM     16  C   UNL     1       7.183  15.805  20.366  1.00  0.00     0.062 A 
ATOM     17  C   UNL     1       7.652  15.550  21.663  1.00  0.00     0.158 A 
BRANCH  15  18
ATOM     18  O   UNL     1       7.255  14.765  23.914  1.00  0.00    -0.504 OA
ATOM     19  H   UNL     1       6.624  14.696  24.703  1.00  0.00     0.293 HD
ENDBRANCH  15  18
BRANCH  17  20
ATOM     20  O   UNL     1       8.976  15.824  22.002  1.00  0.00    -0.504 OA
ATOM     21  H   UNL     1       9.308  15.735  22.956  1.00  0.00     0.293 HD
ENDBRANCH  17  20
ENDBRANCH   1  12
BRANCH   6  22
ATOM     22  O   UNL     1       3.698  16.031  13.744  1.00  0.00    -0.507 OA
ATOM     23  H   UNL     1       2.859  15.495  13.587  1.00  0.00     0.293 HD
ENDBRANCH   6  22
BRANCH   8  24
ATOM     24  O   UNL     1       3.273  20.469  15.529  1.00  0.00    -0.508 OA
ATOM     25  H   UNL     1       3.304  21.136  16.291  1.00  0.00     0.293 HD
ENDBRANCH   8  24
TORSDOF 5
ENDMDL
MODEL 4
REMARK VINA RESULT:    -6.919      1.841      7.182
REMARK INTER + INTRA:          -8.395
REMARK INTER:                  -8.129
REMARK INTRA:                  -0.267
REMARK UNBOUND:                -0.263
REMARK SMILES O=c1cc(-c2ccc(O)c(O)c2)oc2cc(O)cc(O)c12
REMARK SMILES IDX 4 1 3 2 2 3 1 4 21 5 19 6 18 7 16 8 15 9 14 10 13 11 5 12
REMARK SMILES IDX 6 13 7 14 8 15 12 16 10 17 9 18 11 20 20 22 17 24
REMARK H PARENT 9 19 11 21 20 23 17 25
REMARK Flexibility Score: inf
ROOT
ATOM      1  C   UNL     1       4.378  16.775  18.291  1.00  0.00     0.138 A 
ATOM      2  C   UNL     1       3.331  16.144  18.975  1.00  0.00     0.100 A 
ATOM      3  C   UNL     1       3.575  15.546  20.213  1.00  0.00     0.197 A 
ATOM      4  O   UNL     1       2.601  15.042  20.830  1.00  0.00    -0.289 OA
ATOM      5  C   UNL     1       4.884  15.555  20.751  1.00  0.00     0.107 A 
ATOM      6  C   UNL     1       5.258  14.942  21.985  1.00  0.00     0.134 A 
ATOM      7  C   UNL     1       6.558  15.117  22.475  1.00  0.00     0.093 A 
ATOM      8  C   UNL     1       7.513  15.830  21.746  1.00  0.00     0.123 A 
ATOM      9  C   UNL     1       7.172  16.385  20.516  1.00  0.00     0.094 A 
ATOM     10  C   UNL     1       5.874  16.259  20.017  1.00  0.00     0.146 A 
ATOM     11  O   UNL     1       5.586  16.816  18.845  1.00  0.00    -0.456 OA
ENDROOT
BRANCH   1  12
ATOM     12  C   UNL     1       4.175  17.425  16.971  1.00  0.00     0.021 A 
ATOM     13  C   UNL     1       4.446  18.792  16.771  1.00  0.00     0.016 A 
ATOM     14  C   UNL     1       4.237  19.381  15.521  1.00  0.00     0.051 A 
ATOM     15  C   UNL     1       3.747  18.617  14.454  1.00  0.00     0.157 A 
ATOM     16  C   UNL     1       3.670  16.670  15.898  1.00  0.00     0.062 A 
ATOM     17  C   UNL     1       3.461  17.260  14.643  1.00  0.00     0.158 A 
BRANCH  15  18
ATOM     18  O   UNL     1       3.538  19.201  13.205  1.00  0.00    -0.504 OA
ATOM     19  H   UNL     1       3.549  18.652  12.355  1.00  0.00     0.293 HD
ENDBRANCH  15  18
BRANCH  17  20
ATOM     20  O   UNL     1       2.970  16.504  13.581  1.00  0.00    -0.504 OA
ATOM     21  H   UNL     1       3.044  16.825  12.622  1.00  0.00     0.293 HD
ENDBRANCH  17  20
ENDBRANCH   1  12
BRANCH   6  22
ATOM     22  O   UNL     1       4.406  14.140  22.749  1.00  0.00    -0.507 OA
ATOM     23  H   UNL     1       3.401  14.120  22.663  1.00  0.00     0.293 HD
ENDBRANCH   6  22
BRANCH   8  24
ATOM     24  O   UNL     1       8.810  15.985  22.234  1.00  0.00    -0.508 OA
ATOM     25  H   UNL     1       9.510  15.263  22.115  1.00  0.00     0.293 HD
ENDBRANCH   8  24
TORSDOF 5
ENDMDL
MODEL 5
REMARK VINA RESULT:    -6.666      1.788      6.962
REMARK INTER + INTRA:          -8.098
REMARK INTER:                  -7.826
REMARK INTRA:                  -0.272
REMARK UNBOUND:                -0.263
REMARK SMILES O=c1cc(-c2ccc(O)c(O)c2)oc2cc(O)cc(O)c12
REMARK SMILES IDX 4 1 3 2 2 3 1 4 21 5 19 6 18 7 16 8 15 9 14 10 13 11 5 12
REMARK SMILES IDX 6 13 7 14 8 15 12 16 10 17 9 18 11 20 20 22 17 24
REMARK H PARENT 9 19 11 21 20 23 17 25
REMARK Flexibility Score: inf
ROOT
ATOM      1  C   UNL     1       4.975  16.256  17.293  1.00  0.00     0.138 A 
ATOM      2  C   UNL     1       6.057  16.973  17.824  1.00  0.00     0.100 A 
ATOM      3  C   UNL     1       6.469  16.730  19.135  1.00  0.00     0.197 A 
ATOM      4  O   UNL     1       7.481  17.344  19.562  1.00  0.00    -0.289 OA
ATOM      5  C   UNL     1       5.772  15.787  19.928  1.00  0.00     0.107 A 
ATOM      6  C   UNL     1       6.078  15.488  21.290  1.00  0.00     0.134 A 
ATOM      7  C   UNL     1       5.395  14.451  21.938  1.00  0.00     0.093 A 
ATOM      8  C   UNL     1       4.377  13.745  21.292  1.00  0.00     0.123 A 
ATOM      9  C   UNL     1       4.035  14.066  19.982  1.00  0.00     0.094 A 
ATOM     10  C   UNL     1       4.722  15.071  19.296  1.00  0.00     0.146 A 
ATOM     11  O   UNL     1       4.373  15.337  18.041  1.00  0.00    -0.456 OA
ENDROOT
BRANCH   1  12
ATOM     12  C   UNL     1       4.494  16.475  15.906  1.00  0.00     0.021 A 
ATOM     13  C   UNL     1       4.317  15.405  15.007  1.00  0.00     0.016 A 
ATOM     14  C   UNL     1       3.872  15.641  13.704  1.00  0.00     0.051 A 
ATOM     15  C   UNL     1       3.604  16.946  13.274  1.00  0.00     0.157 A 
ATOM     16  C   UNL     1       4.236  17.784  15.460  1.00  0.00     0.062 A 
ATOM     17  C   UNL     1       3.788  18.020  14.153  1.00  0.00     0.158 A 
BRANCH  15  18
ATOM     18  O   UNL     1       3.159  17.184  11.974  1.00  0.00    -0.504 OA
ATOM     19  H   UNL     1       3.673  17.781  11.338  1.00  0.00     0.293 HD
ENDBRANCH  15  18
BRANCH  17  20
ATOM     20  O   UNL     1       3.525  19.318  13.720  1.00  0.00    -0.504 OA
ATOM     21  H   UNL     1       4.130  20.093  13.969  1.00  0.00     0.293 HD
ENDBRANCH  17  20
ENDBRANCH   1  12
BRANCH   6  22
ATOM     22  O   UNL     1       7.018  16.188  22.052  1.00  0.00    -0.507 OA
ATOM     23  H   UNL     1       7.262  15.973  23.006  1.00  0.00     0.293 HD
ENDBRANCH   6  22
BRANCH   8  24
ATOM     24  O   UNL     1       3.692  12.725  21.951  1.00  0.00    -0.508 OA
ATOM     25  H   UNL     1       2.756  12.452  21.675  1.00  0.00     0.293 HD
ENDBRANCH   8  24
TORSDOF 5
ENDMDL
MODEL 6
REMARK VINA RESULT:    -6.424      4.050      6.008
REMARK INTER + INTRA:          -7.814
REMARK INTER:                  -7.510
REMARK INTRA:                  -0.304
REMARK UNBOUND:                -0.263
REMARK SMILES O=c1cc(-c2ccc(O)c(O)c2)oc2cc(O)cc(O)c12
REMARK SMILES IDX 4 1 3 2 2 3 1 4 21 5 19 6 18 7 16 8 15 9 14 10 13 11 5 12
REMARK SMILES IDX 6 13 7 14 8 15 12 16 10 17 9 18 11 20 20 22 17 24
REMARK H PARENT 9 19 11 21 20 23 17 25
REMARK Flexibility Score: inf
ROOT
ATOM      1  C   UNL     1       4.501  12.583  19.196  1.00  0.00     0.138 A 
ATOM      2  C   UNL     1       4.506  12.986  17.854  1.00  0.00     0.100 A 
ATOM      3  C   UNL     1       5.118  14.189  17.497  1.00  0.00     0.197 A 
ATOM      4  O   UNL     1       5.161  14.493  16.277  1.00  0.00    -0.289 OA
ATOM      5  C   UNL     1       5.700  15.005  18.496  1.00  0.00     0.107 A 
ATOM      6  C   UNL     1       6.316  16.270  18.254  1.00  0.00     0.134 A 
ATOM      7  C   UNL     1       6.962  16.934  19.304  1.00  0.00     0.093 A 
ATOM      8  C   UNL     1       6.961  16.408  20.598  1.00  0.00     0.123 A 
ATOM      9  C   UNL     1       6.316  15.202  20.855  1.00  0.00     0.094 A 
ATOM     10  C   UNL     1       5.693  14.497  19.822  1.00  0.00     0.146 A 
ATOM     11  O   UNL     1       5.101  13.342  20.106  1.00  0.00    -0.456 OA
ENDROOT
BRANCH   1  12
ATOM     12  C   UNL     1       3.862  11.315  19.632  1.00  0.00     0.021 A 
ATOM     13  C   UNL     1       3.812  10.186  18.791  1.00  0.00     0.016 A 
ATOM     14  C   UNL     1       3.197   9.007  19.223  1.00  0.00     0.051 A 
ATOM     15  C   UNL     1       2.616   8.940  20.495  1.00  0.00     0.157 A 
ATOM     16  C   UNL     1       3.264  11.241  20.902  1.00  0.00     0.062 A 
ATOM     17  C   UNL     1       2.648  10.058  21.336  1.00  0.00     0.158 A 
BRANCH  15  18
ATOM     18  O   UNL     1       2.002   7.765  20.929  1.00  0.00    -0.504 OA
ATOM     19  H   UNL     1       1.356   7.761  21.708  1.00  0.00     0.293 HD
ENDBRANCH  15  18
BRANCH  17  20
ATOM     20  O   UNL     1       2.064   9.989  22.599  1.00  0.00    -0.504 OA
ATOM     21  H   UNL     1       1.119  10.317  22.766  1.00  0.00     0.293 HD
ENDBRANCH  17  20
ENDBRANCH   1  12
BRANCH   6  22
ATOM     22  O   UNL     1       6.300  16.923  17.018  1.00  0.00    -0.507 OA
ATOM     23  H   UNL     1       6.991  17.589  16.709  1.00  0.00     0.293 HD
ENDBRANCH   6  22
BRANCH   8  24
ATOM     24  O   UNL     1       7.593  17.085  21.640  1.00  0.00    -0.508 OA
ATOM     25  H   UNL     1       8.534  17.449  21.542  1.00  0.00     0.293 HD
ENDBRANCH   8  24
TORSDOF 5
ENDMDL
MODEL 7
REMARK VINA RESULT:    -6.340      3.176      7.336
REMARK INTER + INTRA:          -7.714
REMARK INTER:                  -7.437
REMARK INTRA:                  -0.278
REMARK UNBOUND:                -0.263
REMARK SMILES O=c1cc(-c2ccc(O)c(O)c2)oc2cc(O)cc(O)c12
REMARK SMILES IDX 4 1 3 2 2 3 1 4 21 5 19 6 18 7 16 8 15 9 14 10 13 11 5 12
REMARK SMILES IDX 6 13 7 14 8 15 12 16 10 17 9 18 11 20 20 22 17 24
REMARK H PARENT 9 19 11 21 20 23 17 25
REMARK Flexibility Score: inf
ROOT
ATOM      1  C   UNL     1       4.180  15.348  15.668  1.00  0.00     0.138 A 
ATOM      2  C   UNL     1       4.854  14.193  15.250  1.00  0.00     0.100 A 
ATOM      3  C   UNL     1       5.022  13.131  16.140  1.00  0.00     0.197 A 
ATOM      4  O   UNL     1       5.576  12.084  15.716  1.00  0.00    -0.289 OA
ATOM      5  C   UNL     1       4.539  13.242  17.466  1.00  0.00     0.107 A 
ATOM      6  C   UNL     1       4.689  12.240  18.471  1.00  0.00     0.134 A 
ATOM      7  C   UNL     1       4.067  12.412  19.714  1.00  0.00     0.093 A 
ATOM      8  C   UNL     1       3.352  13.576  20.007  1.00  0.00     0.123 A 
ATOM      9  C   UNL     1       3.246  14.583  19.051  1.00  0.00     0.094 A 
ATOM     10  C   UNL     1       3.825  14.426  17.790  1.00  0.00     0.146 A 
ATOM     11  O   UNL     1       3.689  15.405  16.901  1.00  0.00    -0.456 OA
ENDROOT
BRANCH   1  12
ATOM     12  C   UNL     1       3.975  16.508  14.763  1.00  0.00     0.021 A 
ATOM     13  C   UNL     1       4.098  17.833  15.221  1.00  0.00     0.016 A 
ATOM     14  C   UNL     1       3.891  18.907  14.350  1.00  0.00     0.051 A 
ATOM     15  C   UNL     1       3.549  18.674  13.012  1.00  0.00     0.157 A 
ATOM     16  C   UNL     1       3.618  16.285  13.421  1.00  0.00     0.062 A 
ATOM     17  C   UNL     1       3.411  17.361  12.547  1.00  0.00     0.158 A 
BRANCH  15  18
ATOM     18  O   UNL     1       3.342  19.743  12.141  1.00  0.00    -0.504 OA
ATOM     19  H   UNL     1       3.434  19.635  11.139  1.00  0.00     0.293 HD
ENDBRANCH  15  18
BRANCH  17  20
ATOM     20  O   UNL     1       3.066  17.134  11.216  1.00  0.00    -0.504 OA
ATOM     21  H   UNL     1       3.739  16.777  10.547  1.00  0.00     0.293 HD
ENDBRANCH  17  20
ENDBRANCH   1  12
BRANCH   6  22
ATOM     22  O   UNL     1       5.452  11.080  18.310  1.00  0.00    -0.507 OA
ATOM     23  H   UNL     1       5.134  10.240  17.851  1.00  0.00     0.293 HD
ENDBRANCH   6  22
BRANCH   8  24
ATOM     24  O   UNL     1       2.749  13.745  21.253  1.00  0.00    -0.508 OA
ATOM     25  H   UNL     1       3.210  14.251  21.999  1.00  0.00     0.293 HD
ENDBRANCH   8  24
TORSDOF 5
ENDMDL
MODEL 8
REMARK VINA RESULT:    -6.331      3.731      4.374
REMARK INTER + INTRA:          -7.704
REMARK INTER:                  -7.408
REMARK INTRA:                  -0.296
REMARK UNBOUND:                -0.263
REMARK SMILES O=c1cc(-c2ccc(O)c(O)c2)oc2cc(O)cc(O)c12
REMARK SMILES IDX 4 1 3 2 2 3 1 4 21 5 19 6 18 7 16 8 15 9 14 10 13 11 5 12
REMARK SMILES IDX 6 13 7 14 8 15 12 16 10 17 9 18 11 20 20 22 17 24
REMARK H PARENT 9 19 11 21 20 23 17 25
REMARK Flexibility Score: inf
ROOT
ATOM      1  C   UNL     1       4.138  15.112  16.391  1.00  0.00     0.138 A 
ATOM      2  C   UNL     1       3.988  16.238  17.210  1.00  0.00     0.100 A 
ATOM      3  C   UNL     1       3.811  17.496  16.630  1.00  0.00     0.197 A 
ATOM      4  O   UNL     1       3.617  18.478  17.393  1.00  0.00    -0.289 OA
ATOM      5  C   UNL     1       3.815  17.626  15.221  1.00  0.00     0.107 A 
ATOM      6  C   UNL     1       3.683  18.863  14.521  1.00  0.00     0.134 A 
ATOM      7  C   UNL     1       3.584  18.857  13.124  1.00  0.00     0.093 A 
ATOM      8  C   UNL     1       3.672  17.665  12.401  1.00  0.00     0.123 A 
ATOM      9  C   UNL     1       3.856  16.459  13.072  1.00  0.00     0.094 A 
ATOM     10  C   UNL     1       3.922  16.429  14.467  1.00  0.00     0.146 A 
ATOM     11  O   UNL     1       4.084  15.255  15.071  1.00  0.00    -0.456 OA
ENDROOT
BRANCH   1  12
ATOM     12  C   UNL     1       4.331  13.751  16.954  1.00  0.00     0.021 A 
ATOM     13  C   UNL     1       3.613  13.309  18.082  1.00  0.00     0.016 A 
ATOM     14  C   UNL     1       3.821  12.027  18.597  1.00  0.00     0.051 A 
ATOM     15  C   UNL     1       4.754  11.170  18.001  1.00  0.00     0.157 A 
ATOM     16  C   UNL     1       5.276  12.888  16.371  1.00  0.00     0.062 A 
ATOM     17  C   UNL     1       5.484  11.601  16.887  1.00  0.00     0.158 A 
BRANCH  15  18
ATOM     18  O   UNL     1       4.964   9.889  18.513  1.00  0.00    -0.504 OA
ATOM     19  H   UNL     1       5.124   9.733  19.500  1.00  0.00     0.293 HD
ENDBRANCH  15  18
BRANCH  17  20
ATOM     20  O   UNL     1       6.416  10.747  16.300  1.00  0.00    -0.504 OA
ATOM     21  H   UNL     1       6.423  10.578  15.300  1.00  0.00     0.293 HD
ENDBRANCH  17  20
ENDBRANCH   1  12
BRANCH   6  22
ATOM     22  O   UNL     1       3.670  20.116  15.142  1.00  0.00    -0.507 OA
ATOM     23  H   UNL     1       4.122  20.942  14.783  1.00  0.00     0.293 HD
ENDBRANCH   6  22
BRANCH   8  24
ATOM     24  O   UNL     1       3.588  17.670  11.009  1.00  0.00    -0.508 OA
ATOM     25  H   UNL     1       3.465  18.531  10.489  1.00  0.00     0.293 HD
ENDBRANCH   8  24
TORSDOF 5
ENDMDL
MODEL 9
REMARK VINA RESULT:    -6.213      4.104      5.556
REMARK INTER + INTRA:          -7.566
REMARK INTER:                  -7.281
REMARK INTRA:                  -0.285
REMARK UNBOUND:                -0.263
REMARK SMILES O=c1cc(-c2ccc(O)c(O)c2)oc2cc(O)cc(O)c12
REMARK SMILES IDX 4 1 3 2 2 3 1 4 21 5 19 6 18 7 16 8 15 9 14 10 13 11 5 12
REMARK SMILES IDX 6 13 7 14 8 15 12 16 10 17 9 18 11 20 20 22 17 24
REMARK H PARENT 9 19 11 21 20 23 17 25
REMARK Flexibility Score: inf
ROOT
ATOM      1  C   UNL     1       3.768  12.513  19.794  1.00  0.00     0.138 A 
ATOM      2  C   UNL     1       3.385  12.380  18.453  1.00  0.00     0.100 A 
ATOM      3  C   UNL     1       3.874  13.278  17.502  1.00  0.00     0.197 A 
ATOM      4  O   UNL     1       3.562  13.095  16.297  1.00  0.00    -0.289 OA
ATOM      5  C   UNL     1       4.728  14.332  17.906  1.00  0.00     0.107 A 
ATOM      6  C   UNL     1       5.254  15.330  17.031  1.00  0.00     0.134 A 
ATOM      7  C   UNL     1       6.183  16.256  17.522  1.00  0.00     0.093 A 
ATOM      8  C   UNL     1       6.556  16.258  18.868  1.00  0.00     0.123 A 
ATOM      9  C   UNL     1       6.006  15.323  19.741  1.00  0.00     0.094 A 
ATOM     10  C   UNL     1       5.104  14.363  19.274  1.00  0.00     0.146 A 
ATOM     11  O   UNL     1       4.613  13.479  20.137  1.00  0.00    -0.456 OA
ENDROOT
BRANCH   1  12
ATOM     12  C   UNL     1       3.276  11.587  20.846  1.00  0.00     0.021 A 
ATOM     13  C   UNL     1       3.134  11.999  22.185  1.00  0.00     0.016 A 
ATOM     14  C   UNL     1       2.677  11.105  23.157  1.00  0.00     0.051 A 
ATOM     15  C   UNL     1       2.364   9.785  22.811  1.00  0.00     0.157 A 
ATOM     16  C   UNL     1       2.972  10.256  20.511  1.00  0.00     0.062 A 
ATOM     17  C   UNL     1       2.513   9.359  21.486  1.00  0.00     0.158 A 
BRANCH  15  18
ATOM     18  O   UNL     1       1.907   8.891  23.778  1.00  0.00    -0.504 OA
ATOM     19  H   UNL     1       1.256   8.150  23.550  1.00  0.00     0.293 HD
ENDBRANCH  15  18
BRANCH  17  20
ATOM     20  O   UNL     1       2.205   8.043  21.145  1.00  0.00    -0.504 OA
ATOM     21  H   UNL     1       2.680   7.567  20.386  1.00  0.00     0.293 HD
ENDBRANCH  17  20
ENDBRANCH   1  12
BRANCH   6  22
ATOM     22  O   UNL     1       4.883  15.468  15.690  1.00  0.00    -0.507 OA
ATOM     23  H   UNL     1       5.010  16.304  15.141  1.00  0.00     0.293 HD
ENDBRANCH   6  22
BRANCH   8  24
ATOM     24  O   UNL     1       7.469  17.194  19.351  1.00  0.00    -0.508 OA
ATOM     25  H   UNL     1       7.167  18.090  19.714  1.00  0.00     0.293 HD
ENDBRANCH   8  24
TORSDOF 5
ENDMDL
