MODEL 1
REMARK VINA RESULT:    -4.602      0.000      0.000
REMARK INTER + INTRA:          -8.379
REMARK INTER:                  -7.292
REMARK INTRA:                  -1.087
REMARK UNBOUND:                -1.087
REMARK SMILES CCCCCCCCCCCC(=O)[O-]
REMARK SMILES IDX 7 1 8 2 9 3 10 4 11 5 12 6 13 7 14 8 6 9 5 10 4 11 3 12 2 13
REMARK SMILES IDX 1 14
REMARK H PARENT
REMARK Flexibility Score: inf
ROOT
ATOM      1  C   UNL     1     -22.004 -28.097  38.162  1.00  0.00     0.000 C 
ENDROOT
BRANCH   1   2
ATOM      2  C   UNL     1     -21.100 -26.892  38.466  1.00  0.00     0.000 C 
BRANCH   2   3
ATOM      3  C   UNL     1     -21.122 -26.498  39.953  1.00  0.00     0.000 C 
BRANCH   3   4
ATOM      4  C   UNL     1     -20.678 -25.044  40.190  1.00  0.00     0.006 C 
BRANCH   4   5
ATOM      5  C   UNL     1     -21.346 -24.020  39.259  1.00  0.00     0.053 C 
BRANCH   5   6
ATOM      6  C   UNL     1     -22.229 -23.071  40.010  1.00  0.00     0.041 C 
ATOM      7  O   UNL     1     -23.168 -22.476  39.418  1.00  0.00    -0.550 OA
ATOM      8  O   UNL     1     -22.037 -22.870  41.371  1.00  0.00    -0.550 OA
ENDBRANCH   5   6
ENDBRANCH   4   5
ENDBRANCH   3   4
ENDBRANCH   2   3
ENDBRANCH   1   2
BRANCH   1   9
ATOM      9  C   UNL     1     -22.633 -28.696  39.433  1.00  0.00     0.000 C 
BRANCH   9  10
ATOM     10  C   UNL     1     -24.093 -29.126  39.220  1.00  0.00    -0.000 C 
BRANCH  10  11
ATOM     11  C   UNL     1     -24.886 -29.188  40.537  1.00  0.00    -0.000 C 
BRANCH  11  12
ATOM     12  C   UNL     1     -24.427 -28.133  41.561  1.00  0.00    -0.000 C 
BRANCH  12  13
ATOM     13  C   UNL     1     -25.226 -26.817  41.533  1.00  0.00    -0.003 C 
ATOM     14  C   UNL     1     -24.349 -25.581  41.720  1.00  0.00     0.004 C 
ENDBRANCH  12  13
ENDBRANCH  11  12
ENDBRANCH  10  11
ENDBRANCH   9  10
ENDBRANCH   1   9
TORSDOF 10
ENDMDL
MODEL 2
REMARK VINA RESULT:    -4.587      2.777      4.877
REMARK INTER + INTRA:          -8.356
REMARK INTER:                  -7.440
REMARK INTRA:                  -0.916
REMARK UNBOUND:                -1.087
REMARK SMILES CCCCCCCCCCCC(=O)[O-]
REMARK SMILES IDX 7 1 8 2 9 3 10 4 11 5 12 6 13 7 14 8 6 9 5 10 4 11 3 12 2 13
REMARK SMILES IDX 1 14
REMARK H PARENT
REMARK Flexibility Score: inf
ROOT
ATOM      1  C   UNL     1     -24.097 -29.011  39.259  1.00  0.00     0.000 C 
ENDROOT
BRANCH   1   2
ATOM      2  C   UNL     1     -25.119 -28.638  40.343  1.00  0.00     0.000 C 
BRANCH   2   3
ATOM      3  C   UNL     1     -24.497 -27.806  41.479  1.00  0.00     0.000 C 
BRANCH   3   4
ATOM      4  C   UNL     1     -25.280 -26.512  41.766  1.00  0.00     0.006 C 
BRANCH   4   5
ATOM      5  C   UNL     1     -26.776 -26.589  41.420  1.00  0.00     0.053 C 
BRANCH   5   6
ATOM      6  C   UNL     1     -27.632 -26.008  42.502  1.00  0.00     0.041 C 
ATOM      7  O   UNL     1     -27.138 -25.212  43.345  1.00  0.00    -0.550 OA
ATOM      8  O   UNL     1     -28.985 -26.316  42.561  1.00  0.00    -0.550 OA
ENDBRANCH   5   6
ENDBRANCH   4   5
ENDBRANCH   3   4
ENDBRANCH   2   3
ENDBRANCH   1   2
BRANCH   1   9
ATOM      9  C   UNL     1     -22.680 -28.504  39.586  1.00  0.00     0.000 C 
BRANCH   9  10
ATOM     10  C   UNL     1     -21.899 -28.091  38.329  1.00  0.00    -0.000 C 
BRANCH  10  11
ATOM     11  C   UNL     1     -21.139 -26.766  38.517  1.00  0.00    -0.000 C 
BRANCH  11  12
ATOM     12  C   UNL     1     -20.891 -26.425  39.998  1.00  0.00    -0.000 C 
BRANCH  12  13
ATOM     13  C   UNL     1     -20.972 -24.925  40.335  1.00  0.00    -0.003 C 
ATOM     14  C   UNL     1     -22.259 -24.545  41.065  1.00  0.00     0.004 C 
ENDBRANCH  12  13
ENDBRANCH  11  12
ENDBRANCH  10  11
ENDBRANCH   9  10
ENDBRANCH   1   9
TORSDOF 10
ENDMDL
MODEL 3
REMARK VINA RESULT:    -4.571      2.916      4.730
REMARK INTER + INTRA:          -8.331
REMARK INTER:                  -7.437
REMARK INTRA:                  -0.893
REMARK UNBOUND:                -1.087
REMARK SMILES CCCCCCCCCCCC(=O)[O-]
REMARK SMILES IDX 7 1 8 2 9 3 10 4 11 5 12 6 13 7 14 8 6 9 5 10 4 11 3 12 2 13
REMARK SMILES IDX 1 14
REMARK H PARENT
REMARK Flexibility Score: inf
ROOT
ATOM      1  C   UNL     1     -21.090 -24.731  39.382  1.00  0.00     0.000 C 
ENDROOT
BRANCH   1   2
ATOM      2  C   UNL     1     -21.159 -26.251  39.594  1.00  0.00     0.000 C 
BRANCH   2   3
ATOM      3  C   UNL     1     -21.087 -27.035  38.271  1.00  0.00     0.000 C 
BRANCH   3   4
ATOM      4  C   UNL     1     -22.123 -28.172  38.197  1.00  0.00     0.006 C 
BRANCH   4   5
ATOM      5  C   UNL     1     -22.775 -28.521  39.544  1.00  0.00     0.053 C 
BRANCH   5   6
ATOM      6  C   UNL     1     -24.074 -29.244  39.368  1.00  0.00     0.041 C 
ATOM      7  O   UNL     1     -24.606 -29.839  40.342  1.00  0.00    -0.550 OA
ATOM      8  O   UNL     1     -24.717 -29.233  38.136  1.00  0.00    -0.550 OA
ENDBRANCH   5   6
ENDBRANCH   4   5
ENDBRANCH   3   4
ENDBRANCH   2   3
ENDBRANCH   1   2
BRANCH   1   9
ATOM      9  C   UNL     1     -21.680 -23.944  40.566  1.00  0.00     0.000 C 
BRANCH   9  10
ATOM     10  C   UNL     1     -22.875 -24.662  41.212  1.00  0.00    -0.000 C 
BRANCH  10  11
ATOM     11  C   UNL     1     -24.187 -23.872  41.062  1.00  0.00    -0.000 C 
BRANCH  11  12
ATOM     12  C   UNL     1     -25.422 -24.674  41.513  1.00  0.00    -0.000 C 
BRANCH  12  13
ATOM     13  C   UNL     1     -25.220 -26.200  41.549  1.00  0.00    -0.003 C 
ATOM     14  C   UNL     1     -26.447 -26.976  41.074  1.00  0.00     0.004 C 
ENDBRANCH  12  13
ENDBRANCH  11  12
ENDBRANCH  10  11
ENDBRANCH   9  10
ENDBRANCH   1   9
TORSDOF 10
ENDMDL
MODEL 4
REMARK VINA RESULT:    -4.561      1.767      4.774
REMARK INTER + INTRA:          -8.314
REMARK INTER:                  -7.685
REMARK INTRA:                  -0.629
REMARK UNBOUND:                -1.087
REMARK SMILES CCCCCCCCCCCC(=O)[O-]
REMARK SMILES IDX 7 1 8 2 9 3 10 4 11 5 12 6 13 7 14 8 6 9 5 10 4 11 3 12 2 13
REMARK SMILES IDX 1 14
REMARK H PARENT
REMARK Flexibility Score: inf
ROOT
ATOM      1  C   UNL     1     -22.537 -28.327  39.599  1.00  0.00     0.000 C 
ENDROOT
BRANCH   1   2
ATOM      2  C   UNL     1     -23.830 -29.151  39.504  1.00  0.00     0.000 C 
BRANCH   2   3
ATOM      3  C   UNL     1     -25.000 -28.503  40.264  1.00  0.00     0.000 C 
BRANCH   3   4
ATOM      4  C   UNL     1     -24.563 -27.859  41.592  1.00  0.00     0.006 C 
BRANCH   4   5
ATOM      5  C   UNL     1     -25.441 -26.680  42.041  1.00  0.00     0.053 C 
BRANCH   5   6
ATOM      6  C   UNL     1     -24.886 -25.364  41.590  1.00  0.00     0.041 C 
ATOM      7  O   UNL     1     -25.658 -24.396  41.360  1.00  0.00    -0.550 OA
ATOM      8  O   UNL     1     -23.514 -25.195  41.458  1.00  0.00    -0.550 OA
ENDBRANCH   5   6
ENDBRANCH   4   5
ENDBRANCH   3   4
ENDBRANCH   2   3
ENDBRANCH   1   2
BRANCH   1   9
ATOM      9  C   UNL     1     -21.910 -28.054  38.219  1.00  0.00     0.000 C 
BRANCH   9  10
ATOM     10  C   UNL     1     -20.942 -26.862  38.239  1.00  0.00    -0.000 C 
BRANCH  10  11
ATOM     11  C   UNL     1     -20.748 -26.283  39.651  1.00  0.00    -0.000 C 
BRANCH  11  12
ATOM     12  C   UNL     1     -19.741 -25.119  39.687  1.00  0.00    -0.000 C 
BRANCH  12  13
ATOM     13  C   UNL     1     -18.303 -25.499  39.288  1.00  0.00    -0.003 C 
ATOM     14  C   UNL     1     -17.443 -24.288  38.929  1.00  0.00     0.004 C 
ENDBRANCH  12  13
ENDBRANCH  11  12
ENDBRANCH  10  11
ENDBRANCH   9  10
ENDBRANCH   1   9
TORSDOF 10
ENDMDL
MODEL 5
REMARK VINA RESULT:    -4.542      1.139      3.522
REMARK INTER + INTRA:          -8.284
REMARK INTER:                  -7.295
REMARK INTRA:                  -0.989
REMARK UNBOUND:                -1.087
REMARK SMILES CCCCCCCCCCCC(=O)[O-]
REMARK SMILES IDX 7 1 8 2 9 3 10 4 11 5 12 6 13 7 14 8 6 9 5 10 4 11 3 12 2 13
REMARK SMILES IDX 1 14
REMARK H PARENT
REMARK Flexibility Score: inf
ROOT
ATOM      1  C   UNL     1     -25.430 -28.700  40.377  1.00  0.00     0.000 C 
ENDROOT
BRANCH   1   2
ATOM      2  C   UNL     1     -25.988 -27.357  40.872  1.00  0.00     0.000 C 
BRANCH   2   3
ATOM      3  C   UNL     1     -25.019 -26.628  41.819  1.00  0.00     0.000 C 
BRANCH   3   4
ATOM      4  C   UNL     1     -24.976 -25.109  41.573  1.00  0.00     0.006 C 
BRANCH   4   5
ATOM      5  C   UNL     1     -23.573 -24.557  41.274  1.00  0.00     0.053 C 
BRANCH   5   6
ATOM      6  C   UNL     1     -23.599 -23.089  40.977  1.00  0.00     0.041 C 
ATOM      7  O   UNL     1     -24.609 -22.570  40.432  1.00  0.00    -0.550 OA
ATOM      8  O   UNL     1     -22.523 -22.287  41.335  1.00  0.00    -0.550 OA
ENDBRANCH   5   6
ENDBRANCH   4   5
ENDBRANCH   3   4
ENDBRANCH   2   3
ENDBRANCH   1   2
BRANCH   1   9
ATOM      9  C   UNL     1     -24.161 -29.126  41.138  1.00  0.00     0.000 C 
BRANCH   9  10
ATOM     10  C   UNL     1     -23.012 -29.512  40.195  1.00  0.00    -0.000 C 
BRANCH  10  11
ATOM     11  C   UNL     1     -22.608 -28.362  39.257  1.00  0.00    -0.000 C 
BRANCH  11  12
ATOM     12  C   UNL     1     -21.812 -27.257  39.975  1.00  0.00    -0.000 C 
BRANCH  12  13
ATOM     13  C   UNL     1     -20.823 -26.490  39.079  1.00  0.00    -0.003 C 
ATOM     14  C   UNL     1     -20.215 -25.268  39.767  1.00  0.00     0.004 C 
ENDBRANCH  12  13
ENDBRANCH  11  12
ENDBRANCH  10  11
ENDBRANCH   9  10
ENDBRANCH   1   9
TORSDOF 10
ENDMDL
MODEL 6
REMARK VINA RESULT:    -4.537      2.918      4.918
REMARK INTER + INTRA:          -8.277
REMARK INTER:                  -7.367
REMARK INTRA:                  -0.910
REMARK UNBOUND:                -1.087
REMARK SMILES CCCCCCCCCCCC(=O)[O-]
REMARK SMILES IDX 7 1 8 2 9 3 10 4 11 5 12 6 13 7 14 8 6 9 5 10 4 11 3 12 2 13
REMARK SMILES IDX 1 14
REMARK H PARENT
REMARK Flexibility Score: inf
ROOT
ATOM      1  C   UNL     1     -20.746 -26.314  39.893  1.00  0.00     0.000 C 
ENDROOT
BRANCH   1   2
ATOM      2  C   UNL     1     -21.105 -26.801  38.480  1.00  0.00     0.000 C 
BRANCH   2   3
ATOM      3  C   UNL     1     -21.970 -28.073  38.496  1.00  0.00     0.000 C 
BRANCH   3   4
ATOM      4  C   UNL     1     -22.654 -28.310  39.855  1.00  0.00     0.006 C 
BRANCH   4   5
ATOM      5  C   UNL     1     -23.457 -29.618  39.938  1.00  0.00     0.053 C 
BRANCH   5   6
ATOM      6  C   UNL     1     -24.853 -29.453  39.421  1.00  0.00     0.041 C 
ATOM      7  O   UNL     1     -25.562 -28.486  39.808  1.00  0.00    -0.550 OA
ATOM      8  O   UNL     1     -25.360 -30.346  38.486  1.00  0.00    -0.550 OA
ENDBRANCH   5   6
ENDBRANCH   4   5
ENDBRANCH   3   4
ENDBRANCH   2   3
ENDBRANCH   1   2
BRANCH   1   9
ATOM      9  C   UNL     1     -20.368 -24.822  39.923  1.00  0.00     0.000 C 
BRANCH   9  10
ATOM     10  C   UNL     1     -21.600 -23.904  39.943  1.00  0.00    -0.000 C 
BRANCH  10  11
ATOM     11  C   UNL     1     -22.297 -23.882  41.314  1.00  0.00    -0.000 C 
BRANCH  11  12
ATOM     12  C   UNL     1     -23.790 -24.249  41.231  1.00  0.00    -0.000 C 
BRANCH  12  13
ATOM     13  C   UNL     1     -24.103 -25.735  41.484  1.00  0.00    -0.003 C 
ATOM     14  C   UNL     1     -25.335 -25.946  42.363  1.00  0.00     0.004 C 
ENDBRANCH  12  13
ENDBRANCH  11  12
ENDBRANCH  10  11
ENDBRANCH   9  10
ENDBRANCH   1   9
TORSDOF 10
ENDMDL
MODEL 7
REMARK VINA RESULT:    -4.511      1.660      2.299
REMARK INTER + INTRA:          -8.236
REMARK INTER:                  -7.272
REMARK INTRA:                  -0.964
REMARK UNBOUND:                -1.087
REMARK SMILES CCCCCCCCCCCC(=O)[O-]
REMARK SMILES IDX 7 1 8 2 9 3 10 4 11 5 12 6 13 7 14 8 6 9 5 10 4 11 3 12 2 13
REMARK SMILES IDX 1 14
REMARK H PARENT
REMARK Flexibility Score: inf
ROOT
ATOM      1  C   UNL     1     -23.062 -28.801  39.670  1.00  0.00     0.000 C 
ENDROOT
BRANCH   1   2
ATOM      2  C   UNL     1     -22.327 -28.383  38.388  1.00  0.00     0.000 C 
BRANCH   2   3
ATOM      3  C   UNL     1     -21.454 -27.132  38.590  1.00  0.00     0.000 C 
BRANCH   3   4
ATOM      4  C   UNL     1     -21.282 -26.760  40.073  1.00  0.00     0.006 C 
BRANCH   4   5
ATOM      5  C   UNL     1     -21.428 -25.259  40.369  1.00  0.00     0.053 C 
BRANCH   5   6
ATOM      6  C   UNL     1     -20.299 -24.461  39.793  1.00  0.00     0.041 C 
ATOM      7  O   UNL     1     -20.501 -23.293  39.366  1.00  0.00    -0.550 OA
ATOM      8  O   UNL     1     -19.016 -24.992  39.761  1.00  0.00    -0.550 OA
ENDBRANCH   5   6
ENDBRANCH   4   5
ENDBRANCH   3   4
ENDBRANCH   2   3
ENDBRANCH   1   2
BRANCH   1   9
ATOM      9  C   UNL     1     -24.580 -28.947  39.457  1.00  0.00     0.000 C 
BRANCH   9  10
ATOM     10  C   UNL     1     -25.397 -28.116  40.458  1.00  0.00    -0.000 C 
BRANCH  10  11
ATOM     11  C   UNL     1     -24.550 -27.621  41.643  1.00  0.00    -0.000 C 
BRANCH  11  12
ATOM     12  C   UNL     1     -25.023 -26.262  42.190  1.00  0.00    -0.000 C 
BRANCH  12  13
ATOM     13  C   UNL     1     -26.410 -25.816  41.693  1.00  0.00    -0.003 C 
ATOM     14  C   UNL     1     -27.227 -25.097  42.765  1.00  0.00     0.004 C 
ENDBRANCH  12  13
ENDBRANCH  11  12
ENDBRANCH  10  11
ENDBRANCH   9  10
ENDBRANCH   1   9
TORSDOF 10
ENDMDL
MODEL 8
REMARK VINA RESULT:    -4.442      2.296      4.653
REMARK INTER + INTRA:          -8.126
REMARK INTER:                  -7.239
REMARK INTRA:                  -0.887
REMARK UNBOUND:                -1.087
REMARK SMILES CCCCCCCCCCCC(=O)[O-]
REMARK SMILES IDX 7 1 8 2 9 3 10 4 11 5 12 6 13 7 14 8 6 9 5 10 4 11 3 12 2 13
REMARK SMILES IDX 1 14
REMARK H PARENT
REMARK Flexibility Score: inf
ROOT
ATOM      1  C   UNL     1     -21.419 -23.854  39.436  1.00  0.00     0.000 C 
ENDROOT
BRANCH   1   2
ATOM      2  C   UNL     1     -21.896 -23.311  40.792  1.00  0.00     0.000 C 
BRANCH   2   3
ATOM      3  C   UNL     1     -23.407 -23.508  41.008  1.00  0.00     0.000 C 
BRANCH   3   4
ATOM      4  C   UNL     1     -23.760 -24.933  41.470  1.00  0.00     0.006 C 
BRANCH   4   5
ATOM      5  C   UNL     1     -25.268 -25.228  41.509  1.00  0.00     0.053 C 
BRANCH   5   6
ATOM      6  C   UNL     1     -25.552 -26.698  41.557  1.00  0.00     0.041 C 
ATOM      7  O   UNL     1     -24.848 -27.456  42.277  1.00  0.00    -0.550 OA
ATOM      8  O   UNL     1     -26.615 -27.226  40.836  1.00  0.00    -0.550 OA
ENDBRANCH   5   6
ENDBRANCH   4   5
ENDBRANCH   3   4
ENDBRANCH   2   3
ENDBRANCH   1   2
BRANCH   1   9
ATOM      9  C   UNL     1     -20.323 -24.925  39.582  1.00  0.00     0.000 C 
BRANCH   9  10
ATOM     10  C   UNL     1     -20.892 -26.352  39.583  1.00  0.00    -0.000 C 
BRANCH  10  11
ATOM     11  C   UNL     1     -21.136 -26.889  38.162  1.00  0.00    -0.000 C 
BRANCH  11  12
ATOM     12  C   UNL     1     -21.989 -28.171  38.146  1.00  0.00    -0.000 C 
BRANCH  12  13
ATOM     13  C   UNL     1     -22.630 -28.534  39.498  1.00  0.00    -0.003 C 
ATOM     14  C   UNL     1     -23.969 -29.255  39.350  1.00  0.00     0.004 C 
ENDBRANCH  12  13
ENDBRANCH  11  12
ENDBRANCH  10  11
ENDBRANCH   9  10
ENDBRANCH   1   9
TORSDOF 10
ENDMDL
MODEL 9
REMARK VINA RESULT:    -4.392      2.304      3.944
REMARK INTER + INTRA:          -8.047
REMARK INTER:                  -7.059
REMARK INTRA:                  -0.988
REMARK UNBOUND:                -1.087
REMARK SMILES CCCCCCCCCCCC(=O)[O-]
REMARK SMILES IDX 7 1 8 2 9 3 10 4 11 5 12 6 13 7 14 8 6 9 5 10 4 11 3 12 2 13
REMARK SMILES IDX 1 14
REMARK H PARENT
REMARK Flexibility Score: inf
ROOT
ATOM      1  C   UNL     1     -24.673 -23.995  41.127  1.00  0.00     0.000 C 
ENDROOT
BRANCH   1   2
ATOM      2  C   UNL     1     -23.419 -24.795  41.512  1.00  0.00     0.000 C 
BRANCH   2   3
ATOM      3  C   UNL     1     -22.127 -23.971  41.367  1.00  0.00     0.000 C 
BRANCH   3   4
ATOM      4  C   UNL     1     -21.129 -24.600  40.378  1.00  0.00     0.006 C 
BRANCH   4   5
ATOM      5  C   UNL     1     -21.434 -26.063  40.017  1.00  0.00     0.053 C 
BRANCH   5   6
ATOM      6  C   UNL     1     -20.568 -26.558  38.901  1.00  0.00     0.041 C 
ATOM      7  O   UNL     1     -21.073 -27.203  37.944  1.00  0.00    -0.550 OA
ATOM      8  O   UNL     1     -19.207 -26.277  38.898  1.00  0.00    -0.550 OA
ENDBRANCH   5   6
ENDBRANCH   4   5
ENDBRANCH   3   4
ENDBRANCH   2   3
ENDBRANCH   1   2
BRANCH   1   9
ATOM      9  C   UNL     1     -25.974 -24.700  41.551  1.00  0.00     0.000 C 
BRANCH   9  10
ATOM     10  C   UNL     1     -25.728 -26.122  42.077  1.00  0.00    -0.000 C 
BRANCH  10  11
ATOM     11  C   UNL     1     -26.366 -27.200  41.184  1.00  0.00    -0.000 C 
BRANCH  11  12
ATOM     12  C   UNL     1     -25.323 -28.091  40.484  1.00  0.00    -0.000 C 
BRANCH  12  13
ATOM     13  C   UNL     1     -24.075 -28.405  41.329  1.00  0.00    -0.003 C 
ATOM     14  C   UNL     1     -23.072 -29.300  40.602  1.00  0.00     0.004 C 
ENDBRANCH  12  13
ENDBRANCH  11  12
ENDBRANCH  10  11
ENDBRANCH   9  10
ENDBRANCH   1   9
TORSDOF 10
ENDMDL
