MODEL 1
REMARK VINA RESULT:    -7.708      0.000      0.000
REMARK INTER + INTRA:          -9.603
REMARK INTER:                  -9.285
REMARK INTRA:                  -0.318
REMARK UNBOUND:                -0.318
REMARK SMILES O=c1c(O)c(-c2ccc(O)c(O)c2)oc2cc(O)cc(O)c12
REMARK SMILES IDX 5 1 3 2 2 3 1 4 22 5 20 6 19 7 17 8 16 9 15 10 14 11 6 12
REMARK SMILES IDX 7 13 8 14 9 15 13 16 11 17 10 18 12 20 4 22 21 24 18 26
REMARK H PARENT 10 19 12 21 4 23 21 25 18 27
REMARK Flexibility Score: inf
ROOT
ATOM      1  C   UNL     1       9.341  75.788  -1.500  1.00  0.00     0.180 A 
ATOM      2  C   UNL     1       8.894  76.120  -2.791  1.00  0.00     0.208 A 
ATOM      3  C   UNL     1       8.905  75.133  -3.789  1.00  0.00     0.238 A 
ATOM      4  O   UNL     1       8.453  75.421  -4.927  1.00  0.00    -0.285 OA
ATOM      5  C   UNL     1       9.380  73.833  -3.489  1.00  0.00     0.111 A 
ATOM      6  C   UNL     1       9.474  72.768  -4.435  1.00  0.00     0.134 A 
ATOM      7  C   UNL     1       9.835  71.487  -3.998  1.00  0.00     0.093 A 
ATOM      8  C   UNL     1      10.168  71.249  -2.662  1.00  0.00     0.123 A 
ATOM      9  C   UNL     1      10.136  72.296  -1.744  1.00  0.00     0.094 A 
ATOM     10  C   UNL     1       9.745  73.577  -2.143  1.00  0.00     0.146 A 
ATOM     11  O   UNL     1       9.718  74.544  -1.233  1.00  0.00    -0.452 OA
ENDROOT
BRANCH   1  12
ATOM     12  C   UNL     1       9.382  76.781  -0.402  1.00  0.00     0.025 A 
ATOM     13  C   UNL     1       8.241  76.979   0.393  1.00  0.00     0.016 A 
ATOM     14  C   UNL     1       8.263  77.896   1.447  1.00  0.00     0.051 A 
ATOM     15  C   UNL     1       9.426  78.615   1.735  1.00  0.00     0.157 A 
ATOM     16  C   UNL     1      10.558  77.490  -0.097  1.00  0.00     0.062 A 
ATOM     17  C   UNL     1      10.582  78.408   0.962  1.00  0.00     0.158 A 
BRANCH  15  18
ATOM     18  O   UNL     1       9.418  79.524   2.792  1.00  0.00    -0.504 OA
ATOM     19  H   UNL     1       8.629  80.132   2.972  1.00  0.00     0.293 HD
ENDBRANCH  15  18
BRANCH  17  20
ATOM     20  O   UNL     1      11.750  79.113   1.253  1.00  0.00    -0.504 OA
ATOM     21  H   UNL     1      11.723  80.054   1.625  1.00  0.00     0.293 HD
ENDBRANCH  17  20
ENDBRANCH   1  12
BRANCH   2  22
ATOM     22  O   UNL     1       8.409  77.403  -3.058  1.00  0.00    -0.502 OA
ATOM     23  H   UNL     1       8.920  78.241  -2.805  1.00  0.00     0.293 HD
ENDBRANCH   2  22
BRANCH   6  24
ATOM     24  O   UNL     1       9.253  72.919  -5.807  1.00  0.00    -0.507 OA
ATOM     25  H   UNL     1       9.181  72.157  -6.464  1.00  0.00     0.293 HD
ENDBRANCH   6  24
BRANCH   8  26
ATOM     26  O   UNL     1      10.541  69.975  -2.239  1.00  0.00    -0.508 OA
ATOM     27  H   UNL     1      10.140  69.141  -2.652  1.00  0.00     0.293 HD
ENDBRANCH   8  26
TORSDOF 6
ENDMDL
MODEL 2
REMARK VINA RESULT:    -7.416      1.530      7.004
REMARK INTER + INTRA:          -9.252
REMARK INTER:                  -8.922
REMARK INTRA:                  -0.330
REMARK UNBOUND:                -0.318
REMARK SMILES O=c1c(O)c(-c2ccc(O)c(O)c2)oc2cc(O)cc(O)c12
REMARK SMILES IDX 5 1 3 2 2 3 1 4 22 5 20 6 19 7 17 8 16 9 15 10 14 11 6 12
REMARK SMILES IDX 7 13 8 14 9 15 13 16 11 17 10 18 12 20 4 22 21 24 18 26
REMARK H PARENT 10 19 12 21 4 23 21 25 18 27
REMARK Flexibility Score: inf
ROOT
ATOM      1  C   UNL     1       9.061  75.109  -1.132  1.00  0.00     0.180 A 
ATOM      2  C   UNL     1       7.800  75.296  -0.539  1.00  0.00     0.208 A 
ATOM      3  C   UNL     1       7.641  76.311   0.416  1.00  0.00     0.238 A 
ATOM      4  O   UNL     1       6.498  76.509   0.903  1.00  0.00    -0.285 OA
ATOM      5  C   UNL     1       8.748  77.115   0.781  1.00  0.00     0.111 A 
ATOM      6  C   UNL     1       8.711  78.145   1.769  1.00  0.00     0.134 A 
ATOM      7  C   UNL     1       9.832  78.963   1.955  1.00  0.00     0.093 A 
ATOM      8  C   UNL     1      11.010  78.747   1.235  1.00  0.00     0.123 A 
ATOM      9  C   UNL     1      11.075  77.706   0.312  1.00  0.00     0.094 A 
ATOM     10  C   UNL     1       9.961  76.895   0.078  1.00  0.00     0.146 A 
ATOM     11  O   UNL     1      10.063  75.920  -0.818  1.00  0.00    -0.452 OA
ENDROOT
BRANCH   1  12
ATOM     12  C   UNL     1       9.312  74.043  -2.130  1.00  0.00     0.025 A 
ATOM     13  C   UNL     1       9.164  74.329  -3.497  1.00  0.00     0.016 A 
ATOM     14  C   UNL     1       9.415  73.345  -4.457  1.00  0.00     0.051 A 
ATOM     15  C   UNL     1       9.833  72.069  -4.069  1.00  0.00     0.157 A 
ATOM     16  C   UNL     1       9.753  72.765  -1.743  1.00  0.00     0.062 A 
ATOM     17  C   UNL     1      10.007  71.777  -2.705  1.00  0.00     0.158 A 
BRANCH  15  18
ATOM     18  O   UNL     1      10.074  71.107  -5.049  1.00  0.00    -0.504 OA
ATOM     19  H   UNL     1      11.005  70.918  -5.400  1.00  0.00     0.293 HD
ENDBRANCH  15  18
BRANCH  17  20
ATOM     20  O   UNL     1      10.437  70.510  -2.312  1.00  0.00    -0.504 OA
ATOM     21  H   UNL     1       9.873  69.685  -2.475  1.00  0.00     0.293 HD
ENDBRANCH  17  20
ENDBRANCH   1  12
BRANCH   2  22
ATOM     22  O   UNL     1       6.716  74.505  -0.930  1.00  0.00    -0.502 OA
ATOM     23  H   UNL     1       6.807  73.514  -1.123  1.00  0.00     0.293 HD
ENDBRANCH   2  22
BRANCH   6  24
ATOM     24  O   UNL     1       7.618  78.386   2.605  1.00  0.00    -0.507 OA
ATOM     25  H   UNL     1       7.636  78.309   3.611  1.00  0.00     0.293 HD
ENDBRANCH   6  24
BRANCH   8  26
ATOM     26  O   UNL     1      12.126  79.556   1.438  1.00  0.00    -0.508 OA
ATOM     27  H   UNL     1      12.267  80.055   2.308  1.00  0.00     0.293 HD
ENDBRANCH   8  26
TORSDOF 6
ENDMDL
MODEL 3
REMARK VINA RESULT:    -7.325      1.495      7.008
REMARK INTER + INTRA:          -9.142
REMARK INTER:                  -8.824
REMARK INTRA:                  -0.318
REMARK UNBOUND:                -0.318
REMARK SMILES O=c1c(O)c(-c2ccc(O)c(O)c2)oc2cc(O)cc(O)c12
REMARK SMILES IDX 5 1 3 2 2 3 1 4 22 5 20 6 19 7 17 8 16 9 15 10 14 11 6 12
REMARK SMILES IDX 7 13 8 14 9 15 13 16 11 17 10 18 12 20 4 22 21 24 18 26
REMARK H PARENT 10 19 12 21 4 23 21 25 18 27
REMARK Flexibility Score: inf
ROOT
ATOM      1  C   UNL     1       9.118  75.198  -1.220  1.00  0.00     0.180 A 
ATOM      2  C   UNL     1       7.862  75.340  -0.604  1.00  0.00     0.208 A 
ATOM      3  C   UNL     1       7.696  76.324   0.382  1.00  0.00     0.238 A 
ATOM      4  O   UNL     1       6.556  76.483   0.891  1.00  0.00    -0.285 OA
ATOM      5  C   UNL     1       8.790  77.142   0.753  1.00  0.00     0.111 A 
ATOM      6  C   UNL     1       8.745  78.143   1.770  1.00  0.00     0.134 A 
ATOM      7  C   UNL     1       9.850  78.982   1.962  1.00  0.00     0.093 A 
ATOM      8  C   UNL     1      11.022  78.812   1.220  1.00  0.00     0.123 A 
ATOM      9  C   UNL     1      11.096  77.799   0.267  1.00  0.00     0.094 A 
ATOM     10  C   UNL     1       9.997  76.970   0.027  1.00  0.00     0.146 A 
ATOM     11  O   UNL     1      10.106  76.023  -0.898  1.00  0.00    -0.452 OA
ENDROOT
BRANCH   1  12
ATOM     12  C   UNL     1       9.377  74.167  -2.251  1.00  0.00     0.025 A 
ATOM     13  C   UNL     1       9.864  72.908  -1.862  1.00  0.00     0.016 A 
ATOM     14  C   UNL     1      10.095  71.914  -2.816  1.00  0.00     0.051 A 
ATOM     15  C   UNL     1       9.829  72.154  -4.167  1.00  0.00     0.157 A 
ATOM     16  C   UNL     1       9.089  74.399  -3.608  1.00  0.00     0.062 A 
ATOM     17  C   UNL     1       9.319  73.400  -4.566  1.00  0.00     0.158 A 
BRANCH  15  18
ATOM     18  O   UNL     1      10.071  71.142  -5.096  1.00  0.00    -0.504 OA
ATOM     19  H   UNL     1      10.987  70.992  -5.501  1.00  0.00     0.293 HD
ENDBRANCH  15  18
BRANCH  17  20
ATOM     20  O   UNL     1       9.038  73.641  -5.911  1.00  0.00    -0.504 OA
ATOM     21  H   UNL     1       8.766  74.560  -6.239  1.00  0.00     0.293 HD
ENDBRANCH  17  20
ENDBRANCH   1  12
BRANCH   2  22
ATOM     22  O   UNL     1       6.790  74.536  -1.001  1.00  0.00    -0.502 OA
ATOM     23  H   UNL     1       5.867  74.912  -1.183  1.00  0.00     0.293 HD
ENDBRANCH   2  22
BRANCH   6  24
ATOM     24  O   UNL     1       7.660  78.337   2.628  1.00  0.00    -0.507 OA
ATOM     25  H   UNL     1       7.658  78.111   3.612  1.00  0.00     0.293 HD
ENDBRANCH   6  24
BRANCH   8  26
ATOM     26  O   UNL     1      12.122  79.641   1.429  1.00  0.00    -0.508 OA
ATOM     27  H   UNL     1      13.003  79.276   1.773  1.00  0.00     0.293 HD
ENDBRANCH   8  26
TORSDOF 6
ENDMDL
MODEL 4
REMARK VINA RESULT:    -7.271      1.522      7.071
REMARK INTER + INTRA:          -9.077
REMARK INTER:                  -8.762
REMARK INTRA:                  -0.316
REMARK UNBOUND:                -0.318
REMARK SMILES O=c1c(O)c(-c2ccc(O)c(O)c2)oc2cc(O)cc(O)c12
REMARK SMILES IDX 5 1 3 2 2 3 1 4 22 5 20 6 19 7 17 8 16 9 15 10 14 11 6 12
REMARK SMILES IDX 7 13 8 14 9 15 13 16 11 17 10 18 12 20 4 22 21 24 18 26
REMARK H PARENT 10 19 12 21 4 23 21 25 18 27
REMARK Flexibility Score: inf
ROOT
ATOM      1  C   UNL     1      10.061  75.124  -1.283  1.00  0.00     0.180 A 
ATOM      2  C   UNL     1      11.289  75.746  -0.994  1.00  0.00     0.208 A 
ATOM      3  C   UNL     1      11.308  76.832  -0.105  1.00  0.00     0.238 A 
ATOM      4  O   UNL     1      12.416  77.350   0.191  1.00  0.00    -0.285 OA
ATOM      5  C   UNL     1      10.100  77.293   0.471  1.00  0.00     0.111 A 
ATOM      6  C   UNL     1       9.998  78.411   1.352  1.00  0.00     0.134 A 
ATOM      7  C   UNL     1       8.771  78.698   1.965  1.00  0.00     0.093 A 
ATOM      8  C   UNL     1       7.629  77.946   1.676  1.00  0.00     0.123 A 
ATOM      9  C   UNL     1       7.706  76.890   0.772  1.00  0.00     0.094 A 
ATOM     10  C   UNL     1       8.924  76.558   0.172  1.00  0.00     0.146 A 
ATOM     11  O   UNL     1       8.955  75.538  -0.677  1.00  0.00    -0.452 OA
ENDROOT
BRANCH   1  12
ATOM     12  C   UNL     1       9.957  73.989  -2.229  1.00  0.00     0.025 A 
ATOM     13  C   UNL     1       9.689  74.242  -3.584  1.00  0.00     0.016 A 
ATOM     14  C   UNL     1       9.608  73.188  -4.498  1.00  0.00     0.051 A 
ATOM     15  C   UNL     1       9.808  71.870  -4.077  1.00  0.00     0.157 A 
ATOM     16  C   UNL     1      10.180  72.665  -1.812  1.00  0.00     0.062 A 
ATOM     17  C   UNL     1      10.101  71.606  -2.729  1.00  0.00     0.158 A 
BRANCH  15  18
ATOM     18  O   UNL     1       9.719  70.839  -5.012  1.00  0.00    -0.504 OA
ATOM     19  H   UNL     1      10.358  70.053  -5.008  1.00  0.00     0.293 HD
ENDBRANCH  15  18
BRANCH  17  20
ATOM     20  O   UNL     1      10.316  70.295  -2.305  1.00  0.00    -0.504 OA
ATOM     21  H   UNL     1      10.807  70.090  -1.443  1.00  0.00     0.293 HD
ENDBRANCH  17  20
ENDBRANCH   1  12
BRANCH   2  22
ATOM     22  O   UNL     1      12.472  75.260  -1.557  1.00  0.00    -0.502 OA
ATOM     23  H   UNL     1      12.539  74.989  -2.531  1.00  0.00     0.293 HD
ENDBRANCH   2  22
BRANCH   6  24
ATOM     24  O   UNL     1      11.054  79.281   1.636  1.00  0.00    -0.507 OA
ATOM     25  H   UNL     1      11.237  79.686   2.542  1.00  0.00     0.293 HD
ENDBRANCH   6  24
BRANCH   8  26
ATOM     26  O   UNL     1       6.409  78.248   2.278  1.00  0.00    -0.508 OA
ATOM     27  H   UNL     1       6.266  79.117   2.779  1.00  0.00     0.293 HD
ENDBRANCH   8  26
TORSDOF 6
ENDMDL
MODEL 5
REMARK VINA RESULT:    -6.750      2.060      2.294
REMARK INTER + INTRA:          -8.450
REMARK INTER:                  -8.287
REMARK INTRA:                  -0.163
REMARK UNBOUND:                -0.318
REMARK SMILES O=c1c(O)c(-c2ccc(O)c(O)c2)oc2cc(O)cc(O)c12
REMARK SMILES IDX 5 1 3 2 2 3 1 4 22 5 20 6 19 7 17 8 16 9 15 10 14 11 6 12
REMARK SMILES IDX 7 13 8 14 9 15 13 16 11 17 10 18 12 20 4 22 21 24 18 26
REMARK H PARENT 10 19 12 21 4 23 21 25 18 27
REMARK Flexibility Score: inf
ROOT
ATOM      1  C   UNL     1       9.231  75.313  -1.818  1.00  0.00     0.180 A 
ATOM      2  C   UNL     1       8.592  74.956  -3.019  1.00  0.00     0.208 A 
ATOM      3  C   UNL     1       9.298  74.197  -3.964  1.00  0.00     0.238 A 
ATOM      4  O   UNL     1       8.704  73.834  -5.013  1.00  0.00    -0.285 OA
ATOM      5  C   UNL     1      10.638  73.818  -3.707  1.00  0.00     0.111 A 
ATOM      6  C   UNL     1      11.461  73.084  -4.613  1.00  0.00     0.134 A 
ATOM      7  C   UNL     1      12.727  72.651  -4.200  1.00  0.00     0.093 A 
ATOM      8  C   UNL     1      13.225  72.984  -2.937  1.00  0.00     0.123 A 
ATOM      9  C   UNL     1      12.453  73.751  -2.069  1.00  0.00     0.094 A 
ATOM     10  C   UNL     1      11.171  74.166  -2.439  1.00  0.00     0.146 A 
ATOM     11  O   UNL     1      10.464  74.888  -1.577  1.00  0.00    -0.452 OA
ENDROOT
BRANCH   1  12
ATOM     12  C   UNL     1       8.560  76.133  -0.783  1.00  0.00     0.025 A 
ATOM     13  C   UNL     1       7.466  75.601  -0.083  1.00  0.00     0.016 A 
ATOM     14  C   UNL     1       6.830  76.349   0.912  1.00  0.00     0.051 A 
ATOM     15  C   UNL     1       7.287  77.630   1.234  1.00  0.00     0.157 A 
ATOM     16  C   UNL     1       9.031  77.414  -0.443  1.00  0.00     0.062 A 
ATOM     17  C   UNL     1       8.396  78.165   0.556  1.00  0.00     0.158 A 
BRANCH  15  18
ATOM     18  O   UNL     1       6.632  78.354   2.230  1.00  0.00    -0.504 OA
ATOM     19  H   UNL     1       6.933  78.332   3.196  1.00  0.00     0.293 HD
ENDBRANCH  15  18
BRANCH  17  20
ATOM     20  O   UNL     1       8.865  79.437   0.882  1.00  0.00    -0.504 OA
ATOM     21  H   UNL     1       9.312  79.626   1.772  1.00  0.00     0.293 HD
ENDBRANCH  17  20
ENDBRANCH   1  12
BRANCH   2  22
ATOM     22  O   UNL     1       7.262  75.322  -3.243  1.00  0.00    -0.502 OA
ATOM     23  H   UNL     1       6.483  74.734  -2.969  1.00  0.00     0.293 HD
ENDBRANCH   2  22
BRANCH   6  24
ATOM     24  O   UNL     1      11.096  72.778  -5.927  1.00  0.00    -0.507 OA
ATOM     25  H   UNL     1      11.226  71.879  -6.365  1.00  0.00     0.293 HD
ENDBRANCH   6  24
BRANCH   8  26
ATOM     26  O   UNL     1      14.493  72.562  -2.540  1.00  0.00    -0.508 OA
ATOM     27  H   UNL     1      15.282  72.584  -3.176  1.00  0.00     0.293 HD
ENDBRANCH   8  26
TORSDOF 6
ENDMDL
MODEL 6
REMARK VINA RESULT:    -6.739      1.947      2.084
REMARK INTER + INTRA:          -8.436
REMARK INTER:                  -8.280
REMARK INTRA:                  -0.156
REMARK UNBOUND:                -0.318
REMARK SMILES O=c1c(O)c(-c2ccc(O)c(O)c2)oc2cc(O)cc(O)c12
REMARK SMILES IDX 5 1 3 2 2 3 1 4 22 5 20 6 19 7 17 8 16 9 15 10 14 11 6 12
REMARK SMILES IDX 7 13 8 14 9 15 13 16 11 17 10 18 12 20 4 22 21 24 18 26
REMARK H PARENT 10 19 12 21 4 23 21 25 18 27
REMARK Flexibility Score: inf
ROOT
ATOM      1  C   UNL     1      10.109  75.969  -0.859  1.00  0.00     0.180 A 
ATOM      2  C   UNL     1      10.988  76.541  -1.797  1.00  0.00     0.208 A 
ATOM      3  C   UNL     1      11.627  75.705  -2.726  1.00  0.00     0.238 A 
ATOM      4  O   UNL     1      12.370  76.228  -3.597  1.00  0.00    -0.285 OA
ATOM      5  C   UNL     1      11.394  74.309  -2.696  1.00  0.00     0.111 A 
ATOM      6  C   UNL     1      12.021  73.365  -3.564  1.00  0.00     0.134 A 
ATOM      7  C   UNL     1      11.617  72.024  -3.532  1.00  0.00     0.093 A 
ATOM      8  C   UNL     1      10.657  71.583  -2.617  1.00  0.00     0.123 A 
ATOM      9  C   UNL     1      10.083  72.486  -1.726  1.00  0.00     0.094 A 
ATOM     10  C   UNL     1      10.439  73.837  -1.759  1.00  0.00     0.146 A 
ATOM     11  O   UNL     1       9.861  74.667  -0.898  1.00  0.00    -0.452 OA
ENDROOT
BRANCH   1  12
ATOM     12  C   UNL     1       9.417  76.782   0.167  1.00  0.00     0.025 A 
ATOM     13  C   UNL     1       8.014  76.780   0.219  1.00  0.00     0.016 A 
ATOM     14  C   UNL     1       7.341  77.524   1.192  1.00  0.00     0.051 A 
ATOM     15  C   UNL     1       8.056  78.265   2.137  1.00  0.00     0.157 A 
ATOM     16  C   UNL     1      10.135  77.511   1.132  1.00  0.00     0.062 A 
ATOM     17  C   UNL     1       9.461  78.256   2.110  1.00  0.00     0.158 A 
BRANCH  15  18
ATOM     18  O   UNL     1       7.357  78.998   3.095  1.00  0.00    -0.504 OA
ATOM     19  H   UNL     1       6.548  79.560   2.858  1.00  0.00     0.293 HD
ENDBRANCH  15  18
BRANCH  17  20
ATOM     20  O   UNL     1      10.181  78.983   3.059  1.00  0.00    -0.504 OA
ATOM     21  H   UNL     1      11.035  79.470   2.817  1.00  0.00     0.293 HD
ENDBRANCH  17  20
ENDBRANCH   1  12
BRANCH   2  22
ATOM     22  O   UNL     1      11.186  77.924  -1.822  1.00  0.00    -0.502 OA
ATOM     23  H   UNL     1      10.434  78.577  -2.009  1.00  0.00     0.293 HD
ENDBRANCH   2  22
BRANCH   6  24
ATOM     24  O   UNL     1      13.054  73.683  -4.449  1.00  0.00    -0.507 OA
ATOM     25  H   UNL     1      13.910  73.158  -4.545  1.00  0.00     0.293 HD
ENDBRANCH   6  24
BRANCH   8  26
ATOM     26  O   UNL     1      10.272  70.244  -2.582  1.00  0.00    -0.508 OA
ATOM     27  H   UNL     1      10.718  69.549  -3.169  1.00  0.00     0.293 HD
ENDBRANCH   8  26
TORSDOF 6
ENDMDL
MODEL 7
REMARK VINA RESULT:    -6.709      4.498      7.349
REMARK INTER + INTRA:          -8.400
REMARK INTER:                  -8.222
REMARK INTRA:                  -0.178
REMARK UNBOUND:                -0.318
REMARK SMILES O=c1c(O)c(-c2ccc(O)c(O)c2)oc2cc(O)cc(O)c12
REMARK SMILES IDX 5 1 3 2 2 3 1 4 22 5 20 6 19 7 17 8 16 9 15 10 14 11 6 12
REMARK SMILES IDX 7 13 8 14 9 15 13 16 11 17 10 18 12 20 4 22 21 24 18 26
REMARK H PARENT 10 19 12 21 4 23 21 25 18 27
REMARK Flexibility Score: inf
ROOT
ATOM      1  C   UNL     1      11.658  78.976  -0.674  1.00  0.00     0.180 A 
ATOM      2  C   UNL     1      12.090  79.588   0.516  1.00  0.00     0.208 A 
ATOM      3  C   UNL     1      11.225  79.615   1.620  1.00  0.00     0.238 A 
ATOM      4  O   UNL     1      11.637  80.116   2.699  1.00  0.00    -0.285 OA
ATOM      5  C   UNL     1       9.933  79.045   1.518  1.00  0.00     0.111 A 
ATOM      6  C   UNL     1       8.959  79.052   2.561  1.00  0.00     0.134 A 
ATOM      7  C   UNL     1       7.763  78.344   2.394  1.00  0.00     0.093 A 
ATOM      8  C   UNL     1       7.477  77.685   1.195  1.00  0.00     0.123 A 
ATOM      9  C   UNL     1       8.396  77.722   0.150  1.00  0.00     0.094 A 
ATOM     10  C   UNL     1       9.614  78.390   0.300  1.00  0.00     0.146 A 
ATOM     11  O   UNL     1      10.467  78.392  -0.718  1.00  0.00    -0.452 OA
ENDROOT
BRANCH   1  12
ATOM     12  C   UNL     1      12.504  78.930  -1.888  1.00  0.00     0.025 A 
ATOM     13  C   UNL     1      12.832  80.125  -2.547  1.00  0.00     0.016 A 
ATOM     14  C   UNL     1      13.647  80.107  -3.682  1.00  0.00     0.051 A 
ATOM     15  C   UNL     1      14.159  78.900  -4.166  1.00  0.00     0.157 A 
ATOM     16  C   UNL     1      13.038  77.719  -2.364  1.00  0.00     0.062 A 
ATOM     17  C   UNL     1      13.857  77.699  -3.502  1.00  0.00     0.158 A 
BRANCH  15  18
ATOM     18  O   UNL     1      14.967  78.913  -5.303  1.00  0.00    -0.504 OA
ATOM     19  H   UNL     1      15.312  78.061  -5.727  1.00  0.00     0.293 HD
ENDBRANCH  15  18
BRANCH  17  20
ATOM     20  O   UNL     1      14.376  76.493  -3.972  1.00  0.00    -0.504 OA
ATOM     21  H   UNL     1      15.371  76.361  -4.108  1.00  0.00     0.293 HD
ENDBRANCH  17  20
ENDBRANCH   1  12
BRANCH   2  22
ATOM     22  O   UNL     1      13.378  80.125   0.602  1.00  0.00    -0.502 OA
ATOM     23  H   UNL     1      13.882  80.191   1.479  1.00  0.00     0.293 HD
ENDBRANCH   2  22
BRANCH   6  24
ATOM     24  O   UNL     1       9.105  79.755   3.761  1.00  0.00    -0.507 OA
ATOM     25  H   UNL     1       9.361  80.728   3.828  1.00  0.00     0.293 HD
ENDBRANCH   6  24
BRANCH   8  26
ATOM     26  O   UNL     1       6.277  76.996   1.032  1.00  0.00    -0.508 OA
ATOM     27  H   UNL     1       5.775  76.610   1.823  1.00  0.00     0.293 HD
ENDBRANCH   8  26
TORSDOF 6
ENDMDL
MODEL 8
REMARK VINA RESULT:    -6.481      3.201      3.931
REMARK INTER + INTRA:          -8.126
REMARK INTER:                  -7.886
REMARK INTRA:                  -0.240
REMARK UNBOUND:                -0.318
REMARK SMILES O=c1c(O)c(-c2ccc(O)c(O)c2)oc2cc(O)cc(O)c12
REMARK SMILES IDX 5 1 3 2 2 3 1 4 22 5 20 6 19 7 17 8 16 9 15 10 14 11 6 12
REMARK SMILES IDX 7 13 8 14 9 15 13 16 11 17 10 18 12 20 4 22 21 24 18 26
REMARK H PARENT 10 19 12 21 4 23 21 25 18 27
REMARK Flexibility Score: inf
ROOT
ATOM      1  C   UNL     1      11.054  77.742  -1.029  1.00  0.00     0.180 A 
ATOM      2  C   UNL     1      11.648  78.779  -1.770  1.00  0.00     0.208 A 
ATOM      3  C   UNL     1      12.562  78.454  -2.784  1.00  0.00     0.238 A 
ATOM      4  O   UNL     1      13.049  79.383  -3.479  1.00  0.00    -0.285 OA
ATOM      5  C   UNL     1      12.883  77.098  -3.034  1.00  0.00     0.111 A 
ATOM      6  C   UNL     1      13.827  76.656  -4.010  1.00  0.00     0.134 A 
ATOM      7  C   UNL     1      13.970  75.286  -4.261  1.00  0.00     0.093 A 
ATOM      8  C   UNL     1      13.251  74.340  -3.526  1.00  0.00     0.123 A 
ATOM      9  C   UNL     1      12.372  74.759  -2.531  1.00  0.00     0.094 A 
ATOM     10  C   UNL     1      12.181  76.121  -2.282  1.00  0.00     0.146 A 
ATOM     11  O   UNL     1      11.326  76.479  -1.331  1.00  0.00    -0.452 OA
ENDROOT
BRANCH   1  12
ATOM     12  C   UNL     1      10.100  78.008   0.072  1.00  0.00     0.025 A 
ATOM     13  C   UNL     1       8.758  77.621  -0.069  1.00  0.00     0.016 A 
ATOM     14  C   UNL     1       7.845  77.843   0.965  1.00  0.00     0.051 A 
ATOM     15  C   UNL     1       8.261  78.438   2.160  1.00  0.00     0.157 A 
ATOM     16  C   UNL     1      10.521  78.586   1.283  1.00  0.00     0.062 A 
ATOM     17  C   UNL     1       9.606  78.808   2.323  1.00  0.00     0.158 A 
BRANCH  15  18
ATOM     18  O   UNL     1       7.327  78.649   3.174  1.00  0.00    -0.504 OA
ATOM     19  H   UNL     1       7.308  79.502   3.720  1.00  0.00     0.293 HD
ENDBRANCH  15  18
BRANCH  17  20
ATOM     20  O   UNL     1      10.031  79.388   3.518  1.00  0.00    -0.504 OA
ATOM     21  H   UNL     1      10.074  78.858   4.379  1.00  0.00     0.293 HD
ENDBRANCH  17  20
ENDBRANCH   1  12
BRANCH   2  22
ATOM     22  O   UNL     1      11.299  80.110  -1.520  1.00  0.00    -0.502 OA
ATOM     23  H   UNL     1      10.411  80.370  -1.107  1.00  0.00     0.293 HD
ENDBRANCH   2  22
BRANCH   6  24
ATOM     24  O   UNL     1      14.661  77.513  -4.734  1.00  0.00    -0.507 OA
ATOM     25  H   UNL     1      15.119  77.272  -5.600  1.00  0.00     0.293 HD
ENDBRANCH   6  24
BRANCH   8  26
ATOM     26  O   UNL     1      13.411  72.978  -3.772  1.00  0.00    -0.508 OA
ATOM     27  H   UNL     1      13.015  72.538  -4.595  1.00  0.00     0.293 HD
ENDBRANCH   8  26
TORSDOF 6
ENDMDL
MODEL 9
REMARK VINA RESULT:    -6.447      2.076      3.028
REMARK INTER + INTRA:          -8.085
REMARK INTER:                  -8.159
REMARK INTRA:                   0.074
REMARK UNBOUND:                -0.318
REMARK SMILES O=c1c(O)c(-c2ccc(O)c(O)c2)oc2cc(O)cc(O)c12
REMARK SMILES IDX 5 1 3 2 2 3 1 4 22 5 20 6 19 7 17 8 16 9 15 10 14 11 6 12
REMARK SMILES IDX 7 13 8 14 9 15 13 16 11 17 10 18 12 20 4 22 21 24 18 26
REMARK H PARENT 10 19 12 21 4 23 21 25 18 27
REMARK Flexibility Score: inf
ROOT
ATOM      1  C   UNL     1       9.821  75.331  -1.089  1.00  0.00     0.180 A 
ATOM      2  C   UNL     1      11.200  75.353  -0.811  1.00  0.00     0.208 A 
ATOM      3  C   UNL     1      12.050  74.492  -1.521  1.00  0.00     0.238 A 
ATOM      4  O   UNL     1      13.289  74.554  -1.307  1.00  0.00    -0.285 OA
ATOM      5  C   UNL     1      11.512  73.607  -2.486  1.00  0.00     0.111 A 
ATOM      6  C   UNL     1      12.276  72.661  -3.234  1.00  0.00     0.134 A 
ATOM      7  C   UNL     1      11.660  71.928  -4.255  1.00  0.00     0.093 A 
ATOM      8  C   UNL     1      10.292  72.059  -4.510  1.00  0.00     0.123 A 
ATOM      9  C   UNL     1       9.526  72.935  -3.746  1.00  0.00     0.094 A 
ATOM     10  C   UNL     1      10.120  73.707  -2.744  1.00  0.00     0.146 A 
ATOM     11  O   UNL     1       9.355  74.537  -2.045  1.00  0.00    -0.452 OA
ENDROOT
BRANCH   1  12
ATOM     12  C   UNL     1       8.858  76.193  -0.366  1.00  0.00     0.025 A 
ATOM     13  C   UNL     1       7.695  75.624   0.178  1.00  0.00     0.016 A 
ATOM     14  C   UNL     1       6.784  76.415   0.883  1.00  0.00     0.051 A 
ATOM     15  C   UNL     1       7.027  77.778   1.069  1.00  0.00     0.157 A 
ATOM     16  C   UNL     1       9.111  77.560  -0.158  1.00  0.00     0.062 A 
ATOM     17  C   UNL     1       8.198  78.355   0.551  1.00  0.00     0.158 A 
BRANCH  15  18
ATOM     18  O   UNL     1       6.098  78.543   1.775  1.00  0.00    -0.504 OA
ATOM     19  H   UNL     1       6.334  79.442   2.175  1.00  0.00     0.293 HD
ENDBRANCH  15  18
BRANCH  17  20
ATOM     20  O   UNL     1       8.453  79.712   0.746  1.00  0.00    -0.504 OA
ATOM     21  H   UNL     1       8.573  80.347  -0.034  1.00  0.00     0.293 HD
ENDBRANCH  17  20
ENDBRANCH   1  12
BRANCH   2  22
ATOM     22  O   UNL     1      11.712  76.251   0.130  1.00  0.00    -0.502 OA
ATOM     23  H   UNL     1      11.121  76.890   0.649  1.00  0.00     0.293 HD
ENDBRANCH   2  22
BRANCH   6  24
ATOM     24  O   UNL     1      13.626  72.387  -2.998  1.00  0.00    -0.507 OA
ATOM     25  H   UNL     1      14.319  72.250  -3.719  1.00  0.00     0.293 HD
ENDBRANCH   6  24
BRANCH   8  26
ATOM     26  O   UNL     1       9.683  71.313  -5.518  1.00  0.00    -0.508 OA
ATOM     27  H   UNL     1      10.162  70.543  -5.970  1.00  0.00     0.293 HD
ENDBRANCH   8  26
TORSDOF 6
ENDMDL
