MODEL 1
REMARK VINA RESULT:    -3.283      0.000      0.000
REMARK INTER + INTRA:          -6.290
REMARK INTER:                  -5.202
REMARK INTRA:                  -1.088
REMARK UNBOUND:                -1.088
REMARK SMILES CCCCCCCCCCCC(=O)[O-]
REMARK SMILES IDX 7 1 8 2 9 3 10 4 11 5 12 6 13 7 14 8 6 9 5 10 4 11 3 12 2 13
REMARK SMILES IDX 1 14
REMARK H PARENT
REMARK Flexibility Score: inf
ROOT
ATOM      1  C   UNL     1     -92.037 145.393 240.832  1.00  0.00     0.000 C 
ENDROOT
BRANCH   1   2
ATOM      2  C   UNL     1     -92.908 146.624 241.138  1.00  0.00     0.000 C 
BRANCH   2   3
ATOM      3  C   UNL     1     -93.829 146.408 242.348  1.00  0.00     0.000 C 
BRANCH   3   4
ATOM      4  C   UNL     1     -95.244 146.966 242.121  1.00  0.00     0.006 C 
BRANCH   4   5
ATOM      5  C   UNL     1     -95.321 148.476 242.385  1.00  0.00     0.053 C 
BRANCH   5   6
ATOM      6  C   UNL     1     -96.525 148.835 243.199  1.00  0.00     0.041 C 
ATOM      7  O   UNL     1     -97.171 149.887 242.946  1.00  0.00    -0.550 OA
ATOM      8  O   UNL     1     -96.915 148.026 244.258  1.00  0.00    -0.550 OA
ENDBRANCH   5   6
ENDBRANCH   4   5
ENDBRANCH   3   4
ENDBRANCH   2   3
ENDBRANCH   1   2
BRANCH   1   9
ATOM      9  C   UNL     1     -91.835 145.175 239.324  1.00  0.00     0.000 C 
BRANCH   9  10
ATOM     10  C   UNL     1     -93.156 145.246 238.536  1.00  0.00    -0.000 C 
BRANCH  10  11
ATOM     11  C   UNL     1     -92.989 145.902 237.156  1.00  0.00    -0.000 C 
BRANCH  11  12
ATOM     12  C   UNL     1     -94.015 147.020 236.906  1.00  0.00    -0.000 C 
BRANCH  12  13
ATOM     13  C   UNL     1     -94.914 147.278 238.125  1.00  0.00    -0.003 C 
ATOM     14  C   UNL     1     -94.798 148.707 238.655  1.00  0.00     0.004 C 
ENDBRANCH  12  13
ENDBRANCH  11  12
ENDBRANCH  10  11
ENDBRANCH   9  10
ENDBRANCH   1   9
TORSDOF 10
ENDMDL
MODEL 2
REMARK VINA RESULT:    -3.272      1.754      2.561
REMARK INTER + INTRA:          -6.274
REMARK INTER:                  -4.814
REMARK INTRA:                  -1.460
REMARK UNBOUND:                -1.088
REMARK SMILES CCCCCCCCCCCC(=O)[O-]
REMARK SMILES IDX 7 1 8 2 9 3 10 4 11 5 12 6 13 7 14 8 6 9 5 10 4 11 3 12 2 13
REMARK SMILES IDX 1 14
REMARK H PARENT
REMARK Flexibility Score: inf
ROOT
ATOM      1  C   UNL     1     -93.750 147.261 242.057  1.00  0.00     0.000 C 
ENDROOT
BRANCH   1   2
ATOM      2  C   UNL     1     -94.854 146.365 242.642  1.00  0.00     0.000 C 
BRANCH   2   3
ATOM      3  C   UNL     1     -96.148 147.139 242.936  1.00  0.00     0.000 C 
BRANCH   3   4
ATOM      4  C   UNL     1     -95.944 148.664 242.901  1.00  0.00     0.006 C 
BRANCH   4   5
ATOM      5  C   UNL     1     -97.251 149.429 243.150  1.00  0.00     0.053 C 
BRANCH   5   6
ATOM      6  C   UNL     1     -97.997 148.881 244.328  1.00  0.00     0.041 C 
ATOM      7  O   UNL     1     -99.146 148.387 244.178  1.00  0.00    -0.550 OA
ATOM      8  O   UNL     1     -97.437 148.948 245.597  1.00  0.00    -0.550 OA
ENDBRANCH   5   6
ENDBRANCH   4   5
ENDBRANCH   3   4
ENDBRANCH   2   3
ENDBRANCH   1   2
BRANCH   1   9
ATOM      9  C   UNL     1     -93.037 146.612 240.860  1.00  0.00     0.000 C 
BRANCH   9  10
ATOM     10  C   UNL     1     -93.740 146.909 239.523  1.00  0.00    -0.000 C 
BRANCH  10  11
ATOM     11  C   UNL     1     -94.413 148.291 239.501  1.00  0.00    -0.000 C 
BRANCH  11  12
ATOM     12  C   UNL     1     -95.746 148.287 238.734  1.00  0.00    -0.000 C 
BRANCH  12  13
ATOM     13  C   UNL     1     -96.757 147.287 239.316  1.00  0.00    -0.003 C 
ATOM     14  C   UNL     1     -98.041 147.958 239.803  1.00  0.00     0.004 C 
ENDBRANCH  12  13
ENDBRANCH  11  12
ENDBRANCH  10  11
ENDBRANCH   9  10
ENDBRANCH   1   9
TORSDOF 10
ENDMDL
MODEL 3
REMARK VINA RESULT:    -3.267      1.327      2.742
REMARK INTER + INTRA:          -6.266
REMARK INTER:                  -5.177
REMARK INTRA:                  -1.088
REMARK UNBOUND:                -1.088
REMARK SMILES CCCCCCCCCCCC(=O)[O-]
REMARK SMILES IDX 7 1 8 2 9 3 10 4 11 5 12 6 13 7 14 8 6 9 5 10 4 11 3 12 2 13
REMARK SMILES IDX 1 14
REMARK H PARENT
REMARK Flexibility Score: inf
ROOT
ATOM      1  C   UNL     1     -93.590 147.357 241.956  1.00  0.00     0.000 C 
ENDROOT
BRANCH   1   2
ATOM      2  C   UNL     1     -94.751 147.874 241.088  1.00  0.00     0.000 C 
BRANCH   2   3
ATOM      3  C   UNL     1     -96.114 147.330 241.543  1.00  0.00     0.000 C 
BRANCH   3   4
ATOM      4  C   UNL     1     -97.065 148.443 242.016  1.00  0.00     0.006 C 
BRANCH   4   5
ATOM      5  C   UNL     1     -96.605 149.076 243.336  1.00  0.00     0.053 C 
BRANCH   5   6
ATOM      6  C   UNL     1     -97.401 148.571 244.500  1.00  0.00     0.041 C 
ATOM      7  O   UNL     1     -98.195 149.339 245.106  1.00  0.00    -0.550 OA
ATOM      8  O   UNL     1     -97.241 147.263 244.936  1.00  0.00    -0.550 OA
ENDBRANCH   5   6
ENDBRANCH   4   5
ENDBRANCH   3   4
ENDBRANCH   2   3
ENDBRANCH   1   2
BRANCH   1   9
ATOM      9  C   UNL     1     -93.829 145.928 242.469  1.00  0.00     0.000 C 
BRANCH   9  10
ATOM     10  C   UNL     1     -93.039 144.875 241.670  1.00  0.00    -0.000 C 
BRANCH  10  11
ATOM     11  C   UNL     1     -91.867 145.485 240.883  1.00  0.00    -0.000 C 
BRANCH  11  12
ATOM     12  C   UNL     1     -91.961 145.206 239.374  1.00  0.00    -0.000 C 
BRANCH  12  13
ATOM     13  C   UNL     1     -93.406 145.263 238.853  1.00  0.00    -0.003 C 
ATOM     14  C   UNL     1     -93.613 146.346 237.795  1.00  0.00     0.004 C 
ENDBRANCH  12  13
ENDBRANCH  11  12
ENDBRANCH  10  11
ENDBRANCH   9  10
ENDBRANCH   1   9
TORSDOF 10
ENDMDL
MODEL 4
REMARK VINA RESULT:    -3.239      1.876      3.213
REMARK INTER + INTRA:          -6.221
REMARK INTER:                  -4.951
REMARK INTRA:                  -1.270
REMARK UNBOUND:                -1.088
REMARK SMILES CCCCCCCCCCCC(=O)[O-]
REMARK SMILES IDX 7 1 8 2 9 3 10 4 11 5 12 6 13 7 14 8 6 9 5 10 4 11 3 12 2 13
REMARK SMILES IDX 1 14
REMARK H PARENT
REMARK Flexibility Score: inf
ROOT
ATOM      1  C   UNL     1     -95.955 145.890 242.630  1.00  0.00     0.000 C 
ENDROOT
BRANCH   1   2
ATOM      2  C   UNL     1     -96.617 147.180 242.114  1.00  0.00     0.000 C 
BRANCH   2   3
ATOM      3  C   UNL     1     -95.932 148.448 242.646  1.00  0.00     0.000 C 
BRANCH   3   4
ATOM      4  C   UNL     1     -96.930 149.442 243.265  1.00  0.00     0.006 C 
BRANCH   4   5
ATOM      5  C   UNL     1     -98.083 148.731 243.987  1.00  0.00     0.053 C 
BRANCH   5   6
ATOM      6  C   UNL     1     -97.698 148.323 245.376  1.00  0.00     0.041 C 
ATOM      7  O   UNL     1     -97.449 147.115 245.635  1.00  0.00    -0.550 OA
ATOM      8  O   UNL     1     -97.649 149.269 246.390  1.00  0.00    -0.550 OA
ENDBRANCH   5   6
ENDBRANCH   4   5
ENDBRANCH   3   4
ENDBRANCH   2   3
ENDBRANCH   1   2
BRANCH   1   9
ATOM      9  C   UNL     1     -94.437 146.040 242.812  1.00  0.00     0.000 C 
BRANCH   9  10
ATOM     10  C   UNL     1     -93.647 145.600 241.566  1.00  0.00    -0.000 C 
BRANCH  10  11
ATOM     11  C   UNL     1     -93.094 146.789 240.764  1.00  0.00    -0.000 C 
BRANCH  11  12
ATOM     12  C   UNL     1     -93.827 146.992 239.427  1.00  0.00    -0.000 C 
BRANCH  12  13
ATOM     13  C   UNL     1     -94.466 148.384 239.311  1.00  0.00    -0.003 C 
ATOM     14  C   UNL     1     -95.839 148.351 238.641  1.00  0.00     0.004 C 
ENDBRANCH  12  13
ENDBRANCH  11  12
ENDBRANCH  10  11
ENDBRANCH   9  10
ENDBRANCH   1   9
TORSDOF 10
ENDMDL
MODEL 5
REMARK VINA RESULT:    -3.238      1.171      1.745
REMARK INTER + INTRA:          -6.219
REMARK INTER:                  -4.994
REMARK INTRA:                  -1.225
REMARK UNBOUND:                -1.088
REMARK SMILES CCCCCCCCCCCC(=O)[O-]
REMARK SMILES IDX 7 1 8 2 9 3 10 4 11 5 12 6 13 7 14 8 6 9 5 10 4 11 3 12 2 13
REMARK SMILES IDX 1 14
REMARK H PARENT
REMARK Flexibility Score: inf
ROOT
ATOM      1  C   UNL     1     -93.211 145.014 241.895  1.00  0.00     0.000 C 
ENDROOT
BRANCH   1   2
ATOM      2  C   UNL     1     -93.965 146.017 242.784  1.00  0.00     0.000 C 
BRANCH   2   3
ATOM      3  C   UNL     1     -95.486 145.810 242.748  1.00  0.00     0.000 C 
BRANCH   3   4
ATOM      4  C   UNL     1     -96.226 146.983 242.084  1.00  0.00     0.006 C 
BRANCH   4   5
ATOM      5  C   UNL     1     -95.786 148.341 242.650  1.00  0.00     0.053 C 
BRANCH   5   6
ATOM      6  C   UNL     1     -96.916 149.049 243.331  1.00  0.00     0.041 C 
ATOM      7  O   UNL     1     -97.131 148.867 244.558  1.00  0.00    -0.550 OA
ATOM      8  O   UNL     1     -97.753 149.884 242.602  1.00  0.00    -0.550 OA
ENDBRANCH   5   6
ENDBRANCH   4   5
ENDBRANCH   3   4
ENDBRANCH   2   3
ENDBRANCH   1   2
BRANCH   1   9
ATOM      9  C   UNL     1     -92.344 145.706 240.830  1.00  0.00     0.000 C 
BRANCH   9  10
ATOM     10  C   UNL     1     -92.860 145.461 239.400  1.00  0.00    -0.000 C 
BRANCH  10  11
ATOM     11  C   UNL     1     -94.134 146.262 239.085  1.00  0.00    -0.000 C 
BRANCH  11  12
ATOM     12  C   UNL     1     -93.993 147.755 239.425  1.00  0.00    -0.000 C 
BRANCH  12  13
ATOM     13  C   UNL     1     -94.891 148.645 238.553  1.00  0.00    -0.003 C 
ATOM     14  C   UNL     1     -96.356 148.208 238.572  1.00  0.00     0.004 C 
ENDBRANCH  12  13
ENDBRANCH  11  12
ENDBRANCH  10  11
ENDBRANCH   9  10
ENDBRANCH   1   9
TORSDOF 10
ENDMDL
MODEL 6
REMARK VINA RESULT:    -3.233      2.841      4.785
REMARK INTER + INTRA:          -6.212
REMARK INTER:                  -4.869
REMARK INTRA:                  -1.343
REMARK UNBOUND:                -1.088
REMARK SMILES CCCCCCCCCCCC(=O)[O-]
REMARK SMILES IDX 7 1 8 2 9 3 10 4 11 5 12 6 13 7 14 8 6 9 5 10 4 11 3 12 2 13
REMARK SMILES IDX 1 14
REMARK H PARENT
REMARK Flexibility Score: inf
ROOT
ATOM      1  C   UNL     1     -92.434 146.003 240.809  1.00  0.00     0.000 C 
ENDROOT
BRANCH   1   2
ATOM      2  C   UNL     1     -92.887 145.546 239.412  1.00  0.00     0.000 C 
BRANCH   2   3
ATOM      3  C   UNL     1     -94.149 146.279 238.932  1.00  0.00     0.000 C 
BRANCH   3   4
ATOM      4  C   UNL     1     -94.090 147.792 239.201  1.00  0.00     0.006 C 
BRANCH   4   5
ATOM      5  C   UNL     1     -95.327 148.524 238.663  1.00  0.00     0.053 C 
BRANCH   5   6
ATOM      6  C   UNL     1     -95.039 149.224 237.371  1.00  0.00     0.041 C 
ATOM      7  O   UNL     1     -94.636 150.418 237.372  1.00  0.00    -0.550 OA
ATOM      8  O   UNL     1     -95.249 148.570 236.164  1.00  0.00    -0.550 OA
ENDBRANCH   5   6
ENDBRANCH   4   5
ENDBRANCH   3   4
ENDBRANCH   2   3
ENDBRANCH   1   2
BRANCH   1   9
ATOM      9  C   UNL     1     -93.037 145.146 241.934  1.00  0.00     0.000 C 
BRANCH   9  10
ATOM     10  C   UNL     1     -94.050 145.927 242.791  1.00  0.00    -0.000 C 
BRANCH  10  11
ATOM     11  C   UNL     1     -95.507 145.664 242.375  1.00  0.00    -0.000 C 
BRANCH  11  12
ATOM     12  C   UNL     1     -96.273 146.959 242.058  1.00  0.00    -0.000 C 
BRANCH  12  13
ATOM     13  C   UNL     1     -95.520 148.217 242.519  1.00  0.00    -0.003 C 
ATOM     14  C   UNL     1     -96.433 149.239 243.197  1.00  0.00     0.004 C 
ENDBRANCH  12  13
ENDBRANCH  11  12
ENDBRANCH  10  11
ENDBRANCH   9  10
ENDBRANCH   1   9
TORSDOF 10
ENDMDL
MODEL 7
REMARK VINA RESULT:    -3.178      2.260      4.097
REMARK INTER + INTRA:          -6.124
REMARK INTER:                  -5.118
REMARK INTRA:                  -1.006
REMARK UNBOUND:                -1.088
REMARK SMILES CCCCCCCCCCCC(=O)[O-]
REMARK SMILES IDX 7 1 8 2 9 3 10 4 11 5 12 6 13 7 14 8 6 9 5 10 4 11 3 12 2 13
REMARK SMILES IDX 1 14
REMARK H PARENT
REMARK Flexibility Score: inf
ROOT
ATOM      1  C   UNL     1     -96.744 147.079 242.160  1.00  0.00     0.000 C 
ENDROOT
BRANCH   1   2
ATOM      2  C   UNL     1     -96.008 148.322 242.689  1.00  0.00     0.000 C 
BRANCH   2   3
ATOM      3  C   UNL     1     -96.971 149.408 243.193  1.00  0.00     0.000 C 
BRANCH   3   4
ATOM      4  C   UNL     1     -98.037 148.851 244.151  1.00  0.00     0.006 C 
BRANCH   4   5
ATOM      5  C   UNL     1     -97.463 148.546 245.542  1.00  0.00     0.053 C 
BRANCH   5   6
ATOM      6  C   UNL     1     -98.213 149.265 246.621  1.00  0.00     0.041 C 
ATOM      7  O   UNL     1     -99.461 149.127 246.725  1.00  0.00    -0.550 OA
ATOM      8  O   UNL     1     -97.539 150.114 247.488  1.00  0.00    -0.550 OA
ENDBRANCH   5   6
ENDBRANCH   4   5
ENDBRANCH   3   4
ENDBRANCH   2   3
ENDBRANCH   1   2
BRANCH   1   9
ATOM      9  C   UNL     1     -95.907 145.797 242.294  1.00  0.00     0.000 C 
BRANCH   9  10
ATOM     10  C   UNL     1     -94.513 146.063 242.893  1.00  0.00    -0.000 C 
BRANCH  10  11
ATOM     11  C   UNL     1     -93.374 145.725 241.918  1.00  0.00    -0.000 C 
BRANCH  11  12
ATOM     12  C   UNL     1     -92.957 146.929 241.058  1.00  0.00    -0.000 C 
BRANCH  12  13
ATOM     13  C   UNL     1     -93.650 146.942 239.687  1.00  0.00    -0.003 C 
ATOM     14  C   UNL     1     -94.484 148.203 239.456  1.00  0.00     0.004 C 
ENDBRANCH  12  13
ENDBRANCH  11  12
ENDBRANCH  10  11
ENDBRANCH   9  10
ENDBRANCH   1   9
TORSDOF 10
ENDMDL
MODEL 8
REMARK VINA RESULT:    -3.142      1.760      2.881
REMARK INTER + INTRA:          -6.067
REMARK INTER:                  -4.466
REMARK INTRA:                  -1.602
REMARK UNBOUND:                -1.088
REMARK SMILES CCCCCCCCCCCC(=O)[O-]
REMARK SMILES IDX 7 1 8 2 9 3 10 4 11 5 12 6 13 7 14 8 6 9 5 10 4 11 3 12 2 13
REMARK SMILES IDX 1 14
REMARK H PARENT
REMARK Flexibility Score: inf
ROOT
ATOM      1  C   UNL     1     -94.974 145.310 243.118  1.00  0.00     0.000 C 
ENDROOT
BRANCH   1   2
ATOM      2  C   UNL     1     -96.172 145.270 242.154  1.00  0.00     0.000 C 
BRANCH   2   3
ATOM      3  C   UNL     1     -97.049 146.528 242.251  1.00  0.00     0.000 C 
BRANCH   3   4
ATOM      4  C   UNL     1     -96.617 147.462 243.395  1.00  0.00     0.006 C 
BRANCH   4   5
ATOM      5  C   UNL     1     -96.576 148.933 242.957  1.00  0.00     0.053 C 
BRANCH   5   6
ATOM      6  C   UNL     1     -97.952 149.516 242.848  1.00  0.00     0.041 C 
ATOM      7  O   UNL     1     -98.312 150.096 241.790  1.00  0.00    -0.550 OA
ATOM      8  O   UNL     1     -98.823 149.448 243.928  1.00  0.00    -0.550 OA
ENDBRANCH   5   6
ENDBRANCH   4   5
ENDBRANCH   3   4
ENDBRANCH   2   3
ENDBRANCH   1   2
BRANCH   1   9
ATOM      9  C   UNL     1     -93.634 145.484 242.385  1.00  0.00     0.000 C 
BRANCH   9  10
ATOM     10  C   UNL     1     -93.323 146.958 242.067  1.00  0.00    -0.000 C 
BRANCH  10  11
ATOM     11  C   UNL     1     -93.176 147.222 240.560  1.00  0.00    -0.000 C 
BRANCH  11  12
ATOM     12  C   UNL     1     -94.372 147.993 239.977  1.00  0.00    -0.000 C 
BRANCH  12  13
ATOM     13  C   UNL     1     -95.220 147.133 239.026  1.00  0.00    -0.003 C 
ATOM     14  C   UNL     1     -94.568 145.789 238.702  1.00  0.00     0.004 C 
ENDBRANCH  12  13
ENDBRANCH  11  12
ENDBRANCH  10  11
ENDBRANCH   9  10
ENDBRANCH   1   9
TORSDOF 10
ENDMDL
MODEL 9
REMARK VINA RESULT:    -3.124      3.544      5.583
REMARK INTER + INTRA:          -6.039
REMARK INTER:                  -4.961
REMARK INTRA:                  -1.078
REMARK UNBOUND:                -1.088
REMARK SMILES CCCCCCCCCCCC(=O)[O-]
REMARK SMILES IDX 7 1 8 2 9 3 10 4 11 5 12 6 13 7 14 8 6 9 5 10 4 11 3 12 2 13
REMARK SMILES IDX 1 14
REMARK H PARENT
REMARK Flexibility Score: inf
ROOT
ATOM      1  C   UNL     1     -93.752 146.795 239.406  1.00  0.00     0.000 C 
ENDROOT
BRANCH   1   2
ATOM      2  C   UNL     1     -94.365 148.204 239.484  1.00  0.00     0.000 C 
BRANCH   2   3
ATOM      3  C   UNL     1     -95.775 148.267 238.878  1.00  0.00     0.000 C 
BRANCH   3   4
ATOM      4  C   UNL     1     -95.939 149.431 237.885  1.00  0.00     0.006 C 
BRANCH   4   5
ATOM      5  C   UNL     1     -94.704 149.607 236.990  1.00  0.00     0.053 C 
BRANCH   5   6
ATOM      6  C   UNL     1     -94.662 148.584 235.898  1.00  0.00     0.041 C 
ATOM      7  O   UNL     1     -95.593 148.521 235.052  1.00  0.00    -0.550 OA
ATOM      8  O   UNL     1     -93.612 147.678 235.834  1.00  0.00    -0.550 OA
ENDBRANCH   5   6
ENDBRANCH   4   5
ENDBRANCH   3   4
ENDBRANCH   2   3
ENDBRANCH   1   2
BRANCH   1   9
ATOM      9  C   UNL     1     -93.028 146.395 240.701  1.00  0.00     0.000 C 
BRANCH   9  10
ATOM     10  C   UNL     1     -93.545 147.168 241.928  1.00  0.00    -0.000 C 
BRANCH  10  11
ATOM     11  C   UNL     1     -94.633 146.401 242.697  1.00  0.00    -0.000 C 
BRANCH  11  12
ATOM     12  C   UNL     1     -95.975 147.152 242.728  1.00  0.00    -0.000 C 
BRANCH  12  13
ATOM     13  C   UNL     1     -95.796 148.671 242.865  1.00  0.00    -0.003 C 
ATOM     14  C   UNL     1     -97.121 149.410 243.051  1.00  0.00     0.004 C 
ENDBRANCH  12  13
ENDBRANCH  11  12
ENDBRANCH  10  11
ENDBRANCH   9  10
ENDBRANCH   1   9
TORSDOF 10
ENDMDL
