MODEL 1
REMARK VINA RESULT:    -7.328      0.000      0.000
REMARK INTER + INTRA:          -9.362
REMARK INTER:                  -9.041
REMARK INTRA:                  -0.321
REMARK UNBOUND:                -0.321
REMARK SMILES Oc1cc(O)c2cc(O)c(-c3cc(O)c(O)c(O)c3)[o+]c2c1
REMARK SMILES IDX 10 1 20 2 21 3 22 4 2 5 3 6 4 7 6 8 7 9 8 10 11 11 12 12
REMARK SMILES IDX 13 13 19 14 15 15 17 16 14 17 16 19 18 21 9 23 1 25 5 27
REMARK H PARENT 14 18 16 20 18 22 9 24 1 26 5 28
REMARK Flexibility Score: inf
ROOT
ATOM      1  C   UNL     1     -18.386  12.404 -35.461  1.00  0.00     0.402 A 
ATOM      2  O   UNL     1     -19.218  11.366 -35.499  1.00  0.00    -0.202 OA
ATOM      3  C   UNL     1     -19.922  11.034 -36.576  1.00  0.00     0.368 A 
ATOM      4  C   UNL     1     -20.768   9.924 -36.520  1.00  0.00     0.162 A 
ATOM      5  C   UNL     1     -21.517   9.550 -37.639  1.00  0.00     0.128 A 
ATOM      6  C   UNL     1     -21.421  10.290 -38.820  1.00  0.00     0.093 A 
ATOM      7  C   UNL     1     -20.580  11.408 -38.902  1.00  0.00     0.136 A 
ATOM      8  C   UNL     1     -19.819  11.792 -37.768  1.00  0.00     0.125 A 
ATOM      9  C   UNL     1     -18.960  12.904 -37.754  1.00  0.00     0.078 A 
ATOM     10  C   UNL     1     -18.246  13.224 -36.596  1.00  0.00     0.223 A 
ENDROOT
BRANCH   1  11
ATOM     11  C   UNL     1     -17.649  12.665 -34.204  1.00  0.00     0.091 A 
ATOM     12  C   UNL     1     -18.021  13.710 -33.340  1.00  0.00     0.068 A 
ATOM     13  C   UNL     1     -17.296  13.954 -32.165  1.00  0.00     0.162 A 
ATOM     14  C   UNL     1     -16.520  11.890 -33.892  1.00  0.00     0.068 A 
ATOM     15  C   UNL     1     -16.181  13.159 -31.851  1.00  0.00     0.200 A 
ATOM     16  C   UNL     1     -15.793  12.130 -32.719  1.00  0.00     0.162 A 
BRANCH  13  17
ATOM     17  O   UNL     1     -17.678  14.989 -31.312  1.00  0.00    -0.504 OA
ATOM     18  H   UNL     1     -18.620  15.363 -31.317  1.00  0.00     0.293 HD
ENDBRANCH  13  17
BRANCH  15  19
ATOM     19  O   UNL     1     -15.448  13.381 -30.685  1.00  0.00    -0.502 OA
ATOM     20  H   UNL     1     -14.733  12.739 -30.367  1.00  0.00     0.293 HD
ENDBRANCH  15  19
BRANCH  16  21
ATOM     21  O   UNL     1     -14.682  11.349 -32.406  1.00  0.00    -0.504 OA
ATOM     22  H   UNL     1     -14.780  10.431 -31.986  1.00  0.00     0.293 HD
ENDBRANCH  16  21
ENDBRANCH   1  11
BRANCH  10  23
ATOM     23  O   UNL     1     -17.432  14.357 -36.567  1.00  0.00    -0.500 OA
ATOM     24  H   UNL     1     -17.061  14.768 -37.415  1.00  0.00     0.294 HD
ENDBRANCH  10  23
BRANCH   5  25
ATOM     25  O   UNL     1     -22.364   8.444 -37.590  1.00  0.00    -0.507 OA
ATOM     26  H   UNL     1     -22.467   7.893 -36.746  1.00  0.00     0.293 HD
ENDBRANCH   5  25
BRANCH   7  27
ATOM     27  O   UNL     1     -20.537  12.092 -40.119  1.00  0.00    -0.507 OA
ATOM     28  H   UNL     1     -20.623  13.094 -40.214  1.00  0.00     0.293 HD
ENDBRANCH   7  27
TORSDOF 7
ENDMDL
MODEL 2
REMARK VINA RESULT:    -7.316      0.084      1.790
REMARK INTER + INTRA:          -9.347
REMARK INTER:                  -9.029
REMARK INTRA:                  -0.319
REMARK UNBOUND:                -0.321
REMARK SMILES Oc1cc(O)c2cc(O)c(-c3cc(O)c(O)c(O)c3)[o+]c2c1
REMARK SMILES IDX 10 1 20 2 21 3 22 4 2 5 3 6 4 7 6 8 7 9 8 10 11 11 12 12
REMARK SMILES IDX 13 13 19 14 15 15 17 16 14 17 16 19 18 21 9 23 1 25 5 27
REMARK H PARENT 14 18 16 20 18 22 9 24 1 26 5 28
REMARK Flexibility Score: inf
ROOT
ATOM      1  C   UNL     1     -18.381  12.444 -35.489  1.00  0.00     0.402 A 
ATOM      2  O   UNL     1     -19.179  11.381 -35.534  1.00  0.00    -0.202 OA
ATOM      3  C   UNL     1     -19.909  11.061 -36.596  1.00  0.00     0.368 A 
ATOM      4  C   UNL     1     -20.717   9.921 -36.548  1.00  0.00     0.162 A 
ATOM      5  C   UNL     1     -21.493   9.559 -37.653  1.00  0.00     0.128 A 
ATOM      6  C   UNL     1     -21.461  10.339 -38.811  1.00  0.00     0.093 A 
ATOM      7  C   UNL     1     -20.661  11.486 -38.884  1.00  0.00     0.136 A 
ATOM      8  C   UNL     1     -19.873  11.859 -37.765  1.00  0.00     0.125 A 
ATOM      9  C   UNL     1     -19.051  12.998 -37.744  1.00  0.00     0.078 A 
ATOM     10  C   UNL     1     -18.307  13.305 -36.600  1.00  0.00     0.223 A 
ENDROOT
BRANCH   1  11
ATOM     11  C   UNL     1     -17.609  12.690 -34.250  1.00  0.00     0.091 A 
ATOM     12  C   UNL     1     -16.487  11.910 -33.920  1.00  0.00     0.068 A 
ATOM     13  C   UNL     1     -15.782  12.144 -32.730  1.00  0.00     0.162 A 
ATOM     14  C   UNL     1     -18.037  13.684 -33.356  1.00  0.00     0.068 A 
ATOM     15  C   UNL     1     -16.205  13.156 -31.852  1.00  0.00     0.200 A 
ATOM     16  C   UNL     1     -17.336  13.922 -32.166  1.00  0.00     0.162 A 
BRANCH  13  17
ATOM     17  O   UNL     1     -14.667  11.369 -32.415  1.00  0.00    -0.504 OA
ATOM     18  H   UNL     1     -14.041  11.021 -33.133  1.00  0.00     0.293 HD
ENDBRANCH  13  17
BRANCH  15  19
ATOM     19  O   UNL     1     -15.517  13.410 -30.666  1.00  0.00    -0.502 OA
ATOM     20  H   UNL     1     -15.152  12.666 -30.084  1.00  0.00     0.293 HD
ENDBRANCH  15  19
BRANCH  16  21
ATOM     21  O   UNL     1     -17.756  14.920 -31.289  1.00  0.00    -0.504 OA
ATOM     22  H   UNL     1     -17.387  14.988 -30.347  1.00  0.00     0.293 HD
ENDBRANCH  16  21
ENDBRANCH   1  11
BRANCH  10  23
ATOM     23  O   UNL     1     -17.530  14.462 -36.561  1.00  0.00    -0.500 OA
ATOM     24  H   UNL     1     -16.681  14.552 -37.106  1.00  0.00     0.294 HD
ENDBRANCH  10  23
BRANCH   5  25
ATOM     25  O   UNL     1     -22.301   8.424 -37.612  1.00  0.00    -0.507 OA
ATOM     26  H   UNL     1     -23.208   8.404 -38.064  1.00  0.00     0.293 HD
ENDBRANCH   5  25
BRANCH   7  27
ATOM     27  O   UNL     1     -20.682  12.211 -40.080  1.00  0.00    -0.507 OA
ATOM     28  H   UNL     1     -20.628  13.217 -40.138  1.00  0.00     0.293 HD
ENDBRANCH   7  27
TORSDOF 7
ENDMDL
MODEL 3
REMARK VINA RESULT:    -6.968      1.422      2.968
REMARK INTER + INTRA:          -8.919
REMARK INTER:                  -8.784
REMARK INTRA:                  -0.135
REMARK UNBOUND:                -0.321
REMARK SMILES Oc1cc(O)c2cc(O)c(-c3cc(O)c(O)c(O)c3)[o+]c2c1
REMARK SMILES IDX 10 1 20 2 21 3 22 4 2 5 3 6 4 7 6 8 7 9 8 10 11 11 12 12
REMARK SMILES IDX 13 13 19 14 15 15 17 16 14 17 16 19 18 21 9 23 1 25 5 27
REMARK H PARENT 14 18 16 20 18 22 9 24 1 26 5 28
REMARK Flexibility Score: inf
ROOT
ATOM      1  C   UNL     1     -19.169  12.354 -34.652  1.00  0.00     0.402 A 
ATOM      2  O   UNL     1     -18.822  12.197 -35.927  1.00  0.00    -0.202 OA
ATOM      3  C   UNL     1     -19.696  11.942 -36.895  1.00  0.00     0.368 A 
ATOM      4  C   UNL     1     -19.235  11.795 -38.206  1.00  0.00     0.162 A 
ATOM      5  C   UNL     1     -20.132  11.531 -39.244  1.00  0.00     0.128 A 
ATOM      6  C   UNL     1     -21.497  11.412 -38.970  1.00  0.00     0.093 A 
ATOM      7  C   UNL     1     -21.984  11.555 -37.665  1.00  0.00     0.136 A 
ATOM      8  C   UNL     1     -21.077  11.822 -36.607  1.00  0.00     0.125 A 
ATOM      9  C   UNL     1     -21.473  11.967 -35.268  1.00  0.00     0.078 A 
ATOM     10  C   UNL     1     -20.519  12.224 -34.278  1.00  0.00     0.223 A 
ENDROOT
BRANCH   1  11
ATOM     11  C   UNL     1     -18.103  12.645 -33.667  1.00  0.00     0.091 A 
ATOM     12  C   UNL     1     -17.020  11.768 -33.479  1.00  0.00     0.068 A 
ATOM     13  C   UNL     1     -16.032  12.052 -32.525  1.00  0.00     0.162 A 
ATOM     14  C   UNL     1     -18.201  13.791 -32.861  1.00  0.00     0.068 A 
ATOM     15  C   UNL     1     -16.128  13.212 -31.739  1.00  0.00     0.200 A 
ATOM     16  C   UNL     1     -17.216  14.079 -31.907  1.00  0.00     0.162 A 
BRANCH  13  17
ATOM     17  O   UNL     1     -14.959  11.178 -32.351  1.00  0.00    -0.504 OA
ATOM     18  H   UNL     1     -14.478  11.096 -31.463  1.00  0.00     0.293 HD
ENDBRANCH  13  17
BRANCH  15  19
ATOM     19  O   UNL     1     -15.155  13.517 -30.787  1.00  0.00    -0.502 OA
ATOM     20  H   UNL     1     -14.605  12.800 -30.330  1.00  0.00     0.293 HD
ENDBRANCH  15  19
BRANCH  16  21
ATOM     21  O   UNL     1     -17.311  15.225 -31.121  1.00  0.00    -0.504 OA
ATOM     22  H   UNL     1     -16.498  15.623 -30.663  1.00  0.00     0.293 HD
ENDBRANCH  16  21
ENDBRANCH   1  11
BRANCH  10  23
ATOM     23  O   UNL     1     -20.906  12.319 -32.941  1.00  0.00    -0.500 OA
ATOM     24  H   UNL     1     -20.309  11.995 -32.190  1.00  0.00     0.294 HD
ENDBRANCH  10  23
BRANCH   5  25
ATOM     25  O   UNL     1     -19.680  11.382 -40.553  1.00  0.00    -0.507 OA
ATOM     26  H   UNL     1     -20.286  11.559 -41.346  1.00  0.00     0.293 HD
ENDBRANCH   5  25
BRANCH   7  27
ATOM     27  O   UNL     1     -23.363  11.426 -37.475  1.00  0.00    -0.507 OA
ATOM     28  H   UNL     1     -24.015  12.196 -37.489  1.00  0.00     0.293 HD
ENDBRANCH   7  27
TORSDOF 7
ENDMDL
MODEL 4
REMARK VINA RESULT:    -6.959      1.480      2.417
REMARK INTER + INTRA:          -8.907
REMARK INTER:                  -8.622
REMARK INTRA:                  -0.285
REMARK UNBOUND:                -0.321
REMARK SMILES Oc1cc(O)c2cc(O)c(-c3cc(O)c(O)c(O)c3)[o+]c2c1
REMARK SMILES IDX 10 1 20 2 21 3 22 4 2 5 3 6 4 7 6 8 7 9 8 10 11 11 12 12
REMARK SMILES IDX 13 13 19 14 15 15 17 16 14 17 16 19 18 21 9 23 1 25 5 27
REMARK H PARENT 14 18 16 20 18 22 9 24 1 26 5 28
REMARK Flexibility Score: inf
ROOT
ATOM      1  C   UNL     1     -19.190  12.463 -34.559  1.00  0.00     0.402 A 
ATOM      2  O   UNL     1     -18.851  12.307 -35.836  1.00  0.00    -0.202 OA
ATOM      3  C   UNL     1     -19.728  12.027 -36.794  1.00  0.00     0.368 A 
ATOM      4  C   UNL     1     -19.277  11.883 -38.109  1.00  0.00     0.162 A 
ATOM      5  C   UNL     1     -20.178  11.592 -39.137  1.00  0.00     0.128 A 
ATOM      6  C   UNL     1     -21.537  11.444 -38.849  1.00  0.00     0.093 A 
ATOM      7  C   UNL     1     -22.015  11.582 -37.540  1.00  0.00     0.136 A 
ATOM      8  C   UNL     1     -21.103  11.876 -36.493  1.00  0.00     0.125 A 
ATOM      9  C   UNL     1     -21.490  12.020 -35.150  1.00  0.00     0.078 A 
ATOM     10  C   UNL     1     -20.533  12.303 -34.171  1.00  0.00     0.223 A 
ENDROOT
BRANCH   1  11
ATOM     11  C   UNL     1     -18.121  12.784 -33.586  1.00  0.00     0.091 A 
ATOM     12  C   UNL     1     -18.070  14.030 -32.939  1.00  0.00     0.068 A 
ATOM     13  C   UNL     1     -17.037  14.323 -32.036  1.00  0.00     0.162 A 
ATOM     14  C   UNL     1     -17.104  11.846 -33.343  1.00  0.00     0.068 A 
ATOM     15  C   UNL     1     -16.036  13.369 -31.784  1.00  0.00     0.200 A 
ATOM     16  C   UNL     1     -16.070  12.133 -32.442  1.00  0.00     0.162 A 
BRANCH  13  17
ATOM     17  O   UNL     1     -17.000  15.560 -31.395  1.00  0.00    -0.504 OA
ATOM     18  H   UNL     1     -17.553  16.345 -31.720  1.00  0.00     0.293 HD
ENDBRANCH  13  17
BRANCH  15  19
ATOM     19  O   UNL     1     -15.002  13.637 -30.887  1.00  0.00    -0.502 OA
ATOM     20  H   UNL     1     -14.678  14.578 -30.702  1.00  0.00     0.293 HD
ENDBRANCH  15  19
BRANCH  16  21
ATOM     21  O   UNL     1     -15.071  11.194 -32.193  1.00  0.00    -0.504 OA
ATOM     22  H   UNL     1     -14.088  11.434 -32.261  1.00  0.00     0.293 HD
ENDBRANCH  16  21
ENDBRANCH   1  11
BRANCH  10  23
ATOM     23  O   UNL     1     -20.909  12.397 -32.831  1.00  0.00    -0.500 OA
ATOM     24  H   UNL     1     -21.865  12.593 -32.559  1.00  0.00     0.294 HD
ENDBRANCH  10  23
BRANCH   5  25
ATOM     25  O   UNL     1     -19.735  11.447 -40.450  1.00  0.00    -0.507 OA
ATOM     26  H   UNL     1     -19.994  12.110 -41.173  1.00  0.00     0.293 HD
ENDBRANCH   5  25
BRANCH   7  27
ATOM     27  O   UNL     1     -23.388  11.422 -37.336  1.00  0.00    -0.507 OA
ATOM     28  H   UNL     1     -23.957  12.040 -36.775  1.00  0.00     0.293 HD
ENDBRANCH   7  27
TORSDOF 7
ENDMDL
MODEL 5
REMARK VINA RESULT:    -6.948      1.203      7.215
REMARK INTER + INTRA:          -8.894
REMARK INTER:                  -8.519
REMARK INTRA:                  -0.375
REMARK UNBOUND:                -0.321
REMARK SMILES Oc1cc(O)c2cc(O)c(-c3cc(O)c(O)c(O)c3)[o+]c2c1
REMARK SMILES IDX 10 1 20 2 21 3 22 4 2 5 3 6 4 7 6 8 7 9 8 10 11 11 12 12
REMARK SMILES IDX 13 13 19 14 15 15 17 16 14 17 16 19 18 21 9 23 1 25 5 27
REMARK H PARENT 14 18 16 20 18 22 9 24 1 26 5 28
REMARK Flexibility Score: inf
ROOT
ATOM      1  C   UNL     1     -19.283  12.072 -35.149  1.00  0.00     0.402 A 
ATOM      2  O   UNL     1     -17.986  11.777 -35.104  1.00  0.00    -0.202 OA
ATOM      3  C   UNL     1     -17.167  12.232 -34.164  1.00  0.00     0.368 A 
ATOM      4  C   UNL     1     -15.819  11.865 -34.200  1.00  0.00     0.162 A 
ATOM      5  C   UNL     1     -14.935  12.326 -33.220  1.00  0.00     0.128 A 
ATOM      6  C   UNL     1     -15.400  13.160 -32.201  1.00  0.00     0.093 A 
ATOM      7  C   UNL     1     -16.746  13.544 -32.142  1.00  0.00     0.136 A 
ATOM      8  C   UNL     1     -17.647  13.079 -33.135  1.00  0.00     0.125 A 
ATOM      9  C   UNL     1     -19.008  13.422 -33.164  1.00  0.00     0.078 A 
ATOM     10  C   UNL     1     -19.835  12.929 -34.179  1.00  0.00     0.223 A 
ENDROOT
BRANCH   1  11
ATOM     11  C   UNL     1     -20.096  11.494 -36.243  1.00  0.00     0.091 A 
ATOM     12  C   UNL     1     -20.883  10.347 -36.043  1.00  0.00     0.068 A 
ATOM     13  C   UNL     1     -21.628   9.802 -37.098  1.00  0.00     0.162 A 
ATOM     14  C   UNL     1     -20.038  12.068 -37.524  1.00  0.00     0.068 A 
ATOM     15  C   UNL     1     -21.581  10.396 -38.370  1.00  0.00     0.200 A 
ATOM     16  C   UNL     1     -20.782  11.527 -38.581  1.00  0.00     0.162 A 
BRANCH  13  17
ATOM     17  O   UNL     1     -22.411   8.667 -36.887  1.00  0.00    -0.504 OA
ATOM     18  H   UNL     1     -22.020   7.734 -36.941  1.00  0.00     0.293 HD
ENDBRANCH  13  17
BRANCH  15  19
ATOM     19  O   UNL     1     -22.318   9.874 -39.434  1.00  0.00    -0.502 OA
ATOM     20  H   UNL     1     -22.608   8.904 -39.464  1.00  0.00     0.293 HD
ENDBRANCH  15  19
BRANCH  16  21
ATOM     21  O   UNL     1     -20.733  12.109 -39.846  1.00  0.00    -0.504 OA
ATOM     22  H   UNL     1     -21.507  12.031 -40.497  1.00  0.00     0.293 HD
ENDBRANCH  16  21
ENDBRANCH   1  11
BRANCH  10  23
ATOM     23  O   UNL     1     -21.176  13.309 -34.236  1.00  0.00    -0.500 OA
ATOM     24  H   UNL     1     -21.557  13.795 -35.038  1.00  0.00     0.294 HD
ENDBRANCH  10  23
BRANCH   5  25
ATOM     25  O   UNL     1     -13.589  11.964 -33.250  1.00  0.00    -0.507 OA
ATOM     26  H   UNL     1     -12.973  12.276 -33.993  1.00  0.00     0.293 HD
ENDBRANCH   5  25
BRANCH   7  27
ATOM     27  O   UNL     1     -17.132  14.376 -31.089  1.00  0.00    -0.507 OA
ATOM     28  H   UNL     1     -17.102  14.115 -30.114  1.00  0.00     0.293 HD
ENDBRANCH   7  27
TORSDOF 7
ENDMDL
MODEL 6
REMARK VINA RESULT:    -6.728      8.489     10.071
REMARK INTER + INTRA:          -8.622
REMARK INTER:                  -8.253
REMARK INTRA:                  -0.369
REMARK UNBOUND:                -0.321
REMARK SMILES Oc1cc(O)c2cc(O)c(-c3cc(O)c(O)c(O)c3)[o+]c2c1
REMARK SMILES IDX 10 1 20 2 21 3 22 4 2 5 3 6 4 7 6 8 7 9 8 10 11 11 12 12
REMARK SMILES IDX 13 13 19 14 15 15 17 16 14 17 16 19 18 21 9 23 1 25 5 27
REMARK H PARENT 14 18 16 20 18 22 9 24 1 26 5 28
REMARK Flexibility Score: inf
ROOT
ATOM      1  C   UNL     1     -24.608  17.932 -39.102  1.00  0.00     0.402 A 
ATOM      2  O   UNL     1     -24.562  16.625 -39.343  1.00  0.00    -0.202 OA
ATOM      3  C   UNL     1     -25.365  15.746 -38.754  1.00  0.00     0.368 A 
ATOM      4  C   UNL     1     -25.242  14.391 -39.074  1.00  0.00     0.162 A 
ATOM      5  C   UNL     1     -26.077  13.445 -38.473  1.00  0.00     0.128 A 
ATOM      6  C   UNL     1     -27.039  13.855 -37.547  1.00  0.00     0.093 A 
ATOM      7  C   UNL     1     -27.182  15.206 -37.209  1.00  0.00     0.136 A 
ATOM      8  C   UNL     1     -26.336  16.171 -37.815  1.00  0.00     0.125 A 
ATOM      9  C   UNL     1     -26.399  17.544 -37.528  1.00  0.00     0.078 A 
ATOM     10  C   UNL     1     -25.527  18.434 -38.162  1.00  0.00     0.223 A 
ENDROOT
BRANCH   1  11
ATOM     11  C   UNL     1     -23.665  18.813 -39.830  1.00  0.00     0.091 A 
ATOM     12  C   UNL     1     -24.071  19.546 -40.958  1.00  0.00     0.068 A 
ATOM     13  C   UNL     1     -23.157  20.357 -41.646  1.00  0.00     0.162 A 
ATOM     14  C   UNL     1     -22.324  18.876 -39.420  1.00  0.00     0.068 A 
ATOM     15  C   UNL     1     -21.822  20.430 -41.216  1.00  0.00     0.200 A 
ATOM     16  C   UNL     1     -21.407  19.685 -40.104  1.00  0.00     0.162 A 
BRANCH  13  17
ATOM     17  O   UNL     1     -23.571  21.085 -42.761  1.00  0.00    -0.504 OA
ATOM     18  H   UNL     1     -24.148  21.913 -42.671  1.00  0.00     0.293 HD
ENDBRANCH  13  17
BRANCH  15  19
ATOM     19  O   UNL     1     -20.896  21.234 -41.882  1.00  0.00    -0.502 OA
ATOM     20  H   UNL     1     -21.174  21.903 -42.590  1.00  0.00     0.293 HD
ENDBRANCH  15  19
BRANCH  16  21
ATOM     21  O   UNL     1     -20.080  19.756 -39.685  1.00  0.00    -0.504 OA
ATOM     22  H   UNL     1     -19.367  20.203 -40.251  1.00  0.00     0.293 HD
ENDBRANCH  16  21
ENDBRANCH   1  11
BRANCH  10  23
ATOM     23  O   UNL     1     -25.556  19.791 -37.839  1.00  0.00    -0.500 OA
ATOM     24  H   UNL     1     -26.025  20.468 -38.428  1.00  0.00     0.294 HD
ENDBRANCH  10  23
BRANCH   5  25
ATOM     25  O   UNL     1     -25.960  12.092 -38.788  1.00  0.00    -0.507 OA
ATOM     26  H   UNL     1     -26.209  11.370 -38.121  1.00  0.00     0.293 HD
ENDBRANCH   5  25
BRANCH   7  27
ATOM     27  O   UNL     1     -28.170  15.535 -36.277  1.00  0.00    -0.507 OA
ATOM     28  H   UNL     1     -28.640  16.428 -36.234  1.00  0.00     0.293 HD
ENDBRANCH   7  27
TORSDOF 7
ENDMDL
MODEL 7
REMARK VINA RESULT:    -6.727      8.484     10.131
REMARK INTER + INTRA:          -8.621
REMARK INTER:                  -8.264
REMARK INTRA:                  -0.357
REMARK UNBOUND:                -0.321
REMARK SMILES Oc1cc(O)c2cc(O)c(-c3cc(O)c(O)c(O)c3)[o+]c2c1
REMARK SMILES IDX 10 1 20 2 21 3 22 4 2 5 3 6 4 7 6 8 7 9 8 10 11 11 12 12
REMARK SMILES IDX 13 13 19 14 15 15 17 16 14 17 16 19 18 21 9 23 1 25 5 27
REMARK H PARENT 14 18 16 20 18 22 9 24 1 26 5 28
REMARK Flexibility Score: inf
ROOT
ATOM      1  C   UNL     1     -24.542  17.906 -39.080  1.00  0.00     0.402 A 
ATOM      2  O   UNL     1     -24.525  16.594 -39.304  1.00  0.00    -0.202 OA
ATOM      3  C   UNL     1     -25.350  15.742 -38.705  1.00  0.00     0.368 A 
ATOM      4  C   UNL     1     -25.257  14.380 -39.006  1.00  0.00     0.162 A 
ATOM      5  C   UNL     1     -26.115  13.462 -38.394  1.00  0.00     0.128 A 
ATOM      6  C   UNL     1     -27.069  13.907 -37.476  1.00  0.00     0.093 A 
ATOM      7  C   UNL     1     -27.182  15.265 -37.156  1.00  0.00     0.136 A 
ATOM      8  C   UNL     1     -26.312  16.202 -37.774  1.00  0.00     0.125 A 
ATOM      9  C   UNL     1     -26.345  17.580 -37.505  1.00  0.00     0.078 A 
ATOM     10  C   UNL     1     -25.451  18.441 -38.149  1.00  0.00     0.223 A 
ENDROOT
BRANCH   1  11
ATOM     11  C   UNL     1     -23.578  18.754 -39.818  1.00  0.00     0.091 A 
ATOM     12  C   UNL     1     -22.250  18.902 -39.382  1.00  0.00     0.068 A 
ATOM     13  C   UNL     1     -21.359  19.728 -40.083  1.00  0.00     0.162 A 
ATOM     14  C   UNL     1     -24.012  19.472 -40.944  1.00  0.00     0.068 A 
ATOM     15  C   UNL     1     -21.797  20.424 -41.222  1.00  0.00     0.200 A 
ATOM     16  C   UNL     1     -23.125  20.298 -41.648  1.00  0.00     0.162 A 
BRANCH  13  17
ATOM     17  O   UNL     1     -20.042  19.862 -39.646  1.00  0.00    -0.504 OA
ATOM     18  H   UNL     1     -19.745  20.654 -39.087  1.00  0.00     0.293 HD
ENDBRANCH  13  17
BRANCH  15  19
ATOM     19  O   UNL     1     -20.926  21.248 -41.937  1.00  0.00    -0.502 OA
ATOM     20  H   UNL     1     -20.900  22.251 -41.801  1.00  0.00     0.293 HD
ENDBRANCH  15  19
BRANCH  16  21
ATOM     21  O   UNL     1     -23.556  20.996 -42.774  1.00  0.00    -0.504 OA
ATOM     22  H   UNL     1     -24.541  21.081 -43.001  1.00  0.00     0.293 HD
ENDBRANCH  16  21
ENDBRANCH   1  11
BRANCH  10  23
ATOM     23  O   UNL     1     -25.450  19.803 -37.845  1.00  0.00    -0.500 OA
ATOM     24  H   UNL     1     -24.992  20.481 -38.442  1.00  0.00     0.294 HD
ENDBRANCH  10  23
BRANCH   5  25
ATOM     25  O   UNL     1     -26.028  12.103 -38.689  1.00  0.00    -0.507 OA
ATOM     26  H   UNL     1     -25.343  11.506 -38.239  1.00  0.00     0.293 HD
ENDBRANCH   5  25
BRANCH   7  27
ATOM     27  O   UNL     1     -28.164  15.630 -36.231  1.00  0.00    -0.507 OA
ATOM     28  H   UNL     1     -28.686  14.976 -35.665  1.00  0.00     0.293 HD
ENDBRANCH   7  27
TORSDOF 7
ENDMDL
MODEL 8
REMARK VINA RESULT:    -6.705      1.745      7.023
REMARK INTER + INTRA:          -8.594
REMARK INTER:                  -8.242
REMARK INTRA:                  -0.352
REMARK UNBOUND:                -0.321
REMARK SMILES Oc1cc(O)c2cc(O)c(-c3cc(O)c(O)c(O)c3)[o+]c2c1
REMARK SMILES IDX 10 1 20 2 21 3 22 4 2 5 3 6 4 7 6 8 7 9 8 10 11 11 12 12
REMARK SMILES IDX 13 13 19 14 15 15 17 16 14 17 16 19 18 21 9 23 1 25 5 27
REMARK H PARENT 14 18 16 20 18 22 9 24 1 26 5 28
REMARK Flexibility Score: inf
ROOT
ATOM      1  C   UNL     1     -18.826  12.041 -35.442  1.00  0.00     0.402 A 
ATOM      2  O   UNL     1     -18.770  12.625 -34.248  1.00  0.00    -0.202 OA
ATOM      3  C   UNL     1     -17.654  12.719 -33.533  1.00  0.00     0.368 A 
ATOM      4  C   UNL     1     -17.694  13.353 -32.289  1.00  0.00     0.162 A 
ATOM      5  C   UNL     1     -16.534  13.470 -31.518  1.00  0.00     0.128 A 
ATOM      6  C   UNL     1     -15.328  12.949 -31.993  1.00  0.00     0.093 A 
ATOM      7  C   UNL     1     -15.261  12.309 -33.236  1.00  0.00     0.136 A 
ATOM      8  C   UNL     1     -16.436  12.186 -34.022  1.00  0.00     0.125 A 
ATOM      9  C   UNL     1     -16.466  11.550 -35.274  1.00  0.00     0.078 A 
ATOM     10  C   UNL     1     -17.665  11.463 -35.988  1.00  0.00     0.223 A 
ENDROOT
BRANCH   1  11
ATOM     11  C   UNL     1     -20.128  12.008 -36.145  1.00  0.00     0.091 A 
ATOM     12  C   UNL     1     -20.405  12.877 -37.214  1.00  0.00     0.068 A 
ATOM     13  C   UNL     1     -21.653  12.846 -37.853  1.00  0.00     0.162 A 
ATOM     14  C   UNL     1     -21.130  11.130 -35.702  1.00  0.00     0.068 A 
ATOM     15  C   UNL     1     -22.642  11.948 -37.416  1.00  0.00     0.200 A 
ATOM     16  C   UNL     1     -22.379  11.094 -36.337  1.00  0.00     0.162 A 
BRANCH  13  17
ATOM     17  O   UNL     1     -21.915  13.708 -38.917  1.00  0.00    -0.504 OA
ATOM     18  H   UNL     1     -21.739  13.437 -39.877  1.00  0.00     0.293 HD
ENDBRANCH  13  17
BRANCH  15  19
ATOM     19  O   UNL     1     -23.889  11.895 -38.039  1.00  0.00    -0.502 OA
ATOM     20  H   UNL     1     -24.753  12.022 -37.527  1.00  0.00     0.293 HD
ENDBRANCH  15  19
BRANCH  16  21
ATOM     21  O   UNL     1     -23.365  10.210 -35.902  1.00  0.00    -0.504 OA
ATOM     22  H   UNL     1     -24.322  10.282 -36.229  1.00  0.00     0.293 HD
ENDBRANCH  16  21
ENDBRANCH   1  11
BRANCH  10  23
ATOM     23  O   UNL     1     -17.705  10.787 -37.208  1.00  0.00    -0.500 OA
ATOM     24  H   UNL     1     -16.908  10.267 -37.555  1.00  0.00     0.294 HD
ENDBRANCH  10  23
BRANCH   5  25
ATOM     25  O   UNL     1     -16.567  14.101 -30.276  1.00  0.00    -0.507 OA
ATOM     26  H   UNL     1     -17.072  14.969 -30.136  1.00  0.00     0.293 HD
ENDBRANCH   5  25
BRANCH   7  27
ATOM     27  O   UNL     1     -14.016  11.819 -33.642  1.00  0.00    -0.507 OA
ATOM     28  H   UNL     1     -13.760  10.842 -33.640  1.00  0.00     0.293 HD
ENDBRANCH   7  27
TORSDOF 7
ENDMDL
MODEL 9
REMARK VINA RESULT:    -6.595      6.175      9.331
REMARK INTER + INTRA:          -8.459
REMARK INTER:                  -8.102
REMARK INTRA:                  -0.356
REMARK UNBOUND:                -0.321
REMARK SMILES Oc1cc(O)c2cc(O)c(-c3cc(O)c(O)c(O)c3)[o+]c2c1
REMARK SMILES IDX 10 1 20 2 21 3 22 4 2 5 3 6 4 7 6 8 7 9 8 10 11 11 12 12
REMARK SMILES IDX 13 13 19 14 15 15 17 16 14 17 16 19 18 21 9 23 1 25 5 27
REMARK H PARENT 14 18 16 20 18 22 9 24 1 26 5 28
REMARK Flexibility Score: inf
ROOT
ATOM      1  C   UNL     1     -23.793  15.188 -38.745  1.00  0.00     0.402 A 
ATOM      2  O   UNL     1     -23.876  16.068 -39.739  1.00  0.00    -0.202 OA
ATOM      3  C   UNL     1     -24.241  17.333 -39.565  1.00  0.00     0.368 A 
ATOM      4  C   UNL     1     -24.297  18.184 -40.672  1.00  0.00     0.162 A 
ATOM      5  C   UNL     1     -24.673  19.521 -40.516  1.00  0.00     0.128 A 
ATOM      6  C   UNL     1     -24.995  20.010 -39.248  1.00  0.00     0.093 A 
ATOM      7  C   UNL     1     -24.948  19.178 -38.123  1.00  0.00     0.136 A 
ATOM      8  C   UNL     1     -24.568  17.819 -38.276  1.00  0.00     0.125 A 
ATOM      9  C   UNL     1     -24.505  16.910 -37.207  1.00  0.00     0.078 A 
ATOM     10  C   UNL     1     -24.127  15.583 -37.437  1.00  0.00     0.223 A 
ENDROOT
BRANCH   1  11
ATOM     11  C   UNL     1     -23.365  13.807 -39.066  1.00  0.00     0.091 A 
ATOM     12  C   UNL     1     -22.057  13.366 -38.800  1.00  0.00     0.068 A 
ATOM     13  C   UNL     1     -21.665  12.061 -39.131  1.00  0.00     0.162 A 
ATOM     14  C   UNL     1     -24.264  12.935 -39.700  1.00  0.00     0.068 A 
ATOM     15  C   UNL     1     -22.579  11.189 -39.746  1.00  0.00     0.200 A 
ATOM     16  C   UNL     1     -23.877  11.630 -40.033  1.00  0.00     0.162 A 
BRANCH  13  17
ATOM     17  O   UNL     1     -20.367  11.631 -38.857  1.00  0.00    -0.504 OA
ATOM     18  H   UNL     1     -20.147  11.105 -38.019  1.00  0.00     0.293 HD
ENDBRANCH  13  17
BRANCH  15  19
ATOM     19  O   UNL     1     -22.212   9.885 -40.081  1.00  0.00    -0.502 OA
ATOM     20  H   UNL     1     -21.892   9.636 -41.008  1.00  0.00     0.293 HD
ENDBRANCH  15  19
BRANCH  16  21
ATOM     21  O   UNL     1     -24.778  10.764 -40.649  1.00  0.00    -0.504 OA
ATOM     22  H   UNL     1     -25.757  11.005 -40.757  1.00  0.00     0.293 HD
ENDBRANCH  16  21
ENDBRANCH   1  11
BRANCH  10  23
ATOM     23  O   UNL     1     -24.112  14.668 -36.384  1.00  0.00    -0.500 OA
ATOM     24  H   UNL     1     -23.341  14.026 -36.248  1.00  0.00     0.294 HD
ENDBRANCH  10  23
BRANCH   5  25
ATOM     25  O   UNL     1     -24.731  20.375 -41.616  1.00  0.00    -0.507 OA
ATOM     26  H   UNL     1     -24.593  21.375 -41.518  1.00  0.00     0.293 HD
ENDBRANCH   5  25
BRANCH   7  27
ATOM     27  O   UNL     1     -25.282  19.744 -36.889  1.00  0.00    -0.507 OA
ATOM     28  H   UNL     1     -24.618  19.947 -36.156  1.00  0.00     0.293 HD
ENDBRANCH   7  27
TORSDOF 7
ENDMDL
