MODEL 1
REMARK VINA RESULT:    -3.406      0.000      0.000
REMARK INTER + INTRA:         -13.125
REMARK INTER:                  -8.584
REMARK INTRA:                  -4.541
REMARK UNBOUND:                -4.541
REMARK SMILES CCCCCCCCCCCCCCCCCCCCCCCCCCCC(=O)[O-]
REMARK SMILES IDX 15 1 16 2 17 3 18 4 19 5 20 6 21 7 22 8 23 9 24 10 25 11
REMARK SMILES IDX 26 12 27 13 28 14 29 15 30 16 14 17 13 18 12 19 11 20 10 21
REMARK SMILES IDX 9 22 8 23 7 24 6 25 5 26 4 27 3 28 2 29 1 30
REMARK H PARENT
REMARK Flexibility Score: inf
ROOT
ATOM      1  C   UNL     1      34.683   6.847  -4.437  1.00  0.00     0.000 C 
ENDROOT
BRANCH   1   2
ATOM      2  C   UNL     1      35.538   8.128  -4.546  1.00  0.00     0.000 C 
BRANCH   2   3
ATOM      3  C   UNL     1      36.530   8.070  -5.721  1.00  0.00     0.000 C 
BRANCH   3   4
ATOM      4  C   UNL     1      36.149   9.017  -6.871  1.00  0.00     0.000 C 
BRANCH   4   5
ATOM      5  C   UNL     1      36.099   8.300  -8.232  1.00  0.00     0.000 C 
BRANCH   5   6
ATOM      6  C   UNL     1      36.892   6.981  -8.246  1.00  0.00     0.000 C 
BRANCH   6   7
ATOM      7  C   UNL     1      37.544   6.622  -9.597  1.00  0.00     0.000 C 
BRANCH   7   8
ATOM      8  C   UNL     1      36.933   5.404 -10.317  1.00  0.00     0.000 C 
BRANCH   8   9
ATOM      9  C   UNL     1      36.356   4.318  -9.386  1.00  0.00     0.000 C 
BRANCH   9  10
ATOM     10  C   UNL     1      35.458   3.279 -10.081  1.00  0.00     0.000 C 
BRANCH  10  11
ATOM     11  C   UNL     1      35.684   1.853  -9.557  1.00  0.00     0.000 C 
BRANCH  11  12
ATOM     12  C   UNL     1      35.900   1.854  -8.039  1.00  0.00     0.006 C 
BRANCH  12  13
ATOM     13  C   UNL     1      36.485   0.519  -7.566  1.00  0.00     0.053 C 
BRANCH  13  14
ATOM     14  C   UNL     1      37.941   0.666  -7.252  1.00  0.00     0.041 C 
ATOM     15  O   UNL     1      38.545  -0.231  -6.608  1.00  0.00    -0.550 OA
ATOM     16  O   UNL     1      38.639   1.780  -7.701  1.00  0.00    -0.550 OA
ENDBRANCH  13  14
ENDBRANCH  12  13
ENDBRANCH  11  12
ENDBRANCH  10  11
ENDBRANCH   9  10
ENDBRANCH   8   9
ENDBRANCH   7   8
ENDBRANCH   6   7
ENDBRANCH   5   6
ENDBRANCH   4   5
ENDBRANCH   3   4
ENDBRANCH   2   3
ENDBRANCH   1   2
BRANCH   1  17
ATOM     17  C   UNL     1      35.188   5.682  -5.309  1.00  0.00     0.000 C 
BRANCH  17  18
ATOM     18  C   UNL     1      34.095   4.929  -6.083  1.00  0.00     0.000 C 
BRANCH  18  19
ATOM     19  C   UNL     1      33.496   5.759  -7.230  1.00  0.00     0.000 C 
BRANCH  19  20
ATOM     20  C   UNL     1      31.965   5.678  -7.225  1.00  0.00     0.000 C 
BRANCH  20  21
ATOM     21  C   UNL     1      31.341   7.081  -7.167  1.00  0.00     0.000 C 
BRANCH  21  22
ATOM     22  C   UNL     1      29.834   7.047  -6.853  1.00  0.00    -0.000 C 
BRANCH  22  23
ATOM     23  C   UNL     1      28.948   7.795  -7.868  1.00  0.00    -0.000 C 
BRANCH  23  24
ATOM     24  C   UNL     1      29.473   7.795  -9.318  1.00  0.00    -0.000 C 
BRANCH  24  25
ATOM     25  C   UNL     1      28.619   6.952 -10.288  1.00  0.00    -0.000 C 
BRANCH  25  26
ATOM     26  C   UNL     1      29.464   6.285 -11.385  1.00  0.00    -0.000 C 
BRANCH  26  27
ATOM     27  C   UNL     1      30.907   6.811 -11.365  1.00  0.00    -0.000 C 
BRANCH  27  28
ATOM     28  C   UNL     1      31.923   5.728 -10.972  1.00  0.00    -0.000 C 
BRANCH  28  29
ATOM     29  C   UNL     1      33.361   6.264 -10.899  1.00  0.00    -0.003 C 
ATOM     30  C   UNL     1      33.385   7.699 -10.381  1.00  0.00     0.004 C 
ENDBRANCH  28  29
ENDBRANCH  27  28
ENDBRANCH  26  27
ENDBRANCH  25  26
ENDBRANCH  24  25
ENDBRANCH  23  24
ENDBRANCH  22  23
ENDBRANCH  21  22
ENDBRANCH  20  21
ENDBRANCH  19  20
ENDBRANCH  18  19
ENDBRANCH  17  18
ENDBRANCH   1  17
TORSDOF 26
ENDMDL
MODEL 2
REMARK VINA RESULT:    -3.389     11.509     14.566
REMARK INTER + INTRA:         -13.081
REMARK INTER:                  -7.867
REMARK INTRA:                  -5.214
REMARK UNBOUND:                -4.541
REMARK SMILES CCCCCCCCCCCCCCCCCCCCCCCCCCCC(=O)[O-]
REMARK SMILES IDX 15 1 16 2 17 3 18 4 19 5 20 6 21 7 22 8 23 9 24 10 25 11
REMARK SMILES IDX 26 12 27 13 28 14 29 15 30 16 14 17 13 18 12 19 11 20 10 21
REMARK SMILES IDX 9 22 8 23 7 24 6 25 5 26 4 27 3 28 2 29 1 30
REMARK H PARENT
REMARK Flexibility Score: inf
ROOT
ATOM      1  C   UNL     1      38.261   4.509   4.438  1.00  0.00     0.000 C 
ENDROOT
BRANCH   1   2
ATOM      2  C   UNL     1      37.933   6.014   4.330  1.00  0.00     0.000 C 
BRANCH   2   3
ATOM      3  C   UNL     1      36.609   6.374   5.028  1.00  0.00     0.000 C 
BRANCH   3   4
ATOM      4  C   UNL     1      35.508   6.793   4.040  1.00  0.00     0.000 C 
BRANCH   4   5
ATOM      5  C   UNL     1      34.134   6.940   4.716  1.00  0.00     0.000 C 
BRANCH   5   6
ATOM      6  C   UNL     1      34.084   6.310   6.120  1.00  0.00     0.000 C 
BRANCH   6   7
ATOM      7  C   UNL     1      32.851   5.427   6.399  1.00  0.00     0.000 C 
BRANCH   7   8
ATOM      8  C   UNL     1      32.954   3.977   5.887  1.00  0.00     0.000 C 
BRANCH   8   9
ATOM      9  C   UNL     1      34.390   3.431   5.758  1.00  0.00     0.000 C 
BRANCH   9  10
ATOM     10  C   UNL     1      34.736   2.833   4.383  1.00  0.00     0.000 C 
BRANCH  10  11
ATOM     11  C   UNL     1      33.966   3.499   3.233  1.00  0.00     0.000 C 
BRANCH  11  12
ATOM     12  C   UNL     1      33.751   2.517   2.075  1.00  0.00     0.006 C 
BRANCH  12  13
ATOM     13  C   UNL     1      33.070   1.233   2.561  1.00  0.00     0.053 C 
BRANCH  13  14
ATOM     14  C   UNL     1      31.594   1.302   2.328  1.00  0.00     0.041 C 
ATOM     15  O   UNL     1      30.793   1.181   3.291  1.00  0.00    -0.550 OA
ATOM     16  O   UNL     1      31.103   1.533   1.049  1.00  0.00    -0.550 OA
ENDBRANCH  13  14
ENDBRANCH  12  13
ENDBRANCH  11  12
ENDBRANCH  10  11
ENDBRANCH   9  10
ENDBRANCH   8   9
ENDBRANCH   7   8
ENDBRANCH   6   7
ENDBRANCH   5   6
ENDBRANCH   4   5
ENDBRANCH   3   4
ENDBRANCH   2   3
ENDBRANCH   1   2
BRANCH   1  17
ATOM     17  C   UNL     1      37.986   3.908   5.829  1.00  0.00     0.000 C 
BRANCH  17  18
ATOM     18  C   UNL     1      39.219   3.330   6.543  1.00  0.00     0.000 C 
BRANCH  18  19
ATOM     19  C   UNL     1      40.443   4.257   6.463  1.00  0.00     0.000 C 
BRANCH  19  20
ATOM     20  C   UNL     1      41.732   3.448   6.276  1.00  0.00     0.000 C 
BRANCH  20  21
ATOM     21  C   UNL     1      41.476   2.196   5.423  1.00  0.00     0.000 C 
BRANCH  21  22
ATOM     22  C   UNL     1      42.065   2.315   4.005  1.00  0.00    -0.000 C 
BRANCH  22  23
ATOM     23  C   UNL     1      41.018   2.439   2.881  1.00  0.00    -0.000 C 
BRANCH  23  24
ATOM     24  C   UNL     1      41.026   1.291   1.851  1.00  0.00    -0.000 C 
BRANCH  24  25
ATOM     25  C   UNL     1      39.616   0.843   1.411  1.00  0.00    -0.000 C 
BRANCH  25  26
ATOM     26  C   UNL     1      38.502   1.621   2.128  1.00  0.00    -0.000 C 
BRANCH  26  27
ATOM     27  C   UNL     1      37.166   0.868   2.050  1.00  0.00    -0.000 C 
BRANCH  27  28
ATOM     28  C   UNL     1      36.889   0.025   3.304  1.00  0.00    -0.000 C 
BRANCH  28  29
ATOM     29  C   UNL     1      37.690   0.500   4.526  1.00  0.00    -0.003 C 
ATOM     30  C   UNL     1      36.929   0.223   5.820  1.00  0.00     0.004 C 
ENDBRANCH  28  29
ENDBRANCH  27  28
ENDBRANCH  26  27
ENDBRANCH  25  26
ENDBRANCH  24  25
ENDBRANCH  23  24
ENDBRANCH  22  23
ENDBRANCH  21  22
ENDBRANCH  20  21
ENDBRANCH  19  20
ENDBRANCH  18  19
ENDBRANCH  17  18
ENDBRANCH   1  17
TORSDOF 26
ENDMDL
MODEL 3
REMARK VINA RESULT:    -3.363     10.248     14.201
REMARK INTER + INTRA:         -13.016
REMARK INTER:                  -8.322
REMARK INTRA:                  -4.694
REMARK UNBOUND:                -4.541
REMARK SMILES CCCCCCCCCCCCCCCCCCCCCCCCCCCC(=O)[O-]
REMARK SMILES IDX 15 1 16 2 17 3 18 4 19 5 20 6 21 7 22 8 23 9 24 10 25 11
REMARK SMILES IDX 26 12 27 13 28 14 29 15 30 16 14 17 13 18 12 19 11 20 10 21
REMARK SMILES IDX 9 22 8 23 7 24 6 25 5 26 4 27 3 28 2 29 1 30
REMARK H PARENT
REMARK Flexibility Score: inf
ROOT
ATOM      1  C   UNL     1      37.680   2.900   5.488  1.00  0.00     0.000 C 
ENDROOT
BRANCH   1   2
ATOM      2  C   UNL     1      37.636   4.256   4.750  1.00  0.00     0.000 C 
BRANCH   2   3
ATOM      3  C   UNL     1      38.571   5.298   5.388  1.00  0.00     0.000 C 
BRANCH   3   4
ATOM      4  C   UNL     1      38.102   6.744   5.153  1.00  0.00     0.000 C 
BRANCH   4   5
ATOM      5  C   UNL     1      37.190   6.874   3.920  1.00  0.00     0.000 C 
BRANCH   5   6
ATOM      6  C   UNL     1      36.059   7.899   4.115  1.00  0.00     0.000 C 
BRANCH   6   7
ATOM      7  C   UNL     1      34.688   7.299   4.489  1.00  0.00     0.000 C 
BRANCH   7   8
ATOM      8  C   UNL     1      34.399   5.905   3.897  1.00  0.00     0.000 C 
BRANCH   8   9
ATOM      9  C   UNL     1      33.960   4.840   4.922  1.00  0.00     0.000 C 
BRANCH   9  10
ATOM     10  C   UNL     1      33.689   3.444   4.331  1.00  0.00     0.000 C 
BRANCH  10  11
ATOM     11  C   UNL     1      34.339   3.245   2.954  1.00  0.00     0.000 C 
BRANCH  11  12
ATOM     12  C   UNL     1      33.830   1.960   2.289  1.00  0.00     0.006 C 
BRANCH  12  13
ATOM     13  C   UNL     1      32.356   2.093   1.890  1.00  0.00     0.053 C 
BRANCH  13  14
ATOM     14  C   UNL     1      32.196   3.111   0.806  1.00  0.00     0.041 C 
ATOM     15  O   UNL     1      31.238   3.927   0.838  1.00  0.00    -0.550 OA
ATOM     16  O   UNL     1      33.126   3.181  -0.224  1.00  0.00    -0.550 OA
ENDBRANCH  13  14
ENDBRANCH  12  13
ENDBRANCH  11  12
ENDBRANCH  10  11
ENDBRANCH   9  10
ENDBRANCH   8   9
ENDBRANCH   7   8
ENDBRANCH   6   7
ENDBRANCH   5   6
ENDBRANCH   4   5
ENDBRANCH   3   4
ENDBRANCH   2   3
ENDBRANCH   1   2
BRANCH   1  17
ATOM     17  C   UNL     1      37.058   1.736   4.694  1.00  0.00     0.000 C 
BRANCH  17  18
ATOM     18  C   UNL     1      37.635   1.529   3.285  1.00  0.00     0.000 C 
BRANCH  18  19
ATOM     19  C   UNL     1      39.154   1.298   3.290  1.00  0.00     0.000 C 
BRANCH  19  20
ATOM     20  C   UNL     1      39.878   2.391   2.495  1.00  0.00     0.000 C 
BRANCH  20  21
ATOM     21  C   UNL     1      41.234   2.728   3.134  1.00  0.00     0.000 C 
BRANCH  21  22
ATOM     22  C   UNL     1      41.352   2.210   4.579  1.00  0.00    -0.000 C 
BRANCH  22  23
ATOM     23  C   UNL     1      42.490   1.196   4.808  1.00  0.00    -0.000 C 
BRANCH  23  24
ATOM     24  C   UNL     1      42.756   0.236   3.631  1.00  0.00    -0.000 C 
BRANCH  24  25
ATOM     25  C   UNL     1      41.907  -1.053   3.676  1.00  0.00    -0.000 C 
BRANCH  25  26
ATOM     26  C   UNL     1      41.598  -1.600   2.274  1.00  0.00    -0.000 C 
BRANCH  26  27
ATOM     27  C   UNL     1      41.756  -0.505   1.207  1.00  0.00    -0.000 C 
BRANCH  27  28
ATOM     28  C   UNL     1      40.583  -0.474   0.216  1.00  0.00    -0.000 C 
BRANCH  28  29
ATOM     29  C   UNL     1      39.374  -1.286   0.702  1.00  0.00    -0.003 C 
ATOM     30  C   UNL     1      38.066  -0.656   0.231  1.00  0.00     0.004 C 
ENDBRANCH  28  29
ENDBRANCH  27  28
ENDBRANCH  26  27
ENDBRANCH  25  26
ENDBRANCH  24  25
ENDBRANCH  23  24
ENDBRANCH  22  23
ENDBRANCH  21  22
ENDBRANCH  20  21
ENDBRANCH  19  20
ENDBRANCH  18  19
ENDBRANCH  17  18
ENDBRANCH   1  17
TORSDOF 26
ENDMDL
MODEL 4
REMARK VINA RESULT:    -3.353     10.016     12.868
REMARK INTER + INTRA:         -12.989
REMARK INTER:                  -8.043
REMARK INTRA:                  -4.946
REMARK UNBOUND:                -4.541
REMARK SMILES CCCCCCCCCCCCCCCCCCCCCCCCCCCC(=O)[O-]
REMARK SMILES IDX 15 1 16 2 17 3 18 4 19 5 20 6 21 7 22 8 23 9 24 10 25 11
REMARK SMILES IDX 26 12 27 13 28 14 29 15 30 16 14 17 13 18 12 19 11 20 10 21
REMARK SMILES IDX 9 22 8 23 7 24 6 25 5 26 4 27 3 28 2 29 1 30
REMARK H PARENT
REMARK Flexibility Score: inf
ROOT
ATOM      1  C   UNL     1      38.247   6.880   5.016  1.00  0.00     0.000 C 
ENDROOT
BRANCH   1   2
ATOM      2  C   UNL     1      38.124   5.368   4.727  1.00  0.00     0.000 C 
BRANCH   2   3
ATOM      3  C   UNL     1      37.516   4.595   5.910  1.00  0.00     0.000 C 
BRANCH   3   4
ATOM      4  C   UNL     1      37.275   3.110   5.591  1.00  0.00     0.000 C 
BRANCH   4   5
ATOM      5  C   UNL     1      37.423   2.797   4.092  1.00  0.00     0.000 C 
BRANCH   5   6
ATOM      6  C   UNL     1      37.007   1.359   3.734  1.00  0.00     0.000 C 
BRANCH   6   7
ATOM      7  C   UNL     1      36.779   1.097   2.231  1.00  0.00     0.000 C 
BRANCH   7   8
ATOM      8  C   UNL     1      37.289  -0.264   1.718  1.00  0.00     0.000 C 
BRANCH   8   9
ATOM      9  C   UNL     1      38.816  -0.465   1.811  1.00  0.00     0.000 C 
BRANCH   9  10
ATOM     10  C   UNL     1      39.648   0.474   0.920  1.00  0.00     0.000 C 
BRANCH  10  11
ATOM     11  C   UNL     1      40.912   0.994   1.620  1.00  0.00     0.000 C 
BRANCH  11  12
ATOM     12  C   UNL     1      40.640   1.278   3.103  1.00  0.00     0.006 C 
BRANCH  12  13
ATOM     13  C   UNL     1      41.001   2.723   3.462  1.00  0.00     0.053 C 
BRANCH  13  14
ATOM     14  C   UNL     1      41.095   2.888   4.946  1.00  0.00     0.041 C 
ATOM     15  O   UNL     1      41.168   4.037   5.454  1.00  0.00    -0.550 OA
ATOM     16  O   UNL     1      41.069   1.771   5.771  1.00  0.00    -0.550 OA
ENDBRANCH  13  14
ENDBRANCH  12  13
ENDBRANCH  11  12
ENDBRANCH  10  11
ENDBRANCH   9  10
ENDBRANCH   8   9
ENDBRANCH   7   8
ENDBRANCH   6   7
ENDBRANCH   5   6
ENDBRANCH   4   5
ENDBRANCH   3   4
ENDBRANCH   2   3
ENDBRANCH   1   2
BRANCH   1  17
ATOM     17  C   UNL     1      37.744   7.779   3.871  1.00  0.00     0.000 C 
BRANCH  17  18
ATOM     18  C   UNL     1      36.228   8.033   3.863  1.00  0.00     0.000 C 
BRANCH  18  19
ATOM     19  C   UNL     1      35.585   7.853   5.248  1.00  0.00     0.000 C 
BRANCH  19  20
ATOM     20  C   UNL     1      34.492   6.779   5.210  1.00  0.00     0.000 C 
BRANCH  20  21
ATOM     21  C   UNL     1      34.351   6.189   3.798  1.00  0.00     0.000 C 
BRANCH  21  22
ATOM     22  C   UNL     1      34.321   4.650   3.799  1.00  0.00    -0.000 C 
BRANCH  22  23
ATOM     23  C   UNL     1      33.701   4.018   5.060  1.00  0.00    -0.000 C 
BRANCH  23  24
ATOM     24  C   UNL     1      33.639   2.477   5.057  1.00  0.00    -0.000 C 
BRANCH  24  25
ATOM     25  C   UNL     1      32.404   1.907   4.328  1.00  0.00    -0.000 C 
BRANCH  25  26
ATOM     26  C   UNL     1      32.707   0.586   3.605  1.00  0.00    -0.000 C 
BRANCH  26  27
ATOM     27  C   UNL     1      32.973   0.823   2.111  1.00  0.00    -0.000 C 
BRANCH  27  28
ATOM     28  C   UNL     1      32.149   1.990   1.543  1.00  0.00    -0.000 C 
BRANCH  28  29
ATOM     29  C   UNL     1      33.010   3.005   0.778  1.00  0.00    -0.003 C 
ATOM     30  C   UNL     1      32.168   4.182   0.293  1.00  0.00     0.004 C 
ENDBRANCH  28  29
ENDBRANCH  27  28
ENDBRANCH  26  27
ENDBRANCH  25  26
ENDBRANCH  24  25
ENDBRANCH  23  24
ENDBRANCH  22  23
ENDBRANCH  21  22
ENDBRANCH  20  21
ENDBRANCH  19  20
ENDBRANCH  18  19
ENDBRANCH  17  18
ENDBRANCH   1  17
TORSDOF 26
ENDMDL
MODEL 5
REMARK VINA RESULT:    -3.337     11.081     14.356
REMARK INTER + INTRA:         -12.950
REMARK INTER:                  -7.381
REMARK INTRA:                  -5.570
REMARK UNBOUND:                -4.541
REMARK SMILES CCCCCCCCCCCCCCCCCCCCCCCCCCCC(=O)[O-]
REMARK SMILES IDX 15 1 16 2 17 3 18 4 19 5 20 6 21 7 22 8 23 9 24 10 25 11
REMARK SMILES IDX 26 12 27 13 28 14 29 15 30 16 14 17 13 18 12 19 11 20 10 21
REMARK SMILES IDX 9 22 8 23 7 24 6 25 5 26 4 27 3 28 2 29 1 30
REMARK H PARENT
REMARK Flexibility Score: inf
ROOT
ATOM      1  C   UNL     1      37.876   6.190   4.053  1.00  0.00     0.000 C 
ENDROOT
BRANCH   1   2
ATOM      2  C   UNL     1      38.033   7.690   3.726  1.00  0.00     0.000 C 
BRANCH   2   3
ATOM      3  C   UNL     1      37.364   8.591   4.780  1.00  0.00     0.000 C 
BRANCH   3   4
ATOM      4  C   UNL     1      35.829   8.528   4.731  1.00  0.00     0.000 C 
BRANCH   4   5
ATOM      5  C   UNL     1      35.225   7.870   5.984  1.00  0.00     0.000 C 
BRANCH   5   6
ATOM      6  C   UNL     1      34.457   6.574   5.671  1.00  0.00     0.000 C 
BRANCH   6   7
ATOM      7  C   UNL     1      34.403   6.187   4.179  1.00  0.00     0.000 C 
BRANCH   7   8
ATOM      8  C   UNL     1      34.337   4.674   3.896  1.00  0.00     0.000 C 
BRANCH   8   9
ATOM      9  C   UNL     1      33.585   3.844   4.957  1.00  0.00     0.000 C 
BRANCH   9  10
ATOM     10  C   UNL     1      33.765   2.321   4.836  1.00  0.00     0.000 C 
BRANCH  10  11
ATOM     11  C   UNL     1      32.502   1.610   4.329  1.00  0.00     0.000 C 
BRANCH  11  12
ATOM     12  C   UNL     1      32.815   0.746   3.101  1.00  0.00     0.006 C 
BRANCH  12  13
ATOM     13  C   UNL     1      33.317   1.606   1.937  1.00  0.00     0.053 C 
BRANCH  13  14
ATOM     14  C   UNL     1      32.187   2.374   1.326  1.00  0.00     0.041 C 
ATOM     15  O   UNL     1      31.137   1.780   0.967  1.00  0.00    -0.550 OA
ATOM     16  O   UNL     1      32.281   3.753   1.185  1.00  0.00    -0.550 OA
ENDBRANCH  13  14
ENDBRANCH  12  13
ENDBRANCH  11  12
ENDBRANCH  10  11
ENDBRANCH   9  10
ENDBRANCH   8   9
ENDBRANCH   7   8
ENDBRANCH   6   7
ENDBRANCH   5   6
ENDBRANCH   4   5
ENDBRANCH   3   4
ENDBRANCH   2   3
ENDBRANCH   1   2
BRANCH   1  17
ATOM     17  C   UNL     1      38.668   5.735   5.294  1.00  0.00     0.000 C 
BRANCH  17  18
ATOM     18  C   UNL     1      38.009   4.611   6.109  1.00  0.00     0.000 C 
BRANCH  18  19
ATOM     19  C   UNL     1      37.469   3.472   5.228  1.00  0.00     0.000 C 
BRANCH  19  20
ATOM     20  C   UNL     1      37.107   2.247   6.076  1.00  0.00     0.000 C 
BRANCH  20  21
ATOM     21  C   UNL     1      36.853   1.020   5.187  1.00  0.00     0.000 C 
BRANCH  21  22
ATOM     22  C   UNL     1      37.205   1.276   3.709  1.00  0.00    -0.000 C 
BRANCH  22  23
ATOM     23  C   UNL     1      38.143   0.228   3.080  1.00  0.00    -0.000 C 
BRANCH  23  24
ATOM     24  C   UNL     1      39.483   0.782   2.554  1.00  0.00    -0.000 C 
BRANCH  24  25
ATOM     25  C   UNL     1      39.413   2.257   2.108  1.00  0.00    -0.000 C 
BRANCH  25  26
ATOM     26  C   UNL     1      40.326   3.167   2.944  1.00  0.00    -0.000 C 
BRANCH  26  27
ATOM     27  C   UNL     1      41.198   2.341   3.902  1.00  0.00    -0.000 C 
BRANCH  27  28
ATOM     28  C   UNL     1      41.416   3.040   5.253  1.00  0.00    -0.000 C 
BRANCH  28  29
ATOM     29  C   UNL     1      40.856   2.233   6.434  1.00  0.00    -0.003 C 
ATOM     30  C   UNL     1      40.620   0.778   6.040  1.00  0.00     0.004 C 
ENDBRANCH  28  29
ENDBRANCH  27  28
ENDBRANCH  26  27
ENDBRANCH  25  26
ENDBRANCH  24  25
ENDBRANCH  23  24
ENDBRANCH  22  23
ENDBRANCH  21  22
ENDBRANCH  20  21
ENDBRANCH  19  20
ENDBRANCH  18  19
ENDBRANCH  17  18
ENDBRANCH   1  17
TORSDOF 26
ENDMDL
MODEL 6
REMARK VINA RESULT:    -3.310      2.316      7.598
REMARK INTER + INTRA:         -12.881
REMARK INTER:                  -7.919
REMARK INTRA:                  -4.963
REMARK UNBOUND:                -4.541
REMARK SMILES CCCCCCCCCCCCCCCCCCCCCCCCCCCC(=O)[O-]
REMARK SMILES IDX 15 1 16 2 17 3 18 4 19 5 20 6 21 7 22 8 23 9 24 10 25 11
REMARK SMILES IDX 26 12 27 13 28 14 29 15 30 16 14 17 13 18 12 19 11 20 10 21
REMARK SMILES IDX 9 22 8 23 7 24 6 25 5 26 4 27 3 28 2 29 1 30
REMARK H PARENT
REMARK Flexibility Score: inf
ROOT
ATOM      1  C   UNL     1      33.847   6.497 -10.785  1.00  0.00     0.000 C 
ENDROOT
BRANCH   1   2
ATOM      2  C   UNL     1      32.462   7.173 -10.693  1.00  0.00     0.000 C 
BRANCH   2   3
ATOM      3  C   UNL     1      31.311   6.180 -10.931  1.00  0.00     0.000 C 
BRANCH   3   4
ATOM      4  C   UNL     1      29.949   6.874 -11.097  1.00  0.00     0.000 C 
BRANCH   4   5
ATOM      5  C   UNL     1      30.005   8.373 -10.753  1.00  0.00     0.000 C 
BRANCH   5   6
ATOM      6  C   UNL     1      29.127   8.746  -9.545  1.00  0.00     0.000 C 
BRANCH   6   7
ATOM      7  C   UNL     1      28.692   7.560  -8.659  1.00  0.00     0.000 C 
BRANCH   7   8
ATOM      8  C   UNL     1      29.363   7.497  -7.273  1.00  0.00     0.000 C 
BRANCH   8   9
ATOM      9  C   UNL     1      30.892   7.293  -7.297  1.00  0.00     0.000 C 
BRANCH   9  10
ATOM     10  C   UNL     1      31.349   5.826  -7.379  1.00  0.00     0.000 C 
BRANCH  10  11
ATOM     11  C   UNL     1      32.789   5.622  -6.885  1.00  0.00     0.000 C 
BRANCH  11  12
ATOM     12  C   UNL     1      33.601   6.916  -7.015  1.00  0.00     0.006 C 
BRANCH  12  13
ATOM     13  C   UNL     1      34.064   7.415  -5.642  1.00  0.00     0.053 C 
BRANCH  13  14
ATOM     14  C   UNL     1      35.233   6.615  -5.160  1.00  0.00     0.041 C 
ATOM     15  O   UNL     1      36.407   7.016  -5.372  1.00  0.00    -0.550 OA
ATOM     16  O   UNL     1      35.025   5.443  -4.445  1.00  0.00    -0.550 OA
ENDBRANCH  13  14
ENDBRANCH  12  13
ENDBRANCH  11  12
ENDBRANCH  10  11
ENDBRANCH   9  10
ENDBRANCH   8   9
ENDBRANCH   7   8
ENDBRANCH   6   7
ENDBRANCH   5   6
ENDBRANCH   4   5
ENDBRANCH   3   4
ENDBRANCH   2   3
ENDBRANCH   1   2
BRANCH   1  17
ATOM     17  C   UNL     1      33.790   4.959 -10.843  1.00  0.00     0.000 C 
BRANCH  17  18
ATOM     18  C   UNL     1      35.020   4.241 -10.266  1.00  0.00     0.000 C 
BRANCH  18  19
ATOM     19  C   UNL     1      35.850   5.136  -9.332  1.00  0.00     0.000 C 
BRANCH  19  20
ATOM     20  C   UNL     1      36.146   4.422  -8.008  1.00  0.00     0.000 C 
BRANCH  20  21
ATOM     21  C   UNL     1      35.511   3.023  -7.985  1.00  0.00     0.000 C 
BRANCH  21  22
ATOM     22  C   UNL     1      36.553   1.902  -7.819  1.00  0.00    -0.000 C 
BRANCH  22  23
ATOM     23  C   UNL     1      36.408   0.736  -8.815  1.00  0.00    -0.000 C 
BRANCH  23  24
ATOM     24  C   UNL     1      36.725   1.087 -10.283  1.00  0.00    -0.000 C 
BRANCH  24  25
ATOM     25  C   UNL     1      38.003   1.934 -10.457  1.00  0.00    -0.000 C 
BRANCH  25  26
ATOM     26  C   UNL     1      39.240   1.263  -9.840  1.00  0.00    -0.000 C 
BRANCH  26  27
ATOM     27  C   UNL     1      40.073   2.274  -9.038  1.00  0.00    -0.000 C 
BRANCH  27  28
ATOM     28  C   UNL     1      39.592   3.720  -9.231  1.00  0.00    -0.000 C 
BRANCH  28  29
ATOM     29  C   UNL     1      39.735   4.566  -7.957  1.00  0.00    -0.003 C 
ATOM     30  C   UNL     1      39.780   3.682  -6.714  1.00  0.00     0.004 C 
ENDBRANCH  28  29
ENDBRANCH  27  28
ENDBRANCH  26  27
ENDBRANCH  25  26
ENDBRANCH  24  25
ENDBRANCH  23  24
ENDBRANCH  22  23
ENDBRANCH  21  22
ENDBRANCH  20  21
ENDBRANCH  19  20
ENDBRANCH  18  19
ENDBRANCH  17  18
ENDBRANCH   1  17
TORSDOF 26
ENDMDL
MODEL 7
REMARK VINA RESULT:    -3.286      1.487      4.064
REMARK INTER + INTRA:         -12.823
REMARK INTER:                  -8.165
REMARK INTRA:                  -4.658
REMARK UNBOUND:                -4.541
REMARK SMILES CCCCCCCCCCCCCCCCCCCCCCCCCCCC(=O)[O-]
REMARK SMILES IDX 15 1 16 2 17 3 18 4 19 5 20 6 21 7 22 8 23 9 24 10 25 11
REMARK SMILES IDX 26 12 27 13 28 14 29 15 30 16 14 17 13 18 12 19 11 20 10 21
REMARK SMILES IDX 9 22 8 23 7 24 6 25 5 26 4 27 3 28 2 29 1 30
REMARK H PARENT
REMARK Flexibility Score: inf
ROOT
ATOM      1  C   UNL     1      34.591   4.599  -6.357  1.00  0.00     0.000 C 
ENDROOT
BRANCH   1   2
ATOM      2  C   UNL     1      35.319   3.993  -7.576  1.00  0.00     0.000 C 
BRANCH   2   3
ATOM      3  C   UNL     1      36.755   4.527  -7.724  1.00  0.00     0.000 C 
BRANCH   3   4
ATOM      4  C   UNL     1      37.175   4.712  -9.192  1.00  0.00     0.000 C 
BRANCH   4   5
ATOM      5  C   UNL     1      35.969   4.889 -10.132  1.00  0.00     0.000 C 
BRANCH   5   6
ATOM      6  C   UNL     1      35.934   3.848 -11.265  1.00  0.00     0.000 C 
BRANCH   6   7
ATOM      7  C   UNL     1      34.976   2.661 -11.036  1.00  0.00     0.000 C 
BRANCH   7   8
ATOM      8  C   UNL     1      35.658   1.287 -10.888  1.00  0.00     0.000 C 
BRANCH   8   9
ATOM      9  C   UNL     1      36.775   1.225  -9.826  1.00  0.00     0.000 C 
BRANCH   9  10
ATOM     10  C   UNL     1      36.382   0.526  -8.512  1.00  0.00     0.000 C 
BRANCH  10  11
ATOM     11  C   UNL     1      37.390   0.773  -7.380  1.00  0.00     0.000 C 
BRANCH  11  12
ATOM     12  C   UNL     1      38.821   0.852  -7.928  1.00  0.00     0.006 C 
BRANCH  12  13
ATOM     13  C   UNL     1      39.826   0.271  -6.929  1.00  0.00     0.053 C 
BRANCH  13  14
ATOM     14  C   UNL     1      40.672   1.357  -6.343  1.00  0.00     0.041 C 
ATOM     15  O   UNL     1      41.845   1.542  -6.761  1.00  0.00    -0.550 OA
ATOM     16  O   UNL     1      40.152   2.187  -5.359  1.00  0.00    -0.550 OA
ENDBRANCH  13  14
ENDBRANCH  12  13
ENDBRANCH  11  12
ENDBRANCH  10  11
ENDBRANCH   9  10
ENDBRANCH   8   9
ENDBRANCH   7   8
ENDBRANCH   6   7
ENDBRANCH   5   6
ENDBRANCH   4   5
ENDBRANCH   3   4
ENDBRANCH   2   3
ENDBRANCH   1   2
BRANCH   1  17
ATOM     17  C   UNL     1      35.458   5.565  -5.528  1.00  0.00     0.000 C 
BRANCH  17  18
ATOM     18  C   UNL     1      34.675   6.629  -4.743  1.00  0.00     0.000 C 
BRANCH  18  19
ATOM     19  C   UNL     1      35.390   7.990  -4.706  1.00  0.00     0.000 C 
BRANCH  19  20
ATOM     20  C   UNL     1      36.371   8.126  -5.877  1.00  0.00     0.000 C 
BRANCH  20  21
ATOM     21  C   UNL     1      35.731   8.898  -7.041  1.00  0.00     0.000 C 
BRANCH  21  22
ATOM     22  C   UNL     1      35.767   8.111  -8.364  1.00  0.00    -0.000 C 
BRANCH  22  23
ATOM     23  C   UNL     1      34.420   8.043  -9.110  1.00  0.00    -0.000 C 
BRANCH  23  24
ATOM     24  C   UNL     1      33.285   7.331  -8.347  1.00  0.00    -0.000 C 
BRANCH  24  25
ATOM     25  C   UNL     1      32.693   6.121  -9.102  1.00  0.00    -0.000 C 
BRANCH  25  26
ATOM     26  C   UNL     1      31.596   6.530 -10.097  1.00  0.00    -0.000 C 
BRANCH  26  27
ATOM     27  C   UNL     1      30.769   7.704  -9.553  1.00  0.00    -0.000 C 
BRANCH  27  28
ATOM     28  C   UNL     1      29.368   7.274  -9.090  1.00  0.00    -0.000 C 
BRANCH  28  29
ATOM     29  C   UNL     1      28.880   8.066  -7.867  1.00  0.00    -0.003 C 
ATOM     30  C   UNL     1      29.564   7.581  -6.592  1.00  0.00     0.004 C 
ENDBRANCH  28  29
ENDBRANCH  27  28
ENDBRANCH  26  27
ENDBRANCH  25  26
ENDBRANCH  24  25
ENDBRANCH  23  24
ENDBRANCH  22  23
ENDBRANCH  21  22
ENDBRANCH  20  21
ENDBRANCH  19  20
ENDBRANCH  18  19
ENDBRANCH  17  18
ENDBRANCH   1  17
TORSDOF 26
ENDMDL
MODEL 8
REMARK VINA RESULT:    -3.249     11.095     14.470
REMARK INTER + INTRA:         -12.728
REMARK INTER:                  -8.017
REMARK INTRA:                  -4.711
REMARK UNBOUND:                -4.541
REMARK SMILES CCCCCCCCCCCCCCCCCCCCCCCCCCCC(=O)[O-]
REMARK SMILES IDX 15 1 16 2 17 3 18 4 19 5 20 6 21 7 22 8 23 9 24 10 25 11
REMARK SMILES IDX 26 12 27 13 28 14 29 15 30 16 14 17 13 18 12 19 11 20 10 21
REMARK SMILES IDX 9 22 8 23 7 24 6 25 5 26 4 27 3 28 2 29 1 30
REMARK H PARENT
REMARK Flexibility Score: inf
ROOT
ATOM      1  C   UNL     1      38.376   7.129   4.293  1.00  0.00     0.000 C 
ENDROOT
BRANCH   1   2
ATOM      2  C   UNL     1      37.413   8.096   3.571  1.00  0.00     0.000 C 
BRANCH   2   3
ATOM      3  C   UNL     1      36.170   8.422   4.419  1.00  0.00     0.000 C 
BRANCH   3   4
ATOM      4  C   UNL     1      34.877   8.470   3.587  1.00  0.00     0.000 C 
BRANCH   4   5
ATOM      5  C   UNL     1      33.961   7.262   3.852  1.00  0.00     0.000 C 
BRANCH   5   6
ATOM      6  C   UNL     1      34.213   6.606   5.222  1.00  0.00     0.000 C 
BRANCH   6   7
ATOM      7  C   UNL     1      34.151   5.065   5.231  1.00  0.00     0.000 C 
BRANCH   7   8
ATOM      8  C   UNL     1      34.293   4.394   3.851  1.00  0.00     0.000 C 
BRANCH   8   9
ATOM      9  C   UNL     1      33.879   2.909   3.801  1.00  0.00     0.000 C 
BRANCH   9  10
ATOM     10  C   UNL     1      34.257   2.174   2.503  1.00  0.00     0.000 C 
BRANCH  10  11
ATOM     11  C   UNL     1      33.393   2.596   1.306  1.00  0.00     0.000 C 
BRANCH  11  12
ATOM     12  C   UNL     1      31.942   2.130   1.486  1.00  0.00     0.006 C 
BRANCH  12  13
ATOM     13  C   UNL     1      31.877   0.619   1.733  1.00  0.00     0.053 C 
BRANCH  13  14
ATOM     14  C   UNL     1      31.047   0.321   2.942  1.00  0.00     0.041 C 
ATOM     15  O   UNL     1      30.425   1.245   3.529  1.00  0.00    -0.550 OA
ATOM     16  O   UNL     1      30.932  -0.985   3.401  1.00  0.00    -0.550 OA
ENDBRANCH  13  14
ENDBRANCH  12  13
ENDBRANCH  11  12
ENDBRANCH  10  11
ENDBRANCH   9  10
ENDBRANCH   8   9
ENDBRANCH   7   8
ENDBRANCH   6   7
ENDBRANCH   5   6
ENDBRANCH   4   5
ENDBRANCH   3   4
ENDBRANCH   2   3
ENDBRANCH   1   2
BRANCH   1  17
ATOM     17  C   UNL     1      37.783   5.729   4.547  1.00  0.00     0.000 C 
BRANCH  17  18
ATOM     18  C   UNL     1      37.833   5.259   6.009  1.00  0.00     0.000 C 
BRANCH  18  19
ATOM     19  C   UNL     1      38.845   6.048   6.856  1.00  0.00     0.000 C 
BRANCH  19  20
ATOM     20  C   UNL     1      39.860   5.106   7.516  1.00  0.00     0.000 C 
BRANCH  20  21
ATOM     21  C   UNL     1      39.968   3.785   6.741  1.00  0.00     0.000 C 
BRANCH  21  22
ATOM     22  C   UNL     1      41.088   3.808   5.684  1.00  0.00    -0.000 C 
BRANCH  22  23
ATOM     23  C   UNL     1      41.172   2.544   4.807  1.00  0.00    -0.000 C 
BRANCH  23  24
ATOM     24  C   UNL     1      41.178   2.803   3.286  1.00  0.00    -0.000 C 
BRANCH  24  25
ATOM     25  C   UNL     1      39.768   2.875   2.663  1.00  0.00    -0.000 C 
BRANCH  25  26
ATOM     26  C   UNL     1      38.869   1.711   3.108  1.00  0.00    -0.000 C 
BRANCH  26  27
ATOM     27  C   UNL     1      37.732   2.207   4.013  1.00  0.00    -0.000 C 
BRANCH  27  28
ATOM     28  C   UNL     1      37.467   1.266   5.198  1.00  0.00    -0.000 C 
BRANCH  28  29
ATOM     29  C   UNL     1      36.348   1.774   6.119  1.00  0.00    -0.003 C 
ATOM     30  C   UNL     1      36.873   2.029   7.530  1.00  0.00     0.004 C 
ENDBRANCH  28  29
ENDBRANCH  27  28
ENDBRANCH  26  27
ENDBRANCH  25  26
ENDBRANCH  24  25
ENDBRANCH  23  24
ENDBRANCH  22  23
ENDBRANCH  21  22
ENDBRANCH  20  21
ENDBRANCH  19  20
ENDBRANCH  18  19
ENDBRANCH  17  18
ENDBRANCH   1  17
TORSDOF 26
ENDMDL
MODEL 9
REMARK VINA RESULT:    -3.222     11.319     13.969
REMARK INTER + INTRA:         -12.659
REMARK INTER:                  -7.701
REMARK INTRA:                  -4.958
REMARK UNBOUND:                -4.541
REMARK SMILES CCCCCCCCCCCCCCCCCCCCCCCCCCCC(=O)[O-]
REMARK SMILES IDX 15 1 16 2 17 3 18 4 19 5 20 6 21 7 22 8 23 9 24 10 25 11
REMARK SMILES IDX 26 12 27 13 28 14 29 15 30 16 14 17 13 18 12 19 11 20 10 21
REMARK SMILES IDX 9 22 8 23 7 24 6 25 5 26 4 27 3 28 2 29 1 30
REMARK H PARENT
REMARK Flexibility Score: inf
ROOT
ATOM      1  C   UNL     1      42.745   2.002   4.574  1.00  0.00     0.000 C 
ENDROOT
BRANCH   1   2
ATOM      2  C   UNL     1      41.968   1.789   3.257  1.00  0.00     0.000 C 
BRANCH   2   3
ATOM      3  C   UNL     1      40.443   1.831   3.465  1.00  0.00     0.000 C 
BRANCH   3   4
ATOM      4  C   UNL     1      39.809   3.140   2.967  1.00  0.00     0.000 C 
BRANCH   4   5
ATOM      5  C   UNL     1      38.858   3.766   4.002  1.00  0.00     0.000 C 
BRANCH   5   6
ATOM      6  C   UNL     1      38.180   2.720   4.905  1.00  0.00     0.000 C 
BRANCH   6   7
ATOM      7  C   UNL     1      36.656   2.886   5.070  1.00  0.00     0.000 C 
BRANCH   7   8
ATOM      8  C   UNL     1      35.821   2.552   3.818  1.00  0.00     0.000 C 
BRANCH   8   9
ATOM      9  C   UNL     1      35.668   1.047   3.518  1.00  0.00     0.000 C 
BRANCH   9  10
ATOM     10  C   UNL     1      36.635   0.496   2.456  1.00  0.00     0.000 C 
BRANCH  10  11
ATOM     11  C   UNL     1      37.562  -0.598   3.005  1.00  0.00     0.000 C 
BRANCH  11  12
ATOM     12  C   UNL     1      38.716  -0.878   2.034  1.00  0.00     0.006 C 
BRANCH  12  13
ATOM     13  C   UNL     1      38.623   0.020   0.796  1.00  0.00     0.053 C 
BRANCH  13  14
ATOM     14  C   UNL     1      38.526  -0.808  -0.447  1.00  0.00     0.041 C 
ATOM     15  O   UNL     1      37.661  -1.717  -0.538  1.00  0.00    -0.550 OA
ATOM     16  O   UNL     1      39.372  -0.551  -1.519  1.00  0.00    -0.550 OA
ENDBRANCH  13  14
ENDBRANCH  12  13
ENDBRANCH  11  12
ENDBRANCH  10  11
ENDBRANCH   9  10
ENDBRANCH   8   9
ENDBRANCH   7   8
ENDBRANCH   6   7
ENDBRANCH   5   6
ENDBRANCH   4   5
ENDBRANCH   3   4
ENDBRANCH   2   3
ENDBRANCH   1   2
BRANCH   1  17
ATOM     17  C   UNL     1      41.844   2.130   5.818  1.00  0.00     0.000 C 
BRANCH  17  18
ATOM     18  C   UNL     1      41.798   3.533   6.444  1.00  0.00     0.000 C 
BRANCH  18  19
ATOM     19  C   UNL     1      40.572   3.742   7.349  1.00  0.00     0.000 C 
BRANCH  19  20
ATOM     20  C   UNL     1      40.108   5.203   7.314  1.00  0.00     0.000 C 
BRANCH  20  21
ATOM     21  C   UNL     1      38.611   5.311   7.645  1.00  0.00     0.000 C 
BRANCH  21  22
ATOM     22  C   UNL     1      37.829   6.118   6.592  1.00  0.00    -0.000 C 
BRANCH  22  23
ATOM     23  C   UNL     1      38.614   7.283   5.960  1.00  0.00    -0.000 C 
BRANCH  23  24
ATOM     24  C   UNL     1      38.398   7.470   4.444  1.00  0.00    -0.000 C 
BRANCH  24  25
ATOM     25  C   UNL     1      37.030   6.960   3.944  1.00  0.00    -0.000 C 
BRANCH  25  26
ATOM     26  C   UNL     1      35.948   8.050   3.983  1.00  0.00    -0.000 C 
BRANCH  26  27
ATOM     27  C   UNL     1      34.542   7.432   3.953  1.00  0.00    -0.000 C 
BRANCH  27  28
ATOM     28  C   UNL     1      34.560   5.914   4.186  1.00  0.00    -0.000 C 
BRANCH  28  29
ATOM     29  C   UNL     1      33.839   5.504   5.478  1.00  0.00    -0.003 C 
ATOM     30  C   UNL     1      33.838   6.646   6.490  1.00  0.00     0.004 C 
ENDBRANCH  28  29
ENDBRANCH  27  28
ENDBRANCH  26  27
ENDBRANCH  25  26
ENDBRANCH  24  25
ENDBRANCH  23  24
ENDBRANCH  22  23
ENDBRANCH  21  22
ENDBRANCH  20  21
ENDBRANCH  19  20
ENDBRANCH  18  19
ENDBRANCH  17  18
ENDBRANCH   1  17
TORSDOF 26
ENDMDL
