MODEL 1
REMARK VINA RESULT:    -5.068      0.000      0.000
REMARK INTER + INTRA:          -6.228
REMARK INTER:                  -6.253
REMARK INTRA:                   0.026
REMARK UNBOUND:                 0.026
REMARK SMILES Oc1cc(O)c2cc(O)c(-c3cc(O)c(O)c(O)c3)[o+]c2c1
REMARK SMILES IDX 10 1 20 2 21 3 22 4 2 5 3 6 4 7 6 8 7 9 8 10 11 11 12 12
REMARK SMILES IDX 13 13 19 14 15 15 17 16 14 17 16 19 18 21 9 23 1 25 5 27
REMARK H PARENT 14 18 16 20 18 22 9 24 1 26 5 28
REMARK Flexibility Score: inf
ROOT
ATOM      1  C   UNL     1     -44.034  28.325  -3.232  1.00  0.00     0.402 A 
ATOM      2  O   UNL     1     -44.698  27.626  -2.315  1.00  0.00    -0.202 OA
ATOM      3  C   UNL     1     -44.540  27.803  -1.007  1.00  0.00     0.368 A 
ATOM      4  C   UNL     1     -45.281  27.019  -0.120  1.00  0.00     0.162 A 
ATOM      5  C   UNL     1     -45.134  27.181   1.257  1.00  0.00     0.128 A 
ATOM      6  C   UNL     1     -44.240  28.134   1.755  1.00  0.00     0.093 A 
ATOM      7  C   UNL     1     -43.484  28.933   0.887  1.00  0.00     0.136 A 
ATOM      8  C   UNL     1     -43.633  28.773  -0.515  1.00  0.00     0.125 A 
ATOM      9  C   UNL     1     -42.929  29.539  -1.459  1.00  0.00     0.078 A 
ATOM     10  C   UNL     1     -43.133  29.326  -2.826  1.00  0.00     0.223 A 
ENDROOT
BRANCH   1  11
ATOM     11  C   UNL     1     -44.289  28.027  -4.660  1.00  0.00     0.091 A 
ATOM     12  C   UNL     1     -43.208  27.929  -5.548  1.00  0.00     0.068 A 
ATOM     13  C   UNL     1     -43.414  27.669  -6.908  1.00  0.00     0.162 A 
ATOM     14  C   UNL     1     -45.595  27.897  -5.158  1.00  0.00     0.068 A 
ATOM     15  C   UNL     1     -44.732  27.516  -7.398  1.00  0.00     0.200 A 
ATOM     16  C   UNL     1     -45.815  27.637  -6.516  1.00  0.00     0.162 A 
BRANCH  13  17
ATOM     17  O   UNL     1     -42.288  27.574  -7.729  1.00  0.00    -0.504 OA
ATOM     18  H   UNL     1     -42.280  27.815  -8.709  1.00  0.00     0.293 HD
ENDBRANCH  13  17
BRANCH  15  19
ATOM     19  O   UNL     1     -45.007  27.249  -8.742  1.00  0.00    -0.502 OA
ATOM     20  H   UNL     1     -44.384  27.477  -9.503  1.00  0.00     0.293 HD
ENDBRANCH  15  19
BRANCH  16  21
ATOM     21  O   UNL     1     -47.116  27.501  -7.001  1.00  0.00    -0.504 OA
ATOM     22  H   UNL     1     -47.820  26.979  -6.494  1.00  0.00     0.293 HD
ENDBRANCH  16  21
ENDBRANCH   1  11
BRANCH  10  23
ATOM     23  O   UNL     1     -42.470  30.119  -3.763  1.00  0.00    -0.500 OA
ATOM     24  H   UNL     1     -42.082  29.727  -4.613  1.00  0.00     0.294 HD
ENDBRANCH  10  23
BRANCH   5  25
ATOM     25  O   UNL     1     -45.883  26.388   2.125  1.00  0.00    -0.507 OA
ATOM     26  H   UNL     1     -46.088  25.419   1.914  1.00  0.00     0.293 HD
ENDBRANCH   5  25
BRANCH   7  27
ATOM     27  O   UNL     1     -42.611  29.860   1.463  1.00  0.00    -0.507 OA
ATOM     28  H   UNL     1     -42.412  30.772   1.077  1.00  0.00     0.293 HD
ENDBRANCH   7  27
TORSDOF 7
ENDMDL
MODEL 2
REMARK VINA RESULT:    -4.966      1.105      2.507
REMARK INTER + INTRA:          -6.102
REMARK INTER:                  -6.234
REMARK INTRA:                   0.132
REMARK UNBOUND:                 0.026
REMARK SMILES Oc1cc(O)c2cc(O)c(-c3cc(O)c(O)c(O)c3)[o+]c2c1
REMARK SMILES IDX 10 1 20 2 21 3 22 4 2 5 3 6 4 7 6 8 7 9 8 10 11 11 12 12
REMARK SMILES IDX 13 13 19 14 15 15 17 16 14 17 16 19 18 21 9 23 1 25 5 27
REMARK H PARENT 14 18 16 20 18 22 9 24 1 26 5 28
REMARK Flexibility Score: inf
ROOT
ATOM      1  C   UNL     1     -44.922  27.883  -2.956  1.00  0.00     0.402 A 
ATOM      2  O   UNL     1     -43.866  28.365  -2.306  1.00  0.00    -0.202 OA
ATOM      3  C   UNL     1     -43.803  28.454  -0.980  1.00  0.00     0.368 A 
ATOM      4  C   UNL     1     -42.652  28.977  -0.387  1.00  0.00     0.162 A 
ATOM      5  C   UNL     1     -42.559  29.084   1.000  1.00  0.00     0.128 A 
ATOM      6  C   UNL     1     -43.625  28.666   1.804  1.00  0.00     0.093 A 
ATOM      7  C   UNL     1     -44.791  28.138   1.234  1.00  0.00     0.136 A 
ATOM      8  C   UNL     1     -44.887  28.025  -0.177  1.00  0.00     0.125 A 
ATOM      9  C   UNL     1     -46.010  27.495  -0.834  1.00  0.00     0.078 A 
ATOM     10  C   UNL     1     -46.030  27.411  -2.230  1.00  0.00     0.223 A 
ENDROOT
BRANCH   1  11
ATOM     11  C   UNL     1     -44.875  27.847  -4.436  1.00  0.00     0.091 A 
ATOM     12  C   UNL     1     -43.640  27.699  -5.084  1.00  0.00     0.068 A 
ATOM     13  C   UNL     1     -43.557  27.680  -6.481  1.00  0.00     0.162 A 
ATOM     14  C   UNL     1     -46.035  28.013  -5.208  1.00  0.00     0.068 A 
ATOM     15  C   UNL     1     -44.734  27.826  -7.253  1.00  0.00     0.200 A 
ATOM     16  C   UNL     1     -45.967  27.997  -6.607  1.00  0.00     0.162 A 
BRANCH  13  17
ATOM     17  O   UNL     1     -42.293  27.519  -7.055  1.00  0.00    -0.504 OA
ATOM     18  H   UNL     1     -41.613  28.259  -7.141  1.00  0.00     0.293 HD
ENDBRANCH  13  17
BRANCH  15  19
ATOM     19  O   UNL     1     -44.722  27.811  -8.650  1.00  0.00    -0.502 OA
ATOM     20  H   UNL     1     -43.884  27.883  -9.210  1.00  0.00     0.293 HD
ENDBRANCH  15  19
BRANCH  16  21
ATOM     21  O   UNL     1     -47.125  28.156  -7.367  1.00  0.00    -0.504 OA
ATOM     22  H   UNL     1     -48.035  27.890  -7.009  1.00  0.00     0.293 HD
ENDBRANCH  16  21
ENDBRANCH   1  11
BRANCH  10  23
ATOM     23  O   UNL     1     -47.125  26.841  -2.881  1.00  0.00    -0.500 OA
ATOM     24  H   UNL     1     -48.033  26.774  -2.436  1.00  0.00     0.294 HD
ENDBRANCH  10  23
BRANCH   5  25
ATOM     25  O   UNL     1     -41.402  29.609   1.572  1.00  0.00    -0.507 OA
ATOM     26  H   UNL     1     -41.261  30.608   1.660  1.00  0.00     0.293 HD
ENDBRANCH   5  25
BRANCH   7  27
ATOM     27  O   UNL     1     -45.811  27.745   2.105  1.00  0.00    -0.507 OA
ATOM     28  H   UNL     1     -46.414  26.949   1.954  1.00  0.00     0.293 HD
ENDBRANCH   7  27
TORSDOF 7
ENDMDL
MODEL 3
REMARK VINA RESULT:    -4.539      1.625      6.997
REMARK INTER + INTRA:          -5.575
REMARK INTER:                  -5.202
REMARK INTRA:                  -0.373
REMARK UNBOUND:                 0.026
REMARK SMILES Oc1cc(O)c2cc(O)c(-c3cc(O)c(O)c(O)c3)[o+]c2c1
REMARK SMILES IDX 10 1 20 2 21 3 22 4 2 5 3 6 4 7 6 8 7 9 8 10 11 11 12 12
REMARK SMILES IDX 13 13 19 14 15 15 17 16 14 17 16 19 18 21 9 23 1 25 5 27
REMARK H PARENT 14 18 16 20 18 22 9 24 1 26 5 28
REMARK Flexibility Score: inf
ROOT
ATOM      1  C   UNL     1     -44.075  28.568  -3.247  1.00  0.00     0.402 A 
ATOM      2  O   UNL     1     -44.671  27.861  -4.203  1.00  0.00    -0.202 OA
ATOM      3  C   UNL     1     -44.326  27.929  -5.485  1.00  0.00     0.368 A 
ATOM      4  C   UNL     1     -45.014  27.148  -6.417  1.00  0.00     0.162 A 
ATOM      5  C   UNL     1     -44.674  27.202  -7.769  1.00  0.00     0.128 A 
ATOM      6  C   UNL     1     -43.640  28.042  -8.195  1.00  0.00     0.093 A 
ATOM      7  C   UNL     1     -42.936  28.835  -7.281  1.00  0.00     0.136 A 
ATOM      8  C   UNL     1     -43.276  28.781  -5.904  1.00  0.00     0.125 A 
ATOM      9  C   UNL     1     -42.616  29.529  -4.915  1.00  0.00     0.078 A 
ATOM     10  C   UNL     1     -43.005  29.419  -3.577  1.00  0.00     0.223 A 
ENDROOT
BRANCH   1  11
ATOM     11  C   UNL     1     -44.558  28.413  -1.856  1.00  0.00     0.091 A 
ATOM     12  C   UNL     1     -45.604  29.225  -1.394  1.00  0.00     0.068 A 
ATOM     13  C   UNL     1     -46.073  29.120  -0.079  1.00  0.00     0.162 A 
ATOM     14  C   UNL     1     -43.955  27.508  -0.969  1.00  0.00     0.068 A 
ATOM     15  C   UNL     1     -45.474  28.189   0.803  1.00  0.00     0.200 A 
ATOM     16  C   UNL     1     -44.413  27.392   0.349  1.00  0.00     0.162 A 
BRANCH  13  17
ATOM     17  O   UNL     1     -47.124  29.954   0.305  1.00  0.00    -0.504 OA
ATOM     18  H   UNL     1     -48.055  29.629   0.522  1.00  0.00     0.293 HD
ENDBRANCH  13  17
BRANCH  15  19
ATOM     19  O   UNL     1     -45.897  28.028   2.125  1.00  0.00    -0.502 OA
ATOM     20  H   UNL     1     -46.832  27.755   2.391  1.00  0.00     0.293 HD
ENDBRANCH  15  19
BRANCH  16  21
ATOM     21  O   UNL     1     -43.813  26.485   1.223  1.00  0.00    -0.504 OA
ATOM     22  H   UNL     1     -43.633  26.721   2.191  1.00  0.00     0.293 HD
ENDBRANCH  16  21
ENDBRANCH   1  11
BRANCH  10  23
ATOM     23  O   UNL     1     -42.318  30.125  -2.589  1.00  0.00    -0.500 OA
ATOM     24  H   UNL     1     -41.861  31.008  -2.785  1.00  0.00     0.294 HD
ENDBRANCH  10  23
BRANCH   5  25
ATOM     25  O   UNL     1     -45.372  26.415  -8.683  1.00  0.00    -0.507 OA
ATOM     26  H   UNL     1     -46.226  25.933  -8.424  1.00  0.00     0.293 HD
ENDBRANCH   5  25
BRANCH   7  27
ATOM     27  O   UNL     1     -41.919  29.650  -7.786  1.00  0.00    -0.507 OA
ATOM     28  H   UNL     1     -40.948  29.583  -7.515  1.00  0.00     0.293 HD
ENDBRANCH   7  27
TORSDOF 7
ENDMDL
MODEL 4
REMARK VINA RESULT:    -4.446      1.200      3.031
REMARK INTER + INTRA:          -5.460
REMARK INTER:                  -5.846
REMARK INTRA:                   0.386
REMARK UNBOUND:                 0.026
REMARK SMILES Oc1cc(O)c2cc(O)c(-c3cc(O)c(O)c(O)c3)[o+]c2c1
REMARK SMILES IDX 10 1 20 2 21 3 22 4 2 5 3 6 4 7 6 8 7 9 8 10 11 11 12 12
REMARK SMILES IDX 13 13 19 14 15 15 17 16 14 17 16 19 18 21 9 23 1 25 5 27
REMARK H PARENT 14 18 16 20 18 22 9 24 1 26 5 28
REMARK Flexibility Score: inf
ROOT
ATOM      1  C   UNL     1     -44.783  28.053  -2.867  1.00  0.00     0.402 A 
ATOM      2  O   UNL     1     -43.699  28.421  -2.190  1.00  0.00    -0.202 OA
ATOM      3  C   UNL     1     -43.689  28.610  -0.875  1.00  0.00     0.368 A 
ATOM      4  C   UNL     1     -42.501  28.999  -0.252  1.00  0.00     0.162 A 
ATOM      5  C   UNL     1     -42.462  29.207   1.126  1.00  0.00     0.128 A 
ATOM      6  C   UNL     1     -43.619  29.027   1.891  1.00  0.00     0.093 A 
ATOM      7  C   UNL     1     -44.823  28.638   1.292  1.00  0.00     0.136 A 
ATOM      8  C   UNL     1     -44.866  28.423  -0.111  1.00  0.00     0.125 A 
ATOM      9  C   UNL     1     -46.025  28.018  -0.795  1.00  0.00     0.078 A 
ATOM     10  C   UNL     1     -45.988  27.821  -2.178  1.00  0.00     0.223 A 
ENDROOT
BRANCH   1  11
ATOM     11  C   UNL     1     -44.670  27.885  -4.334  1.00  0.00     0.091 A 
ATOM     12  C   UNL     1     -45.834  27.811  -5.113  1.00  0.00     0.068 A 
ATOM     13  C   UNL     1     -45.765  27.632  -6.499  1.00  0.00     0.162 A 
ATOM     14  C   UNL     1     -43.422  27.739  -4.959  1.00  0.00     0.068 A 
ATOM     15  C   UNL     1     -44.502  27.509  -7.125  1.00  0.00     0.200 A 
ATOM     16  C   UNL     1     -43.337  27.559  -6.345  1.00  0.00     0.162 A 
BRANCH  13  17
ATOM     17  O   UNL     1     -46.967  27.579  -7.208  1.00  0.00    -0.504 OA
ATOM     18  H   UNL     1     -47.314  28.328  -7.790  1.00  0.00     0.293 HD
ENDBRANCH  13  17
BRANCH  15  19
ATOM     19  O   UNL     1     -44.361  27.334  -8.504  1.00  0.00    -0.502 OA
ATOM     20  H   UNL     1     -43.484  27.131  -8.962  1.00  0.00     0.293 HD
ENDBRANCH  15  19
BRANCH  16  21
ATOM     21  O   UNL     1     -42.093  27.424  -6.960  1.00  0.00    -0.504 OA
ATOM     22  H   UNL     1     -41.697  28.165  -7.525  1.00  0.00     0.293 HD
ENDBRANCH  16  21
ENDBRANCH   1  11
BRANCH  10  23
ATOM     23  O   UNL     1     -47.125  27.373  -2.851  1.00  0.00    -0.500 OA
ATOM     24  H   UNL     1     -47.506  26.447  -2.694  1.00  0.00     0.294 HD
ENDBRANCH  10  23
BRANCH   5  25
ATOM     25  O   UNL     1     -41.266  29.594   1.728  1.00  0.00    -0.507 OA
ATOM     26  H   UNL     1     -40.374  29.223   1.421  1.00  0.00     0.293 HD
ENDBRANCH   5  25
BRANCH   7  27
ATOM     27  O   UNL     1     -45.935  28.483   2.124  1.00  0.00    -0.507 OA
ATOM     28  H   UNL     1     -46.844  28.172   1.809  1.00  0.00     0.293 HD
ENDBRANCH   7  27
TORSDOF 7
ENDMDL
MODEL 5
REMARK VINA RESULT:    -4.130      1.543      7.466
REMARK INTER + INTRA:          -5.070
REMARK INTER:                  -5.403
REMARK INTRA:                   0.333
REMARK UNBOUND:                 0.026
REMARK SMILES Oc1cc(O)c2cc(O)c(-c3cc(O)c(O)c(O)c3)[o+]c2c1
REMARK SMILES IDX 10 1 20 2 21 3 22 4 2 5 3 6 4 7 6 8 7 9 8 10 11 11 12 12
REMARK SMILES IDX 13 13 19 14 15 15 17 16 14 17 16 19 18 21 9 23 1 25 5 27
REMARK H PARENT 14 18 16 20 18 22 9 24 1 26 5 28
REMARK Flexibility Score: inf
ROOT
ATOM      1  C   UNL     1     -44.781  28.606  -3.403  1.00  0.00     0.402 A 
ATOM      2  O   UNL     1     -43.854  29.017  -4.263  1.00  0.00    -0.202 OA
ATOM      3  C   UNL     1     -44.069  29.126  -5.571  1.00  0.00     0.368 A 
ATOM      4  C   UNL     1     -43.031  29.564  -6.397  1.00  0.00     0.162 A 
ATOM      5  C   UNL     1     -43.227  29.685  -7.772  1.00  0.00     0.128 A 
ATOM      6  C   UNL     1     -44.469  29.364  -8.330  1.00  0.00     0.093 A 
ATOM      7  C   UNL     1     -45.526  28.922  -7.524  1.00  0.00     0.136 A 
ATOM      8  C   UNL     1     -45.331  28.801  -6.123  1.00  0.00     0.125 A 
ATOM      9  C   UNL     1     -46.337  28.379  -5.238  1.00  0.00     0.078 A 
ATOM     10  C   UNL     1     -46.071  28.289  -3.868  1.00  0.00     0.223 A 
ENDROOT
BRANCH   1  11
ATOM     11  C   UNL     1     -44.417  28.517  -1.970  1.00  0.00     0.091 A 
ATOM     12  C   UNL     1     -45.174  27.703  -1.115  1.00  0.00     0.068 A 
ATOM     13  C   UNL     1     -44.871  27.611   0.248  1.00  0.00     0.162 A 
ATOM     14  C   UNL     1     -43.363  29.274  -1.435  1.00  0.00     0.068 A 
ATOM     15  C   UNL     1     -43.792  28.359   0.776  1.00  0.00     0.200 A 
ATOM     16  C   UNL     1     -43.048  29.191  -0.073  1.00  0.00     0.162 A 
BRANCH  13  17
ATOM     17  O   UNL     1     -45.662  26.771   1.035  1.00  0.00    -0.504 OA
ATOM     18  H   UNL     1     -45.598  26.712   2.041  1.00  0.00     0.293 HD
ENDBRANCH  13  17
BRANCH  15  19
ATOM     19  O   UNL     1     -43.432  28.309   2.125  1.00  0.00    -0.502 OA
ATOM     20  H   UNL     1     -43.767  28.955   2.825  1.00  0.00     0.293 HD
ENDBRANCH  15  19
BRANCH  16  21
ATOM     21  O   UNL     1     -41.994  29.941   0.449  1.00  0.00    -0.504 OA
ATOM     22  H   UNL     1     -41.150  30.112  -0.084  1.00  0.00     0.293 HD
ENDBRANCH  16  21
ENDBRANCH   1  11
BRANCH  10  23
ATOM     23  O   UNL     1     -47.082  27.917  -2.982  1.00  0.00    -0.500 OA
ATOM     24  H   UNL     1     -47.003  27.091  -2.400  1.00  0.00     0.294 HD
ENDBRANCH  10  23
BRANCH   5  25
ATOM     25  O   UNL     1     -42.179  30.125  -8.578  1.00  0.00    -0.507 OA
ATOM     26  H   UNL     1     -41.988  29.699  -9.478  1.00  0.00     0.293 HD
ENDBRANCH   5  25
BRANCH   7  27
ATOM     27  O   UNL     1     -46.735  28.619  -8.157  1.00  0.00    -0.507 OA
ATOM     28  H   UNL     1     -47.421  29.307  -8.435  1.00  0.00     0.293 HD
ENDBRANCH   7  27
TORSDOF 7
ENDMDL
MODEL 6
REMARK VINA RESULT:    -3.339      1.785      2.072
REMARK INTER + INTRA:          -4.094
REMARK INTER:                  -4.256
REMARK INTRA:                   0.163
REMARK UNBOUND:                 0.026
REMARK SMILES Oc1cc(O)c2cc(O)c(-c3cc(O)c(O)c(O)c3)[o+]c2c1
REMARK SMILES IDX 10 1 20 2 21 3 22 4 2 5 3 6 4 7 6 8 7 9 8 10 11 11 12 12
REMARK SMILES IDX 13 13 19 14 15 15 17 16 14 17 16 19 18 21 9 23 1 25 5 27
REMARK H PARENT 14 18 16 20 18 22 9 24 1 26 5 28
REMARK Flexibility Score: inf
ROOT
ATOM      1  C   UNL     1     -45.439  28.417  -3.373  1.00  0.00     0.402 A 
ATOM      2  O   UNL     1     -44.856  27.718  -2.404  1.00  0.00    -0.202 OA
ATOM      3  C   UNL     1     -45.088  27.927  -1.111  1.00  0.00     0.368 A 
ATOM      4  C   UNL     1     -44.425  27.142  -0.165  1.00  0.00     0.162 A 
ATOM      5  C   UNL     1     -44.647  27.342   1.197  1.00  0.00     0.128 A 
ATOM      6  C   UNL     1     -45.537  28.334   1.620  1.00  0.00     0.093 A 
ATOM      7  C   UNL     1     -46.214  29.135   0.692  1.00  0.00     0.136 A 
ATOM      8  C   UNL     1     -45.993  28.933  -0.696  1.00  0.00     0.125 A 
ATOM      9  C   UNL     1     -46.637  29.678  -1.697  1.00  0.00     0.078 A 
ATOM     10  C   UNL     1     -46.372  29.418  -3.045  1.00  0.00     0.223 A 
ENDROOT
BRANCH   1  11
ATOM     11  C   UNL     1     -45.090  28.096  -4.776  1.00  0.00     0.091 A 
ATOM     12  C   UNL     1     -43.772  27.738  -5.094  1.00  0.00     0.068 A 
ATOM     13  C   UNL     1     -43.402  27.447  -6.412  1.00  0.00     0.162 A 
ATOM     14  C   UNL     1     -46.037  28.197  -5.807  1.00  0.00     0.068 A 
ATOM     15  C   UNL     1     -44.368  27.528  -7.443  1.00  0.00     0.200 A 
ATOM     16  C   UNL     1     -45.681  27.909  -7.130  1.00  0.00     0.162 A 
BRANCH  13  17
ATOM     17  O   UNL     1     -42.073  27.087  -6.650  1.00  0.00    -0.504 OA
ATOM     18  H   UNL     1     -41.279  27.653  -6.392  1.00  0.00     0.293 HD
ENDBRANCH  13  17
BRANCH  15  19
ATOM     19  O   UNL     1     -44.067  27.246  -8.778  1.00  0.00    -0.502 OA
ATOM     20  H   UNL     1     -43.956  27.950  -9.494  1.00  0.00     0.293 HD
ENDBRANCH  15  19
BRANCH  16  21
ATOM     21  O   UNL     1     -46.630  28.004  -8.148  1.00  0.00    -0.504 OA
ATOM     22  H   UNL     1     -46.526  28.663  -8.910  1.00  0.00     0.293 HD
ENDBRANCH  16  21
ENDBRANCH   1  11
BRANCH  10  23
ATOM     23  O   UNL     1     -47.047  30.124  -4.040  1.00  0.00    -0.500 OA
ATOM     24  H   UNL     1     -46.805  31.081  -4.272  1.00  0.00     0.294 HD
ENDBRANCH  10  23
BRANCH   5  25
ATOM     25  O   UNL     1     -43.976  26.547   2.125  1.00  0.00    -0.507 OA
ATOM     26  H   UNL     1     -42.977  26.389   2.062  1.00  0.00     0.293 HD
ENDBRANCH   5  25
BRANCH   7  27
ATOM     27  O   UNL     1     -47.084  30.106   1.194  1.00  0.00    -0.507 OA
ATOM     28  H   UNL     1     -47.686  30.683   0.623  1.00  0.00     0.293 HD
ENDBRANCH   7  27
TORSDOF 7
ENDMDL
MODEL 7
REMARK VINA RESULT:    -2.911      1.702      7.170
REMARK INTER + INTRA:          -3.567
REMARK INTER:                  -3.275
REMARK INTRA:                  -0.291
REMARK UNBOUND:                 0.026
REMARK SMILES Oc1cc(O)c2cc(O)c(-c3cc(O)c(O)c(O)c3)[o+]c2c1
REMARK SMILES IDX 10 1 20 2 21 3 22 4 2 5 3 6 4 7 6 8 7 9 8 10 11 11 12 12
REMARK SMILES IDX 13 13 19 14 15 15 17 16 14 17 16 19 18 21 9 23 1 25 5 27
REMARK H PARENT 14 18 16 20 18 22 9 24 1 26 5 28
REMARK Flexibility Score: inf
ROOT
ATOM      1  C   UNL     1     -44.814  27.994  -3.463  1.00  0.00     0.402 A 
ATOM      2  O   UNL     1     -45.508  28.764  -4.297  1.00  0.00    -0.202 OA
ATOM      3  C   UNL     1     -45.550  28.564  -5.611  1.00  0.00     0.368 A 
ATOM      4  C   UNL     1     -46.305  29.429  -6.406  1.00  0.00     0.162 A 
ATOM      5  C   UNL     1     -46.365  29.245  -7.788  1.00  0.00     0.128 A 
ATOM      6  C   UNL     1     -45.666  28.189  -8.381  1.00  0.00     0.093 A 
ATOM      7  C   UNL     1     -44.902  27.308  -7.606  1.00  0.00     0.136 A 
ATOM      8  C   UNL     1     -44.840  27.490  -6.199  1.00  0.00     0.125 A 
ATOM      9  C   UNL     1     -44.111  26.649  -5.343  1.00  0.00     0.078 A 
ATOM     10  C   UNL     1     -44.102  26.889  -3.965  1.00  0.00     0.223 A 
ENDROOT
BRANCH   1  11
ATOM     11  C   UNL     1     -44.838  28.326  -2.020  1.00  0.00     0.091 A 
ATOM     12  C   UNL     1     -43.678  28.825  -1.408  1.00  0.00     0.068 A 
ATOM     13  C   UNL     1     -43.658  29.131  -0.043  1.00  0.00     0.162 A 
ATOM     14  C   UNL     1     -45.979  28.099  -1.235  1.00  0.00     0.068 A 
ATOM     15  C   UNL     1     -44.820  28.920   0.737  1.00  0.00     0.200 A 
ATOM     16  C   UNL     1     -45.973  28.400   0.132  1.00  0.00     0.162 A 
BRANCH  13  17
ATOM     17  O   UNL     1     -42.471  29.635   0.493  1.00  0.00    -0.504 OA
ATOM     18  H   UNL     1     -42.164  30.591   0.390  1.00  0.00     0.293 HD
ENDBRANCH  13  17
BRANCH  15  19
ATOM     19  O   UNL     1     -44.870  29.210   2.103  1.00  0.00    -0.502 OA
ATOM     20  H   UNL     1     -44.331  28.722   2.805  1.00  0.00     0.293 HD
ENDBRANCH  15  19
BRANCH  16  21
ATOM     21  O   UNL     1     -47.113  28.178   0.903  1.00  0.00    -0.504 OA
ATOM     22  H   UNL     1     -47.058  28.041   1.905  1.00  0.00     0.293 HD
ENDBRANCH  16  21
ENDBRANCH   1  11
BRANCH  10  23
ATOM     23  O   UNL     1     -43.419  26.026  -3.109  1.00  0.00    -0.500 OA
ATOM     24  H   UNL     1     -43.847  25.662  -2.266  1.00  0.00     0.294 HD
ENDBRANCH  10  23
BRANCH   5  25
ATOM     25  O   UNL     1     -47.124  30.119  -8.564  1.00  0.00    -0.507 OA
ATOM     26  H   UNL     1     -47.524  29.830  -9.449  1.00  0.00     0.293 HD
ENDBRANCH   5  25
BRANCH   7  27
ATOM     27  O   UNL     1     -44.231  26.280  -8.274  1.00  0.00    -0.507 OA
ATOM     28  H   UNL     1     -44.671  25.434  -8.607  1.00  0.00     0.293 HD
ENDBRANCH   7  27
TORSDOF 7
ENDMDL
